MODEL        1
REMARK 921   NORMALIZED FREE ENERGY PREDICTED BY IDOCK:   -7.00 KCAL/MOL
REMARK 922        TOTAL FREE ENERGY PREDICTED BY IDOCK:   -9.75 KCAL/MOL
REMARK 923 INTER-LIGAND FREE ENERGY PREDICTED BY IDOCK:   -9.45 KCAL/MOL
REMARK 924 INTRA-LIGAND FREE ENERGY PREDICTED BY IDOCK:   -0.30 KCAL/MOL
REMARK 927      BINDING AFFINITY PREDICTED BY RF-SCORE:    0.00 PKD
ROOT
HETATM    1  C   UNL     1     -11.993  12.133  69.653  1.00  0.00    -0.351 C  
HETATM    2  C   UNL     1     -11.203  11.043  69.706  1.00  0.00    -0.339 C  
ENDROOT
BRANCH   1   3
HETATM    3  C   UNL     1     -11.657  13.184  68.748  1.00  0.00    -0.308 A  
HETATM    4  N   UNL     1     -11.721  13.170  67.426  1.00  0.00    -0.355 NA 
HETATM    5  N   UNL     1     -11.362  14.855  65.721  1.00  0.00    -0.337 N  
HETATM    6  O   UNL     1     -11.064  16.631  64.298  1.00  0.00    -1.029 OA 
HETATM    7  C   UNL     1     -11.390  14.422  67.025  1.00  0.00    -0.346 A  
HETATM    8  C   UNL     1     -11.095  15.235  68.075  1.00  0.00    -0.312 A  
HETATM    9  C   UNL     1     -11.035  16.183  65.448  1.00  0.00    -0.227 C  
HETATM   10  N   UNL     1     -11.250  14.444  69.188  1.00  0.00    -0.260 NA 
HETATM   11  C   UNL     1     -11.030  14.835  70.560  1.00  0.00    -0.023 C  
HETATM   12  N   UNL     1     -10.652  16.986  66.542  1.00  0.00    -0.229 N  
HETATM   13  C   UNL     1     -10.701  16.599  67.890  1.00  0.00    -0.344 C  
HETATM   14  O   UNL     1     -10.430  17.354  68.818  1.00  0.00    -0.348 OA 
BRANCH  12  15
HETATM   15  C   UNL     1     -10.163  18.331  66.240  1.00  0.00    -0.401 C  
HETATM   16  C   UNL     1      -8.654  18.472  66.385  1.00  0.00    -0.272 C  
ENDBRANCH  12  15
BRANCH   5  17
HETATM   17  C   UNL     1     -11.689  13.940  64.632  1.00  0.00    -0.397 C  
HETATM   18  C   UNL     1     -10.520  13.047  64.248  1.00  0.00    -0.424 C  
ENDBRANCH   5  17
ENDBRANCH   1   3
BRANCH   2  19
HETATM   19  C   UNL     1     -11.462   9.801  70.457  1.00  0.00    -0.370 A  
HETATM   20  C   UNL     1     -12.380   8.546  72.329  1.00  0.00    -0.450 A  
HETATM   21  C   UNL     1     -11.938   7.343  71.770  1.00  0.00    -0.305 A  
HETATM   22  C   UNL     1     -11.219   7.367  70.561  1.00  0.00    -0.274 A  
HETATM   23  C   UNL     1     -10.977   8.593  69.925  1.00  0.00    -0.169 A  
HETATM   24  C   UNL     1     -12.144   9.765  71.677  1.00  0.00    -0.475 A  
BRANCH  22  25
HETATM   25  O   UNL     1     -10.815   6.145  70.084  1.00  0.00    -0.268 OA 
HETATM   26  C   UNL     1     -10.835   5.932  68.680  1.00  0.00    -0.261 C  
ENDBRANCH  22  25
BRANCH  21  27
HETATM   27  O   UNL     1     -12.150   6.100  72.315  1.00  0.00    -0.311 OA 
HETATM   28  C   UNL     1     -11.174   5.583  73.203  1.00  0.00    -0.267 C  
ENDBRANCH  21  27
ENDBRANCH   2  19
TORSDOF 6
ENDMDL
MODEL        2
REMARK 921   NORMALIZED FREE ENERGY PREDICTED BY IDOCK:   -6.63 KCAL/MOL
REMARK 922        TOTAL FREE ENERGY PREDICTED BY IDOCK:   -9.26 KCAL/MOL
REMARK 923 INTER-LIGAND FREE ENERGY PREDICTED BY IDOCK:   -8.79 KCAL/MOL
REMARK 924 INTRA-LIGAND FREE ENERGY PREDICTED BY IDOCK:   -0.47 KCAL/MOL
REMARK 927      BINDING AFFINITY PREDICTED BY RF-SCORE:    0.00 PKD
ROOT
HETATM    1  C   UNL     1     -12.245  10.285  70.304  1.00  0.00    -0.298 C  
HETATM    2  C   UNL     1     -11.300   9.788  71.125  1.00  0.00    -0.459 C  
ENDROOT
BRANCH   1   3
HETATM    3  C   UNL     1     -12.018  11.544  69.674  1.00  0.00    -0.339 A  
HETATM    4  N   UNL     1     -12.262  12.751  70.159  1.00  0.00    -0.289 NA 
HETATM    5  N   UNL     1     -11.818  14.993  69.354  1.00  0.00    -0.318 N  
HETATM    6  O   UNL     1     -11.211  17.007  68.435  1.00  0.00    -0.261 OA 
HETATM    7  C   UNL     1     -11.794  13.626  69.234  1.00  0.00    -0.346 A  
HETATM    8  C   UNL     1     -11.270  12.991  68.150  1.00  0.00    -0.272 A  
HETATM    9  C   UNL     1     -11.272  15.779  68.338  1.00  0.00    -0.362 C  
HETATM   10  N   UNL     1     -11.422  11.652  68.417  1.00  0.00    -0.270 NA 
HETATM   11  C   UNL     1     -11.041  10.555  67.560  1.00  0.00    -0.290 C  
HETATM   12  N   UNL     1     -10.809  15.107  67.188  1.00  0.00    -0.315 N  
HETATM   13  C   UNL     1     -10.732  13.714  67.038  1.00  0.00    -0.278 C  
HETATM   14  O   UNL     1     -10.253  13.168  66.049  1.00  0.00    -0.275 OA 
BRANCH  12  15
HETATM   15  C   UNL     1     -10.379  15.935  66.062  1.00  0.00    -0.348 C  
HETATM   16  C   UNL     1      -8.892  16.261  66.084  1.00  0.00    -0.362 C  
ENDBRANCH  12  15
BRANCH   5  17
HETATM   17  C   UNL     1     -12.392  15.622  70.539  1.00  0.00    -0.403 C  
HETATM   18  C   UNL     1     -11.418  15.670  71.706  1.00  0.00    -0.505 C  
ENDBRANCH   5  17
ENDBRANCH   1   3
BRANCH   2  19
HETATM   19  C   UNL     1     -11.283   8.450  71.746  1.00  0.00    -0.360 A  
HETATM   20  C   UNL     1     -12.036   6.147  71.962  1.00  0.00    -0.310 A  
HETATM   21  C   UNL     1     -11.112   5.915  72.985  1.00  0.00    -0.254 A  
HETATM   22  C   UNL     1     -10.288   6.969  73.421  1.00  0.00    -0.334 A  
HETATM   23  C   UNL     1     -10.390   8.226  72.809  1.00  0.00    -0.330 A  
HETATM   24  C   UNL     1     -12.120   7.404  71.347  1.00  0.00    -0.357 A  
BRANCH  22  25
HETATM   25  O   UNL     1      -9.415   6.661  74.436  1.00  0.00    -0.211 OA 
HETATM   26  C   UNL     1      -8.170   7.343  74.479  1.00  0.00    -0.198 C  
ENDBRANCH  22  25
BRANCH  21  27
HETATM   27  O   UNL     1     -10.932   4.712  73.623  1.00  0.00    -0.275 OA 
HETATM   28  C   UNL     1     -10.312   3.659  72.903  1.00  0.00    -0.166 C  
ENDBRANCH  21  27
ENDBRANCH   2  19
TORSDOF 6
ENDMDL
MODEL        3
REMARK 921   NORMALIZED FREE ENERGY PREDICTED BY IDOCK:   -6.62 KCAL/MOL
REMARK 922        TOTAL FREE ENERGY PREDICTED BY IDOCK:   -9.23 KCAL/MOL
REMARK 923 INTER-LIGAND FREE ENERGY PREDICTED BY IDOCK:   -9.10 KCAL/MOL
REMARK 924 INTRA-LIGAND FREE ENERGY PREDICTED BY IDOCK:   -0.14 KCAL/MOL
REMARK 927      BINDING AFFINITY PREDICTED BY RF-SCORE:    0.00 PKD
ROOT
HETATM    1  C   UNL     1     -10.209  16.577  68.137  1.00  0.00    -0.271 C  
HETATM    2  C   UNL     1      -8.935  16.923  68.407  1.00  0.00    -0.244 C  
ENDROOT
BRANCH   1   3
HETATM    3  C   UNL     1     -10.851  15.611  68.968  1.00  0.00    -0.254 A  
HETATM    4  N   UNL     1     -11.596  15.829  70.040  1.00  0.00    -0.335 NA 
HETATM    5  N   UNL     1     -12.897  14.385  71.488  1.00  0.00    -0.322 N  
HETATM    6  O   UNL     1     -14.129  12.843  72.659  1.00  0.00    -0.562 OA 
HETATM    7  C   UNL     1     -12.055  14.613  70.427  1.00  0.00    -0.319 A  
HETATM    8  C   UNL     1     -11.596  13.614  69.626  1.00  0.00    -0.278 A  
HETATM    9  C   UNL     1     -13.320  13.084  71.759  1.00  0.00    -0.378 C  
HETATM   10  N   UNL     1     -10.809  14.245  68.691  1.00  0.00    -0.246 NA 
HETATM   11  C   UNL     1     -10.070  13.616  67.623  1.00  0.00    -0.242 C  
HETATM   12  N   UNL     1     -12.769  12.054  70.969  1.00  0.00    -0.304 N  
HETATM   13  C   UNL     1     -11.937  12.243  69.855  1.00  0.00    -0.306 C  
HETATM   14  O   UNL     1     -11.537  11.323  69.148  1.00  0.00    -0.259 OA 
BRANCH  12  15
HETATM   15  C   UNL     1     -13.092  10.680  71.348  1.00  0.00    -0.400 C  
HETATM   16  C   UNL     1     -11.864   9.823  71.622  1.00  0.00    -0.429 C  
ENDBRANCH  12  15
BRANCH   5  17
HETATM   17  C   UNL     1     -13.360  15.495  72.316  1.00  0.00    -0.473 C  
HETATM   18  C   UNL     1     -12.514  15.685  73.565  1.00  0.00    -0.669 C  
ENDBRANCH   5  17
ENDBRANCH   1   3
BRANCH   2  19
HETATM   19  C   UNL     1      -8.157  17.998  67.765  1.00  0.00    -0.237 A  
HETATM   20  C   UNL     1      -7.357  19.244  65.834  1.00  0.00    -0.295 A  
HETATM   21  C   UNL     1      -6.669  20.135  66.663  1.00  0.00    -0.222 A  
HETATM   22  C   UNL     1      -6.693  19.938  68.056  1.00  0.00    -0.273 A  
HETATM   23  C   UNL     1      -7.423  18.868  68.591  1.00  0.00    -0.355 A  
HETATM   24  C   UNL     1      -8.095  18.185  66.381  1.00  0.00    -0.291 A  
BRANCH  22  25
HETATM   25  O   UNL     1      -5.985  20.852  68.799  1.00  0.00    -0.351 OA 
HETATM   26  C   UNL     1      -5.645  20.511  70.134  1.00  0.00    -0.332 C  
ENDBRANCH  22  25
BRANCH  21  27
HETATM   27  O   UNL     1      -5.949  21.219  66.225  1.00  0.00    -0.262 OA 
HETATM   28  C   UNL     1      -5.304  21.129  64.964  1.00  0.00    -0.192 C  
ENDBRANCH  21  27
ENDBRANCH   2  19
TORSDOF 6
ENDMDL
MODEL        4
REMARK 921   NORMALIZED FREE ENERGY PREDICTED BY IDOCK:   -6.59 KCAL/MOL
REMARK 922        TOTAL FREE ENERGY PREDICTED BY IDOCK:   -9.21 KCAL/MOL
REMARK 923 INTER-LIGAND FREE ENERGY PREDICTED BY IDOCK:   -8.61 KCAL/MOL
REMARK 924 INTRA-LIGAND FREE ENERGY PREDICTED BY IDOCK:   -0.59 KCAL/MOL
REMARK 927      BINDING AFFINITY PREDICTED BY RF-SCORE:    0.00 PKD
ROOT
HETATM    1  C   UNL     1     -10.617  14.161  68.040  1.00  0.00    -0.241 C  
HETATM    2  C   UNL     1      -9.327  14.396  67.733  1.00  0.00    -0.200 C  
ENDROOT
BRANCH   1   3
HETATM    3  C   UNL     1     -10.958  12.943  68.701  1.00  0.00    -0.261 A  
HETATM    4  N   UNL     1     -10.470  11.734  68.477  1.00  0.00    -0.210 NA 
HETATM    5  N   UNL     1     -10.771   9.587  69.560  1.00  0.00    -0.224 N  
HETATM    6  O   UNL     1     -11.139   7.690  70.799  1.00  0.00    -0.255 OA 
HETATM    7  C   UNL     1     -11.031  10.927  69.411  1.00  0.00    -0.252 A  
HETATM    8  C   UNL     1     -11.889  11.604  70.222  1.00  0.00    -0.326 A  
HETATM    9  C   UNL     1     -11.395   8.879  70.587  1.00  0.00    -0.259 C  
HETATM   10  N   UNL     1     -11.860  12.899  69.764  1.00  0.00    -0.324 NA 
HETATM   11  C   UNL     1     -12.622  14.012  70.278  1.00  0.00    -0.291 C  
HETATM   12  N   UNL     1     -12.342   9.578  71.363  1.00  0.00    -0.341 N  
HETATM   13  C   UNL     1     -12.611  10.952  71.272  1.00  0.00    -0.421 C  
HETATM   14  O   UNL     1     -13.391  11.537  72.017  1.00  0.00    -0.476 OA 
BRANCH  12  15
HETATM   15  C   UNL     1     -13.106   8.801  72.338  1.00  0.00    -0.391 C  
HETATM   16  C   UNL     1     -14.393   8.218  71.774  1.00  0.00    -0.574 C  
ENDBRANCH  12  15
BRANCH   5  17
HETATM   17  C   UNL     1      -9.840   8.910  68.662  1.00  0.00    -0.167 C  
HETATM   18  C   UNL     1     -10.536   8.275  67.468  1.00  0.00    -0.325 C  
ENDBRANCH   5  17
ENDBRANCH   1   3
BRANCH   2  19
HETATM   19  C   UNL     1      -8.761  15.645  67.191  1.00  0.00    -0.233 A  
HETATM   20  C   UNL     1      -6.918  17.067  66.482  1.00  0.00    -0.291 A  
HETATM   21  C   UNL     1      -7.810  18.069  66.089  1.00  0.00    -0.210 A  
HETATM   22  C   UNL     1      -9.191  17.876  66.281  1.00  0.00    -0.185 A  
HETATM   23  C   UNL     1      -9.651  16.676  66.840  1.00  0.00    -0.259 A  
HETATM   24  C   UNL     1      -7.390  15.865  67.028  1.00  0.00    -0.243 A  
BRANCH  22  25
HETATM   25  O   UNL     1      -9.998  18.911  65.876  1.00  0.00    -0.493 OA 
HETATM   26  C   UNL     1     -10.683  19.656  66.872  1.00  0.00    -0.453 C  
ENDBRANCH  22  25
BRANCH  21  27
HETATM   27  O   UNL     1      -7.447  19.263  65.515  1.00  0.00    -0.448 OA 
HETATM   28  C   UNL     1      -6.079  19.465  65.200  1.00  0.00    -0.261 C  
ENDBRANCH  21  27
ENDBRANCH   2  19
TORSDOF 6
ENDMDL
MODEL        5
REMARK 921   NORMALIZED FREE ENERGY PREDICTED BY IDOCK:   -6.59 KCAL/MOL
REMARK 922        TOTAL FREE ENERGY PREDICTED BY IDOCK:   -9.20 KCAL/MOL
REMARK 923 INTER-LIGAND FREE ENERGY PREDICTED BY IDOCK:   -8.68 KCAL/MOL
REMARK 924 INTRA-LIGAND FREE ENERGY PREDICTED BY IDOCK:   -0.52 KCAL/MOL
REMARK 927      BINDING AFFINITY PREDICTED BY RF-SCORE:    0.00 PKD
ROOT
HETATM    1  C   UNL     1     -11.032  14.761  68.278  1.00  0.00    -0.264 C  
HETATM    2  C   UNL     1      -9.815  15.327  68.403  1.00  0.00    -0.216 C  
ENDROOT
BRANCH   1   3
HETATM    3  C   UNL     1     -11.261  13.483  68.870  1.00  0.00    -0.275 A  
HETATM    4  N   UNL     1     -10.722  12.323  68.532  1.00  0.00    -0.231 NA 
HETATM    5  N   UNL     1     -10.834  10.094  69.476  1.00  0.00    -0.239 N  
HETATM    6  O   UNL     1     -11.017   8.099  70.597  1.00  0.00    -0.237 OA 
HETATM    7  C   UNL     1     -11.176  11.423  69.438  1.00  0.00    -0.268 A  
HETATM    8  C   UNL     1     -12.019  11.991  70.344  1.00  0.00    -0.291 A  
HETATM    9  C   UNL     1     -11.351   9.282  70.486  1.00  0.00    -0.258 C  
HETATM   10  N   UNL     1     -12.091  13.314  69.978  1.00  0.00    -0.328 NA 
HETATM   11  C   UNL     1     -12.879  14.341  70.615  1.00  0.00    -0.314 C  
HETATM   12  N   UNL     1     -12.285   9.869  71.364  1.00  0.00    -0.380 N  
HETATM   13  C   UNL     1     -12.635  11.228  71.387  1.00  0.00    -0.351 C  
HETATM   14  O   UNL     1     -13.397  11.714  72.216  1.00  0.00    -0.443 OA 
BRANCH  12  15
HETATM   15  C   UNL     1     -12.941   8.984  72.325  1.00  0.00    -0.424 C  
HETATM   16  C   UNL     1     -14.191   8.313  71.775  1.00  0.00    -0.544 C  
ENDBRANCH  12  15
BRANCH   5  17
HETATM   17  C   UNL     1      -9.925   9.537  68.479  1.00  0.00    -0.167 C  
HETATM   18  C   UNL     1     -10.658   8.825  67.352  1.00  0.00    -0.304 C  
ENDBRANCH   5  17
ENDBRANCH   1   3
BRANCH   2  19
HETATM   19  C   UNL     1      -9.430  16.691  67.996  1.00  0.00    -0.224 A  
HETATM   20  C   UNL     1      -9.471  19.115  68.208  1.00  0.00    -0.408 A  
HETATM   21  C   UNL     1      -8.569  19.247  67.149  1.00  0.00    -0.287 A  
HETATM   22  C   UNL     1      -8.118  18.095  66.479  1.00  0.00    -0.269 A  
HETATM   23  C   UNL     1      -8.561  16.833  66.899  1.00  0.00    -0.240 A  
HETATM   24  C   UNL     1      -9.897  17.846  68.629  1.00  0.00    -0.375 A  
BRANCH  22  25
HETATM   25  O   UNL     1      -7.241  18.312  65.444  1.00  0.00    -0.541 OA 
HETATM   26  C   UNL     1      -5.866  18.035  65.662  1.00  0.00    -0.183 C  
ENDBRANCH  22  25
BRANCH  21  27
HETATM   27  O   UNL     1      -8.069  20.440  66.688  1.00  0.00    -0.267 OA 
HETATM   28  C   UNL     1      -7.035  21.064  67.431  1.00  0.00    -0.354 C  
ENDBRANCH  21  27
ENDBRANCH   2  19
TORSDOF 6
ENDMDL
MODEL        6
REMARK 921   NORMALIZED FREE ENERGY PREDICTED BY IDOCK:   -6.54 KCAL/MOL
REMARK 922        TOTAL FREE ENERGY PREDICTED BY IDOCK:   -9.13 KCAL/MOL
REMARK 923 INTER-LIGAND FREE ENERGY PREDICTED BY IDOCK:   -8.63 KCAL/MOL
REMARK 924 INTRA-LIGAND FREE ENERGY PREDICTED BY IDOCK:   -0.50 KCAL/MOL
REMARK 927      BINDING AFFINITY PREDICTED BY RF-SCORE:    0.00 PKD
ROOT
HETATM    1  C   UNL     1     -11.982  10.880  69.417  1.00  0.00    -0.393 C  
HETATM    2  C   UNL     1     -11.021  10.249  70.121  1.00  0.00    -0.377 C  
ENDROOT
BRANCH   1   3
HETATM    3  C   UNL     1     -11.649  12.077  68.716  1.00  0.00    -0.311 A  
HETATM    4  N   UNL     1     -11.287  12.202  67.449  1.00  0.00    -0.304 NA 
HETATM    5  N   UNL     1     -10.837  14.110  66.023  1.00  0.00    -0.293 N  
HETATM    6  O   UNL     1     -10.554  16.060  64.847  1.00  0.00    -0.587 OA 
HETATM    7  C   UNL     1     -11.167  13.534  67.226  1.00  0.00    -0.298 A  
HETATM    8  C   UNL     1     -11.430  14.265  68.343  1.00  0.00    -0.301 A  
HETATM    9  C   UNL     1     -10.780  15.500  65.923  1.00  0.00    -0.339 C  
HETATM   10  N   UNL     1     -11.727  13.336  69.311  1.00  0.00    -0.308 NA 
HETATM   11  C   UNL     1     -12.056  13.605  70.690  1.00  0.00    -0.323 C  
HETATM   12  N   UNL     1     -10.974  16.236  67.110  1.00  0.00    -0.188 N  
HETATM   13  C   UNL     1     -11.349  15.694  68.349  1.00  0.00    -0.364 C  
HETATM   14  O   UNL     1     -11.581  16.378  69.341  1.00  0.00    -0.225 OA 
BRANCH  12  15
HETATM   15  C   UNL     1     -10.764  17.681  67.038  1.00  0.00    -0.174 C  
HETATM   16  C   UNL     1      -9.342  18.103  67.376  1.00  0.00    -0.254 C  
ENDBRANCH  12  15
BRANCH   5  17
HETATM   17  C   UNL     1     -10.565  13.277  64.855  1.00  0.00    -0.366 C  
HETATM   18  C   UNL     1     -11.803  13.043  64.004  1.00  0.00    -0.510 C  
ENDBRANCH   5  17
ENDBRANCH   1   3
BRANCH   2  19
HETATM   19  C   UNL     1     -11.129   8.936  70.782  1.00  0.00    -0.312 A  
HETATM   20  C   UNL     1     -11.819   6.605  70.883  1.00  0.00    -0.434 A  
HETATM   21  C   UNL     1     -11.219   6.456  72.136  1.00  0.00    -0.279 A  
HETATM   22  C   UNL     1     -10.599   7.566  72.740  1.00  0.00    -0.313 A  
HETATM   23  C   UNL     1     -10.571   8.794  72.066  1.00  0.00    -0.414 A  
HETATM   24  C   UNL     1     -11.773   7.835  70.211  1.00  0.00     0.031 A  
BRANCH  22  25
HETATM   25  O   UNL     1     -10.042   7.338  73.975  1.00  0.00    -0.307 OA 
HETATM   26  C   UNL     1      -8.652   7.578  74.138  1.00  0.00    -0.230 C  
ENDBRANCH  22  25
BRANCH  21  27
HETATM   27  O   UNL     1     -11.182   5.286  72.855  1.00  0.00    -0.279 OA 
HETATM   28  C   UNL     1     -10.240   4.296  72.474  1.00  0.00    -0.174 C  
ENDBRANCH  21  27
ENDBRANCH   2  19
TORSDOF 6
ENDMDL
MODEL        7
REMARK 921   NORMALIZED FREE ENERGY PREDICTED BY IDOCK:   -6.48 KCAL/MOL
REMARK 922        TOTAL FREE ENERGY PREDICTED BY IDOCK:   -9.05 KCAL/MOL
REMARK 923 INTER-LIGAND FREE ENERGY PREDICTED BY IDOCK:   -8.55 KCAL/MOL
REMARK 924 INTRA-LIGAND FREE ENERGY PREDICTED BY IDOCK:   -0.51 KCAL/MOL
REMARK 927      BINDING AFFINITY PREDICTED BY RF-SCORE:    0.00 PKD
ROOT
HETATM    1  C   UNL     1     -11.024  11.522  66.948  1.00  0.00    -0.350 C  
HETATM    2  C   UNL     1     -10.811  10.729  68.017  1.00  0.00    -0.302 C  
ENDROOT
BRANCH   1   3
HETATM    3  C   UNL     1     -10.962  12.938  67.118  1.00  0.00    -0.262 A  
HETATM    4  N   UNL     1     -10.930  13.619  68.252  1.00  0.00    -0.245 NA 
HETATM    5  N   UNL     1     -10.667  15.970  68.778  1.00  0.00    -0.265 N  
HETATM    6  O   UNL     1     -10.310  18.223  69.034  1.00  0.00    -0.320 OA 
HETATM    7  C   UNL     1     -10.780  14.920  67.900  1.00  0.00    -0.265 A  
HETATM    8  C   UNL     1     -10.735  15.083  66.550  1.00  0.00    -0.312 A  
HETATM    9  C   UNL     1     -10.484  17.261  68.281  1.00  0.00    -0.385 C  
HETATM   10  N   UNL     1     -10.865  13.814  66.037  1.00  0.00    -0.281 NA 
HETATM   11  C   UNL     1     -10.901  13.450  64.641  1.00  0.00    -0.392 C  
HETATM   12  N   UNL     1     -10.523  17.419  66.881  1.00  0.00    -0.310 N  
HETATM   13  C   UNL     1     -10.598  16.374  65.947  1.00  0.00    -0.285 C  
HETATM   14  O   UNL     1     -10.554  16.549  64.734  1.00  0.00    -0.684 OA 
BRANCH  12  15
HETATM   15  C   UNL     1     -10.484  18.787  66.365  1.00  0.00    -0.429 C  
HETATM   16  C   UNL     1      -9.074  19.345  66.235  1.00  0.00    -0.380 C  
ENDBRANCH  12  15
BRANCH   5  17
HETATM   17  C   UNL     1     -10.722  15.739  70.218  1.00  0.00    -0.329 C  
HETATM   18  C   UNL     1     -12.143  15.752  70.759  1.00  0.00    -0.448 C  
ENDBRANCH   5  17
ENDBRANCH   1   3
BRANCH   2  19
HETATM   19  C   UNL     1     -10.686   9.260  68.015  1.00  0.00    -0.231 A  
HETATM   20  C   UNL     1     -10.350   7.110  66.926  1.00  0.00    -0.349 A  
HETATM   21  C   UNL     1     -10.410   6.450  68.156  1.00  0.00    -0.192 A  
HETATM   22  C   UNL     1     -10.646   7.194  69.327  1.00  0.00    -0.221 A  
HETATM   23  C   UNL     1     -10.795   8.585  69.244  1.00  0.00    -0.072 A  
HETATM   24  C   UNL     1     -10.486   8.504  66.856  1.00  0.00    -0.345 A  
BRANCH  22  25
HETATM   25  O   UNL     1     -10.699   6.470  70.493  1.00  0.00    -0.229 OA 
HETATM   26  C   UNL     1     -11.890   6.525  71.263  1.00  0.00    -0.329 C  
ENDBRANCH  22  25
BRANCH  21  27
HETATM   27  O   UNL     1     -10.254   5.097  68.330  1.00  0.00    -0.164 OA 
HETATM   28  C   UNL     1      -9.427   4.395  67.415  1.00  0.00    -0.171 C  
ENDBRANCH  21  27
ENDBRANCH   2  19
TORSDOF 6
ENDMDL
MODEL        8
REMARK 921   NORMALIZED FREE ENERGY PREDICTED BY IDOCK:   -6.46 KCAL/MOL
REMARK 922        TOTAL FREE ENERGY PREDICTED BY IDOCK:   -9.03 KCAL/MOL
REMARK 923 INTER-LIGAND FREE ENERGY PREDICTED BY IDOCK:   -8.51 KCAL/MOL
REMARK 924 INTRA-LIGAND FREE ENERGY PREDICTED BY IDOCK:   -0.53 KCAL/MOL
REMARK 927      BINDING AFFINITY PREDICTED BY RF-SCORE:    0.00 PKD
ROOT
HETATM    1  C   UNL     1     -10.961  11.775  66.585  1.00  0.00    -0.342 C  
HETATM    2  C   UNL     1     -10.028  10.970  67.129  1.00  0.00    -0.218 C  
ENDROOT
BRANCH   1   3
HETATM    3  C   UNL     1     -10.921  13.171  66.876  1.00  0.00    -0.276 A  
HETATM    4  N   UNL     1     -10.811  13.751  68.061  1.00  0.00    -0.245 NA 
HETATM    5  N   UNL     1     -10.564  16.053  68.775  1.00  0.00    -0.247 N  
HETATM    6  O   UNL     1     -10.244  18.285  69.204  1.00  0.00    -0.331 OA 
HETATM    7  C   UNL     1     -10.724  15.082  67.818  1.00  0.00    -0.278 A  
HETATM    8  C   UNL     1     -10.797  15.364  66.489  1.00  0.00    -0.298 A  
HETATM    9  C   UNL     1     -10.456  17.388  68.384  1.00  0.00    -0.384 C  
HETATM   10  N   UNL     1     -10.939  14.142  65.875  1.00  0.00    -0.293 NA 
HETATM   11  C   UNL     1     -11.083  13.901  64.460  1.00  0.00    -0.366 C  
HETATM   12  N   UNL     1     -10.617  17.668  67.011  1.00  0.00    -0.300 N  
HETATM   13  C   UNL     1     -10.745  16.707  65.996  1.00  0.00    -0.151 C  
HETATM   14  O   UNL     1     -10.809  16.990  64.804  1.00  0.00    -0.820 OA 
BRANCH  12  15
HETATM   15  C   UNL     1     -10.657  19.076  66.620  1.00  0.00    -0.416 C  
HETATM   16  C   UNL     1      -9.283  19.662  66.327  1.00  0.00    -0.437 C  
ENDBRANCH  12  15
BRANCH   5  17
HETATM   17  C   UNL     1     -10.491  15.694  70.188  1.00  0.00    -0.303 C  
HETATM   18  C   UNL     1     -11.851  15.709  70.866  1.00  0.00    -0.428 C  
ENDBRANCH   5  17
ENDBRANCH   1   3
BRANCH   2  19
HETATM   19  C   UNL     1      -9.814   9.541  66.834  1.00  0.00    -0.262 A  
HETATM   20  C   UNL     1      -8.687   7.701  65.710  1.00  0.00    -0.151 A  
HETATM   21  C   UNL     1      -9.468   6.770  66.399  1.00  0.00    -0.119 A  
HETATM   22  C   UNL     1     -10.459   7.224  67.288  1.00  0.00    -0.310 A  
HETATM   23  C   UNL     1     -10.631   8.601  67.487  1.00  0.00    -0.292 A  
HETATM   24  C   UNL     1      -8.858   9.076  65.926  1.00  0.00    -0.210 A  
BRANCH  22  25
HETATM   25  O   UNL     1     -11.188   6.246  67.918  1.00  0.00    -0.323 OA 
HETATM   26  C   UNL     1     -11.215   6.237  69.338  1.00  0.00    -0.420 C  
ENDBRANCH  22  25
BRANCH  21  27
HETATM   27  O   UNL     1      -9.352   5.406  66.280  1.00  0.00    -0.146 OA 
HETATM   28  C   UNL     1      -8.539   4.892  65.237  1.00  0.00    -0.142 C  
ENDBRANCH  21  27
ENDBRANCH   2  19
TORSDOF 6
ENDMDL
MODEL        9
REMARK 921   NORMALIZED FREE ENERGY PREDICTED BY IDOCK:   -6.32 KCAL/MOL
REMARK 922        TOTAL FREE ENERGY PREDICTED BY IDOCK:   -8.84 KCAL/MOL
REMARK 923 INTER-LIGAND FREE ENERGY PREDICTED BY IDOCK:   -8.37 KCAL/MOL
REMARK 924 INTRA-LIGAND FREE ENERGY PREDICTED BY IDOCK:   -0.47 KCAL/MOL
REMARK 927      BINDING AFFINITY PREDICTED BY RF-SCORE:    0.00 PKD
ROOT
HETATM    1  C   UNL     1     -11.950  10.191  70.124  1.00  0.00    -0.262 C  
HETATM    2  C   UNL     1     -10.948   9.703  70.882  1.00  0.00    -0.412 C  
ENDROOT
BRANCH   1   3
HETATM    3  C   UNL     1     -11.801  11.481  69.531  1.00  0.00    -0.351 A  
HETATM    4  N   UNL     1     -12.149  12.652  70.037  1.00  0.00    -0.304 NA 
HETATM    5  N   UNL     1     -11.854  14.942  69.300  1.00  0.00    -0.313 N  
HETATM    6  O   UNL     1     -11.376  17.019  68.449  1.00  0.00    -0.170 OA 
HETATM    7  C   UNL     1     -11.723  13.583  69.149  1.00  0.00    -0.327 A  
HETATM    8  C   UNL     1     -11.121  13.019  68.066  1.00  0.00    -0.260 A  
HETATM    9  C   UNL     1     -11.341  15.792  68.321  1.00  0.00    -0.354 C  
HETATM   10  N   UNL     1     -11.178  11.665  68.297  1.00  0.00    -0.238 NA 
HETATM   11  C   UNL     1     -10.691  10.623  67.426  1.00  0.00    -0.276 C  
HETATM   12  N   UNL     1     -10.795  15.188  67.170  1.00  0.00    -0.315 N  
HETATM   13  C   UNL     1     -10.608  13.809  66.989  1.00  0.00    -0.278 C  
HETATM   14  O   UNL     1     -10.060  13.327  66.002  1.00  0.00    -0.288 OA 
BRANCH  12  15
HETATM   15  C   UNL     1     -10.396  16.075  66.078  1.00  0.00    -0.351 C  
HETATM   16  C   UNL     1      -8.948  16.534  66.169  1.00  0.00    -0.344 C  
ENDBRANCH  12  15
BRANCH   5  17
HETATM   17  C   UNL     1     -12.509  15.494  70.482  1.00  0.00    -0.427 C  
HETATM   18  C   UNL     1     -11.525  15.826  71.594  1.00  0.00    -0.495 C  
ENDBRANCH   5  17
ENDBRANCH   1   3
BRANCH   2  19
HETATM   19  C   UNL     1     -10.851   8.346  71.450  1.00  0.00    -0.304 A  
HETATM   20  C   UNL     1     -10.848   6.759  73.294  1.00  0.00    -0.302 A  
HETATM   21  C   UNL     1     -10.705   5.690  72.406  1.00  0.00    -0.237 A  
HETATM   22  C   UNL     1     -10.596   5.949  71.027  1.00  0.00    -0.250 A  
HETATM   23  C   UNL     1     -10.657   7.271  70.565  1.00  0.00    -0.237 A  
HETATM   24  C   UNL     1     -10.921   8.077  72.820  1.00  0.00    -0.449 A  
BRANCH  22  25
HETATM   25  O   UNL     1     -10.450   4.845  70.223  1.00  0.00    -0.234 OA 
HETATM   26  C   UNL     1      -9.877   5.024  68.936  1.00  0.00    -0.175 C  
ENDBRANCH  22  25
BRANCH  21  27
HETATM   27  O   UNL     1     -10.658   4.367  72.771  1.00  0.00    -0.188 OA 
HETATM   28  C   UNL     1     -10.566   4.056  74.151  1.00  0.00    -0.227 C  
ENDBRANCH  21  27
ENDBRANCH   2  19
TORSDOF 6
ENDMDL
MODEL       10
REMARK 921   NORMALIZED FREE ENERGY PREDICTED BY IDOCK:   -6.30 KCAL/MOL
REMARK 922        TOTAL FREE ENERGY PREDICTED BY IDOCK:   -8.81 KCAL/MOL
REMARK 923 INTER-LIGAND FREE ENERGY PREDICTED BY IDOCK:   -8.29 KCAL/MOL
REMARK 924 INTRA-LIGAND FREE ENERGY PREDICTED BY IDOCK:   -0.52 KCAL/MOL
REMARK 927      BINDING AFFINITY PREDICTED BY RF-SCORE:    0.00 PKD
ROOT
HETATM    1  C   UNL     1     -11.872  12.442  69.197  1.00  0.00    -0.352 C  
HETATM    2  C   UNL     1     -10.812  13.104  68.694  1.00  0.00    -0.287 C  
ENDROOT
BRANCH   1   3
HETATM    3  C   UNL     1     -11.708  11.083  69.599  1.00  0.00    -0.329 A  
HETATM    4  N   UNL     1     -11.043  10.125  68.973  1.00  0.00    -0.222 NA 
HETATM    5  N   UNL     1     -10.502   7.830  69.532  1.00  0.00    -0.223 N  
HETATM    6  O   UNL     1     -10.034   5.724  70.316  1.00  0.00    -0.178 OA 
HETATM    7  C   UNL     1     -11.097   9.042  69.786  1.00  0.00    -0.104 A  
HETATM    8  C   UNL     1     -11.807   9.288  70.920  1.00  0.00    -0.282 A  
HETATM    9  C   UNL     1     -10.609   6.805  70.472  1.00  0.00    -0.225 C  
HETATM   10  N   UNL     1     -12.216  10.595  70.803  1.00  0.00    -0.341 NA 
HETATM   11  C   UNL     1     -13.026  11.331  71.744  1.00  0.00    -0.414 C  
HETATM   12  N   UNL     1     -11.417   7.053  71.601  1.00  0.00    -0.255 N  
HETATM   13  C   UNL     1     -12.011   8.284  71.919  1.00  0.00    -0.330 C  
HETATM   14  O   UNL     1     -12.646   8.479  72.951  1.00  0.00    -0.266 OA 
BRANCH  12  15
HETATM   15  C   UNL     1     -11.653   5.931  72.509  1.00  0.00    -0.277 C  
HETATM   16  C   UNL     1     -10.580   5.781  73.578  1.00  0.00    -0.295 C  
ENDBRANCH  12  15
BRANCH   5  17
HETATM   17  C   UNL     1      -9.751   7.619  68.298  1.00  0.00    -0.157 C  
HETATM   18  C   UNL     1     -10.625   7.115  67.161  1.00  0.00    -0.417 C  
ENDBRANCH   5  17
ENDBRANCH   1   3
BRANCH   2  19
HETATM   19  C   UNL     1     -10.742  14.540  68.366  1.00  0.00    -0.246 A  
HETATM   20  C   UNL     1     -10.636  16.899  68.951  1.00  0.00    -0.353 A  
HETATM   21  C   UNL     1     -10.551  17.254  67.602  1.00  0.00    -0.350 A  
HETATM   22  C   UNL     1     -10.599  16.249  66.619  1.00  0.00    -0.252 A  
HETATM   23  C   UNL     1     -10.707  14.907  67.008  1.00  0.00    -0.307 A  
HETATM   24  C   UNL     1     -10.729  15.552  69.329  1.00  0.00    -0.245 A  
BRANCH  22  25
HETATM   25  O   UNL     1     -10.519  16.682  65.318  1.00  0.00    -0.612 OA 
HETATM   26  C   UNL     1     -11.381  16.089  64.359  1.00  0.00    -0.245 C  
ENDBRANCH  22  25
BRANCH  21  27
HETATM   27  O   UNL     1     -10.423  18.540  67.135  1.00  0.00    -0.380 OA 
HETATM   28  C   UNL     1      -9.673  19.462  67.910  1.00  0.00    -0.352 C  
ENDBRANCH  21  27
ENDBRANCH   2  19
TORSDOF 6
ENDMDL
MODEL       11
REMARK 921   NORMALIZED FREE ENERGY PREDICTED BY IDOCK:   -6.24 KCAL/MOL
REMARK 922        TOTAL FREE ENERGY PREDICTED BY IDOCK:   -8.73 KCAL/MOL
REMARK 923 INTER-LIGAND FREE ENERGY PREDICTED BY IDOCK:   -8.18 KCAL/MOL
REMARK 924 INTRA-LIGAND FREE ENERGY PREDICTED BY IDOCK:   -0.55 KCAL/MOL
REMARK 927      BINDING AFFINITY PREDICTED BY RF-SCORE:    0.00 PKD
ROOT
HETATM    1  C   UNL     1     -10.716  14.199  67.901  1.00  0.00    -0.245 C  
HETATM    2  C   UNL     1      -9.664  14.927  68.326  1.00  0.00    -0.215 C  
ENDROOT
BRANCH   1   3
HETATM    3  C   UNL     1     -11.035  12.987  68.583  1.00  0.00    -0.265 A  
HETATM    4  N   UNL     1     -10.550  11.776  68.357  1.00  0.00    -0.208 NA 
HETATM    5  N   UNL     1     -10.816   9.639  69.469  1.00  0.00    -0.232 N  
HETATM    6  O   UNL     1     -11.145   7.754  70.736  1.00  0.00    -0.249 OA 
HETATM    7  C   UNL     1     -11.083  10.978  69.315  1.00  0.00    -0.254 A  
HETATM    8  C   UNL     1     -11.920  11.660  70.142  1.00  0.00    -0.359 A  
HETATM    9  C   UNL     1     -11.409   8.940  70.520  1.00  0.00    -0.234 C  
HETATM   10  N   UNL     1     -11.907  12.951  69.671  1.00  0.00    -0.326 NA 
HETATM   11  C   UNL     1     -12.657  14.067  70.196  1.00  0.00    -0.251 C  
HETATM   12  N   UNL     1     -12.336   9.644  71.315  1.00  0.00    -0.337 N  
HETATM   13  C   UNL     1     -12.611  11.017  71.218  1.00  0.00    -0.412 C  
HETATM   14  O   UNL     1     -13.371  11.608  71.979  1.00  0.00    -0.481 OA 
BRANCH  12  15
HETATM   15  C   UNL     1     -13.071   8.875  72.319  1.00  0.00    -0.436 C  
HETATM   16  C   UNL     1     -14.378   8.294  71.799  1.00  0.00    -0.574 C  
ENDBRANCH  12  15
BRANCH   5  17
HETATM   17  C   UNL     1      -9.908   8.956  68.552  1.00  0.00    -0.167 C  
HETATM   18  C   UNL     1     -10.614   8.438  67.308  1.00  0.00    -0.328 C  
ENDBRANCH   5  17
ENDBRANCH   1   3
BRANCH   2  19
HETATM   19  C   UNL     1      -9.269  16.267  67.853  1.00  0.00    -0.201 A  
HETATM   20  C   UNL     1      -9.504  18.222  66.425  1.00  0.00    -0.290 A  
HETATM   21  C   UNL     1      -8.445  18.858  67.080  1.00  0.00    -0.276 A  
HETATM   22  C   UNL     1      -7.765  18.181  68.109  1.00  0.00    -0.274 A  
HETATM   23  C   UNL     1      -8.173  16.891  68.476  1.00  0.00    -0.249 A  
HETATM   24  C   UNL     1      -9.913  16.937  66.809  1.00  0.00    -0.291 A  
BRANCH  22  25
HETATM   25  O   UNL     1      -6.733  18.871  68.696  1.00  0.00    -0.250 OA 
HETATM   26  C   UNL     1      -5.925  18.191  69.645  1.00  0.00    -0.244 C  
ENDBRANCH  22  25
BRANCH  21  27
HETATM   27  O   UNL     1      -7.995  20.125  66.799  1.00  0.00    -0.294 OA 
HETATM   28  C   UNL     1      -7.250  20.322  65.609  1.00  0.00    -0.235 C  
ENDBRANCH  21  27
ENDBRANCH   2  19
TORSDOF 6
ENDMDL
MODEL       12
REMARK 921   NORMALIZED FREE ENERGY PREDICTED BY IDOCK:   -6.23 KCAL/MOL
REMARK 922        TOTAL FREE ENERGY PREDICTED BY IDOCK:   -8.71 KCAL/MOL
REMARK 923 INTER-LIGAND FREE ENERGY PREDICTED BY IDOCK:   -8.16 KCAL/MOL
REMARK 924 INTRA-LIGAND FREE ENERGY PREDICTED BY IDOCK:   -0.55 KCAL/MOL
REMARK 927      BINDING AFFINITY PREDICTED BY RF-SCORE:    0.00 PKD
ROOT
HETATM    1  C   UNL     1     -10.826  10.004  70.094  1.00  0.00    -0.365 C  
HETATM    2  C   UNL     1     -10.741   8.660  70.040  1.00  0.00    -0.233 C  
ENDROOT
BRANCH   1   3
HETATM    3  C   UNL     1     -10.877  10.741  68.874  1.00  0.00    -0.227 A  
HETATM    4  N   UNL     1     -10.471  10.355  67.674  1.00  0.00    -0.215 NA 
HETATM    5  N   UNL     1     -10.601  11.352  65.469  1.00  0.00    -0.274 N  
HETATM    6  O   UNL     1     -10.923  12.445  63.477  1.00  0.00    -0.437 OA 
HETATM    7  C   UNL     1     -10.811  11.357  66.826  1.00  0.00    -0.286 A  
HETATM    8  C   UNL     1     -11.415  12.391  67.473  1.00  0.00    -0.346 A  
HETATM    9  C   UNL     1     -11.031  12.438  64.707  1.00  0.00    -0.301 C  
HETATM   10  N   UNL     1     -11.449  12.010  68.793  1.00  0.00    -0.274 NA 
HETATM   11  C   UNL     1     -11.974  12.778  69.897  1.00  0.00    -0.298 C  
HETATM   12  N   UNL     1     -11.578  13.534  65.404  1.00  0.00    -0.310 N  
HETATM   13  C   UNL     1     -11.846  13.568  66.781  1.00  0.00    -0.406 C  
HETATM   14  O   UNL     1     -12.392  14.515  67.339  1.00  0.00    -0.260 OA 
BRANCH  12  15
HETATM   15  C   UNL     1     -11.888  14.731  64.624  1.00  0.00    -0.436 C  
HETATM   16  C   UNL     1     -10.818  15.810  64.720  1.00  0.00    -0.365 C  
ENDBRANCH  12  15
BRANCH   5  17
HETATM   17  C   UNL     1      -9.949  10.215  64.827  1.00  0.00    -0.264 C  
HETATM   18  C   UNL     1      -8.445  10.399  64.700  1.00  0.00    -0.176 C  
ENDBRANCH   5  17
ENDBRANCH   1   3
BRANCH   2  19
HETATM   19  C   UNL     1     -10.826   7.723  71.175  1.00  0.00    -0.254 A  
HETATM   20  C   UNL     1     -11.732   5.778  72.323  1.00  0.00    -0.265 A  
HETATM   21  C   UNL     1     -10.851   5.968  73.391  1.00  0.00    -0.231 A  
HETATM   22  C   UNL     1      -9.972   7.066  73.373  1.00  0.00    -0.259 A  
HETATM   23  C   UNL     1      -9.977   7.938  72.275  1.00  0.00    -0.280 A  
HETATM   24  C   UNL     1     -11.719   6.649  71.223  1.00  0.00    -0.386 A  
BRANCH  22  25
HETATM   25  O   UNL     1      -9.146   7.186  74.463  1.00  0.00    -0.211 OA 
HETATM   26  C   UNL     1      -7.975   7.979  74.334  1.00  0.00    -0.248 C  
ENDBRANCH  22  25
BRANCH  21  27
HETATM   27  O   UNL     1     -10.766   5.152  74.493  1.00  0.00    -0.343 OA 
HETATM   28  C   UNL     1     -10.463   3.782  74.289  1.00  0.00    -0.213 C  
ENDBRANCH  21  27
ENDBRANCH   2  19
TORSDOF 6
ENDMDL
MODEL       13
REMARK 921   NORMALIZED FREE ENERGY PREDICTED BY IDOCK:   -6.23 KCAL/MOL
REMARK 922        TOTAL FREE ENERGY PREDICTED BY IDOCK:   -8.71 KCAL/MOL
REMARK 923 INTER-LIGAND FREE ENERGY PREDICTED BY IDOCK:   -8.38 KCAL/MOL
REMARK 924 INTRA-LIGAND FREE ENERGY PREDICTED BY IDOCK:   -0.33 KCAL/MOL
REMARK 927      BINDING AFFINITY PREDICTED BY RF-SCORE:    0.00 PKD
ROOT
HETATM    1  C   UNL     1     -12.059   8.975  71.352  1.00  0.00    -0.392 C  
HETATM    2  C   UNL     1     -11.047   8.624  72.169  1.00  0.00    -0.434 C  
ENDROOT
BRANCH   1   3
HETATM    3  C   UNL     1     -12.162  10.334  70.928  1.00  0.00    -0.365 A  
HETATM    4  N   UNL     1     -12.745  11.340  71.559  1.00  0.00    -0.395 NA 
HETATM    5  N   UNL     1     -12.903  13.718  71.120  1.00  0.00    -0.342 N  
HETATM    6  O   UNL     1     -12.837  15.940  70.549  1.00  0.00    -0.422 OA 
HETATM    7  C   UNL     1     -12.501  12.442  70.808  1.00  0.00    -0.267 A  
HETATM    8  C   UNL     1     -11.783  12.150  69.690  1.00  0.00    -0.325 A  
HETATM    9  C   UNL     1     -12.556  14.771  70.273  1.00  0.00    -0.315 C  
HETATM   10  N   UNL     1     -11.571  10.793  69.751  1.00  0.00    -0.289 NA 
HETATM   11  C   UNL     1     -10.873   9.987  68.779  1.00  0.00    -0.219 C  
HETATM   12  N   UNL     1     -11.883  14.437  69.079  1.00  0.00    -0.313 N  
HETATM   13  C   UNL     1     -11.421  13.157  68.738  1.00  0.00    -0.307 C  
HETATM   14  O   UNL     1     -10.774  12.922  67.723  1.00  0.00    -0.218 OA 
BRANCH  12  15
HETATM   15  C   UNL     1     -11.654  15.517  68.121  1.00  0.00    -0.304 C  
HETATM   16  C   UNL     1     -10.354  16.272  68.358  1.00  0.00    -0.271 C  
ENDBRANCH  12  15
BRANCH   5  17
HETATM   17  C   UNL     1     -13.672  13.975  72.333  1.00  0.00    -0.568 C  
HETATM   18  C   UNL     1     -12.863  14.704  73.395  1.00  0.00    -0.526 C  
ENDBRANCH   5  17
ENDBRANCH   1   3
BRANCH   2  19
HETATM   19  C   UNL     1     -10.688   7.258  72.593  1.00  0.00    -0.318 A  
HETATM   20  C   UNL     1     -10.208   5.558  74.266  1.00  0.00    -0.292 A  
HETATM   21  C   UNL     1     -10.049   4.589  73.272  1.00  0.00    -0.160 A  
HETATM   22  C   UNL     1     -10.175   4.961  71.921  1.00  0.00    -0.201 A  
HETATM   23  C   UNL     1     -10.479   6.290  71.594  1.00  0.00    -0.258 A  
HETATM   24  C   UNL     1     -10.525   6.882  73.929  1.00  0.00    -0.352 A  
BRANCH  22  25
HETATM   25  O   UNL     1      -9.996   3.952  71.006  1.00  0.00    -0.173 OA 
HETATM   26  C   UNL     1      -8.899   4.045  70.110  1.00  0.00    -0.083 C  
ENDBRANCH  22  25
BRANCH  21  27
HETATM   27  O   UNL     1      -9.773   3.264  73.504  1.00  0.00    -0.104 OA 
HETATM   28  C   UNL     1     -10.782   2.463  74.096  1.00  0.00    -0.161 C  
ENDBRANCH  21  27
ENDBRANCH   2  19
TORSDOF 6
ENDMDL
MODEL       14
REMARK 921   NORMALIZED FREE ENERGY PREDICTED BY IDOCK:   -6.20 KCAL/MOL
REMARK 922        TOTAL FREE ENERGY PREDICTED BY IDOCK:   -8.68 KCAL/MOL
REMARK 923 INTER-LIGAND FREE ENERGY PREDICTED BY IDOCK:   -8.14 KCAL/MOL
REMARK 924 INTRA-LIGAND FREE ENERGY PREDICTED BY IDOCK:   -0.54 KCAL/MOL
REMARK 927      BINDING AFFINITY PREDICTED BY RF-SCORE:    0.00 PKD
ROOT
HETATM    1  C   UNL     1     -11.889   9.055  71.515  1.00  0.00    -0.415 C  
HETATM    2  C   UNL     1     -12.056  10.078  70.654  1.00  0.00    -0.381 C  
ENDROOT
BRANCH   1   3
HETATM    3  C   UNL     1     -11.346   7.828  71.030  1.00  0.00    -0.271 A  
HETATM    4  N   UNL     1     -11.279   7.409  69.776  1.00  0.00    -0.153 NA 
HETATM    5  N   UNL     1     -10.276   5.474  68.716  1.00  0.00    -0.191 N  
HETATM    6  O   UNL     1      -9.174   3.621  67.930  1.00  0.00    -0.144 OA 
HETATM    7  C   UNL     1     -10.600   6.236  69.812  1.00  0.00    -0.264 A  
HETATM    8  C   UNL     1     -10.248   5.887  71.079  1.00  0.00    -0.211 A  
HETATM    9  C   UNL     1      -9.544   4.300  68.892  1.00  0.00    -0.157 C  
HETATM   10  N   UNL     1     -10.736   6.899  71.872  1.00  0.00    -0.216 NA 
HETATM   11  C   UNL     1     -10.643   6.987  73.309  1.00  0.00    -0.344 C  
HETATM   12  N   UNL     1      -9.261   3.913  70.218  1.00  0.00    -0.128 N  
HETATM   13  C   UNL     1      -9.539   4.676  71.362  1.00  0.00    -0.166 C  
HETATM   14  O   UNL     1      -9.209   4.338  72.494  1.00  0.00    -0.113 OA 
BRANCH  12  15
HETATM   15  C   UNL     1      -8.629   2.609  70.410  1.00  0.00    -0.057 C  
HETATM   16  C   UNL     1      -9.622   1.493  70.701  1.00  0.00    -0.153 C  
ENDBRANCH  12  15
BRANCH   5  17
HETATM   17  C   UNL     1     -10.679   5.896  67.378  1.00  0.00    -0.287 C  
HETATM   18  C   UNL     1      -9.720   6.908  66.771  1.00  0.00    -0.232 C  
ENDBRANCH   5  17
ENDBRANCH   1   3
BRANCH   2  19
HETATM   19  C   UNL     1     -12.458  11.457  70.988  1.00  0.00    -0.486 A  
HETATM   20  C   UNL     1     -13.660  13.110  72.309  1.00  0.00    -0.677 A  
HETATM   21  C   UNL     1     -13.104  14.149  71.558  1.00  0.00    -0.353 A  
HETATM   22  C   UNL     1     -12.244  13.843  70.487  1.00  0.00    -0.373 A  
HETATM   23  C   UNL     1     -11.940  12.505  70.205  1.00  0.00    -0.377 A  
HETATM   24  C   UNL     1     -13.338  11.774  72.026  1.00  0.00    -0.417 A  
BRANCH  22  25
HETATM   25  O   UNL     1     -11.747  14.921  69.795  1.00  0.00    -0.270 OA 
HETATM   26  C   UNL     1     -11.885  14.932  68.383  1.00  0.00    -0.278 C  
ENDBRANCH  22  25
BRANCH  21  27
HETATM   27  O   UNL     1     -13.330  15.486  71.780  1.00  0.00    -0.437 OA 
HETATM   28  C   UNL     1     -13.330  15.952  73.119  1.00  0.00    -0.587 C  
ENDBRANCH  21  27
ENDBRANCH   2  19
TORSDOF 6
ENDMDL
MODEL       15
REMARK 921   NORMALIZED FREE ENERGY PREDICTED BY IDOCK:   -6.19 KCAL/MOL
REMARK 922        TOTAL FREE ENERGY PREDICTED BY IDOCK:   -8.66 KCAL/MOL
REMARK 923 INTER-LIGAND FREE ENERGY PREDICTED BY IDOCK:   -8.10 KCAL/MOL
REMARK 924 INTRA-LIGAND FREE ENERGY PREDICTED BY IDOCK:   -0.56 KCAL/MOL
REMARK 927      BINDING AFFINITY PREDICTED BY RF-SCORE:    0.00 PKD
ROOT
HETATM    1  C   UNL     1     -11.029   9.352  69.303  1.00  0.00    -0.137 C  
HETATM    2  C   UNL     1     -10.589   9.159  68.044  1.00  0.00    -0.253 C  
ENDROOT
BRANCH   1   3
HETATM    3  C   UNL     1     -11.402  10.668  69.708  1.00  0.00    -0.301 A  
HETATM    4  N   UNL     1     -11.086  11.816  69.131  1.00  0.00    -0.241 NA 
HETATM    5  N   UNL     1     -11.723  14.119  69.538  1.00  0.00    -0.291 N  
HETATM    6  O   UNL     1     -12.540  16.202  70.050  1.00  0.00    -0.135 OA 
HETATM    7  C   UNL     1     -11.747  12.776  69.824  1.00  0.00    -0.282 A  
HETATM    8  C   UNL     1     -12.470  12.257  70.854  1.00  0.00    -0.276 A  
HETATM    9  C   UNL     1     -12.478  14.998  70.314  1.00  0.00    -0.337 C  
HETATM   10  N   UNL     1     -12.244  10.902  70.796  1.00  0.00    -0.353 NA 
HETATM   11  C   UNL     1     -12.772   9.903  71.693  1.00  0.00    -0.429 C  
HETATM   12  N   UNL     1     -13.154  14.452  71.425  1.00  0.00    -0.330 N  
HETATM   13  C   UNL     1     -13.236  13.086  71.734  1.00  0.00    -0.392 C  
HETATM   14  O   UNL     1     -13.897  12.645  72.669  1.00  0.00    -0.425 OA 
BRANCH  12  15
HETATM   15  C   UNL     1     -13.819  15.392  72.326  1.00  0.00    -0.548 C  
HETATM   16  C   UNL     1     -12.941  15.845  73.483  1.00  0.00    -0.707 C  
ENDBRANCH  12  15
BRANCH   5  17
HETATM   17  C   UNL     1     -10.930  14.622  68.420  1.00  0.00    -0.251 C  
HETATM   18  C   UNL     1     -11.671  14.542  67.094  1.00  0.00    -0.420 C  
ENDBRANCH   5  17
ENDBRANCH   1   3
BRANCH   2  19
HETATM   19  C   UNL     1     -10.301   7.866  67.398  1.00  0.00    -0.349 A  
HETATM   20  C   UNL     1     -10.659   5.484  67.049  1.00  0.00    -0.332 A  
HETATM   21  C   UNL     1      -9.689   5.461  66.043  1.00  0.00    -0.112 A  
HETATM   22  C   UNL     1      -8.989   6.642  65.733  1.00  0.00    -0.026 A  
HETATM   23  C   UNL     1      -9.291   7.826  66.419  1.00  0.00    -0.237 A  
HETATM   24  C   UNL     1     -10.963   6.678  67.720  1.00  0.00    -0.367 A  
BRANCH  22  25
HETATM   25  O   UNL     1      -8.048   6.532  64.739  1.00  0.00    -0.128 OA 
HETATM   26  C   UNL     1      -7.323   7.696  64.370  1.00  0.00    -0.088 C  
ENDBRANCH  22  25
BRANCH  21  27
HETATM   27  O   UNL     1      -9.347   4.353  65.308  1.00  0.00    -0.148 OA 
HETATM   28  C   UNL     1     -10.329   3.785  64.456  1.00  0.00    -0.200 C  
ENDBRANCH  21  27
ENDBRANCH   2  19
TORSDOF 6
ENDMDL
MODEL       16
REMARK 921   NORMALIZED FREE ENERGY PREDICTED BY IDOCK:   -6.19 KCAL/MOL
REMARK 922        TOTAL FREE ENERGY PREDICTED BY IDOCK:   -8.66 KCAL/MOL
REMARK 923 INTER-LIGAND FREE ENERGY PREDICTED BY IDOCK:   -8.21 KCAL/MOL
REMARK 924 INTRA-LIGAND FREE ENERGY PREDICTED BY IDOCK:   -0.45 KCAL/MOL
REMARK 927      BINDING AFFINITY PREDICTED BY RF-SCORE:    0.00 PKD
ROOT
HETATM    1  C   UNL     1     -11.443  13.952  69.105  1.00  0.00    -0.345 C  
HETATM    2  C   UNL     1     -10.608  14.377  68.137  1.00  0.00    -0.236 C  
ENDROOT
BRANCH   1   3
HETATM    3  C   UNL     1     -11.477  12.561  69.423  1.00  0.00    -0.263 A  
HETATM    4  N   UNL     1     -10.841  11.573  68.814  1.00  0.00    -0.205 NA 
HETATM    5  N   UNL     1     -10.622   9.202  69.265  1.00  0.00    -0.225 N  
HETATM    6  O   UNL     1     -10.484   7.013  69.944  1.00  0.00    -0.205 OA 
HETATM    7  C   UNL     1     -11.113  10.456  69.533  1.00  0.00    -0.264 A  
HETATM    8  C   UNL     1     -11.934  10.714  70.587  1.00  0.00    -0.367 A  
HETATM    9  C   UNL     1     -10.957   8.142  70.107  1.00  0.00    -0.223 C  
HETATM   10  N   UNL     1     -12.185  12.064  70.517  1.00  0.00    -0.361 NA 
HETATM   11  C   UNL     1     -13.027  12.830  71.404  1.00  0.00    -0.266 C  
HETATM   12  N   UNL     1     -11.873   8.412  71.144  1.00  0.00    -0.287 N  
HETATM   13  C   UNL     1     -12.371   9.681  71.477  1.00  0.00    -0.390 C  
HETATM   14  O   UNL     1     -13.110   9.886  72.435  1.00  0.00    -0.372 OA 
BRANCH  12  15
HETATM   15  C   UNL     1     -12.342   7.273  71.932  1.00  0.00    -0.312 C  
HETATM   16  C   UNL     1     -13.766   6.852  71.599  1.00  0.00    -0.273 C  
ENDBRANCH  12  15
BRANCH   5  17
HETATM   17  C   UNL     1      -9.744   8.981  68.120  1.00  0.00    -0.152 C  
HETATM   18  C   UNL     1     -10.498   8.503  66.889  1.00  0.00    -0.345 C  
ENDBRANCH   5  17
ENDBRANCH   1   3
BRANCH   2  19
HETATM   19  C   UNL     1     -10.323  15.777  67.770  1.00  0.00    -0.275 A  
HETATM   20  C   UNL     1     -10.687  18.178  67.915  1.00  0.00    -0.331 A  
HETATM   21  C   UNL     1      -9.638  18.415  67.022  1.00  0.00    -0.298 A  
HETATM   22  C   UNL     1      -8.945  17.324  66.467  1.00  0.00    -0.268 A  
HETATM   23  C   UNL     1      -9.301  16.020  66.834  1.00  0.00    -0.246 A  
HETATM   24  C   UNL     1     -11.026  16.869  68.286  1.00  0.00    -0.298 A  
BRANCH  22  25
HETATM   25  O   UNL     1      -7.934  17.643  65.593  1.00  0.00    -0.529 OA 
HETATM   26  C   UNL     1      -6.595  17.544  66.052  1.00  0.00    -0.206 C  
ENDBRANCH  22  25
BRANCH  21  27
HETATM   27  O   UNL     1      -9.211  19.659  66.626  1.00  0.00    -0.325 OA 
HETATM   28  C   UNL     1      -9.571  20.776  67.423  1.00  0.00    -0.344 C  
ENDBRANCH  21  27
ENDBRANCH   2  19
TORSDOF 6
ENDMDL
MODEL       17
REMARK 921   NORMALIZED FREE ENERGY PREDICTED BY IDOCK:   -6.08 KCAL/MOL
REMARK 922        TOTAL FREE ENERGY PREDICTED BY IDOCK:   -8.51 KCAL/MOL
REMARK 923 INTER-LIGAND FREE ENERGY PREDICTED BY IDOCK:   -8.10 KCAL/MOL
REMARK 924 INTRA-LIGAND FREE ENERGY PREDICTED BY IDOCK:   -0.41 KCAL/MOL
REMARK 927      BINDING AFFINITY PREDICTED BY RF-SCORE:    0.00 PKD
ROOT
HETATM    1  C   UNL     1     -10.913  11.880  66.497  1.00  0.00    -0.337 C  
HETATM    2  C   UNL     1     -10.173  11.062  67.271  1.00  0.00    -0.234 C  
ENDROOT
BRANCH   1   3
HETATM    3  C   UNL     1     -10.874  13.285  66.746  1.00  0.00    -0.281 A  
HETATM    4  N   UNL     1     -10.661  13.901  67.898  1.00  0.00    -0.238 NA 
HETATM    5  N   UNL     1     -10.394  16.227  68.521  1.00  0.00    -0.248 N  
HETATM    6  O   UNL     1     -10.079  18.476  68.856  1.00  0.00    -0.386 OA 
HETATM    7  C   UNL     1     -10.625  15.225  67.611  1.00  0.00    -0.270 A  
HETATM    8  C   UNL     1     -10.832  15.468  66.288  1.00  0.00    -0.283 A  
HETATM    9  C   UNL     1     -10.351  17.551  68.085  1.00  0.00    -0.375 C  
HETATM   10  N   UNL     1     -11.007  14.226  65.725  1.00  0.00    -0.299 NA 
HETATM   11  C   UNL     1     -11.282  13.941  64.337  1.00  0.00    -0.329 C  
HETATM   12  N   UNL     1     -10.649  17.788  66.728  1.00  0.00    -0.284 N  
HETATM   13  C   UNL     1     -10.855  16.797  65.756  1.00  0.00    -0.087 C  
HETATM   14  O   UNL     1     -11.038  17.043  64.569  1.00  0.00    -1.098 OA 
BRANCH  12  15
HETATM   15  C   UNL     1     -10.755  19.184  66.304  1.00  0.00    -0.355 C  
HETATM   16  C   UNL     1      -9.406  19.861  66.109  1.00  0.00    -0.442 C  
ENDBRANCH  12  15
BRANCH   5  17
HETATM   17  C   UNL     1     -10.178  15.910  69.930  1.00  0.00    -0.232 C  
HETATM   18  C   UNL     1     -11.434  16.088  70.768  1.00  0.00    -0.444 C  
ENDBRANCH   5  17
ENDBRANCH   1   3
BRANCH   2  19
HETATM   19  C   UNL     1      -9.967   9.615  67.080  1.00  0.00    -0.263 A  
HETATM   20  C   UNL     1     -10.540   7.275  67.421  1.00  0.00    -0.370 A  
HETATM   21  C   UNL     1      -9.493   6.872  66.588  1.00  0.00    -0.166 A  
HETATM   22  C   UNL     1      -8.648   7.844  66.022  1.00  0.00    -0.150 A  
HETATM   23  C   UNL     1      -8.884   9.201  66.283  1.00  0.00    -0.176 A  
HETATM   24  C   UNL     1     -10.775   8.636  67.664  1.00  0.00    -0.194 A  
BRANCH  22  25
HETATM   25  O   UNL     1      -7.639   7.365  65.223  1.00  0.00    -0.086 OA 
HETATM   26  C   UNL     1      -6.531   8.213  64.962  1.00  0.00    -0.048 C  
ENDBRANCH  22  25
BRANCH  21  27
HETATM   27  O   UNL     1      -9.205   5.568  66.264  1.00  0.00    -0.146 OA 
HETATM   28  C   UNL     1     -10.280   4.712  65.914  1.00  0.00    -0.276 C  
ENDBRANCH  21  27
ENDBRANCH   2  19
TORSDOF 6
ENDMDL
MODEL       18
REMARK 921   NORMALIZED FREE ENERGY PREDICTED BY IDOCK:   -6.06 KCAL/MOL
REMARK 922        TOTAL FREE ENERGY PREDICTED BY IDOCK:   -8.48 KCAL/MOL
REMARK 923 INTER-LIGAND FREE ENERGY PREDICTED BY IDOCK:   -7.96 KCAL/MOL
REMARK 924 INTRA-LIGAND FREE ENERGY PREDICTED BY IDOCK:   -0.53 KCAL/MOL
REMARK 927      BINDING AFFINITY PREDICTED BY RF-SCORE:    0.00 PKD
ROOT
HETATM    1  C   UNL     1     -10.260  10.429  68.360  1.00  0.00    -0.186 C  
HETATM    2  C   UNL     1     -11.018  10.357  69.472  1.00  0.00    -0.307 C  
ENDROOT
BRANCH   1   3
HETATM    3  C   UNL     1     -10.067  11.699  67.738  1.00  0.00    -0.187 A  
HETATM    4  N   UNL     1     -10.917  12.367  66.974  1.00  0.00    -0.250 NA 
HETATM    5  N   UNL     1     -10.873  14.567  65.960  1.00  0.00    -0.303 N  
HETATM    6  O   UNL     1     -10.648  16.715  65.181  1.00  0.00    -0.645 OA 
HETATM    7  C   UNL     1     -10.319  13.553  66.702  1.00  0.00    -0.271 A  
HETATM    8  C   UNL     1      -9.085  13.646  67.268  1.00  0.00    -0.228 A  
HETATM    9  C   UNL     1     -10.161  15.753  65.783  1.00  0.00    -0.371 C  
HETATM   10  N   UNL     1      -8.908  12.452  67.926  1.00  0.00    -0.172 NA 
HETATM   11  C   UNL     1      -7.741  12.045  68.670  1.00  0.00    -0.099 C  
HETATM   12  N   UNL     1      -8.853  15.799  66.307  1.00  0.00    -0.330 N  
HETATM   13  C   UNL     1      -8.261  14.804  67.101  1.00  0.00    -0.211 C  
HETATM   14  O   UNL     1      -7.146  14.914  67.600  1.00  0.00    -0.155 OA 
BRANCH  12  15
HETATM   15  C   UNL     1      -8.051  16.980  65.991  1.00  0.00    -0.143 C  
HETATM   16  C   UNL     1      -8.186  18.095  67.018  1.00  0.00    -0.246 C  
ENDBRANCH  12  15
BRANCH   5  17
HETATM   17  C   UNL     1     -12.202  14.414  65.375  1.00  0.00    -0.361 C  
HETATM   18  C   UNL     1     -12.165  13.764  64.001  1.00  0.00    -0.429 C  
ENDBRANCH   5  17
ENDBRANCH   1   3
BRANCH   2  19
HETATM   19  C   UNL     1     -11.211   9.177  70.334  1.00  0.00    -0.279 A  
HETATM   20  C   UNL     1     -11.902   8.081  72.393  1.00  0.00    -0.429 A  
HETATM   21  C   UNL     1     -11.582   6.829  71.863  1.00  0.00    -0.292 A  
HETATM   22  C   UNL     1     -11.037   6.747  70.568  1.00  0.00    -0.298 A  
HETATM   23  C   UNL     1     -10.844   7.918  69.824  1.00  0.00    -0.202 A  
HETATM   24  C   UNL     1     -11.719   9.246  71.634  1.00  0.00    -0.462 A  
BRANCH  22  25
HETATM   25  O   UNL     1     -10.742   5.481  70.125  1.00  0.00    -0.306 OA 
HETATM   26  C   UNL     1      -9.932   5.347  68.967  1.00  0.00    -0.190 C  
ENDBRANCH  22  25
BRANCH  21  27
HETATM   27  O   UNL     1     -11.758   5.632  72.514  1.00  0.00    -0.297 OA 
HETATM   28  C   UNL     1     -10.876   5.313  73.578  1.00  0.00    -0.304 C  
ENDBRANCH  21  27
ENDBRANCH   2  19
TORSDOF 6
ENDMDL
MODEL       19
REMARK 921   NORMALIZED FREE ENERGY PREDICTED BY IDOCK:   -6.03 KCAL/MOL
REMARK 922        TOTAL FREE ENERGY PREDICTED BY IDOCK:   -8.44 KCAL/MOL
REMARK 923 INTER-LIGAND FREE ENERGY PREDICTED BY IDOCK:   -7.93 KCAL/MOL
REMARK 924 INTRA-LIGAND FREE ENERGY PREDICTED BY IDOCK:   -0.52 KCAL/MOL
REMARK 927      BINDING AFFINITY PREDICTED BY RF-SCORE:    0.00 PKD
ROOT
HETATM    1  C   UNL     1     -10.875  10.259  69.981  1.00  0.00    -0.364 C  
HETATM    2  C   UNL     1     -11.905  11.080  69.695  1.00  0.00    -0.414 C  
ENDROOT
BRANCH   1   3
HETATM    3  C   UNL     1     -10.434   9.336  68.986  1.00  0.00    -0.216 A  
HETATM    4  N   UNL     1      -9.821   9.604  67.845  1.00  0.00    -0.149 NA 
HETATM    5  N   UNL     1      -8.852   8.220  66.107  1.00  0.00    -0.158 N  
HETATM    6  O   UNL     1      -7.923   6.715  64.644  1.00  0.00    -0.115 OA 
HETATM    7  C   UNL     1      -9.524   8.402  67.291  1.00  0.00    -0.154 A  
HETATM    8  C   UNL     1      -9.959   7.365  68.057  1.00  0.00    -0.164 A  
HETATM    9  C   UNL     1      -8.583   6.924  65.666  1.00  0.00    -0.110 C  
HETATM   10  N   UNL     1     -10.558   7.956  69.144  1.00  0.00    -0.206 NA 
HETATM   11  C   UNL     1     -11.202   7.280  70.244  1.00  0.00    -0.262 C  
HETATM   12  N   UNL     1      -9.112   5.864  66.430  1.00  0.00    -0.145 N  
HETATM   13  C   UNL     1      -9.771   6.002  67.662  1.00  0.00    -0.115 C  
HETATM   14  O   UNL     1     -10.152   5.048  68.333  1.00  0.00    -0.157 OA 
BRANCH  12  15
HETATM   15  C   UNL     1      -8.963   4.514  65.889  1.00  0.00    -0.125 C  
HETATM   16  C   UNL     1     -10.113   4.094  64.985  1.00  0.00    -0.220 C  
ENDBRANCH  12  15
BRANCH   5  17
HETATM   17  C   UNL     1      -8.407   9.369  65.325  1.00  0.00    -0.141 C  
HETATM   18  C   UNL     1      -9.488   9.896  64.394  1.00  0.00    -0.304 C  
ENDBRANCH   5  17
ENDBRANCH   1   3
BRANCH   2  19
HETATM   19  C   UNL     1     -12.404  12.192  70.526  1.00  0.00    -0.358 A  
HETATM   20  C   UNL     1     -13.576  13.108  72.451  1.00  0.00    -0.667 A  
HETATM   21  C   UNL     1     -13.256  14.410  72.057  1.00  0.00    -0.369 A  
HETATM   22  C   UNL     1     -12.534  14.612  70.866  1.00  0.00    -0.336 A  
HETATM   23  C   UNL     1     -12.127  13.506  70.108  1.00  0.00    -0.425 A  
HETATM   24  C   UNL     1     -13.152  12.008  71.692  1.00  0.00    -0.422 A  
BRANCH  22  25
HETATM   25  O   UNL     1     -12.268  15.921  70.545  1.00  0.00    -0.380 OA 
HETATM   26  C   UNL     1     -11.038  16.217  69.899  1.00  0.00    -0.357 C  
ENDBRANCH  22  25
BRANCH  21  27
HETATM   27  O   UNL     1     -13.595  15.547  72.750  1.00  0.00    -0.494 OA 
HETATM   28  C   UNL     1     -12.774  15.936  73.839  1.00  0.00    -0.600 C  
ENDBRANCH  21  27
ENDBRANCH   2  19
TORSDOF 6
ENDMDL
MODEL       20
REMARK 921   NORMALIZED FREE ENERGY PREDICTED BY IDOCK:   -6.01 KCAL/MOL
REMARK 922        TOTAL FREE ENERGY PREDICTED BY IDOCK:   -8.42 KCAL/MOL
REMARK 923 INTER-LIGAND FREE ENERGY PREDICTED BY IDOCK:   -7.82 KCAL/MOL
REMARK 924 INTRA-LIGAND FREE ENERGY PREDICTED BY IDOCK:   -0.60 KCAL/MOL
REMARK 927      BINDING AFFINITY PREDICTED BY RF-SCORE:    0.00 PKD
ROOT
HETATM    1  C   UNL     1     -11.637   9.473  70.982  1.00  0.00    -0.419 C  
HETATM    2  C   UNL     1     -11.754  10.640  70.319  1.00  0.00    -0.433 C  
ENDROOT
BRANCH   1   3
HETATM    3  C   UNL     1     -10.915   8.404  70.373  1.00  0.00    -0.239 A  
HETATM    4  N   UNL     1     -10.087   8.467  69.343  1.00  0.00    -0.193 NA 
HETATM    5  N   UNL     1      -8.650   6.845  68.257  1.00  0.00    -0.125 N  
HETATM    6  O   UNL     1      -7.303   5.168  67.455  1.00  0.00    -0.079 OA 
HETATM    7  C   UNL     1      -9.580   7.218  69.196  1.00  0.00    -0.155 A  
HETATM    8  C   UNL     1     -10.090   6.348  70.110  1.00  0.00    -0.173 A  
HETATM    9  C   UNL     1      -8.187   5.529  68.236  1.00  0.00    -0.095 C  
HETATM   10  N   UNL     1     -10.960   7.099  70.864  1.00  0.00    -0.244 NA 
HETATM   11  C   UNL     1     -11.777   6.631  71.958  1.00  0.00    -0.313 C  
HETATM   12  N   UNL     1      -8.787   4.625  69.137  1.00  0.00    -0.090 N  
HETATM   13  C   UNL     1      -9.712   4.968  70.135  1.00  0.00    -0.210 C  
HETATM   14  O   UNL     1     -10.155   4.163  70.949  1.00  0.00    -0.172 OA 
BRANCH  12  15
HETATM   15  C   UNL     1      -8.415   3.217  69.013  1.00  0.00    -0.063 C  
HETATM   16  C   UNL     1      -9.254   2.456  67.997  1.00  0.00    -0.254 C  
ENDBRANCH  12  15
BRANCH   5  17
HETATM   17  C   UNL     1      -8.135   7.819  67.299  1.00  0.00    -0.119 C  
HETATM   18  C   UNL     1      -8.929   7.839  66.002  1.00  0.00    -0.185 C  
ENDBRANCH   5  17
ENDBRANCH   1   3
BRANCH   2  19
HETATM   19  C   UNL     1     -12.327  11.896  70.836  1.00  0.00    -0.400 A  
HETATM   20  C   UNL     1     -13.648  13.193  72.416  1.00  0.00    -0.667 A  
HETATM   21  C   UNL     1     -13.317  14.379  71.756  1.00  0.00    -0.366 A  
HETATM   22  C   UNL     1     -12.512  14.326  70.603  1.00  0.00    -0.358 A  
HETATM   23  C   UNL     1     -12.038  13.088  70.147  1.00  0.00    -0.377 A  
HETATM   24  C   UNL     1     -13.156  11.961  71.960  1.00  0.00    -0.441 A  
BRANCH  22  25
HETATM   25  O   UNL     1     -12.240  15.534  70.009  1.00  0.00    -0.358 OA 
HETATM   26  C   UNL     1     -10.907  16.019  70.055  1.00  0.00    -0.353 C  
ENDBRANCH  22  25
BRANCH  21  27
HETATM   27  O   UNL     1     -13.720  15.633  72.145  1.00  0.00    -0.474 OA 
HETATM   28  C   UNL     1     -13.269  16.123  73.398  1.00  0.00    -0.465 C  
ENDBRANCH  21  27
ENDBRANCH   2  19
TORSDOF 6
ENDMDL
MODEL       21
REMARK 921   NORMALIZED FREE ENERGY PREDICTED BY IDOCK:   -6.01 KCAL/MOL
REMARK 922        TOTAL FREE ENERGY PREDICTED BY IDOCK:   -8.42 KCAL/MOL
REMARK 923 INTER-LIGAND FREE ENERGY PREDICTED BY IDOCK:   -7.90 KCAL/MOL
REMARK 924 INTRA-LIGAND FREE ENERGY PREDICTED BY IDOCK:   -0.52 KCAL/MOL
REMARK 927      BINDING AFFINITY PREDICTED BY RF-SCORE:    0.00 PKD
ROOT
HETATM    1  C   UNL     1     -11.275  12.220  69.547  1.00  0.00    -0.185 C  
HETATM    2  C   UNL     1     -10.418  11.182  69.489  1.00  0.00    -0.080 C  
ENDROOT
BRANCH   1   3
HETATM    3  C   UNL     1     -11.055  13.344  68.697  1.00  0.00    -0.263 A  
HETATM    4  N   UNL     1     -10.953  13.357  67.377  1.00  0.00    -0.268 NA 
HETATM    5  N   UNL     1     -10.744  15.129  65.738  1.00  0.00    -0.333 N  
HETATM    6  O   UNL     1     -10.646  16.971  64.371  1.00  0.00    -0.150 OA 
HETATM    7  C   UNL     1     -10.841  14.661  67.025  1.00  0.00    -0.304 A  
HETATM    8  C   UNL     1     -10.850  15.486  68.108  1.00  0.00    -0.296 A  
HETATM    9  C   UNL     1     -10.666  16.504  65.513  1.00  0.00    -0.256 C  
HETATM   10  N   UNL     1     -10.974  14.646  69.190  1.00  0.00    -0.254 NA 
HETATM   11  C   UNL     1     -11.009  15.033  70.580  1.00  0.00    -0.175 C  
HETATM   12  N   UNL     1     -10.594  17.335  66.650  1.00  0.00    -0.236 N  
HETATM   13  C   UNL     1     -10.727  16.906  67.979  1.00  0.00    -0.364 C  
HETATM   14  O   UNL     1     -10.733  17.672  68.938  1.00  0.00    -0.222 OA 
BRANCH  12  15
HETATM   15  C   UNL     1     -10.360  18.760  66.418  1.00  0.00    -0.439 C  
HETATM   16  C   UNL     1      -8.910  19.175  66.620  1.00  0.00    -0.340 C  
ENDBRANCH  12  15
BRANCH   5  17
HETATM   17  C   UNL     1     -10.739  14.200  64.612  1.00  0.00    -0.389 C  
HETATM   18  C   UNL     1     -12.141  13.802  64.177  1.00  0.00    -0.478 C  
ENDBRANCH   5  17
ENDBRANCH   1   3
BRANCH   2  19
HETATM   19  C   UNL     1     -10.557   9.882  70.171  1.00  0.00    -0.350 A  
HETATM   20  C   UNL     1      -9.747   7.695  70.866  1.00  0.00    -0.175 A  
HETATM   21  C   UNL     1     -10.933   7.451  71.563  1.00  0.00    -0.230 A  
HETATM   22  C   UNL     1     -11.959   8.412  71.537  1.00  0.00    -0.299 A  
HETATM   23  C   UNL     1     -11.768   9.609  70.833  1.00  0.00    -0.412 A  
HETATM   24  C   UNL     1      -9.560   8.902  70.176  1.00  0.00    -0.199 A  
BRANCH  22  25
HETATM   25  O   UNL     1     -13.094   8.091  72.240  1.00  0.00    -0.237 OA 
HETATM   26  C   UNL     1     -14.298   7.888  71.515  1.00  0.00    -0.445 C  
ENDBRANCH  22  25
BRANCH  21  27
HETATM   27  O   UNL     1     -11.194   6.317  72.294  1.00  0.00    -0.254 OA 
HETATM   28  C   UNL     1     -10.556   6.172  73.553  1.00  0.00    -0.266 C  
ENDBRANCH  21  27
ENDBRANCH   2  19
TORSDOF 6
ENDMDL
MODEL       22
REMARK 921   NORMALIZED FREE ENERGY PREDICTED BY IDOCK:   -5.98 KCAL/MOL
REMARK 922        TOTAL FREE ENERGY PREDICTED BY IDOCK:   -8.38 KCAL/MOL
REMARK 923 INTER-LIGAND FREE ENERGY PREDICTED BY IDOCK:   -7.91 KCAL/MOL
REMARK 924 INTRA-LIGAND FREE ENERGY PREDICTED BY IDOCK:   -0.47 KCAL/MOL
REMARK 927      BINDING AFFINITY PREDICTED BY RF-SCORE:    0.00 PKD
ROOT
HETATM    1  C   UNL     1     -11.120   8.725  70.088  1.00  0.00    -0.214 C  
HETATM    2  C   UNL     1     -10.395   8.283  69.042  1.00  0.00    -0.233 C  
ENDROOT
BRANCH   1   3
HETATM    3  C   UNL     1     -11.423  10.117  70.177  1.00  0.00    -0.296 A  
HETATM    4  N   UNL     1     -11.050  11.083  69.354  1.00  0.00    -0.244 NA 
HETATM    5  N   UNL     1     -11.565  13.447  69.216  1.00  0.00    -0.292 N  
HETATM    6  O   UNL     1     -12.270  15.632  69.230  1.00  0.00    -0.303 OA 
HETATM    7  C   UNL     1     -11.657  12.209  69.803  1.00  0.00    -0.262 A  
HETATM    8  C   UNL     1     -12.400  11.979  70.920  1.00  0.00    -0.285 A  
HETATM    9  C   UNL     1     -12.269  14.519  69.765  1.00  0.00    -0.312 C  
HETATM   10  N   UNL     1     -12.245  10.638  71.176  1.00  0.00    -0.369 NA 
HETATM   11  C   UNL     1     -12.819   9.900  72.276  1.00  0.00    -0.259 C  
HETATM   12  N   UNL     1     -12.966  14.279  70.966  1.00  0.00    -0.342 N  
HETATM   13  C   UNL     1     -13.118  13.027  71.581  1.00  0.00    -0.347 C  
HETATM   14  O   UNL     1     -13.796  12.847  72.587  1.00  0.00    -0.596 OA 
BRANCH  12  15
HETATM   15  C   UNL     1     -13.577  15.434  71.623  1.00  0.00    -0.509 C  
HETATM   16  C   UNL     1     -12.775  15.950  72.809  1.00  0.00    -0.562 C  
ENDBRANCH  12  15
BRANCH   5  17
HETATM   17  C   UNL     1     -10.753  13.638  68.018  1.00  0.00    -0.247 C  
HETATM   18  C   UNL     1     -11.568  13.542  66.737  1.00  0.00    -0.397 C  
ENDBRANCH   5  17
ENDBRANCH   1   3
BRANCH   2  19
HETATM   19  C   UNL     1     -10.109   6.878  68.697  1.00  0.00    -0.164 A  
HETATM   20  C   UNL     1      -9.637   4.557  69.255  1.00  0.00    -0.258 A  
HETATM   21  C   UNL     1      -9.624   4.209  67.901  1.00  0.00    -0.148 A  
HETATM   22  C   UNL     1      -9.818   5.209  66.930  1.00  0.00    -0.181 A  
HETATM   23  C   UNL     1     -10.045   6.531  67.335  1.00  0.00    -0.205 A  
HETATM   24  C   UNL     1      -9.878   5.881  69.649  1.00  0.00    -0.215 A  
BRANCH  22  25
HETATM   25  O   UNL     1      -9.782   4.786  65.624  1.00  0.00    -0.168 OA 
HETATM   26  C   UNL     1      -8.688   5.195  64.817  1.00  0.00    -0.133 C  
ENDBRANCH  22  25
BRANCH  21  27
HETATM   27  O   UNL     1      -9.430   2.938  67.419  1.00  0.00    -0.189 OA 
HETATM   28  C   UNL     1      -9.536   1.854  68.328  1.00  0.00    -0.174 C  
ENDBRANCH  21  27
ENDBRANCH   2  19
TORSDOF 6
ENDMDL
MODEL       23
REMARK 921   NORMALIZED FREE ENERGY PREDICTED BY IDOCK:   -5.98 KCAL/MOL
REMARK 922        TOTAL FREE ENERGY PREDICTED BY IDOCK:   -8.38 KCAL/MOL
REMARK 923 INTER-LIGAND FREE ENERGY PREDICTED BY IDOCK:   -7.92 KCAL/MOL
REMARK 924 INTRA-LIGAND FREE ENERGY PREDICTED BY IDOCK:   -0.46 KCAL/MOL
REMARK 927      BINDING AFFINITY PREDICTED BY RF-SCORE:    0.00 PKD
ROOT
HETATM    1  C   UNL     1     -11.384  12.348  68.454  1.00  0.00    -0.330 C  
HETATM    2  C   UNL     1     -10.432  13.257  68.745  1.00  0.00    -0.187 C  
ENDROOT
BRANCH   1   3
HETATM    3  C   UNL     1     -11.300  11.051  69.045  1.00  0.00    -0.277 A  
HETATM    4  N   UNL     1     -11.915  10.613  70.132  1.00  0.00    -0.308 NA 
HETATM    5  N   UNL     1     -12.051   8.448  71.212  1.00  0.00    -0.291 N  
HETATM    6  O   UNL     1     -12.108   6.293  72.000  1.00  0.00    -0.337 OA 
HETATM    7  C   UNL     1     -11.595   9.299  70.236  1.00  0.00    -0.114 A  
HETATM    8  C   UNL     1     -10.765   8.894  69.236  1.00  0.00    -0.162 A  
HETATM    9  C   UNL     1     -11.668   7.106  71.183  1.00  0.00    -0.313 C  
HETATM   10  N   UNL     1     -10.559  10.018  68.472  1.00  0.00    -0.205 NA 
HETATM   11  C   UNL     1      -9.727  10.119  67.297  1.00  0.00    -0.167 C  
HETATM   12  N   UNL     1     -10.744   6.725  70.189  1.00  0.00    -0.220 N  
HETATM   13  C   UNL     1     -10.282   7.550  69.152  1.00  0.00    -0.202 C  
HETATM   14  O   UNL     1      -9.534   7.158  68.261  1.00  0.00    -0.134 OA 
BRANCH  12  15
HETATM   15  C   UNL     1     -10.226   5.359  70.251  1.00  0.00    -0.267 C  
HETATM   16  C   UNL     1      -8.961   5.229  71.086  1.00  0.00    -0.159 C  
ENDBRANCH  12  15
BRANCH   5  17
HETATM   17  C   UNL     1     -12.940   8.935  72.261  1.00  0.00    -0.419 C  
HETATM   18  C   UNL     1     -14.404   8.648  71.967  1.00  0.00    -0.512 C  
ENDBRANCH   5  17
ENDBRANCH   1   3
BRANCH   2  19
HETATM   19  C   UNL     1     -10.424  14.680  68.358  1.00  0.00    -0.243 A  
HETATM   20  C   UNL     1     -10.269  17.060  68.838  1.00  0.00    -0.322 A  
HETATM   21  C   UNL     1     -10.368  17.365  67.478  1.00  0.00    -0.351 A  
HETATM   22  C   UNL     1     -10.532  16.323  66.548  1.00  0.00    -0.290 A  
HETATM   23  C   UNL     1     -10.572  14.996  66.996  1.00  0.00    -0.293 A  
HETATM   24  C   UNL     1     -10.296  15.728  69.275  1.00  0.00    -0.245 A  
BRANCH  22  25
HETATM   25  O   UNL     1     -10.630  16.708  65.233  1.00  0.00    -0.596 OA 
HETATM   26  C   UNL     1     -11.427  15.921  64.361  1.00  0.00    -0.264 C  
ENDBRANCH  22  25
BRANCH  21  27
HETATM   27  O   UNL     1     -10.317  18.633  66.952  1.00  0.00    -0.362 OA 
HETATM   28  C   UNL     1      -9.596  19.625  67.665  1.00  0.00    -0.346 C  
ENDBRANCH  21  27
ENDBRANCH   2  19
TORSDOF 6
ENDMDL
MODEL       24
REMARK 921   NORMALIZED FREE ENERGY PREDICTED BY IDOCK:   -5.97 KCAL/MOL
REMARK 922        TOTAL FREE ENERGY PREDICTED BY IDOCK:   -8.37 KCAL/MOL
REMARK 923 INTER-LIGAND FREE ENERGY PREDICTED BY IDOCK:   -7.81 KCAL/MOL
REMARK 924 INTRA-LIGAND FREE ENERGY PREDICTED BY IDOCK:   -0.56 KCAL/MOL
REMARK 927      BINDING AFFINITY PREDICTED BY RF-SCORE:    0.00 PKD
ROOT
HETATM    1  C   UNL     1     -11.319   8.967  69.795  1.00  0.00     0.072 C  
HETATM    2  C   UNL     1     -10.715   8.629  68.638  1.00  0.00    -0.092 C  
ENDROOT
BRANCH   1   3
HETATM    3  C   UNL     1     -11.598  10.343  70.050  1.00  0.00    -0.301 A  
HETATM    4  N   UNL     1     -11.166  11.397  69.377  1.00  0.00    -0.259 NA 
HETATM    5  N   UNL     1     -11.628  13.772  69.522  1.00  0.00    -0.285 N  
HETATM    6  O   UNL     1     -12.289  15.954  69.787  1.00  0.00    -0.275 OA 
HETATM    7  C   UNL     1     -11.772  12.472  69.939  1.00  0.00    -0.255 A  
HETATM    8  C   UNL     1     -12.575  12.119  70.980  1.00  0.00    -0.263 A  
HETATM    9  C   UNL     1     -12.337  14.782  70.172  1.00  0.00    -0.330 C  
HETATM   10  N   UNL     1     -12.458  10.752  71.068  1.00  0.00    -0.384 NA 
HETATM   11  C   UNL     1     -13.100   9.894  72.035  1.00  0.00    -0.448 C  
HETATM   12  N   UNL     1     -13.098  14.408  71.298  1.00  0.00    -0.337 N  
HETATM   13  C   UNL     1     -13.303  13.091  71.737  1.00  0.00    -0.378 C  
HETATM   14  O   UNL     1     -14.034  12.801  72.680  1.00  0.00    -0.503 OA 
BRANCH  12  15
HETATM   15  C   UNL     1     -13.717  15.484  72.070  1.00  0.00    -0.498 C  
HETATM   16  C   UNL     1     -12.887  15.927  73.266  1.00  0.00    -0.664 C  
ENDBRANCH  12  15
BRANCH   5  17
HETATM   17  C   UNL     1     -10.754  14.094  68.398  1.00  0.00    -0.256 C  
HETATM   18  C   UNL     1     -11.470  14.014  67.059  1.00  0.00    -0.370 C  
ENDBRANCH   5  17
ENDBRANCH   1   3
BRANCH   2  19
HETATM   19  C   UNL     1     -10.480   7.264  68.131  1.00  0.00    -0.244 A  
HETATM   20  C   UNL     1     -10.607   5.526  66.433  1.00  0.00    -0.291 A  
HETATM   21  C   UNL     1      -9.919   4.634  67.260  1.00  0.00    -0.159 A  
HETATM   22  C   UNL     1      -9.537   5.045  68.550  1.00  0.00    -0.146 A  
HETATM   23  C   UNL     1      -9.832   6.347  68.977  1.00  0.00    -0.155 A  
HETATM   24  C   UNL     1     -10.885   6.831  66.865  1.00  0.00    -0.402 A  
BRANCH  22  25
HETATM   25  O   UNL     1      -8.873   4.106  69.302  1.00  0.00    -0.084 OA 
HETATM   26  C   UNL     1      -9.523   3.585  70.451  1.00  0.00    -0.183 C  
ENDBRANCH  22  25
BRANCH  21  27
HETATM   27  O   UNL     1      -9.572   3.351  66.914  1.00  0.00    -0.182 OA 
HETATM   28  C   UNL     1      -8.859   3.154  65.704  1.00  0.00    -0.137 C  
ENDBRANCH  21  27
ENDBRANCH   2  19
TORSDOF 6
ENDMDL
MODEL       25
REMARK 921   NORMALIZED FREE ENERGY PREDICTED BY IDOCK:   -5.95 KCAL/MOL
REMARK 922        TOTAL FREE ENERGY PREDICTED BY IDOCK:   -8.34 KCAL/MOL
REMARK 923 INTER-LIGAND FREE ENERGY PREDICTED BY IDOCK:   -7.80 KCAL/MOL
REMARK 924 INTRA-LIGAND FREE ENERGY PREDICTED BY IDOCK:   -0.54 KCAL/MOL
REMARK 927      BINDING AFFINITY PREDICTED BY RF-SCORE:    0.00 PKD
ROOT
HETATM    1  C   UNL     1     -11.465  11.936  68.662  1.00  0.00    -0.350 C  
HETATM    2  C   UNL     1     -10.345  12.463  68.130  1.00  0.00    -0.231 C  
ENDROOT
BRANCH   1   3
HETATM    3  C   UNL     1     -11.416  10.617  69.204  1.00  0.00    -0.280 A  
HETATM    4  N   UNL     1     -10.896   9.531  68.654  1.00  0.00    -0.181 NA 
HETATM    5  N   UNL     1     -10.558   7.263  69.437  1.00  0.00    -0.227 N  
HETATM    6  O   UNL     1     -10.258   5.213  70.425  1.00  0.00    -0.240 OA 
HETATM    7  C   UNL     1     -11.006   8.552  69.585  1.00  0.00    -0.086 A  
HETATM    8  C   UNL     1     -11.610   8.994  70.722  1.00  0.00    -0.265 A  
HETATM    9  C   UNL     1     -10.707   6.361  70.490  1.00  0.00    -0.257 C  
HETATM   10  N   UNL     1     -11.890  10.318  70.482  1.00  0.00    -0.304 NA 
HETATM   11  C   UNL     1     -12.555  11.234  71.377  1.00  0.00    -0.351 C  
HETATM   12  N   UNL     1     -11.407   6.814  71.627  1.00  0.00    -0.254 N  
HETATM   13  C   UNL     1     -11.849   8.129  71.837  1.00  0.00    -0.317 C  
HETATM   14  O   UNL     1     -12.391   8.501  72.874  1.00  0.00    -0.275 OA 
BRANCH  12  15
HETATM   15  C   UNL     1     -11.697   5.827  72.666  1.00  0.00    -0.203 C  
HETATM   16  C   UNL     1     -10.596   5.707  73.710  1.00  0.00    -0.303 C  
ENDBRANCH  12  15
BRANCH   5  17
HETATM   17  C   UNL     1      -9.916   6.842  68.195  1.00  0.00    -0.155 C  
HETATM   18  C   UNL     1     -10.903   6.259  67.195  1.00  0.00    -0.460 C  
ENDBRANCH   5  17
ENDBRANCH   1   3
BRANCH   2  19
HETATM   19  C   UNL     1     -10.158  13.848  67.661  1.00  0.00    -0.241 A  
HETATM   20  C   UNL     1      -9.381  16.141  67.912  1.00  0.00    -0.212 A  
HETATM   21  C   UNL     1      -9.813  16.454  66.621  1.00  0.00    -0.261 A  
HETATM   22  C   UNL     1     -10.457  15.468  65.850  1.00  0.00    -0.342 A  
HETATM   23  C   UNL     1     -10.635  14.183  66.381  1.00  0.00    -0.280 A  
HETATM   24  C   UNL     1      -9.552  14.848  68.428  1.00  0.00    -0.209 A  
BRANCH  22  25
HETATM   25  O   UNL     1     -10.857  15.859  64.596  1.00  0.00    -0.557 OA 
HETATM   26  C   UNL     1     -12.154  15.482  64.158  1.00  0.00    -0.045 C  
ENDBRANCH  22  25
BRANCH  21  27
HETATM   27  O   UNL     1      -9.660  17.678  66.017  1.00  0.00    -0.493 OA 
HETATM   28  C   UNL     1     -10.350  18.788  66.569  1.00  0.00    -0.424 C  
ENDBRANCH  21  27
ENDBRANCH   2  19
TORSDOF 6
ENDMDL
MODEL       26
REMARK 921   NORMALIZED FREE ENERGY PREDICTED BY IDOCK:   -5.92 KCAL/MOL
REMARK 922        TOTAL FREE ENERGY PREDICTED BY IDOCK:   -8.30 KCAL/MOL
REMARK 923 INTER-LIGAND FREE ENERGY PREDICTED BY IDOCK:   -7.75 KCAL/MOL
REMARK 924 INTRA-LIGAND FREE ENERGY PREDICTED BY IDOCK:   -0.55 KCAL/MOL
REMARK 927      BINDING AFFINITY PREDICTED BY RF-SCORE:    0.00 PKD
ROOT
HETATM    1  C   UNL     1     -10.880  12.830  67.612  1.00  0.00    -0.252 C  
HETATM    2  C   UNL     1      -9.907  13.697  67.954  1.00  0.00    -0.237 C  
ENDROOT
BRANCH   1   3
HETATM    3  C   UNL     1     -10.833  11.502  68.133  1.00  0.00    -0.215 A  
HETATM    4  N   UNL     1     -11.101  11.103  69.366  1.00  0.00    -0.244 NA 
HETATM    5  N   UNL     1     -11.242   8.925  70.420  1.00  0.00    -0.249 N  
HETATM    6  O   UNL     1     -11.410   6.764  71.173  1.00  0.00    -0.266 OA 
HETATM    7  C   UNL     1     -11.008   9.750  69.347  1.00  0.00    -0.212 A  
HETATM    8  C   UNL     1     -10.664   9.278  68.118  1.00  0.00    -0.151 A  
HETATM    9  C   UNL     1     -11.142   7.544  70.255  1.00  0.00    -0.248 C  
HETATM   10  N   UNL     1     -10.536  10.399  67.333  1.00  0.00    -0.232 NA 
HETATM   11  C   UNL     1     -10.160  10.435  65.940  1.00  0.00    -0.261 C  
HETATM   12  N   UNL     1     -10.706   7.078  68.998  1.00  0.00    -0.222 N  
HETATM   13  C   UNL     1     -10.491   7.879  67.866  1.00  0.00    -0.198 C  
HETATM   14  O   UNL     1     -10.182   7.427  66.768  1.00  0.00    -0.255 OA 
BRANCH  12  15
HETATM   15  C   UNL     1     -10.454   5.644  68.870  1.00  0.00    -0.240 C  
HETATM   16  C   UNL     1      -9.035   5.242  69.246  1.00  0.00    -0.126 C  
ENDBRANCH  12  15
BRANCH   5  17
HETATM   17  C   UNL     1     -11.609   9.485  71.717  1.00  0.00    -0.312 C  
HETATM   18  C   UNL     1     -13.105   9.724  71.849  1.00  0.00    -0.544 C  
ENDBRANCH   5  17
ENDBRANCH   1   3
BRANCH   2  19
HETATM   19  C   UNL     1      -9.860  15.138  67.644  1.00  0.00    -0.219 A  
HETATM   20  C   UNL     1     -10.673  17.425  67.816  1.00  0.00    -0.332 A  
HETATM   21  C   UNL     1      -9.624  17.884  67.016  1.00  0.00    -0.286 A  
HETATM   22  C   UNL     1      -8.701  16.960  66.491  1.00  0.00    -0.269 A  
HETATM   23  C   UNL     1      -8.835  15.599  66.798  1.00  0.00    -0.304 A  
HETATM   24  C   UNL     1     -10.790  16.062  68.128  1.00  0.00    -0.322 A  
BRANCH  22  25
HETATM   25  O   UNL     1      -7.706  17.491  65.708  1.00  0.00    -0.530 OA 
HETATM   26  C   UNL     1      -6.394  17.564  66.248  1.00  0.00    -0.244 C  
ENDBRANCH  22  25
BRANCH  21  27
HETATM   27  O   UNL     1      -9.407  19.199  66.684  1.00  0.00    -0.310 OA 
HETATM   28  C   UNL     1     -10.476  19.929  66.106  1.00  0.00    -0.473 C  
ENDBRANCH  21  27
ENDBRANCH   2  19
TORSDOF 6
ENDMDL
MODEL       27
REMARK 921   NORMALIZED FREE ENERGY PREDICTED BY IDOCK:   -5.88 KCAL/MOL
REMARK 922        TOTAL FREE ENERGY PREDICTED BY IDOCK:   -8.24 KCAL/MOL
REMARK 923 INTER-LIGAND FREE ENERGY PREDICTED BY IDOCK:   -7.82 KCAL/MOL
REMARK 924 INTRA-LIGAND FREE ENERGY PREDICTED BY IDOCK:   -0.43 KCAL/MOL
REMARK 927      BINDING AFFINITY PREDICTED BY RF-SCORE:    0.00 PKD
ROOT
HETATM    1  C   UNL     1     -11.384  12.184  68.348  1.00  0.00    -0.336 C  
HETATM    2  C   UNL     1     -10.364  12.575  67.558  1.00  0.00    -0.225 C  
ENDROOT
BRANCH   1   3
HETATM    3  C   UNL     1     -11.371  10.863  68.886  1.00  0.00    -0.288 A  
HETATM    4  N   UNL     1     -10.852   9.771  68.347  1.00  0.00    -0.224 NA 
HETATM    5  N   UNL     1     -10.573   7.495  69.130  1.00  0.00    -0.217 N  
HETATM    6  O   UNL     1     -10.334   5.437  70.119  1.00  0.00    -0.249 OA 
HETATM    7  C   UNL     1     -11.005   8.791  69.271  1.00  0.00     0.014 A  
HETATM    8  C   UNL     1     -11.636   9.238  70.391  1.00  0.00    -0.173 A  
HETATM    9  C   UNL     1     -10.767   6.592  70.175  1.00  0.00    -0.252 C  
HETATM   10  N   UNL     1     -11.888  10.567  70.147  1.00  0.00    -0.296 NA 
HETATM   11  C   UNL     1     -12.565  11.490  71.026  1.00  0.00    -0.357 C  
HETATM   12  N   UNL     1     -11.494   7.051  71.292  1.00  0.00    -0.272 N  
HETATM   13  C   UNL     1     -11.922   8.372  71.495  1.00  0.00    -0.299 C  
HETATM   14  O   UNL     1     -12.489   8.749  72.516  1.00  0.00    -0.382 OA 
BRANCH  12  15
HETATM   15  C   UNL     1     -11.830   6.066  72.319  1.00  0.00    -0.250 C  
HETATM   16  C   UNL     1     -10.738   5.883  73.363  1.00  0.00    -0.293 C  
ENDBRANCH  12  15
BRANCH   5  17
HETATM   17  C   UNL     1      -9.901   7.069  67.907  1.00  0.00    -0.138 C  
HETATM   18  C   UNL     1     -10.861   6.470  66.890  1.00  0.00    -0.427 C  
ENDBRANCH   5  17
ENDBRANCH   1   3
BRANCH   2  19
HETATM   19  C   UNL     1     -10.123  13.932  67.034  1.00  0.00    -0.256 A  
HETATM   20  C   UNL     1     -10.308  15.672  65.344  1.00  0.00    -0.421 A  
HETATM   21  C   UNL     1      -9.643  16.580  66.171  1.00  0.00    -0.315 A  
HETATM   22  C   UNL     1      -9.179  16.156  67.430  1.00  0.00    -0.208 A  
HETATM   23  C   UNL     1      -9.411  14.836  67.843  1.00  0.00    -0.201 A  
HETATM   24  C   UNL     1     -10.547  14.358  65.772  1.00  0.00    -0.326 A  
BRANCH  22  25
HETATM   25  O   UNL     1      -8.529  17.106  68.178  1.00  0.00    -0.213 OA 
HETATM   26  C   UNL     1      -7.419  16.699  68.962  1.00  0.00    -0.232 C  
ENDBRANCH  22  25
BRANCH  21  27
HETATM   27  O   UNL     1      -9.393  17.894  65.855  1.00  0.00    -0.520 OA 
HETATM   28  C   UNL     1     -10.392  18.856  66.152  1.00  0.00    -0.460 C  
ENDBRANCH  21  27
ENDBRANCH   2  19
TORSDOF 6
ENDMDL
MODEL       28
REMARK 921   NORMALIZED FREE ENERGY PREDICTED BY IDOCK:   -5.87 KCAL/MOL
REMARK 922        TOTAL FREE ENERGY PREDICTED BY IDOCK:   -8.23 KCAL/MOL
REMARK 923 INTER-LIGAND FREE ENERGY PREDICTED BY IDOCK:   -7.66 KCAL/MOL
REMARK 924 INTRA-LIGAND FREE ENERGY PREDICTED BY IDOCK:   -0.57 KCAL/MOL
REMARK 927      BINDING AFFINITY PREDICTED BY RF-SCORE:    0.00 PKD
ROOT
HETATM    1  C   UNL     1     -10.780   9.847  69.853  1.00  0.00    -0.318 C  
HETATM    2  C   UNL     1     -11.744  10.150  70.744  1.00  0.00    -0.446 C  
ENDROOT
BRANCH   1   3
HETATM    3  C   UNL     1     -10.443   8.476  69.643  1.00  0.00    -0.221 A  
HETATM    4  N   UNL     1     -10.185   7.554  70.556  1.00  0.00    -0.199 NA 
HETATM    5  N   UNL     1      -9.756   5.171  70.446  1.00  0.00    -0.185 N  
HETATM    6  O   UNL     1      -9.469   2.920  70.104  1.00  0.00    -0.160 OA 
HETATM    7  C   UNL     1     -10.012   6.394  69.876  1.00  0.00    -0.168 A  
HETATM    8  C   UNL     1     -10.137   6.566  68.532  1.00  0.00    -0.160 A  
HETATM    9  C   UNL     1      -9.631   4.048  69.629  1.00  0.00    -0.200 C  
HETATM   10  N   UNL     1     -10.401   7.906  68.371  1.00  0.00    -0.206 NA 
HETATM   11  C   UNL     1     -10.595   8.600  67.121  1.00  0.00    -0.234 C  
HETATM   12  N   UNL     1      -9.682   4.260  68.236  1.00  0.00    -0.131 N  
HETATM   13  C   UNL     1      -9.977   5.481  67.612  1.00  0.00    -0.156 C  
HETATM   14  O   UNL     1     -10.085   5.608  66.396  1.00  0.00    -0.172 OA 
BRANCH  12  15
HETATM   15  C   UNL     1      -9.400   3.111  67.378  1.00  0.00    -0.191 C  
HETATM   16  C   UNL     1      -7.926   2.963  67.029  1.00  0.00    -0.075 C  
ENDBRANCH  12  15
BRANCH   5  17
HETATM   17  C   UNL     1      -9.632   5.043  71.895  1.00  0.00    -0.152 C  
HETATM   18  C   UNL     1     -10.978   4.887  72.586  1.00  0.00    -0.255 C  
ENDBRANCH   5  17
ENDBRANCH   1   3
BRANCH   2  19
HETATM   19  C   UNL     1     -12.332  11.480  70.990  1.00  0.00    -0.434 A  
HETATM   20  C   UNL     1     -13.762  13.033  72.199  1.00  0.00    -0.547 A  
HETATM   21  C   UNL     1     -13.342  14.090  71.388  1.00  0.00    -0.317 A  
HETATM   22  C   UNL     1     -12.435  13.839  70.342  1.00  0.00    -0.314 A  
HETATM   23  C   UNL     1     -11.950  12.538  70.145  1.00  0.00    -0.377 A  
HETATM   24  C   UNL     1     -13.260  11.738  72.002  1.00  0.00    -0.460 A  
BRANCH  22  25
HETATM   25  O   UNL     1     -12.079  14.929  69.587  1.00  0.00    -0.300 OA 
HETATM   26  C   UNL     1     -11.416  14.702  68.352  1.00  0.00    -0.311 C  
ENDBRANCH  22  25
BRANCH  21  27
HETATM   27  O   UNL     1     -13.749  15.395  71.525  1.00  0.00    -0.472 OA 
HETATM   28  C   UNL     1     -13.750  15.963  72.825  1.00  0.00    -0.495 C  
ENDBRANCH  21  27
ENDBRANCH   2  19
TORSDOF 6
ENDMDL
MODEL       29
REMARK 921   NORMALIZED FREE ENERGY PREDICTED BY IDOCK:   -5.84 KCAL/MOL
REMARK 922        TOTAL FREE ENERGY PREDICTED BY IDOCK:   -8.19 KCAL/MOL
REMARK 923 INTER-LIGAND FREE ENERGY PREDICTED BY IDOCK:   -7.76 KCAL/MOL
REMARK 924 INTRA-LIGAND FREE ENERGY PREDICTED BY IDOCK:   -0.44 KCAL/MOL
REMARK 927      BINDING AFFINITY PREDICTED BY RF-SCORE:    0.00 PKD
ROOT
HETATM    1  C   UNL     1      -8.991  11.892  68.574  1.00  0.00    -0.115 C  
HETATM    2  C   UNL     1     -10.012  11.246  69.170  1.00  0.00    -0.058 C  
ENDROOT
BRANCH   1   3
HETATM    3  C   UNL     1      -9.262  13.096  67.857  1.00  0.00    -0.207 A  
HETATM    4  N   UNL     1      -9.943  13.235  66.731  1.00  0.00    -0.256 NA 
HETATM    5  N   UNL     1     -10.657  15.158  65.440  1.00  0.00    -0.359 N  
HETATM    6  O   UNL     1     -11.302  17.121  64.441  1.00  0.00    -1.115 OA 
HETATM    7  C   UNL     1     -10.007  14.569  66.497  1.00  0.00    -0.280 A  
HETATM    8  C   UNL     1      -9.357  15.287  67.453  1.00  0.00    -0.199 A  
HETATM    9  C   UNL     1     -10.673  16.548  65.336  1.00  0.00    -0.259 C  
HETATM   10  N   UNL     1      -8.862  14.348  68.325  1.00  0.00    -0.176 NA 
HETATM   11  C   UNL     1      -8.071  14.601  69.505  1.00  0.00     0.100 C  
HETATM   12  N   UNL     1      -9.925  17.271  66.288  1.00  0.00    -0.301 N  
HETATM   13  C   UNL     1      -9.279  16.716  67.403  1.00  0.00    -0.213 C  
HETATM   14  O   UNL     1      -8.700  17.388  68.251  1.00  0.00    -0.245 OA 
BRANCH  12  15
HETATM   15  C   UNL     1      -9.816  18.715  66.091  1.00  0.00    -0.287 C  
HETATM   16  C   UNL     1     -10.855  19.513  66.866  1.00  0.00    -0.523 C  
ENDBRANCH  12  15
BRANCH   5  17
HETATM   17  C   UNL     1     -11.340  14.338  64.443  1.00  0.00    -0.273 C  
HETATM   18  C   UNL     1     -12.646  13.756  64.961  1.00  0.00    -0.427 C  
ENDBRANCH   5  17
ENDBRANCH   1   3
BRANCH   2  19
HETATM   19  C   UNL     1      -9.914  10.082  70.071  1.00  0.00    -0.273 A  
HETATM   20  C   UNL     1      -8.684   8.343  71.248  1.00  0.00    -0.203 A  
HETATM   21  C   UNL     1      -9.858   7.893  71.858  1.00  0.00    -0.178 A  
HETATM   22  C   UNL     1     -11.080   8.517  71.548  1.00  0.00    -0.275 A  
HETATM   23  C   UNL     1     -11.099   9.593  70.650  1.00  0.00    -0.384 A  
HETATM   24  C   UNL     1      -8.712   9.430  70.362  1.00  0.00    -0.278 A  
BRANCH  22  25
HETATM   25  O   UNL     1     -12.187   8.009  72.183  1.00  0.00    -0.314 OA 
HETATM   26  C   UNL     1     -13.213   7.435  71.388  1.00  0.00    -0.339 C  
ENDBRANCH  22  25
BRANCH  21  27
HETATM   27  O   UNL     1      -9.926   6.862  72.763  1.00  0.00    -0.164 OA 
HETATM   28  C   UNL     1      -9.705   5.543  72.293  1.00  0.00    -0.156 C  
ENDBRANCH  21  27
ENDBRANCH   2  19
TORSDOF 6
ENDMDL
MODEL       30
REMARK 921   NORMALIZED FREE ENERGY PREDICTED BY IDOCK:   -5.76 KCAL/MOL
REMARK 922        TOTAL FREE ENERGY PREDICTED BY IDOCK:   -8.07 KCAL/MOL
REMARK 923 INTER-LIGAND FREE ENERGY PREDICTED BY IDOCK:   -7.63 KCAL/MOL
REMARK 924 INTRA-LIGAND FREE ENERGY PREDICTED BY IDOCK:   -0.44 KCAL/MOL
REMARK 927      BINDING AFFINITY PREDICTED BY RF-SCORE:    0.00 PKD
ROOT
HETATM    1  C   UNL     1      -8.489  12.072  68.440  1.00  0.00    -0.147 C  
HETATM    2  C   UNL     1      -9.337  11.025  68.393  1.00  0.00    -0.179 C  
ENDROOT
BRANCH   1   3
HETATM    3  C   UNL     1      -8.848  13.280  67.771  1.00  0.00    -0.197 A  
HETATM    4  N   UNL     1      -9.638  13.422  66.718  1.00  0.00    -0.256 NA 
HETATM    5  N   UNL     1     -10.505  15.348  65.531  1.00  0.00    -0.350 N  
HETATM    6  O   UNL     1     -11.275  17.312  64.628  1.00  0.00    -1.014 OA 
HETATM    7  C   UNL     1      -9.746  14.757  66.511  1.00  0.00    -0.278 A  
HETATM    8  C   UNL     1      -9.018  15.475  67.410  1.00  0.00    -0.192 A  
HETATM    9  C   UNL     1     -10.554  16.740  65.449  1.00  0.00    -0.203 C  
HETATM   10  N   UNL     1      -8.425  14.532  68.216  1.00  0.00    -0.154 NA 
HETATM   11  C   UNL     1      -7.528  14.785  69.318  1.00  0.00    -0.162 C  
HETATM   12  N   UNL     1      -9.729  17.463  66.335  1.00  0.00    -0.287 N  
HETATM   13  C   UNL     1      -8.968  16.905  67.374  1.00  0.00    -0.209 C  
HETATM   14  O   UNL     1      -8.321  17.576  68.171  1.00  0.00    -0.233 OA 
BRANCH  12  15
HETATM   15  C   UNL     1      -9.663  18.911  66.149  1.00  0.00    -0.277 C  
HETATM   16  C   UNL     1     -10.658  19.678  67.009  1.00  0.00    -0.602 C  
ENDBRANCH  12  15
BRANCH   5  17
HETATM   17  C   UNL     1     -11.268  14.530  64.593  1.00  0.00    -0.353 C  
HETATM   18  C   UNL     1     -12.614  14.098  65.154  1.00  0.00    -0.426 C  
ENDBRANCH   5  17
ENDBRANCH   1   3
BRANCH   2  19
HETATM   19  C   UNL     1      -9.215   9.757  69.136  1.00  0.00    -0.177 A  
HETATM   20  C   UNL     1      -8.455   7.462  69.404  1.00  0.00    -0.133 A  
HETATM   21  C   UNL     1      -9.009   7.403  70.686  1.00  0.00    -0.155 A  
HETATM   22  C   UNL     1      -9.706   8.517  71.188  1.00  0.00    -0.201 A  
HETATM   23  C   UNL     1      -9.814   9.675  70.406  1.00  0.00    -0.315 A  
HETATM   24  C   UNL     1      -8.557   8.630  68.636  1.00  0.00    -0.131 A  
BRANCH  22  25
HETATM   25  O   UNL     1     -10.227   8.375  72.451  1.00  0.00    -0.302 OA 
HETATM   26  C   UNL     1     -11.586   7.984  72.576  1.00  0.00    -0.403 C  
ENDBRANCH  22  25
BRANCH  21  27
HETATM   27  O   UNL     1      -8.932   6.318  71.525  1.00  0.00    -0.142 OA 
HETATM   28  C   UNL     1      -9.287   5.046  71.009  1.00  0.00    -0.152 C  
ENDBRANCH  21  27
ENDBRANCH   2  19
TORSDOF 6
ENDMDL
MODEL       31
REMARK 921   NORMALIZED FREE ENERGY PREDICTED BY IDOCK:   -5.72 KCAL/MOL
REMARK 922        TOTAL FREE ENERGY PREDICTED BY IDOCK:   -8.02 KCAL/MOL
REMARK 923 INTER-LIGAND FREE ENERGY PREDICTED BY IDOCK:   -7.45 KCAL/MOL
REMARK 924 INTRA-LIGAND FREE ENERGY PREDICTED BY IDOCK:   -0.58 KCAL/MOL
REMARK 927      BINDING AFFINITY PREDICTED BY RF-SCORE:    0.00 PKD
ROOT
HETATM    1  C   UNL     1     -10.673  12.655  68.469  1.00  0.00    -0.271 C  
HETATM    2  C   UNL     1     -11.313  12.433  69.633  1.00  0.00    -0.193 C  
ENDROOT
BRANCH   1   3
HETATM    3  C   UNL     1     -10.135  13.952  68.214  1.00  0.00    -0.241 A  
HETATM    4  N   UNL     1      -9.115  14.541  68.817  1.00  0.00    -0.184 NA 
HETATM    5  N   UNL     1      -7.944  16.631  68.453  1.00  0.00    -0.195 N  
HETATM    6  O   UNL     1      -6.933  18.605  67.861  1.00  0.00    -0.216 OA 
HETATM    7  C   UNL     1      -8.928  15.717  68.168  1.00  0.00    -0.179 A  
HETATM    8  C   UNL     1      -9.831  15.897  67.166  1.00  0.00    -0.231 A  
HETATM    9  C   UNL     1      -7.843  17.790  67.684  1.00  0.00    -0.209 C  
HETATM   10  N   UNL     1     -10.621  14.773  67.197  1.00  0.00    -0.280 NA 
HETATM   11  C   UNL     1     -11.749  14.490  66.341  1.00  0.00    -0.363 C  
HETATM   12  N   UNL     1      -8.837  17.998  66.705  1.00  0.00    -0.256 N  
HETATM   13  C   UNL     1      -9.836  17.077  66.355  1.00  0.00    -0.299 C  
HETATM   14  O   UNL     1     -10.638  17.265  65.446  1.00  0.00    -0.630 OA 
BRANCH  12  15
HETATM   15  C   UNL     1      -8.822  19.280  66.003  1.00  0.00    -0.119 C  
HETATM   16  C   UNL     1      -9.721  20.329  66.641  1.00  0.00    -0.550 C  
ENDBRANCH  12  15
BRANCH   5  17
HETATM   17  C   UNL     1      -7.000  16.387  69.540  1.00  0.00    -0.156 C  
HETATM   18  C   UNL     1      -5.761  15.635  69.080  1.00  0.00    -0.104 C  
ENDBRANCH   5  17
ENDBRANCH   1   3
BRANCH   2  19
HETATM   19  C   UNL     1     -11.802  11.138  70.140  1.00  0.00    -0.449 A  
HETATM   20  C   UNL     1     -13.379   9.732  71.347  1.00  0.00    -0.449 A  
HETATM   21  C   UNL     1     -12.658   8.586  71.003  1.00  0.00    -0.045 A  
HETATM   22  C   UNL     1     -11.476   8.714  70.251  1.00  0.00    -0.076 A  
HETATM   23  C   UNL     1     -11.053   9.985  69.839  1.00  0.00    -0.336 A  
HETATM   24  C   UNL     1     -12.955  10.998  70.918  1.00  0.00    -0.314 A  
BRANCH  22  25
HETATM   25  O   UNL     1     -10.823   7.541  69.963  1.00  0.00    -0.247 OA 
HETATM   26  C   UNL     1     -10.273   7.381  68.664  1.00  0.00    -0.191 C  
ENDBRANCH  22  25
BRANCH  21  27
HETATM   27  O   UNL     1     -13.012   7.303  71.346  1.00  0.00    -0.371 OA 
HETATM   28  C   UNL     1     -14.354   7.061  71.735  1.00  0.00    -0.294 C  
ENDBRANCH  21  27
ENDBRANCH   2  19
TORSDOF 6
ENDMDL
MODEL       32
REMARK 921   NORMALIZED FREE ENERGY PREDICTED BY IDOCK:   -5.70 KCAL/MOL
REMARK 922        TOTAL FREE ENERGY PREDICTED BY IDOCK:   -8.00 KCAL/MOL
REMARK 923 INTER-LIGAND FREE ENERGY PREDICTED BY IDOCK:   -7.50 KCAL/MOL
REMARK 924 INTRA-LIGAND FREE ENERGY PREDICTED BY IDOCK:   -0.49 KCAL/MOL
REMARK 927      BINDING AFFINITY PREDICTED BY RF-SCORE:    0.00 PKD
ROOT
HETATM    1  C   UNL     1      -9.239  13.679  68.373  1.00  0.00    -0.169 C  
HETATM    2  C   UNL     1     -10.558  13.474  68.562  1.00  0.00    -0.257 C  
ENDROOT
BRANCH   1   3
HETATM    3  C   UNL     1      -8.813  14.891  67.752  1.00  0.00    -0.173 A  
HETATM    4  N   UNL     1      -9.549  15.944  67.435  1.00  0.00    -0.220 NA 
HETATM    5  N   UNL     1      -9.028  18.136  66.541  1.00  0.00    -0.282 N  
HETATM    6  O   UNL     1      -8.286  20.170  65.781  1.00  0.00    -0.232 OA 
HETATM    7  C   UNL     1      -8.685  16.873  66.957  1.00  0.00    -0.209 A  
HETATM    8  C   UNL     1      -7.402  16.419  66.945  1.00  0.00    -0.234 A  
HETATM    9  C   UNL     1      -8.031  19.006  66.100  1.00  0.00    -0.255 C  
HETATM   10  N   UNL     1      -7.476  15.139  67.442  1.00  0.00    -0.198 NA 
HETATM   11  C   UNL     1      -6.379  14.217  67.611  1.00  0.00    -0.111 C  
HETATM   12  N   UNL     1      -6.722  18.490  66.018  1.00  0.00    -0.236 N  
HETATM   13  C   UNL     1      -6.319  17.222  66.465  1.00  0.00    -0.227 C  
HETATM   14  O   UNL     1      -5.154  16.839  66.444  1.00  0.00    -0.361 OA 
BRANCH  12  15
HETATM   15  C   UNL     1      -5.705  19.349  65.413  1.00  0.00    -0.178 C  
HETATM   16  C   UNL     1      -5.550  19.141  63.913  1.00  0.00    -0.325 C  
ENDBRANCH  12  15
BRANCH   5  17
HETATM   17  C   UNL     1     -10.421  18.571  66.575  1.00  0.00    -0.398 C  
HETATM   18  C   UNL     1     -10.729  19.452  67.776  1.00  0.00    -0.480 C  
ENDBRANCH   5  17
ENDBRANCH   1   3
BRANCH   2  19
HETATM   19  C   UNL     1     -11.180  12.367  69.311  1.00  0.00    -0.264 A  
HETATM   20  C   UNL     1     -12.777  11.446  70.899  1.00  0.00    -0.397 A  
HETATM   21  C   UNL     1     -12.324  10.149  70.639  1.00  0.00    -0.293 A  
HETATM   22  C   UNL     1     -11.264   9.957  69.734  1.00  0.00    -0.235 A  
HETATM   23  C   UNL     1     -10.695  11.065  69.091  1.00  0.00    -0.274 A  
HETATM   24  C   UNL     1     -12.210  12.546  70.239  1.00  0.00    -0.345 A  
BRANCH  22  25
HETATM   25  O   UNL     1     -10.873   8.655  69.542  1.00  0.00    -0.215 OA 
HETATM   26  C   UNL     1     -10.387   8.283  68.261  1.00  0.00    -0.198 C  
ENDBRANCH  22  25
BRANCH  21  27
HETATM   27  O   UNL     1     -12.838   9.010  71.209  1.00  0.00    -0.311 OA 
HETATM   28  C   UNL     1     -13.432   9.112  72.492  1.00  0.00    -0.428 C  
ENDBRANCH  21  27
ENDBRANCH   2  19
TORSDOF 6
ENDMDL
MODEL       33
REMARK 921   NORMALIZED FREE ENERGY PREDICTED BY IDOCK:   -5.69 KCAL/MOL
REMARK 922        TOTAL FREE ENERGY PREDICTED BY IDOCK:   -7.99 KCAL/MOL
REMARK 923 INTER-LIGAND FREE ENERGY PREDICTED BY IDOCK:   -7.94 KCAL/MOL
REMARK 924 INTRA-LIGAND FREE ENERGY PREDICTED BY IDOCK:   -0.05 KCAL/MOL
REMARK 927      BINDING AFFINITY PREDICTED BY RF-SCORE:    0.00 PKD
ROOT
HETATM    1  C   UNL     1     -10.681  10.214  67.167  1.00  0.00    -0.286 C  
HETATM    2  C   UNL     1     -10.470   8.920  67.480  1.00  0.00    -0.337 C  
ENDROOT
BRANCH   1   3
HETATM    3  C   UNL     1     -11.272  11.071  68.143  1.00  0.00    -0.302 A  
HETATM    4  N   UNL     1     -11.948  10.724  69.226  1.00  0.00    -0.296 NA 
HETATM    5  N   UNL     1     -12.888  11.973  71.078  1.00  0.00    -0.251 N  
HETATM    6  O   UNL     1     -13.608  13.351  72.766  1.00  0.00    -0.656 OA 
HETATM    7  C   UNL     1     -12.224  11.879  69.880  1.00  0.00    -0.199 A  
HETATM    8  C   UNL     1     -11.747  12.968  69.216  1.00  0.00    -0.320 A  
HETATM    9  C   UNL     1     -13.077  13.227  71.659  1.00  0.00    -0.363 C  
HETATM   10  N   UNL     1     -11.145  12.459  68.090  1.00  0.00    -0.231 NA 
HETATM   11  C   UNL     1     -10.503  13.215  67.041  1.00  0.00    -0.248 C  
HETATM   12  N   UNL     1     -12.650  14.348  70.918  1.00  0.00    -0.330 N  
HETATM   13  C   UNL     1     -11.936  14.298  69.711  1.00  0.00    -0.339 C  
HETATM   14  O   UNL     1     -11.517  15.296  69.133  1.00  0.00    -0.277 OA 
BRANCH  12  15
HETATM   15  C   UNL     1     -12.984  15.666  71.453  1.00  0.00    -0.487 C  
HETATM   16  C   UNL     1     -11.919  16.229  72.384  1.00  0.00    -0.630 C  
ENDBRANCH  12  15
BRANCH   5  17
HETATM   17  C   UNL     1     -13.378  10.772  71.748  1.00  0.00    -0.326 C  
HETATM   18  C   UNL     1     -12.295   9.719  71.925  1.00  0.00    -0.417 C  
ENDBRANCH   5  17
ENDBRANCH   1   3
BRANCH   2  19
HETATM   19  C   UNL     1      -9.744   7.924  66.672  1.00  0.00    -0.305 A  
HETATM   20  C   UNL     1      -8.086   7.258  65.020  1.00  0.00    -0.120 A  
HETATM   21  C   UNL     1      -8.389   5.909  65.224  1.00  0.00    -0.146 A  
HETATM   22  C   UNL     1      -9.405   5.560  66.133  1.00  0.00    -0.157 A  
HETATM   23  C   UNL     1     -10.079   6.567  66.836  1.00  0.00    -0.253 A  
HETATM   24  C   UNL     1      -8.757   8.257  65.739  1.00  0.00    -0.196 A  
BRANCH  22  25
HETATM   25  O   UNL     1      -9.647   4.215  66.268  1.00  0.00    -0.172 OA 
HETATM   26  C   UNL     1      -9.421   3.617  67.536  1.00  0.00    -0.191 C  
ENDBRANCH  22  25
BRANCH  21  27
HETATM   27  O   UNL     1      -7.764   4.860  64.594  1.00  0.00    -0.075 OA 
HETATM   28  C   UNL     1      -6.408   5.020  64.213  1.00  0.00    -0.033 C  
ENDBRANCH  21  27
ENDBRANCH   2  19
TORSDOF 6
ENDMDL
MODEL       34
REMARK 921   NORMALIZED FREE ENERGY PREDICTED BY IDOCK:   -5.66 KCAL/MOL
REMARK 922        TOTAL FREE ENERGY PREDICTED BY IDOCK:   -7.94 KCAL/MOL
REMARK 923 INTER-LIGAND FREE ENERGY PREDICTED BY IDOCK:   -7.48 KCAL/MOL
REMARK 924 INTRA-LIGAND FREE ENERGY PREDICTED BY IDOCK:   -0.46 KCAL/MOL
REMARK 927      BINDING AFFINITY PREDICTED BY RF-SCORE:    0.00 PKD
ROOT
HETATM    1  C   UNL     1     -10.553   9.565  67.753  1.00  0.00    -0.318 C  
HETATM    2  C   UNL     1     -10.965  10.811  68.064  1.00  0.00    -0.336 C  
ENDROOT
BRANCH   1   3
HETATM    3  C   UNL     1     -10.480   8.586  68.788  1.00  0.00    -0.184 A  
HETATM    4  N   UNL     1     -11.255   8.472  69.855  1.00  0.00    -0.110 NA 
HETATM    5  N   UNL     1     -11.420   6.830  71.629  1.00  0.00    -0.267 N  
HETATM    6  O   UNL     1     -11.453   5.106  73.144  1.00  0.00    -0.323 OA 
HETATM    7  C   UNL     1     -10.856   7.341  70.486  1.00  0.00    -0.243 A  
HETATM    8  C   UNL     1      -9.818   6.737  69.846  1.00  0.00    -0.164 A  
HETATM    9  C   UNL     1     -10.932   5.635  72.159  1.00  0.00    -0.250 C  
HETATM   10  N   UNL     1      -9.560   7.538  68.759  1.00  0.00    -0.148 NA 
HETATM   11  C   UNL     1      -8.528   7.341  67.770  1.00  0.00    -0.121 C  
HETATM   12  N   UNL     1      -9.805   5.069  71.528  1.00  0.00    -0.172 N  
HETATM   13  C   UNL     1      -9.220   5.535  70.341  1.00  0.00    -0.151 C  
HETATM   14  O   UNL     1      -8.284   4.969  69.783  1.00  0.00    -0.076 OA 
BRANCH  12  15
HETATM   15  C   UNL     1      -9.199   3.904  72.170  1.00  0.00    -0.119 C  
HETATM   16  C   UNL     1      -9.835   2.585  71.754  1.00  0.00    -0.226 C  
ENDBRANCH  12  15
BRANCH   5  17
HETATM   17  C   UNL     1     -12.533   7.519  72.276  1.00  0.00    -0.115 C  
HETATM   18  C   UNL     1     -13.862   7.263  71.582  1.00  0.00    -0.461 C  
ENDBRANCH   5  17
ENDBRANCH   1   3
BRANCH   2  19
HETATM   19  C   UNL     1     -11.246  11.908  67.120  1.00  0.00    -0.377 A  
HETATM   20  C   UNL     1     -12.054  14.133  66.554  1.00  0.00    -0.481 A  
HETATM   21  C   UNL     1     -11.682  13.954  65.219  1.00  0.00    -0.340 A  
HETATM   22  C   UNL     1     -11.119  12.729  64.818  1.00  0.00    -0.302 A  
HETATM   23  C   UNL     1     -10.919  11.716  65.766  1.00  0.00    -0.329 A  
HETATM   24  C   UNL     1     -11.837  13.118  67.497  1.00  0.00    -0.409 A  
BRANCH  22  25
HETATM   25  O   UNL     1     -10.790  12.632  63.488  1.00  0.00    -0.429 OA 
HETATM   26  C   UNL     1      -9.888  11.608  63.093  1.00  0.00    -0.382 C  
ENDBRANCH  22  25
BRANCH  21  27
HETATM   27  O   UNL     1     -11.823  14.899  64.232  1.00  0.00    -0.386 OA 
HETATM   28  C   UNL     1     -11.332  16.206  64.482  1.00  0.00    -0.267 C  
ENDBRANCH  21  27
ENDBRANCH   2  19
TORSDOF 6
ENDMDL
MODEL       35
REMARK 921   NORMALIZED FREE ENERGY PREDICTED BY IDOCK:   -5.65 KCAL/MOL
REMARK 922        TOTAL FREE ENERGY PREDICTED BY IDOCK:   -7.94 KCAL/MOL
REMARK 923 INTER-LIGAND FREE ENERGY PREDICTED BY IDOCK:   -7.72 KCAL/MOL
REMARK 924 INTRA-LIGAND FREE ENERGY PREDICTED BY IDOCK:   -0.21 KCAL/MOL
REMARK 927      BINDING AFFINITY PREDICTED BY RF-SCORE:    0.00 PKD
ROOT
HETATM    1  C   UNL     1     -10.615  14.234  68.033  1.00  0.00    -0.238 C  
HETATM    2  C   UNL     1      -9.439  14.854  68.253  1.00  0.00    -0.210 C  
ENDROOT
BRANCH   1   3
HETATM    3  C   UNL     1     -11.017  13.186  68.914  1.00  0.00    -0.230 A  
HETATM    4  N   UNL     1     -11.934  13.232  69.867  1.00  0.00    -0.334 NA 
HETATM    5  N   UNL     1     -12.881  11.568  71.353  1.00  0.00    -0.418 N  
HETATM    6  O   UNL     1     -13.693   9.809  72.584  1.00  0.00    -0.263 OA 
HETATM    7  C   UNL     1     -12.020  11.973  70.362  1.00  0.00    -0.291 A  
HETATM    8  C   UNL     1     -11.153  11.122  69.749  1.00  0.00    -0.202 A  
HETATM    9  C   UNL     1     -12.889  10.230  71.747  1.00  0.00    -0.460 C  
HETATM   10  N   UNL     1     -10.493  11.896  68.825  1.00  0.00    -0.207 NA 
HETATM   11  C   UNL     1      -9.447  11.464  67.929  1.00  0.00    -0.174 C  
HETATM   12  N   UNL     1     -11.928   9.383  71.159  1.00  0.00    -0.317 N  
HETATM   13  C   UNL     1     -11.056   9.743  70.120  1.00  0.00    -0.285 C  
HETATM   14  O   UNL     1     -10.284   8.954  69.584  1.00  0.00    -0.194 OA 
BRANCH  12  15
HETATM   15  C   UNL     1     -11.834   8.020  71.681  1.00  0.00    -0.289 C  
HETATM   16  C   UNL     1     -10.846   7.878  72.830  1.00  0.00    -0.451 C  
ENDBRANCH  12  15
BRANCH   5  17
HETATM   17  C   UNL     1     -13.792  12.523  71.976  1.00  0.00     0.006 C  
HETATM   18  C   UNL     1     -13.062  13.576  72.796  1.00  0.00    -0.287 C  
ENDBRANCH   5  17
ENDBRANCH   1   3
BRANCH   2  19
HETATM   19  C   UNL     1      -8.925  16.045  67.553  1.00  0.00    -0.201 A  
HETATM   20  C   UNL     1      -7.302  17.222  66.174  1.00  0.00    -0.316 A  
HETATM   21  C   UNL     1      -8.078  18.384  66.209  1.00  0.00    -0.221 A  
HETATM   22  C   UNL     1      -9.273  18.393  66.952  1.00  0.00    -0.287 A  
HETATM   23  C   UNL     1      -9.677  17.232  67.625  1.00  0.00    -0.272 A  
HETATM   24  C   UNL     1      -7.723  16.062  66.840  1.00  0.00    -0.279 A  
BRANCH  22  25
HETATM   25  O   UNL     1      -9.972  19.574  66.942  1.00  0.00    -0.336 OA 
HETATM   26  C   UNL     1     -10.326  20.155  68.188  1.00  0.00    -0.300 C  
ENDBRANCH  22  25
BRANCH  21  27
HETATM   27  O   UNL     1      -7.768  19.555  65.562  1.00  0.00    -0.419 OA 
HETATM   28  C   UNL     1      -6.401  19.915  65.448  1.00  0.00    -0.250 C  
ENDBRANCH  21  27
ENDBRANCH   2  19
TORSDOF 6
ENDMDL
MODEL       36
REMARK 921   NORMALIZED FREE ENERGY PREDICTED BY IDOCK:   -5.65 KCAL/MOL
REMARK 922        TOTAL FREE ENERGY PREDICTED BY IDOCK:   -7.93 KCAL/MOL
REMARK 923 INTER-LIGAND FREE ENERGY PREDICTED BY IDOCK:   -7.38 KCAL/MOL
REMARK 924 INTRA-LIGAND FREE ENERGY PREDICTED BY IDOCK:   -0.55 KCAL/MOL
REMARK 927      BINDING AFFINITY PREDICTED BY RF-SCORE:    0.00 PKD
ROOT
HETATM    1  C   UNL     1     -11.650   8.778  70.722  1.00  0.00    -0.288 C  
HETATM    2  C   UNL     1     -10.621   8.223  71.393  1.00  0.00    -0.279 C  
ENDROOT
BRANCH   1   3
HETATM    3  C   UNL     1     -11.473  10.065  70.131  1.00  0.00    -0.277 A  
HETATM    4  N   UNL     1     -10.779  10.372  69.047  1.00  0.00    -0.213 NA 
HETATM    5  N   UNL     1     -10.473  12.419  67.787  1.00  0.00    -0.214 N  
HETATM    6  O   UNL     1     -10.409  14.444  66.707  1.00  0.00    -0.268 OA 
HETATM    7  C   UNL     1     -10.987  11.695  68.835  1.00  0.00    -0.233 A  
HETATM    8  C   UNL     1     -11.793  12.245  69.783  1.00  0.00    -0.318 A  
HETATM    9  C   UNL     1     -10.793  13.772  67.669  1.00  0.00    -0.254 C  
HETATM   10  N   UNL     1     -12.100  11.206  70.630  1.00  0.00    -0.364 NA 
HETATM   11  C   UNL     1     -12.915  11.278  71.819  1.00  0.00    -0.414 C  
HETATM   12  N   UNL     1     -11.561  14.342  68.705  1.00  0.00    -0.298 N  
HETATM   13  C   UNL     1     -12.136  13.634  69.771  1.00  0.00    -0.334 C  
HETATM   14  O   UNL     1     -12.861  14.155  70.613  1.00  0.00    -0.336 OA 
BRANCH  12  15
HETATM   15  C   UNL     1     -11.768  15.788  68.661  1.00  0.00    -0.344 C  
HETATM   16  C   UNL     1     -10.680  16.577  69.376  1.00  0.00    -0.330 C  
ENDBRANCH  12  15
BRANCH   5  17
HETATM   17  C   UNL     1      -9.613  11.779  66.797  1.00  0.00    -0.200 C  
HETATM   18  C   UNL     1     -10.403  11.102  65.688  1.00  0.00    -0.311 C  
ENDBRANCH   5  17
ENDBRANCH   1   3
BRANCH   2  19
HETATM   19  C   UNL     1     -10.559   6.856  71.940  1.00  0.00    -0.236 A  
HETATM   20  C   UNL     1     -10.816   5.212  73.716  1.00  0.00    -0.345 A  
HETATM   21  C   UNL     1     -10.449   4.181  72.848  1.00  0.00    -0.172 A  
HETATM   22  C   UNL     1     -10.097   4.488  71.521  1.00  0.00    -0.169 A  
HETATM   23  C   UNL     1     -10.142   5.820  71.084  1.00  0.00    -0.257 A  
HETATM   24  C   UNL     1     -10.872   6.539  73.265  1.00  0.00    -0.276 A  
BRANCH  22  25
HETATM   25  O   UNL     1      -9.741   3.420  70.735  1.00  0.00    -0.177 OA 
HETATM   26  C   UNL     1      -9.515   3.649  69.353  1.00  0.00    -0.179 C  
ENDBRANCH  22  25
BRANCH  21  27
HETATM   27  O   UNL     1     -10.399   2.850  73.186  1.00  0.00    -0.131 OA 
HETATM   28  C   UNL     1     -11.604   2.214  73.579  1.00  0.00    -0.169 C  
ENDBRANCH  21  27
ENDBRANCH   2  19
TORSDOF 6
ENDMDL
MODEL       37
REMARK 921   NORMALIZED FREE ENERGY PREDICTED BY IDOCK:   -5.63 KCAL/MOL
REMARK 922        TOTAL FREE ENERGY PREDICTED BY IDOCK:   -7.91 KCAL/MOL
REMARK 923 INTER-LIGAND FREE ENERGY PREDICTED BY IDOCK:   -7.54 KCAL/MOL
REMARK 924 INTRA-LIGAND FREE ENERGY PREDICTED BY IDOCK:   -0.36 KCAL/MOL
REMARK 927      BINDING AFFINITY PREDICTED BY RF-SCORE:    0.00 PKD
ROOT
HETATM    1  C   UNL     1      -9.363  11.822  68.571  1.00  0.00    -0.158 C  
HETATM    2  C   UNL     1     -10.438  11.133  69.004  1.00  0.00    -0.233 C  
ENDROOT
BRANCH   1   3
HETATM    3  C   UNL     1      -9.568  13.021  67.826  1.00  0.00    -0.208 A  
HETATM    4  N   UNL     1     -10.252  13.173  66.703  1.00  0.00    -0.254 NA 
HETATM    5  N   UNL     1     -10.860  15.102  65.368  1.00  0.00    -0.357 N  
HETATM    6  O   UNL     1     -11.392  17.075  64.323  1.00  0.00    -1.191 OA 
HETATM    7  C   UNL     1     -10.236  14.502  66.434  1.00  0.00    -0.287 A  
HETATM    8  C   UNL     1      -9.531  15.203  67.363  1.00  0.00    -0.204 A  
HETATM    9  C   UNL     1     -10.790  16.488  65.227  1.00  0.00    -0.221 C  
HETATM   10  N   UNL     1      -9.086  14.257  68.256  1.00  0.00    -0.184 NA 
HETATM   11  C   UNL     1      -8.267  14.492  69.421  1.00  0.00     0.136 C  
HETATM   12  N   UNL     1      -9.988  17.187  66.152  1.00  0.00    -0.295 N  
HETATM   13  C   UNL     1      -9.365  16.622  67.275  1.00  0.00    -0.230 C  
HETATM   14  O   UNL     1      -8.736  17.279  68.098  1.00  0.00    -0.228 OA 
BRANCH  12  15
HETATM   15  C   UNL     1      -9.792  18.616  65.915  1.00  0.00    -0.030 C  
HETATM   16  C   UNL     1     -10.708  19.500  66.750  1.00  0.00    -0.569 C  
ENDBRANCH  12  15
BRANCH   5  17
HETATM   17  C   UNL     1     -11.603  14.301  64.400  1.00  0.00    -0.344 C  
HETATM   18  C   UNL     1     -12.908  13.763  64.966  1.00  0.00    -0.319 C  
ENDBRANCH   5  17
ENDBRANCH   1   3
BRANCH   2  19
HETATM   19  C   UNL     1     -10.435   9.967  69.905  1.00  0.00    -0.309 A  
HETATM   20  C   UNL     1     -11.244   8.695  71.815  1.00  0.00    -0.396 A  
HETATM   21  C   UNL     1     -10.364   7.650  71.523  1.00  0.00    -0.196 A  
HETATM   22  C   UNL     1      -9.483   7.774  70.433  1.00  0.00    -0.164 A  
HETATM   23  C   UNL     1      -9.517   8.933  69.645  1.00  0.00    -0.168 A  
HETATM   24  C   UNL     1     -11.280   9.844  71.012  1.00  0.00    -0.435 A  
BRANCH  22  25
HETATM   25  O   UNL     1      -8.646   6.707  70.219  1.00  0.00    -0.137 OA 
HETATM   26  C   UNL     1      -7.246   6.943  70.213  1.00  0.00    -0.076 C  
ENDBRANCH  22  25
BRANCH  21  27
HETATM   27  O   UNL     1     -10.280   6.474  72.228  1.00  0.00    -0.183 OA 
HETATM   28  C   UNL     1     -10.352   6.536  73.643  1.00  0.00    -0.304 C  
ENDBRANCH  21  27
ENDBRANCH   2  19
TORSDOF 6
ENDMDL
MODEL       38
REMARK 921   NORMALIZED FREE ENERGY PREDICTED BY IDOCK:   -5.61 KCAL/MOL
REMARK 922        TOTAL FREE ENERGY PREDICTED BY IDOCK:   -7.88 KCAL/MOL
REMARK 923 INTER-LIGAND FREE ENERGY PREDICTED BY IDOCK:   -7.32 KCAL/MOL
REMARK 924 INTRA-LIGAND FREE ENERGY PREDICTED BY IDOCK:   -0.57 KCAL/MOL
REMARK 927      BINDING AFFINITY PREDICTED BY RF-SCORE:    0.00 PKD
ROOT
HETATM    1  C   UNL     1      -9.899  10.102  68.163  1.00  0.00    -0.164 C  
HETATM    2  C   UNL     1     -10.755   9.928  69.189  1.00  0.00    -0.247 C  
ENDROOT
BRANCH   1   3
HETATM    3  C   UNL     1      -9.838  11.378  67.527  1.00  0.00    -0.178 A  
HETATM    4  N   UNL     1     -10.691  11.894  66.657  1.00  0.00    -0.245 NA 
HETATM    5  N   UNL     1     -10.877  14.060  65.586  1.00  0.00    -0.288 N  
HETATM    6  O   UNL     1     -10.902  16.206  64.771  1.00  0.00    -0.634 OA 
HETATM    7  C   UNL     1     -10.258  13.155  66.413  1.00  0.00    -0.286 A  
HETATM    8  C   UNL     1      -9.123  13.448  67.105  1.00  0.00    -0.235 A  
HETATM    9  C   UNL     1     -10.341  15.341  65.450  1.00  0.00    -0.393 C  
HETATM   10  N   UNL     1      -8.837  12.306  67.814  1.00  0.00    -0.165 NA 
HETATM   11  C   UNL     1      -7.709  12.097  68.690  1.00  0.00    -0.089 C  
HETATM   12  N   UNL     1      -9.122  15.598  66.108  1.00  0.00    -0.337 N  
HETATM   13  C   UNL     1      -8.474  14.719  66.990  1.00  0.00    -0.222 C  
HETATM   14  O   UNL     1      -7.451  15.010  67.602  1.00  0.00    -0.146 OA 
BRANCH  12  15
HETATM   15  C   UNL     1      -8.482  16.886  65.844  1.00  0.00     0.010 C  
HETATM   16  C   UNL     1      -8.942  17.994  66.780  1.00  0.00    -0.279 C  
ENDBRANCH  12  15
BRANCH   5  17
HETATM   17  C   UNL     1     -12.094  13.693  64.868  1.00  0.00    -0.397 C  
HETATM   18  C   UNL     1     -11.806  13.000  63.545  1.00  0.00    -0.582 C  
ENDBRANCH   5  17
ENDBRANCH   1   3
BRANCH   2  19
HETATM   19  C   UNL     1     -10.857   8.743  70.061  1.00  0.00    -0.231 A  
HETATM   20  C   UNL     1     -11.411   6.416  70.509  1.00  0.00    -0.438 A  
HETATM   21  C   UNL     1     -10.949   6.534  71.822  1.00  0.00    -0.247 A  
HETATM   22  C   UNL     1     -10.469   7.776  72.276  1.00  0.00    -0.246 A  
HETATM   23  C   UNL     1     -10.440   8.869  71.399  1.00  0.00    -0.375 A  
HETATM   24  C   UNL     1     -11.364   7.512  69.635  1.00  0.00     0.067 A  
BRANCH  22  25
HETATM   25  O   UNL     1     -10.042   7.809  73.581  1.00  0.00    -0.294 OA 
HETATM   26  C   UNL     1      -8.659   8.016  73.830  1.00  0.00    -0.266 C  
ENDBRANCH  22  25
BRANCH  21  27
HETATM   27  O   UNL     1     -10.921   5.512  72.740  1.00  0.00    -0.241 OA 
HETATM   28  C   UNL     1     -10.024   4.436  72.517  1.00  0.00    -0.169 C  
ENDBRANCH  21  27
ENDBRANCH   2  19
TORSDOF 6
ENDMDL
MODEL       39
REMARK 921   NORMALIZED FREE ENERGY PREDICTED BY IDOCK:   -5.59 KCAL/MOL
REMARK 922        TOTAL FREE ENERGY PREDICTED BY IDOCK:   -7.85 KCAL/MOL
REMARK 923 INTER-LIGAND FREE ENERGY PREDICTED BY IDOCK:   -7.25 KCAL/MOL
REMARK 924 INTRA-LIGAND FREE ENERGY PREDICTED BY IDOCK:   -0.60 KCAL/MOL
REMARK 927      BINDING AFFINITY PREDICTED BY RF-SCORE:    0.00 PKD
ROOT
HETATM    1  C   UNL     1     -10.959  10.326  67.971  1.00  0.00    -0.345 C  
HETATM    2  C   UNL     1      -9.984  11.236  67.778  1.00  0.00    -0.193 C  
ENDROOT
BRANCH   1   3
HETATM    3  C   UNL     1     -10.703   9.212  68.825  1.00  0.00    -0.131 A  
HETATM    4  N   UNL     1     -10.037   8.105  68.537  1.00  0.00    -0.195 NA 
HETATM    5  N   UNL     1      -9.349   6.185  69.847  1.00  0.00    -0.148 N  
HETATM    6  O   UNL     1      -8.726   4.523  71.302  1.00  0.00    -0.108 OA 
HETATM    7  C   UNL     1      -9.982   7.394  69.691  1.00  0.00    -0.182 A  
HETATM    8  C   UNL     1     -10.623   8.025  70.712  1.00  0.00    -0.214 A  
HETATM    9  C   UNL     1      -9.341   5.574  71.101  1.00  0.00    -0.150 C  
HETATM   10  N   UNL     1     -11.102   9.190  70.161  1.00  0.00    -0.240 NA 
HETATM   11  C   UNL     1     -11.879  10.204  70.833  1.00  0.00    -0.374 C  
HETATM   12  N   UNL     1     -10.079   6.203  72.124  1.00  0.00    -0.182 N  
HETATM   13  C   UNL     1     -10.709   7.453  72.021  1.00  0.00    -0.219 C  
HETATM   14  O   UNL     1     -11.280   8.000  72.959  1.00  0.00    -0.388 OA 
BRANCH  12  15
HETATM   15  C   UNL     1     -10.198   5.487  73.394  1.00  0.00    -0.203 C  
HETATM   16  C   UNL     1     -11.384   4.535  73.444  1.00  0.00    -0.376 C  
ENDBRANCH  12  15
BRANCH   5  17
HETATM   17  C   UNL     1      -8.675   5.552  68.717  1.00  0.00    -0.102 C  
HETATM   18  C   UNL     1      -9.615   4.697  67.881  1.00  0.00    -0.205 C  
ENDBRANCH   5  17
ENDBRANCH   1   3
BRANCH   2  19
HETATM   19  C   UNL     1     -10.103  12.519  67.060  1.00  0.00    -0.222 A  
HETATM   20  C   UNL     1      -9.387  14.781  66.521  1.00  0.00    -0.316 A  
HETATM   21  C   UNL     1     -10.410  14.906  65.578  1.00  0.00    -0.365 A  
HETATM   22  C   UNL     1     -11.314  13.843  65.396  1.00  0.00    -0.309 A  
HETATM   23  C   UNL     1     -11.161  12.669  66.145  1.00  0.00    -0.350 A  
HETATM   24  C   UNL     1      -9.234  13.596  67.255  1.00  0.00    -0.232 A  
BRANCH  22  25
HETATM   25  O   UNL     1     -12.295  14.049  64.457  1.00  0.00    -0.525 OA 
HETATM   26  C   UNL     1     -12.491  13.056  63.461  1.00  0.00    -0.300 C  
ENDBRANCH  22  25
BRANCH  21  27
HETATM   27  O   UNL     1     -10.619  16.010  64.788  1.00  0.00    -0.600 OA 
HETATM   28  C   UNL     1     -10.639  17.284  65.410  1.00  0.00    -0.072 C  
ENDBRANCH  21  27
ENDBRANCH   2  19
TORSDOF 6
ENDMDL
MODEL       40
REMARK 921   NORMALIZED FREE ENERGY PREDICTED BY IDOCK:   -5.53 KCAL/MOL
REMARK 922        TOTAL FREE ENERGY PREDICTED BY IDOCK:   -7.76 KCAL/MOL
REMARK 923 INTER-LIGAND FREE ENERGY PREDICTED BY IDOCK:   -7.19 KCAL/MOL
REMARK 924 INTRA-LIGAND FREE ENERGY PREDICTED BY IDOCK:   -0.57 KCAL/MOL
REMARK 927      BINDING AFFINITY PREDICTED BY RF-SCORE:    0.00 PKD
ROOT
HETATM    1  C   UNL     1     -10.907   9.953  68.992  1.00  0.00    -0.242 C  
HETATM    2  C   UNL     1     -10.859  10.040  67.649  1.00  0.00    -0.336 C  
ENDROOT
BRANCH   1   3
HETATM    3  C   UNL     1     -10.600   8.706  69.614  1.00  0.00    -0.218 A  
HETATM    4  N   UNL     1      -9.976   7.666  69.084  1.00  0.00    -0.176 NA 
HETATM    5  N   UNL     1      -9.215   5.546  69.976  1.00  0.00    -0.137 N  
HETATM    6  O   UNL     1      -8.504   3.652  71.061  1.00  0.00    -0.069 OA 
HETATM    7  C   UNL     1      -9.840   6.763  70.086  1.00  0.00    -0.177 A  
HETATM    8  C   UNL     1     -10.389   7.205  71.250  1.00  0.00    -0.198 A  
HETATM    9  C   UNL     1      -9.116   4.723  71.098  1.00  0.00    -0.137 C  
HETATM   10  N   UNL     1     -10.893   8.449  70.953  1.00  0.00    -0.225 NA 
HETATM   11  C   UNL     1     -11.599   9.329  71.853  1.00  0.00    -0.334 C  
HETATM   12  N   UNL     1      -9.762   5.161  72.272  1.00  0.00    -0.159 N  
HETATM   13  C   UNL     1     -10.379   6.410  72.441  1.00  0.00    -0.190 C  
HETATM   14  O   UNL     1     -10.866   6.784  73.503  1.00  0.00    -0.295 OA 
BRANCH  12  15
HETATM   15  C   UNL     1      -9.791   4.234  73.401  1.00  0.00    -0.126 C  
HETATM   16  C   UNL     1     -11.031   3.352  73.429  1.00  0.00    -0.306 C  
ENDBRANCH  12  15
BRANCH   5  17
HETATM   17  C   UNL     1      -8.642   5.121  68.702  1.00  0.00    -0.087 C  
HETATM   18  C   UNL     1      -9.613   4.298  67.870  1.00  0.00    -0.207 C  
ENDBRANCH   5  17
ENDBRANCH   1   3
BRANCH   2  19
HETATM   19  C   UNL     1     -10.995  11.264  66.837  1.00  0.00    -0.348 A  
HETATM   20  C   UNL     1     -11.688  13.569  66.483  1.00  0.00    -0.408 A  
HETATM   21  C   UNL     1     -11.142  13.561  65.197  1.00  0.00    -0.316 A  
HETATM   22  C   UNL     1     -10.547  12.384  64.707  1.00  0.00    -0.300 A  
HETATM   23  C   UNL     1     -10.491  11.246  65.524  1.00  0.00    -0.323 A  
HETATM   24  C   UNL     1     -11.614  12.430  67.297  1.00  0.00    -0.435 A  
BRANCH  22  25
HETATM   25  O   UNL     1     -10.043  12.457  63.432  1.00  0.00    -0.393 OA 
HETATM   26  C   UNL     1      -9.379  11.317  62.907  1.00  0.00    -0.352 C  
ENDBRANCH  22  25
BRANCH  21  27
HETATM   27  O   UNL     1     -11.135  14.635  64.340  1.00  0.00    -0.285 OA 
HETATM   28  C   UNL     1     -10.994  15.933  64.895  1.00  0.00    -0.411 C  
ENDBRANCH  21  27
ENDBRANCH   2  19
TORSDOF 6
ENDMDL
MODEL       41
REMARK 921   NORMALIZED FREE ENERGY PREDICTED BY IDOCK:   -5.51 KCAL/MOL
REMARK 922        TOTAL FREE ENERGY PREDICTED BY IDOCK:   -7.74 KCAL/MOL
REMARK 923 INTER-LIGAND FREE ENERGY PREDICTED BY IDOCK:   -7.45 KCAL/MOL
REMARK 924 INTRA-LIGAND FREE ENERGY PREDICTED BY IDOCK:   -0.29 KCAL/MOL
REMARK 927      BINDING AFFINITY PREDICTED BY RF-SCORE:    0.00 PKD
ROOT
HETATM    1  C   UNL     1     -10.683  11.494  66.468  1.00  0.00    -0.318 C  
HETATM    2  C   UNL     1      -9.800  10.634  67.011  1.00  0.00    -0.222 C  
ENDROOT
BRANCH   1   3
HETATM    3  C   UNL     1     -10.498  12.894  66.671  1.00  0.00    -0.263 A  
HETATM    4  N   UNL     1      -9.963  13.498  67.720  1.00  0.00    -0.227 NA 
HETATM    5  N   UNL     1      -9.406  15.805  68.212  1.00  0.00    -0.191 N  
HETATM    6  O   UNL     1      -8.882  18.030  68.414  1.00  0.00    -0.281 OA 
HETATM    7  C   UNL     1      -9.921  14.817  67.409  1.00  0.00    -0.223 A  
HETATM    8  C   UNL     1     -10.442  15.068  66.177  1.00  0.00    -0.305 A  
HETATM    9  C   UNL     1      -9.396  17.123  67.755  1.00  0.00    -0.245 C  
HETATM   10  N   UNL     1     -10.829  13.838  65.700  1.00  0.00    -0.283 NA 
HETATM   11  C   UNL     1     -11.463  13.568  64.432  1.00  0.00    -0.394 C  
HETATM   12  N   UNL     1     -10.014  17.374  66.513  1.00  0.00    -0.298 N  
HETATM   13  C   UNL     1     -10.518  16.394  65.644  1.00  0.00    -0.347 C  
HETATM   14  O   UNL     1     -10.982  16.649  64.537  1.00  0.00    -0.885 OA 
BRANCH  12  15
HETATM   15  C   UNL     1     -10.140  18.772  66.103  1.00  0.00    -0.384 C  
HETATM   16  C   UNL     1     -11.054  19.587  67.006  1.00  0.00    -0.278 C  
ENDBRANCH  12  15
BRANCH   5  17
HETATM   17  C   UNL     1      -8.859  15.479  69.526  1.00  0.00    -0.229 C  
HETATM   18  C   UNL     1      -7.401  15.053  69.462  1.00  0.00    -0.202 C  
ENDBRANCH   5  17
ENDBRANCH   1   3
BRANCH   2  19
HETATM   19  C   UNL     1      -9.736   9.177  66.793  1.00  0.00    -0.271 A  
HETATM   20  C   UNL     1     -10.555   6.902  67.065  1.00  0.00    -0.403 A  
HETATM   21  C   UNL     1      -9.530   6.411  66.252  1.00  0.00    -0.095 A  
HETATM   22  C   UNL     1      -8.574   7.303  65.731  1.00  0.00    -0.131 A  
HETATM   23  C   UNL     1      -8.678   8.671  66.016  1.00  0.00    -0.196 A  
HETATM   24  C   UNL     1     -10.657   8.275  67.332  1.00  0.00    -0.324 A  
BRANCH  22  25
HETATM   25  O   UNL     1      -7.596   6.739  64.950  1.00  0.00    -0.087 OA 
HETATM   26  C   UNL     1      -6.269   6.710  65.453  1.00  0.00    -0.038 C  
ENDBRANCH  22  25
BRANCH  21  27
HETATM   27  O   UNL     1      -9.367   5.091  65.905  1.00  0.00    -0.151 OA 
HETATM   28  C   UNL     1     -10.427   4.443  65.223  1.00  0.00    -0.179 C  
ENDBRANCH  21  27
ENDBRANCH   2  19
TORSDOF 6
ENDMDL
MODEL       42
REMARK 921   NORMALIZED FREE ENERGY PREDICTED BY IDOCK:   -5.47 KCAL/MOL
REMARK 922        TOTAL FREE ENERGY PREDICTED BY IDOCK:   -7.68 KCAL/MOL
REMARK 923 INTER-LIGAND FREE ENERGY PREDICTED BY IDOCK:   -7.09 KCAL/MOL
REMARK 924 INTRA-LIGAND FREE ENERGY PREDICTED BY IDOCK:   -0.59 KCAL/MOL
REMARK 927      BINDING AFFINITY PREDICTED BY RF-SCORE:    0.00 PKD
ROOT
HETATM    1  C   UNL     1     -10.652   9.231  67.571  1.00  0.00    -0.329 C  
HETATM    2  C   UNL     1     -10.103  10.439  67.807  1.00  0.00    -0.212 C  
ENDROOT
BRANCH   1   3
HETATM    3  C   UNL     1     -10.443   8.184  68.517  1.00  0.00    -0.162 A  
HETATM    4  N   UNL     1     -10.506   8.257  69.837  1.00  0.00    -0.219 NA 
HETATM    5  N   UNL     1     -10.351   6.609  71.608  1.00  0.00    -0.204 N  
HETATM    6  O   UNL     1     -10.267   4.867  73.100  1.00  0.00    -0.155 OA 
HETATM    7  C   UNL     1     -10.327   6.991  70.289  1.00  0.00    -0.203 A  
HETATM    8  C   UNL     1     -10.130   6.108  69.272  1.00  0.00    -0.174 A  
HETATM    9  C   UNL     1     -10.184   5.263  71.934  1.00  0.00    -0.207 C  
HETATM   10  N   UNL     1     -10.189   6.868  68.128  1.00  0.00    -0.167 NA 
HETATM   11  C   UNL     1     -10.017   6.401  66.774  1.00  0.00    -0.171 C  
HETATM   12  N   UNL     1      -9.900   4.378  70.874  1.00  0.00    -0.196 N  
HETATM   13  C   UNL     1      -9.902   4.716  69.512  1.00  0.00    -0.216 C  
HETATM   14  O   UNL     1      -9.722   3.898  68.614  1.00  0.00    -0.141 OA 
BRANCH  12  15
HETATM   15  C   UNL     1      -9.574   2.998  71.229  1.00  0.00    -0.155 C  
HETATM   16  C   UNL     1      -8.087   2.764  71.449  1.00  0.00    -0.062 C  
ENDBRANCH  12  15
BRANCH   5  17
HETATM   17  C   UNL     1     -10.567   7.598  72.659  1.00  0.00    -0.299 C  
HETATM   18  C   UNL     1      -9.267   8.085  73.279  1.00  0.00    -0.347 C  
ENDBRANCH   5  17
ENDBRANCH   1   3
BRANCH   2  19
HETATM   19  C   UNL     1     -10.324  11.676  67.035  1.00  0.00    -0.248 A  
HETATM   20  C   UNL     1      -9.778  13.954  66.378  1.00  0.00    -0.309 A  
HETATM   21  C   UNL     1     -10.825  13.964  65.453  1.00  0.00    -0.319 A  
HETATM   22  C   UNL     1     -11.656  12.835  65.339  1.00  0.00    -0.358 A  
HETATM   23  C   UNL     1     -11.407  11.710  66.138  1.00  0.00    -0.275 A  
HETATM   24  C   UNL     1      -9.529  12.818  67.162  1.00  0.00    -0.223 A  
BRANCH  22  25
HETATM   25  O   UNL     1     -12.667  12.929  64.414  1.00  0.00    -0.654 OA 
HETATM   26  C   UNL     1     -12.691  11.991  63.349  1.00  0.00    -0.398 C  
ENDBRANCH  22  25
BRANCH  21  27
HETATM   27  O   UNL     1     -11.125  15.014  64.619  1.00  0.00    -0.372 OA 
HETATM   28  C   UNL     1     -10.790  16.324  65.045  1.00  0.00    -0.320 C  
ENDBRANCH  21  27
ENDBRANCH   2  19
TORSDOF 6
ENDMDL
MODEL       43
REMARK 921   NORMALIZED FREE ENERGY PREDICTED BY IDOCK:   -5.47 KCAL/MOL
REMARK 922        TOTAL FREE ENERGY PREDICTED BY IDOCK:   -7.68 KCAL/MOL
REMARK 923 INTER-LIGAND FREE ENERGY PREDICTED BY IDOCK:   -7.12 KCAL/MOL
REMARK 924 INTRA-LIGAND FREE ENERGY PREDICTED BY IDOCK:   -0.57 KCAL/MOL
REMARK 927      BINDING AFFINITY PREDICTED BY RF-SCORE:    0.00 PKD
ROOT
HETATM    1  C   UNL     1     -10.848  10.911  68.552  1.00  0.00    -0.262 C  
HETATM    2  C   UNL     1     -10.718  10.278  69.735  1.00  0.00    -0.328 C  
ENDROOT
BRANCH   1   3
HETATM    3  C   UNL     1     -10.696  12.329  68.510  1.00  0.00    -0.237 A  
HETATM    4  N   UNL     1     -11.313  13.235  69.252  1.00  0.00    -0.266 NA 
HETATM    5  N   UNL     1     -11.102  15.640  69.466  1.00  0.00    -0.272 N  
HETATM    6  O   UNL     1     -10.659  17.890  69.563  1.00  0.00     0.035 OA 
HETATM    7  C   UNL     1     -10.769  14.429  68.909  1.00  0.00    -0.253 A  
HETATM    8  C   UNL     1      -9.823  14.301  67.940  1.00  0.00    -0.226 A  
HETATM    9  C   UNL     1     -10.440  16.793  69.042  1.00  0.00    -0.336 C  
HETATM   10  N   UNL     1      -9.778  12.955  67.666  1.00  0.00    -0.207 NA 
HETATM   11  C   UNL     1      -8.942  12.303  66.687  1.00  0.00    -0.189 C  
HETATM   12  N   UNL     1      -9.523  16.651  67.981  1.00  0.00    -0.222 N  
HETATM   13  C   UNL     1      -9.126  15.433  67.408  1.00  0.00    -0.197 C  
HETATM   14  O   UNL     1      -8.268  15.346  66.535  1.00  0.00    -0.223 OA 
BRANCH  12  15
HETATM   15  C   UNL     1      -8.943  17.877  67.435  1.00  0.00    -0.245 C  
HETATM   16  C   UNL     1      -9.803  18.526  66.359  1.00  0.00    -0.376 C  
ENDBRANCH  12  15
BRANCH   5  17
HETATM   17  C   UNL     1     -12.125  15.720  70.504  1.00  0.00    -0.374 C  
HETATM   18  C   UNL     1     -11.542  15.643  71.906  1.00  0.00    -0.547 C  
ENDBRANCH   5  17
ENDBRANCH   1   3
BRANCH   2  19
HETATM   19  C   UNL     1     -10.693   8.821  69.957  1.00  0.00    -0.236 A  
HETATM   20  C   UNL     1     -10.420   6.516  69.226  1.00  0.00    -0.259 A  
HETATM   21  C   UNL     1     -10.618   6.054  70.530  1.00  0.00    -0.266 A  
HETATM   22  C   UNL     1     -10.893   6.977  71.555  1.00  0.00    -0.230 A  
HETATM   23  C   UNL     1     -10.941   8.346  71.258  1.00  0.00    -0.305 A  
HETATM   24  C   UNL     1     -10.456   7.889  68.943  1.00  0.00    -0.205 A  
BRANCH  22  25
HETATM   25  O   UNL     1     -11.084   6.441  72.805  1.00  0.00    -0.247 OA 
HETATM   26  C   UNL     1     -10.199   6.831  73.845  1.00  0.00    -0.367 C  
ENDBRANCH  22  25
BRANCH  21  27
HETATM   27  O   UNL     1     -10.568   4.735  70.912  1.00  0.00    -0.105 OA 
HETATM   28  C   UNL     1      -9.719   3.860  70.186  1.00  0.00    -0.172 C  
ENDBRANCH  21  27
ENDBRANCH   2  19
TORSDOF 6
ENDMDL
MODEL       44
REMARK 921   NORMALIZED FREE ENERGY PREDICTED BY IDOCK:   -5.47 KCAL/MOL
REMARK 922        TOTAL FREE ENERGY PREDICTED BY IDOCK:   -7.68 KCAL/MOL
REMARK 923 INTER-LIGAND FREE ENERGY PREDICTED BY IDOCK:   -7.15 KCAL/MOL
REMARK 924 INTRA-LIGAND FREE ENERGY PREDICTED BY IDOCK:   -0.53 KCAL/MOL
REMARK 927      BINDING AFFINITY PREDICTED BY RF-SCORE:    0.00 PKD
ROOT
HETATM    1  C   UNL     1      -9.724  12.083  68.067  1.00  0.00    -0.198 C  
HETATM    2  C   UNL     1     -10.360  11.642  69.170  1.00  0.00    -0.045 C  
ENDROOT
BRANCH   1   3
HETATM    3  C   UNL     1      -9.499  13.483  67.915  1.00  0.00    -0.215 A  
HETATM    4  N   UNL     1      -8.674  14.253  68.608  1.00  0.00    -0.175 NA 
HETATM    5  N   UNL     1      -8.017  16.579  68.428  1.00  0.00    -0.184 N  
HETATM    6  O   UNL     1      -7.478  18.769  68.004  1.00  0.00    -0.241 OA 
HETATM    7  C   UNL     1      -8.743  15.481  68.036  1.00  0.00    -0.163 A  
HETATM    8  C   UNL     1      -9.619  15.512  66.995  1.00  0.00    -0.224 A  
HETATM    9  C   UNL     1      -8.160  17.778  67.730  1.00  0.00    -0.226 C  
HETATM   10  N   UNL     1     -10.121  14.235  66.918  1.00  0.00    -0.260 NA 
HETATM   11  C   UNL     1     -11.111  13.754  65.985  1.00  0.00    -0.291 C  
HETATM   12  N   UNL     1      -9.132  17.813  66.709  1.00  0.00    -0.255 N  
HETATM   13  C   UNL     1      -9.868  16.709  66.252  1.00  0.00    -0.310 C  
HETATM   14  O   UNL     1     -10.652  16.765  65.309  1.00  0.00    -0.621 OA 
BRANCH  12  15
HETATM   15  C   UNL     1      -9.390  19.107  66.081  1.00  0.00    -0.239 C  
HETATM   16  C   UNL     1     -10.530  19.879  66.731  1.00  0.00    -0.575 C  
ENDBRANCH  12  15
BRANCH   5  17
HETATM   17  C   UNL     1      -7.090  16.489  69.552  1.00  0.00    -0.091 C  
HETATM   18  C   UNL     1      -5.653  16.261  69.108  1.00  0.00    -0.115 C  
ENDBRANCH   5  17
ENDBRANCH   1   3
BRANCH   2  19
HETATM   19  C   UNL     1     -10.552  10.237  69.576  1.00  0.00    -0.270 A  
HETATM   20  C   UNL     1     -11.212   8.502  71.149  1.00  0.00    -0.317 A  
HETATM   21  C   UNL     1     -10.927   7.508  70.209  1.00  0.00    -0.250 A  
HETATM   22  C   UNL     1     -10.414   7.875  68.951  1.00  0.00    -0.190 A  
HETATM   23  C   UNL     1     -10.220   9.230  68.652  1.00  0.00    -0.220 A  
HETATM   24  C   UNL     1     -11.027   9.856  70.834  1.00  0.00    -0.392 A  
BRANCH  22  25
HETATM   25  O   UNL     1     -10.152   6.838  68.089  1.00  0.00    -0.150 OA 
HETATM   26  C   UNL     1     -11.034   6.637  66.995  1.00  0.00    -0.393 C  
ENDBRANCH  22  25
BRANCH  21  27
HETATM   27  O   UNL     1     -11.107   6.161  70.411  1.00  0.00    -0.309 OA 
HETATM   28  C   UNL     1     -10.579   5.585  71.595  1.00  0.00    -0.231 C  
ENDBRANCH  21  27
ENDBRANCH   2  19
TORSDOF 6
ENDMDL
MODEL       45
REMARK 921   NORMALIZED FREE ENERGY PREDICTED BY IDOCK:   -5.46 KCAL/MOL
REMARK 922        TOTAL FREE ENERGY PREDICTED BY IDOCK:   -7.68 KCAL/MOL
REMARK 923 INTER-LIGAND FREE ENERGY PREDICTED BY IDOCK:   -7.19 KCAL/MOL
REMARK 924 INTRA-LIGAND FREE ENERGY PREDICTED BY IDOCK:   -0.48 KCAL/MOL
REMARK 927      BINDING AFFINITY PREDICTED BY RF-SCORE:    0.00 PKD
ROOT
HETATM    1  C   UNL     1     -11.487  10.688  68.298  1.00  0.00    -0.318 C  
HETATM    2  C   UNL     1     -11.234  11.098  69.556  1.00  0.00    -0.341 C  
ENDROOT
BRANCH   1   3
HETATM    3  C   UNL     1     -10.751   9.584  67.772  1.00  0.00    -0.242 A  
HETATM    4  N   UNL     1     -10.697   8.347  68.239  1.00  0.00    -0.095 NA 
HETATM    5  N   UNL     1      -9.664   6.306  67.440  1.00  0.00    -0.117 N  
HETATM    6  O   UNL     1      -8.684   4.486  66.441  1.00  0.00    -0.112 OA 
HETATM    7  C   UNL     1      -9.947   7.647  67.353  1.00  0.00    -0.192 A  
HETATM    8  C   UNL     1      -9.502   8.427  66.331  1.00  0.00    -0.227 A  
HETATM    9  C   UNL     1      -8.904   5.701  66.439  1.00  0.00    -0.129 C  
HETATM   10  N   UNL     1     -10.003   9.679  66.599  1.00  0.00    -0.220 NA 
HETATM   11  C   UNL     1      -9.794  10.875  65.818  1.00  0.00    -0.237 C  
HETATM   12  N   UNL     1      -8.384   6.541  65.433  1.00  0.00    -0.148 N  
HETATM   13  C   UNL     1      -8.676   7.905  65.285  1.00  0.00     0.001 C  
HETATM   14  O   UNL     1      -8.262   8.586  64.351  1.00  0.00    -0.158 OA 
BRANCH  12  15
HETATM   15  C   UNL     1      -7.464   5.936  64.471  1.00  0.00    -0.079 C  
HETATM   16  C   UNL     1      -6.003   6.041  64.883  1.00  0.00    -0.025 C  
ENDBRANCH  12  15
BRANCH   5  17
HETATM   17  C   UNL     1     -10.168   5.515  68.559  1.00  0.00    -0.184 C  
HETATM   18  C   UNL     1      -9.219   5.514  69.747  1.00  0.00    -0.168 C  
ENDBRANCH   5  17
ENDBRANCH   1   3
BRANCH   2  19
HETATM   19  C   UNL     1     -11.983  12.112  70.321  1.00  0.00    -0.389 A  
HETATM   20  C   UNL     1     -13.415  12.830  72.153  1.00  0.00    -0.591 A  
HETATM   21  C   UNL     1     -13.330  14.159  71.730  1.00  0.00    -0.380 A  
HETATM   22  C   UNL     1     -12.595  14.469  70.571  1.00  0.00    -0.351 A  
HETATM   23  C   UNL     1     -11.942  13.444  69.872  1.00  0.00    -0.408 A  
HETATM   24  C   UNL     1     -12.746  11.815  71.454  1.00  0.00    -0.413 A  
BRANCH  22  25
HETATM   25  O   UNL     1     -12.568  15.796  70.218  1.00  0.00    -0.384 OA 
HETATM   26  C   UNL     1     -11.747  16.184  69.127  1.00  0.00    -0.238 C  
ENDBRANCH  22  25
BRANCH  21  27
HETATM   27  O   UNL     1     -13.919  15.225  72.366  1.00  0.00    -0.486 OA 
HETATM   28  C   UNL     1     -13.200  15.865  73.407  1.00  0.00    -0.562 C  
ENDBRANCH  21  27
ENDBRANCH   2  19
TORSDOF 6
ENDMDL
MODEL       46
REMARK 921   NORMALIZED FREE ENERGY PREDICTED BY IDOCK:   -5.46 KCAL/MOL
REMARK 922        TOTAL FREE ENERGY PREDICTED BY IDOCK:   -7.67 KCAL/MOL
REMARK 923 INTER-LIGAND FREE ENERGY PREDICTED BY IDOCK:   -7.15 KCAL/MOL
REMARK 924 INTRA-LIGAND FREE ENERGY PREDICTED BY IDOCK:   -0.52 KCAL/MOL
REMARK 927      BINDING AFFINITY PREDICTED BY RF-SCORE:    0.00 PKD
ROOT
HETATM    1  C   UNL     1     -11.184   9.869  70.354  1.00  0.00    -0.379 C  
HETATM    2  C   UNL     1     -11.363  10.563  69.213  1.00  0.00    -0.325 C  
ENDROOT
BRANCH   1   3
HETATM    3  C   UNL     1     -10.899   8.473  70.273  1.00  0.00    -0.238 A  
HETATM    4  N   UNL     1     -10.530   7.780  69.208  1.00  0.00    -0.220 NA 
HETATM    5  N   UNL     1      -9.849   5.479  68.870  1.00  0.00    -0.146 N  
HETATM    6  O   UNL     1      -9.149   3.294  68.811  1.00  0.00    -0.119 OA 
HETATM    7  C   UNL     1     -10.289   6.520  69.649  1.00  0.00    -0.196 A  
HETATM    8  C   UNL     1     -10.518   6.394  70.985  1.00  0.00    -0.223 A  
HETATM    9  C   UNL     1      -9.609   4.237  69.460  1.00  0.00    -0.204 C  
HETATM   10  N   UNL     1     -10.924   7.642  71.393  1.00  0.00    -0.230 NA 
HETATM   11  C   UNL     1     -11.311   8.027  72.729  1.00  0.00    -0.374 C  
HETATM   12  N   UNL     1      -9.930   4.104  70.826  1.00  0.00    -0.173 N  
HETATM   13  C   UNL     1     -10.345   5.148  71.668  1.00  0.00    -0.207 C  
HETATM   14  O   UNL     1     -10.543   5.006  72.870  1.00  0.00    -0.200 OA 
BRANCH  12  15
HETATM   15  C   UNL     1      -9.823   2.767  71.407  1.00  0.00    -0.095 C  
HETATM   16  C   UNL     1      -8.448   2.467  71.988  1.00  0.00    -0.072 C  
ENDBRANCH  12  15
BRANCH   5  17
HETATM   17  C   UNL     1      -9.619   5.670  67.441  1.00  0.00    -0.118 C  
HETATM   18  C   UNL     1     -10.854   5.371  66.605  1.00  0.00    -0.220 C  
ENDBRANCH   5  17
ENDBRANCH   1   3
BRANCH   2  19
HETATM   19  C   UNL     1     -11.516  12.024  69.083  1.00  0.00    -0.357 A  
HETATM   20  C   UNL     1     -11.954  14.249  69.965  1.00  0.00    -0.396 A  
HETATM   21  C   UNL     1     -11.727  14.818  68.709  1.00  0.00    -0.323 A  
HETATM   22  C   UNL     1     -11.426  13.983  67.618  1.00  0.00    -0.334 A  
HETATM   23  C   UNL     1     -11.337  12.597  67.811  1.00  0.00    -0.349 A  
HETATM   24  C   UNL     1     -11.849  12.863  70.151  1.00  0.00    -0.319 A  
BRANCH  22  25
HETATM   25  O   UNL     1     -11.225  14.619  66.418  1.00  0.00    -0.327 OA 
HETATM   26  C   UNL     1      -9.958  14.484  65.790  1.00  0.00    -0.334 C  
ENDBRANCH  22  25
BRANCH  21  27
HETATM   27  O   UNL     1     -11.772  16.164  68.437  1.00  0.00    -0.320 OA 
HETATM   28  C   UNL     1     -10.653  16.958  68.795  1.00  0.00    -0.355 C  
ENDBRANCH  21  27
ENDBRANCH   2  19
TORSDOF 6
ENDMDL
MODEL       47
REMARK 921   NORMALIZED FREE ENERGY PREDICTED BY IDOCK:   -5.45 KCAL/MOL
REMARK 922        TOTAL FREE ENERGY PREDICTED BY IDOCK:   -7.66 KCAL/MOL
REMARK 923 INTER-LIGAND FREE ENERGY PREDICTED BY IDOCK:   -7.34 KCAL/MOL
REMARK 924 INTRA-LIGAND FREE ENERGY PREDICTED BY IDOCK:   -0.31 KCAL/MOL
REMARK 927      BINDING AFFINITY PREDICTED BY RF-SCORE:    0.00 PKD
ROOT
HETATM    1  C   UNL     1      -9.444   9.209  66.414  1.00  0.00    -0.288 C  
HETATM    2  C   UNL     1     -10.372   8.423  66.994  1.00  0.00    -0.385 C  
ENDROOT
BRANCH   1   3
HETATM    3  C   UNL     1      -9.753  10.582  66.178  1.00  0.00    -0.209 A  
HETATM    4  N   UNL     1     -10.383  11.105  65.139  1.00  0.00    -0.282 NA 
HETATM    5  N   UNL     1     -11.148  13.342  64.606  1.00  0.00    -0.348 N  
HETATM    6  O   UNL     1     -11.861  15.510  64.364  1.00  0.00    -0.385 OA 
HETATM    7  C   UNL     1     -10.518  12.426  65.412  1.00  0.00    -0.277 A  
HETATM    8  C   UNL     1      -9.963  12.760  66.609  1.00  0.00    -0.245 A  
HETATM    9  C   UNL     1     -11.245  14.670  65.024  1.00  0.00    -0.386 C  
HETATM   10  N   UNL     1      -9.456  11.582  67.104  1.00  0.00    -0.176 NA 
HETATM   11  C   UNL     1      -8.743  11.406  68.346  1.00  0.00    -0.157 C  
HETATM   12  N   UNL     1     -10.593  15.012  66.227  1.00  0.00    -0.299 N  
HETATM   13  C   UNL     1      -9.971  14.105  67.099  1.00  0.00    -0.255 C  
HETATM   14  O   UNL     1      -9.479  14.433  68.174  1.00  0.00    -0.192 OA 
BRANCH  12  15
HETATM   15  C   UNL     1     -10.564  16.428  66.588  1.00  0.00    -0.239 C  
HETATM   16  C   UNL     1      -9.284  17.134  66.163  1.00  0.00    -0.216 C  
ENDBRANCH  12  15
BRANCH   5  17
HETATM   17  C   UNL     1     -11.727  12.930  63.331  1.00  0.00    -0.461 C  
HETATM   18  C   UNL     1     -12.894  11.970  63.502  1.00  0.00    -0.472 C  
ENDBRANCH   5  17
ENDBRANCH   1   3
BRANCH   2  19
HETATM   19  C   UNL     1     -10.192   7.033  67.451  1.00  0.00    -0.278 A  
HETATM   20  C   UNL     1      -9.614   4.694  67.115  1.00  0.00    -0.197 A  
HETATM   21  C   UNL     1      -9.832   4.421  68.468  1.00  0.00    -0.069 A  
HETATM   22  C   UNL     1     -10.270   5.452  69.319  1.00  0.00    -0.245 A  
HETATM   23  C   UNL     1     -10.457   6.741  68.802  1.00  0.00    -0.231 A  
HETATM   24  C   UNL     1      -9.792   5.990  66.611  1.00  0.00    -0.202 A  
BRANCH  22  25
HETATM   25  O   UNL     1     -10.468   5.099  70.631  1.00  0.00    -0.250 OA 
HETATM   26  C   UNL     1     -10.720   6.132  71.573  1.00  0.00    -0.252 C  
ENDBRANCH  22  25
BRANCH  21  27
HETATM   27  O   UNL     1      -9.652   3.194  69.061  1.00  0.00    -0.153 OA 
HETATM   28  C   UNL     1      -9.370   2.083  68.226  1.00  0.00    -0.198 C  
ENDBRANCH  21  27
ENDBRANCH   2  19
TORSDOF 6
ENDMDL
MODEL       48
REMARK 921   NORMALIZED FREE ENERGY PREDICTED BY IDOCK:   -5.43 KCAL/MOL
REMARK 922        TOTAL FREE ENERGY PREDICTED BY IDOCK:   -7.64 KCAL/MOL
REMARK 923 INTER-LIGAND FREE ENERGY PREDICTED BY IDOCK:   -7.11 KCAL/MOL
REMARK 924 INTRA-LIGAND FREE ENERGY PREDICTED BY IDOCK:   -0.52 KCAL/MOL
REMARK 927      BINDING AFFINITY PREDICTED BY RF-SCORE:    0.00 PKD
ROOT
HETATM    1  C   UNL     1     -11.486   9.729  71.119  1.00  0.00    -0.472 C  
HETATM    2  C   UNL     1     -11.147  10.002  69.844  1.00  0.00    -0.336 C  
ENDROOT
BRANCH   1   3
HETATM    3  C   UNL     1     -11.002   8.527  71.718  1.00  0.00    -0.306 A  
HETATM    4  N   UNL     1      -9.774   8.266  72.138  1.00  0.00    -0.245 NA 
HETATM    5  N   UNL     1      -8.775   6.395  73.310  1.00  0.00    -0.125 N  
HETATM    6  O   UNL     1      -8.076   4.561  74.499  1.00  0.00    -0.090 OA 
HETATM    7  C   UNL     1      -9.830   7.039  72.712  1.00  0.00    -0.174 A  
HETATM    8  C   UNL     1     -11.079   6.501  72.646  1.00  0.00    -0.257 A  
HETATM    9  C   UNL     1      -8.979   5.144  73.892  1.00  0.00    -0.116 C  
HETATM   10  N   UNL     1     -11.837   7.445  71.996  1.00  0.00    -0.291 NA 
HETATM   11  C   UNL     1     -13.236   7.341  71.657  1.00  0.00    -0.366 C  
HETATM   12  N   UNL     1     -10.256   4.568  73.742  1.00  0.00    -0.167 N  
HETATM   13  C   UNL     1     -11.371   5.202  73.173  1.00  0.00    -0.313 C  
HETATM   14  O   UNL     1     -12.487   4.693  73.129  1.00  0.00     0.134 OA 
BRANCH  12  15
HETATM   15  C   UNL     1     -10.427   3.195  74.218  1.00  0.00    -0.184 C  
HETATM   16  C   UNL     1     -10.178   2.147  73.143  1.00  0.00    -0.199 C  
ENDBRANCH  12  15
BRANCH   5  17
HETATM   17  C   UNL     1      -7.456   7.019  73.352  1.00  0.00    -0.079 C  
HETATM   18  C   UNL     1      -7.286   7.945  74.546  1.00  0.00    -0.187 C  
ENDBRANCH   5  17
ENDBRANCH   1   3
BRANCH   2  19
HETATM   19  C   UNL     1     -11.421  11.249  69.106  1.00  0.00    -0.364 A  
HETATM   20  C   UNL     1     -12.076  13.588  68.960  1.00  0.00    -0.330 A  
HETATM   21  C   UNL     1     -11.857  13.588  67.580  1.00  0.00    -0.363 A  
HETATM   22  C   UNL     1     -11.451  12.400  66.946  1.00  0.00    -0.360 A  
HETATM   23  C   UNL     1     -11.250  11.242  67.710  1.00  0.00    -0.354 A  
HETATM   24  C   UNL     1     -11.858  12.427  69.717  1.00  0.00    -0.387 A  
BRANCH  22  25
HETATM   25  O   UNL     1     -11.267  12.482  65.587  1.00  0.00    -0.295 OA 
HETATM   26  C   UNL     1     -10.727  11.355  64.914  1.00  0.00    -0.286 C  
ENDBRANCH  22  25
BRANCH  21  27
HETATM   27  O   UNL     1     -12.009  14.681  66.762  1.00  0.00    -0.373 OA 
HETATM   28  C   UNL     1     -10.981  15.658  66.752  1.00  0.00    -0.230 C  
ENDBRANCH  21  27
ENDBRANCH   2  19
TORSDOF 6
ENDMDL
MODEL       49
REMARK 921   NORMALIZED FREE ENERGY PREDICTED BY IDOCK:   -5.40 KCAL/MOL
REMARK 922        TOTAL FREE ENERGY PREDICTED BY IDOCK:   -7.60 KCAL/MOL
REMARK 923 INTER-LIGAND FREE ENERGY PREDICTED BY IDOCK:   -7.26 KCAL/MOL
REMARK 924 INTRA-LIGAND FREE ENERGY PREDICTED BY IDOCK:   -0.33 KCAL/MOL
REMARK 927      BINDING AFFINITY PREDICTED BY RF-SCORE:    0.00 PKD
ROOT
HETATM    1  C   UNL     1     -10.146  11.312  68.463  1.00  0.00    -0.210 C  
HETATM    2  C   UNL     1     -11.192  11.851  67.807  1.00  0.00    -0.330 C  
ENDROOT
BRANCH   1   3
HETATM    3  C   UNL     1     -10.341  10.100  69.192  1.00  0.00    -0.219 A  
HETATM    4  N   UNL     1     -11.176   9.881  70.195  1.00  0.00    -0.271 NA 
HETATM    5  N   UNL     1     -11.784   7.903  71.456  1.00  0.00    -0.274 N  
HETATM    6  O   UNL     1     -12.268   5.889  72.444  1.00  0.00    -0.239 OA 
HETATM    7  C   UNL     1     -11.064   8.562  70.490  1.00  0.00    -0.244 A  
HETATM    8  C   UNL     1     -10.151   7.936  69.699  1.00  0.00    -0.197 A  
HETATM    9  C   UNL     1     -11.594   6.533  71.636  1.00  0.00    -0.308 C  
HETATM   10  N   UNL     1      -9.670   8.921  68.869  1.00  0.00    -0.168 NA 
HETATM   11  C   UNL     1      -8.656   8.770  67.853  1.00  0.00    -0.130 C  
HETATM   12  N   UNL     1     -10.587   5.920  70.863  1.00  0.00    -0.243 N  
HETATM   13  C   UNL     1      -9.854   6.543  69.842  1.00  0.00    -0.167 C  
HETATM   14  O   UNL     1      -9.037   5.954  69.142  1.00  0.00    -0.121 OA 
BRANCH  12  15
HETATM   15  C   UNL     1     -10.282   4.520  71.158  1.00  0.00    -0.092 C  
HETATM   16  C   UNL     1      -9.212   4.345  72.226  1.00  0.00    -0.156 C  
ENDBRANCH  12  15
BRANCH   5  17
HETATM   17  C   UNL     1     -12.752   8.624  72.278  1.00  0.00    -0.391 C  
HETATM   18  C   UNL     1     -14.162   8.561  71.711  1.00  0.00    -0.525 C  
ENDBRANCH   5  17
ENDBRANCH   1   3
BRANCH   2  19
HETATM   19  C   UNL     1     -11.158  13.003  66.887  1.00  0.00    -0.306 A  
HETATM   20  C   UNL     1     -12.131  14.473  65.209  1.00  0.00    -0.337 A  
HETATM   21  C   UNL     1     -10.984  15.271  65.210  1.00  0.00    -0.393 A  
HETATM   22  C   UNL     1      -9.897  14.917  66.028  1.00  0.00    -0.318 A  
HETATM   23  C   UNL     1      -9.988  13.783  66.847  1.00  0.00    -0.264 A  
HETATM   24  C   UNL     1     -12.217  13.348  66.042  1.00  0.00    -0.491 A  
BRANCH  22  25
HETATM   25  O   UNL     1      -8.806  15.749  65.964  1.00  0.00    -0.327 OA 
HETATM   26  C   UNL     1      -7.887  15.735  67.045  1.00  0.00    -0.236 C  
ENDBRANCH  22  25
BRANCH  21  27
HETATM   27  O   UNL     1     -10.820  16.409  64.456  1.00  0.00    -0.719 OA 
HETATM   28  C   UNL     1     -11.022  17.663  65.086  1.00  0.00     0.412 C  
ENDBRANCH  21  27
ENDBRANCH   2  19
TORSDOF 6
ENDMDL
MODEL       50
REMARK 921   NORMALIZED FREE ENERGY PREDICTED BY IDOCK:   -5.39 KCAL/MOL
REMARK 922        TOTAL FREE ENERGY PREDICTED BY IDOCK:   -7.58 KCAL/MOL
REMARK 923 INTER-LIGAND FREE ENERGY PREDICTED BY IDOCK:   -6.95 KCAL/MOL
REMARK 924 INTRA-LIGAND FREE ENERGY PREDICTED BY IDOCK:   -0.62 KCAL/MOL
REMARK 927      BINDING AFFINITY PREDICTED BY RF-SCORE:    0.00 PKD
ROOT
HETATM    1  C   UNL     1     -10.891  10.961  69.750  1.00  0.00    -0.247 C  
HETATM    2  C   UNL     1     -10.876  10.882  68.405  1.00  0.00    -0.266 C  
ENDROOT
BRANCH   1   3
HETATM    3  C   UNL     1     -10.226   9.950  70.507  1.00  0.00    -0.191 A  
HETATM    4  N   UNL     1      -8.951   9.599  70.450  1.00  0.00    -0.235 NA 
HETATM    5  N   UNL     1      -7.588   8.055  71.725  1.00  0.00    -0.078 N  
HETATM    6  O   UNL     1      -6.481   6.610  73.125  1.00  0.00    -0.062 OA 
HETATM    7  C   UNL     1      -8.779   8.666  71.418  1.00  0.00    -0.204 A  
HETATM    8  C   UNL     1      -9.935   8.399  72.083  1.00  0.00    -0.306 A  
HETATM    9  C   UNL     1      -7.543   7.132  72.770  1.00  0.00    -0.083 C  
HETATM   10  N   UNL     1     -10.876   9.211  71.495  1.00  0.00    -0.343 NA 
HETATM   11  C   UNL     1     -12.278   9.286  71.830  1.00  0.00    -0.385 C  
HETATM   12  N   UNL     1      -8.766   6.808  73.393  1.00  0.00    -0.122 N  
HETATM   13  C   UNL     1      -9.996   7.432  73.137  1.00  0.00    -0.268 C  
HETATM   14  O   UNL     1     -11.025   7.173  73.754  1.00  0.00    -0.217 OA 
BRANCH  12  15
HETATM   15  C   UNL     1      -8.744   5.732  74.382  1.00  0.00    -0.118 C  
HETATM   16  C   UNL     1      -9.061   4.364  73.795  1.00  0.00    -0.104 C  
ENDBRANCH  12  15
BRANCH   5  17
HETATM   17  C   UNL     1      -6.376   8.379  70.979  1.00  0.00    -0.040 C  
HETATM   18  C   UNL     1      -6.167   7.466  69.780  1.00  0.00    -0.031 C  
ENDBRANCH   5  17
ENDBRANCH   1   3
BRANCH   2  19
HETATM   19  C   UNL     1     -11.372  11.895  67.455  1.00  0.00    -0.381 A  
HETATM   20  C   UNL     1     -12.265  14.086  66.886  1.00  0.00    -0.415 A  
HETATM   21  C   UNL     1     -12.247  13.766  65.526  1.00  0.00    -0.442 A  
HETATM   22  C   UNL     1     -11.823  12.487  65.123  1.00  0.00    -0.405 A  
HETATM   23  C   UNL     1     -11.403  11.562  66.089  1.00  0.00    -0.200 A  
HETATM   24  C   UNL     1     -11.830  13.157  67.843  1.00  0.00    -0.390 A  
BRANCH  22  25
HETATM   25  O   UNL     1     -11.843  12.251  63.771  1.00  0.00    -0.413 OA 
HETATM   26  C   UNL     1     -10.622  11.913  63.130  1.00  0.00    -0.263 C  
ENDBRANCH  22  25
BRANCH  21  27
HETATM   27  O   UNL     1     -12.620  14.618  64.515  1.00  0.00    -0.626 OA 
HETATM   28  C   UNL     1     -11.803  15.748  64.256  1.00  0.00    -0.118 C  
ENDBRANCH  21  27
ENDBRANCH   2  19
TORSDOF 6
ENDMDL
MODEL       51
REMARK 921   NORMALIZED FREE ENERGY PREDICTED BY IDOCK:   -5.38 KCAL/MOL
REMARK 922        TOTAL FREE ENERGY PREDICTED BY IDOCK:   -7.57 KCAL/MOL
REMARK 923 INTER-LIGAND FREE ENERGY PREDICTED BY IDOCK:   -7.02 KCAL/MOL
REMARK 924 INTRA-LIGAND FREE ENERGY PREDICTED BY IDOCK:   -0.55 KCAL/MOL
REMARK 927      BINDING AFFINITY PREDICTED BY RF-SCORE:    0.00 PKD
ROOT
HETATM    1  C   UNL     1      -9.506  12.095  67.587  1.00  0.00    -0.187 C  
HETATM    2  C   UNL     1     -10.143  11.537  68.635  1.00  0.00    -0.214 C  
ENDROOT
BRANCH   1   3
HETATM    3  C   UNL     1      -9.387  13.516  67.530  1.00  0.00    -0.220 A  
HETATM    4  N   UNL     1      -8.640  14.300  68.291  1.00  0.00    -0.170 NA 
HETATM    5  N   UNL     1      -8.162  16.676  68.275  1.00  0.00    -0.192 N  
HETATM    6  O   UNL     1      -7.787  18.924  68.005  1.00  0.00    -0.263 OA 
HETATM    7  C   UNL     1      -8.793  15.553  67.796  1.00  0.00    -0.172 A  
HETATM    8  C   UNL     1      -9.646  15.585  66.737  1.00  0.00    -0.235 A  
HETATM    9  C   UNL     1      -8.384  17.903  67.651  1.00  0.00    -0.234 C  
HETATM   10  N   UNL     1     -10.045  14.281  66.566  1.00  0.00    -0.271 NA 
HETATM   11  C   UNL     1     -10.975  13.788  65.579  1.00  0.00    -0.299 C  
HETATM   12  N   UNL     1      -9.334  17.930  66.609  1.00  0.00    -0.278 N  
HETATM   13  C   UNL     1      -9.972  16.806  66.064  1.00  0.00    -0.313 C  
HETATM   14  O   UNL     1     -10.738  16.863  65.107  1.00  0.00    -0.663 OA 
BRANCH  12  15
HETATM   15  C   UNL     1      -9.679  19.239  66.058  1.00  0.00    -0.242 C  
HETATM   16  C   UNL     1     -10.782  19.950  66.830  1.00  0.00    -0.471 C  
ENDBRANCH  12  15
BRANCH   5  17
HETATM   17  C   UNL     1      -7.255  16.584  69.415  1.00  0.00    -0.151 C  
HETATM   18  C   UNL     1      -5.828  16.260  69.002  1.00  0.00    -0.130 C  
ENDBRANCH   5  17
ENDBRANCH   1   3
BRANCH   2  19
HETATM   19  C   UNL     1     -10.238  10.099  68.947  1.00  0.00    -0.213 A  
HETATM   20  C   UNL     1     -10.295   7.744  68.338  1.00  0.00    -0.231 A  
HETATM   21  C   UNL     1     -10.372   7.374  69.684  1.00  0.00    -0.223 A  
HETATM   22  C   UNL     1     -10.420   8.373  70.673  1.00  0.00    -0.200 A  
HETATM   23  C   UNL     1     -10.366   9.722  70.296  1.00  0.00    -0.348 A  
HETATM   24  C   UNL     1     -10.227   9.096  67.973  1.00  0.00    -0.258 A  
BRANCH  22  25
HETATM   25  O   UNL     1     -10.505   7.926  71.968  1.00  0.00    -0.208 OA 
HETATM   26  C   UNL     1      -9.350   8.024  72.789  1.00  0.00    -0.263 C  
ENDBRANCH  22  25
BRANCH  21  27
HETATM   27  O   UNL     1     -10.408   6.079  70.141  1.00  0.00    -0.193 OA 
HETATM   28  C   UNL     1      -9.663   5.099  69.436  1.00  0.00    -0.177 C  
ENDBRANCH  21  27
ENDBRANCH   2  19
TORSDOF 6
ENDMDL
MODEL       52
REMARK 921   NORMALIZED FREE ENERGY PREDICTED BY IDOCK:   -5.38 KCAL/MOL
REMARK 922        TOTAL FREE ENERGY PREDICTED BY IDOCK:   -7.56 KCAL/MOL
REMARK 923 INTER-LIGAND FREE ENERGY PREDICTED BY IDOCK:   -7.05 KCAL/MOL
REMARK 924 INTRA-LIGAND FREE ENERGY PREDICTED BY IDOCK:   -0.51 KCAL/MOL
REMARK 927      BINDING AFFINITY PREDICTED BY RF-SCORE:    0.00 PKD
ROOT
HETATM    1  C   UNL     1     -10.073   8.521  69.756  1.00  0.00    -0.197 C  
HETATM    2  C   UNL     1     -10.957   7.563  70.098  1.00  0.00    -0.267 C  
ENDROOT
BRANCH   1   3
HETATM    3  C   UNL     1     -10.463   9.510  68.804  1.00  0.00    -0.219 A  
HETATM    4  N   UNL     1     -11.034  10.681  69.037  1.00  0.00    -0.229 NA 
HETATM    5  N   UNL     1     -11.629  12.557  67.623  1.00  0.00    -0.336 N  
HETATM    6  O   UNL     1     -12.014  14.239  66.110  1.00  0.00    -0.391 OA 
HETATM    7  C   UNL     1     -11.124  11.297  67.833  1.00  0.00    -0.267 A  
HETATM    8  C   UNL     1     -10.633  10.525  66.825  1.00  0.00    -0.222 A  
HETATM    9  C   UNL     1     -11.633  13.086  66.333  1.00  0.00    -0.363 C  
HETATM   10  N   UNL     1     -10.218   9.367  67.439  1.00  0.00    -0.222 NA 
HETATM   11  C   UNL     1      -9.639   8.212  66.795  1.00  0.00    -0.217 C  
HETATM   12  N   UNL     1     -11.197  12.241  65.292  1.00  0.00    -0.318 N  
HETATM   13  C   UNL     1     -10.640  10.964  65.463  1.00  0.00    -0.170 C  
HETATM   14  O   UNL     1     -10.203  10.289  64.536  1.00  0.00    -0.314 OA 
BRANCH  12  15
HETATM   15  C   UNL     1     -11.344  12.739  63.925  1.00  0.00    -0.442 C  
HETATM   16  C   UNL     1     -12.587  12.216  63.221  1.00  0.00    -0.492 C  
ENDBRANCH  12  15
BRANCH   5  17
HETATM   17  C   UNL     1     -12.143  13.342  68.741  1.00  0.00    -0.246 C  
HETATM   18  C   UNL     1     -11.112  14.315  69.294  1.00  0.00    -0.297 C  
ENDBRANCH   5  17
ENDBRANCH   1   3
BRANCH   2  19
HETATM   19  C   UNL     1     -10.797   6.553  71.161  1.00  0.00    -0.296 A  
HETATM   20  C   UNL     1     -11.632   5.137  72.955  1.00  0.00    -0.282 A  
HETATM   21  C   UNL     1     -10.367   4.570  73.128  1.00  0.00    -0.180 A  
HETATM   22  C   UNL     1      -9.294   5.021  72.338  1.00  0.00    -0.137 A  
HETATM   23  C   UNL     1      -9.515   6.014  71.374  1.00  0.00    -0.172 A  
HETATM   24  C   UNL     1     -11.845   6.120  71.978  1.00  0.00    -0.336 A  
BRANCH  22  25
HETATM   25  O   UNL     1      -8.083   4.419  72.577  1.00  0.00    -0.097 OA 
HETATM   26  C   UNL     1      -7.502   3.645  71.538  1.00  0.00    -0.051 C  
ENDBRANCH  22  25
BRANCH  21  27
HETATM   27  O   UNL     1     -10.068   3.580  74.032  1.00  0.00    -0.118 OA 
HETATM   28  C   UNL     1     -10.802   2.368  73.965  1.00  0.00    -0.173 C  
ENDBRANCH  21  27
ENDBRANCH   2  19
TORSDOF 6
ENDMDL
MODEL       53
REMARK 921   NORMALIZED FREE ENERGY PREDICTED BY IDOCK:   -5.38 KCAL/MOL
REMARK 922        TOTAL FREE ENERGY PREDICTED BY IDOCK:   -7.56 KCAL/MOL
REMARK 923 INTER-LIGAND FREE ENERGY PREDICTED BY IDOCK:   -6.98 KCAL/MOL
REMARK 924 INTRA-LIGAND FREE ENERGY PREDICTED BY IDOCK:   -0.58 KCAL/MOL
REMARK 927      BINDING AFFINITY PREDICTED BY RF-SCORE:    0.00 PKD
ROOT
HETATM    1  C   UNL     1     -10.194  12.483  68.275  1.00  0.00    -0.235 C  
HETATM    2  C   UNL     1      -9.496  11.482  67.702  1.00  0.00    -0.170 C  
ENDROOT
BRANCH   1   3
HETATM    3  C   UNL     1      -9.743  13.825  68.099  1.00  0.00    -0.227 A  
HETATM    4  N   UNL     1      -8.722  14.423  68.693  1.00  0.00    -0.178 NA 
HETATM    5  N   UNL     1      -7.689  16.601  68.440  1.00  0.00    -0.190 N  
HETATM    6  O   UNL     1      -6.823  18.671  67.960  1.00  0.00    -0.219 OA 
HETATM    7  C   UNL     1      -8.637  15.656  68.134  1.00  0.00    -0.159 A  
HETATM    8  C   UNL     1      -9.606  15.862  67.201  1.00  0.00    -0.218 A  
HETATM    9  C   UNL     1      -7.696  17.821  67.765  1.00  0.00    -0.214 C  
HETATM   10  N   UNL     1     -10.331  14.695  67.181  1.00  0.00    -0.263 NA 
HETATM   11  C   UNL     1     -11.490  14.415  66.368  1.00  0.00    -0.360 C  
HETATM   12  N   UNL     1      -8.756  18.047  66.862  1.00  0.00    -0.244 N  
HETATM   13  C   UNL     1      -9.723  17.100  66.492  1.00  0.00    -0.287 C  
HETATM   14  O   UNL     1     -10.586  17.313  65.646  1.00  0.00    -0.516 OA 
BRANCH  12  15
HETATM   15  C   UNL     1      -8.851  19.380  66.270  1.00  0.00    -0.351 C  
HETATM   16  C   UNL     1      -9.757  20.325  67.047  1.00  0.00    -0.598 C  
ENDBRANCH  12  15
BRANCH   5  17
HETATM   17  C   UNL     1      -6.671  16.326  69.450  1.00  0.00    -0.209 C  
HETATM   18  C   UNL     1      -5.431  15.669  68.866  1.00  0.00    -0.103 C  
ENDBRANCH   5  17
ENDBRANCH   1   3
BRANCH   2  19
HETATM   19  C   UNL     1      -9.879  10.060  67.643  1.00  0.00    -0.194 A  
HETATM   20  C   UNL     1     -10.139   7.925  66.504  1.00  0.00    -0.246 A  
HETATM   21  C   UNL     1     -10.599   7.326  67.679  1.00  0.00    -0.246 A  
HETATM   22  C   UNL     1     -10.737   8.106  68.842  1.00  0.00    -0.064 A  
HETATM   23  C   UNL     1     -10.390   9.463  68.810  1.00  0.00    -0.230 A  
HETATM   24  C   UNL     1      -9.781   9.281  66.486  1.00  0.00    -0.305 A  
BRANCH  22  25
HETATM   25  O   UNL     1     -11.203   7.444  69.952  1.00  0.00    -0.228 OA 
HETATM   26  C   UNL     1     -11.204   8.133  71.193  1.00  0.00    -0.257 C  
ENDBRANCH  22  25
BRANCH  21  27
HETATM   27  O   UNL     1     -10.940   6.001  67.804  1.00  0.00    -0.304 OA 
HETATM   28  C   UNL     1      -9.942   5.026  67.547  1.00  0.00    -0.167 C  
ENDBRANCH  21  27
ENDBRANCH   2  19
TORSDOF 6
ENDMDL
MODEL       54
REMARK 921   NORMALIZED FREE ENERGY PREDICTED BY IDOCK:   -5.34 KCAL/MOL
REMARK 922        TOTAL FREE ENERGY PREDICTED BY IDOCK:   -7.52 KCAL/MOL
REMARK 923 INTER-LIGAND FREE ENERGY PREDICTED BY IDOCK:   -6.95 KCAL/MOL
REMARK 924 INTRA-LIGAND FREE ENERGY PREDICTED BY IDOCK:   -0.57 KCAL/MOL
REMARK 927      BINDING AFFINITY PREDICTED BY RF-SCORE:    0.00 PKD
ROOT
HETATM    1  C   UNL     1     -10.825   9.874  68.553  1.00  0.00    -0.257 C  
HETATM    2  C   UNL     1     -11.229  11.096  68.152  1.00  0.00    -0.356 C  
ENDROOT
BRANCH   1   3
HETATM    3  C   UNL     1     -10.253   8.988  67.592  1.00  0.00    -0.242 A  
HETATM    4  N   UNL     1      -9.559   9.301  66.510  1.00  0.00    -0.204 NA 
HETATM    5  N   UNL     1      -8.375   7.990  64.851  1.00  0.00    -0.134 N  
HETATM    6  O   UNL     1      -7.248   6.553  63.461  1.00  0.00    -0.054 OA 
HETATM    7  C   UNL     1      -9.154   8.123  65.974  1.00  0.00    -0.167 A  
HETATM    8  C   UNL     1      -9.600   7.055  66.690  1.00  0.00    -0.167 A  
HETATM    9  C   UNL     1      -8.003   6.715  64.424  1.00  0.00    -0.097 C  
HETATM   10  N   UNL     1     -10.320   7.601  67.726  1.00  0.00    -0.207 NA 
HETATM   11  C   UNL     1     -11.021   6.879  68.761  1.00  0.00    -0.157 C  
HETATM   12  N   UNL     1      -8.541   5.620  65.130  1.00  0.00    -0.150 N  
HETATM   13  C   UNL     1      -9.310   5.709  66.301  1.00  0.00    -0.157 C  
HETATM   14  O   UNL     1      -9.698   4.728  66.928  1.00  0.00    -0.157 OA 
BRANCH  12  15
HETATM   15  C   UNL     1      -8.277   4.287  64.592  1.00  0.00    -0.104 C  
HETATM   16  C   UNL     1      -9.368   3.784  63.657  1.00  0.00    -0.130 C  
ENDBRANCH  12  15
BRANCH   5  17
HETATM   17  C   UNL     1      -7.924   9.170  64.120  1.00  0.00    -0.140 C  
HETATM   18  C   UNL     1      -8.914   9.611  63.054  1.00  0.00    -0.257 C  
ENDBRANCH   5  17
ENDBRANCH   1   3
BRANCH   2  19
HETATM   19  C   UNL     1     -11.701  12.196  69.012  1.00  0.00    -0.377 A  
HETATM   20  C   UNL     1     -12.602  13.101  71.083  1.00  0.00    -0.403 A  
HETATM   21  C   UNL     1     -12.525  14.401  70.577  1.00  0.00    -0.350 A  
HETATM   22  C   UNL     1     -12.067  14.604  69.262  1.00  0.00    -0.272 A  
HETATM   23  C   UNL     1     -11.673  13.502  68.490  1.00  0.00    -0.392 A  
HETATM   24  C   UNL     1     -12.192  12.008  70.307  1.00  0.00    -0.348 A  
BRANCH  22  25
HETATM   25  O   UNL     1     -12.030  15.910  68.838  1.00  0.00    -0.370 OA 
HETATM   26  C   UNL     1     -10.761  16.521  68.659  1.00  0.00    -0.334 C  
ENDBRANCH  22  25
BRANCH  21  27
HETATM   27  O   UNL     1     -12.870  15.536  71.271  1.00  0.00    -0.415 OA 
HETATM   28  C   UNL     1     -13.863  15.429  72.277  1.00  0.00    -0.548 C  
ENDBRANCH  21  27
ENDBRANCH   2  19
TORSDOF 6
ENDMDL
MODEL       55
REMARK 921   NORMALIZED FREE ENERGY PREDICTED BY IDOCK:   -5.33 KCAL/MOL
REMARK 922        TOTAL FREE ENERGY PREDICTED BY IDOCK:   -7.50 KCAL/MOL
REMARK 923 INTER-LIGAND FREE ENERGY PREDICTED BY IDOCK:   -6.95 KCAL/MOL
REMARK 924 INTRA-LIGAND FREE ENERGY PREDICTED BY IDOCK:   -0.55 KCAL/MOL
REMARK 927      BINDING AFFINITY PREDICTED BY RF-SCORE:    0.00 PKD
ROOT
HETATM    1  C   UNL     1     -11.156  10.533  68.613  1.00  0.00    -0.319 C  
HETATM    2  C   UNL     1     -10.157  11.433  68.516  1.00  0.00    -0.211 C  
ENDROOT
BRANCH   1   3
HETATM    3  C   UNL     1     -10.870   9.241  69.147  1.00  0.00    -0.133 A  
HETATM    4  N   UNL     1     -10.927   8.855  70.411  1.00  0.00    -0.240 NA 
HETATM    5  N   UNL     1     -10.648   6.715  71.515  1.00  0.00    -0.220 N  
HETATM    6  O   UNL     1     -10.435   4.578  72.323  1.00  0.00    -0.192 OA 
HETATM    7  C   UNL     1     -10.660   7.525  70.406  1.00  0.00    -0.229 A  
HETATM    8  C   UNL     1     -10.412   7.059  69.152  1.00  0.00    -0.207 A  
HETATM    9  C   UNL     1     -10.388   5.353  71.364  1.00  0.00    -0.228 C  
HETATM   10  N   UNL     1     -10.531   8.158  68.336  1.00  0.00    -0.193 NA 
HETATM   11  C   UNL     1     -10.339   8.194  66.906  1.00  0.00    -0.331 C  
HETATM   12  N   UNL     1     -10.054   4.904  70.070  1.00  0.00    -0.262 N  
HETATM   13  C   UNL     1     -10.089   5.686  68.905  1.00  0.00    -0.192 C  
HETATM   14  O   UNL     1      -9.862   5.239  67.786  1.00  0.00    -0.137 OA 
BRANCH  12  15
HETATM   15  C   UNL     1      -9.633   3.510  69.938  1.00  0.00    -0.149 C  
HETATM   16  C   UNL     1      -8.131   3.314  70.088  1.00  0.00    -0.058 C  
ENDBRANCH  12  15
BRANCH   5  17
HETATM   17  C   UNL     1     -10.921   7.269  72.837  1.00  0.00    -0.337 C  
HETATM   18  C   UNL     1      -9.657   7.706  73.561  1.00  0.00    -0.348 C  
ENDBRANCH   5  17
ENDBRANCH   1   3
BRANCH   2  19
HETATM   19  C   UNL     1     -10.281  12.852  68.135  1.00  0.00    -0.239 A  
HETATM   20  C   UNL     1      -9.866  14.753  66.674  1.00  0.00    -0.270 A  
HETATM   21  C   UNL     1     -10.642  15.580  67.490  1.00  0.00    -0.297 A  
HETATM   22  C   UNL     1     -11.215  15.053  68.661  1.00  0.00    -0.278 A  
HETATM   23  C   UNL     1     -11.020  13.702  68.979  1.00  0.00    -0.271 A  
HETATM   24  C   UNL     1      -9.688  13.399  66.994  1.00  0.00    -0.239 A  
BRANCH  22  25
HETATM   25  O   UNL     1     -11.955  15.933  69.412  1.00  0.00    -0.354 OA 
HETATM   26  C   UNL     1     -12.612  15.441  70.570  1.00  0.00    -0.423 C  
ENDBRANCH  22  25
BRANCH  21  27
HETATM   27  O   UNL     1     -10.902  16.907  67.243  1.00  0.00    -0.257 OA 
HETATM   28  C   UNL     1     -10.027  17.610  66.376  1.00  0.00    -0.334 C  
ENDBRANCH  21  27
ENDBRANCH   2  19
TORSDOF 6
ENDMDL
MODEL       56
REMARK 921   NORMALIZED FREE ENERGY PREDICTED BY IDOCK:   -5.32 KCAL/MOL
REMARK 922        TOTAL FREE ENERGY PREDICTED BY IDOCK:   -7.49 KCAL/MOL
REMARK 923 INTER-LIGAND FREE ENERGY PREDICTED BY IDOCK:   -6.93 KCAL/MOL
REMARK 924 INTRA-LIGAND FREE ENERGY PREDICTED BY IDOCK:   -0.56 KCAL/MOL
REMARK 927      BINDING AFFINITY PREDICTED BY RF-SCORE:    0.00 PKD
ROOT
HETATM    1  C   UNL     1     -11.227   9.928  70.505  1.00  0.00    -0.399 C  
HETATM    2  C   UNL     1     -10.897  10.037  69.203  1.00  0.00    -0.253 C  
ENDROOT
BRANCH   1   3
HETATM    3  C   UNL     1     -10.754   8.803  71.245  1.00  0.00    -0.269 A  
HETATM    4  N   UNL     1      -9.534   8.592  71.712  1.00  0.00    -0.260 NA 
HETATM    5  N   UNL     1      -8.557   6.867  73.105  1.00  0.00    -0.118 N  
HETATM    6  O   UNL     1      -7.879   5.181  74.507  1.00  0.00    -0.095 OA 
HETATM    7  C   UNL     1      -9.601   7.438  72.420  1.00  0.00    -0.153 A  
HETATM    8  C   UNL     1     -10.849   6.895  72.396  1.00  0.00    -0.235 A  
HETATM    9  C   UNL     1      -8.771   5.690  73.823  1.00  0.00    -0.121 C  
HETATM   10  N   UNL     1     -11.595   7.759  71.630  1.00  0.00    -0.259 NA 
HETATM   11  C   UNL     1     -12.988   7.616  71.282  1.00  0.00    -0.246 C  
HETATM   12  N   UNL     1     -10.047   5.100  73.718  1.00  0.00    -0.181 N  
HETATM   13  C   UNL     1     -11.151   5.665  73.062  1.00  0.00    -0.282 C  
HETATM   14  O   UNL     1     -12.267   5.153  73.057  1.00  0.00    -0.108 OA 
BRANCH  12  15
HETATM   15  C   UNL     1     -10.227   3.791  74.343  1.00  0.00    -0.189 C  
HETATM   16  C   UNL     1      -9.883   2.628  73.424  1.00  0.00    -0.156 C  
ENDBRANCH  12  15
BRANCH   5  17
HETATM   17  C   UNL     1      -7.238   7.493  73.098  1.00  0.00    -0.077 C  
HETATM   18  C   UNL     1      -7.012   8.395  74.301  1.00  0.00    -0.191 C  
ENDBRANCH   5  17
ENDBRANCH   1   3
BRANCH   2  19
HETATM   19  C   UNL     1     -11.159  11.186  68.319  1.00  0.00    -0.310 A  
HETATM   20  C   UNL     1     -11.492  12.220  66.141  1.00  0.00    -0.429 A  
HETATM   21  C   UNL     1     -11.725  13.461  66.739  1.00  0.00    -0.385 A  
HETATM   22  C   UNL     1     -11.641  13.580  68.139  1.00  0.00    -0.333 A  
HETATM   23  C   UNL     1     -11.346  12.448  68.912  1.00  0.00    -0.342 A  
HETATM   24  C   UNL     1     -11.212  11.092  66.925  1.00  0.00    -0.210 A  
BRANCH  22  25
HETATM   25  O   UNL     1     -11.875  14.834  68.646  1.00  0.00    -0.318 OA 
HETATM   26  C   UNL     1     -11.381  15.137  69.942  1.00  0.00    -0.284 C  
ENDBRANCH  22  25
BRANCH  21  27
HETATM   27  O   UNL     1     -12.040  14.613  66.060  1.00  0.00    -0.317 OA 
HETATM   28  C   UNL     1     -11.188  15.021  65.002  1.00  0.00    -0.409 C  
ENDBRANCH  21  27
ENDBRANCH   2  19
TORSDOF 6
ENDMDL
MODEL       57
REMARK 921   NORMALIZED FREE ENERGY PREDICTED BY IDOCK:   -5.32 KCAL/MOL
REMARK 922        TOTAL FREE ENERGY PREDICTED BY IDOCK:   -7.48 KCAL/MOL
REMARK 923 INTER-LIGAND FREE ENERGY PREDICTED BY IDOCK:   -6.94 KCAL/MOL
REMARK 924 INTRA-LIGAND FREE ENERGY PREDICTED BY IDOCK:   -0.54 KCAL/MOL
REMARK 927      BINDING AFFINITY PREDICTED BY RF-SCORE:    0.00 PKD
ROOT
HETATM    1  C   UNL     1     -10.289   8.760  70.290  1.00  0.00    -0.227 C  
HETATM    2  C   UNL     1     -11.357   9.261  69.640  1.00  0.00     0.024 C  
ENDROOT
BRANCH   1   3
HETATM    3  C   UNL     1     -10.301   7.387  70.680  1.00  0.00    -0.212 A  
HETATM    4  N   UNL     1      -9.968   6.334  69.952  1.00  0.00    -0.166 NA 
HETATM    5  N   UNL     1      -9.759   3.969  70.439  1.00  0.00    -0.198 N  
HETATM    6  O   UNL     1      -9.539   1.800  71.157  1.00  0.00    -0.124 OA 
HETATM    7  C   UNL     1     -10.054   5.266  70.783  1.00  0.00    -0.224 A  
HETATM    8  C   UNL     1     -10.457   5.621  72.033  1.00  0.00    -0.219 A  
HETATM    9  C   UNL     1      -9.859   2.966  71.404  1.00  0.00    -0.100 C  
HETATM   10  N   UNL     1     -10.633   6.983  71.973  1.00  0.00    -0.209 NA 
HETATM   11  C   UNL     1     -11.080   7.841  73.044  1.00  0.00    -0.359 C  
HETATM   12  N   UNL     1     -10.357   3.341  72.668  1.00  0.00    -0.161 N  
HETATM   13  C   UNL     1     -10.635   4.655  73.074  1.00  0.00    -0.213 C  
HETATM   14  O   UNL     1     -10.997   4.948  74.209  1.00  0.00    -0.322 OA 
BRANCH  12  15
HETATM   15  C   UNL     1     -10.606   2.268  73.630  1.00  0.00    -0.146 C  
HETATM   16  C   UNL     1     -11.992   1.652  73.504  1.00  0.00    -0.268 C  
ENDBRANCH  12  15
BRANCH   5  17
HETATM   17  C   UNL     1      -9.330   3.643  69.083  1.00  0.00    -0.174 C  
HETATM   18  C   UNL     1      -7.819   3.704  68.917  1.00  0.00    -0.052 C  
ENDBRANCH   5  17
ENDBRANCH   1   3
BRANCH   2  19
HETATM   19  C   UNL     1     -11.473  10.599  69.030  1.00  0.00    -0.342 A  
HETATM   20  C   UNL     1     -11.379  12.147  67.155  1.00  0.00    -0.393 A  
HETATM   21  C   UNL     1     -11.782  13.203  67.976  1.00  0.00    -0.355 A  
HETATM   22  C   UNL     1     -11.998  12.969  69.346  1.00  0.00    -0.281 A  
HETATM   23  C   UNL     1     -11.829  11.676  69.861  1.00  0.00    -0.434 A  
HETATM   24  C   UNL     1     -11.227  10.854  67.678  1.00  0.00    -0.379 A  
BRANCH  22  25
HETATM   25  O   UNL     1     -12.383  14.061  70.084  1.00  0.00    -0.329 OA 
HETATM   26  C   UNL     1     -12.703  13.866  71.454  1.00  0.00    -0.365 C  
ENDBRANCH  22  25
BRANCH  21  27
HETATM   27  O   UNL     1     -11.991  14.493  67.550  1.00  0.00    -0.382 OA 
HETATM   28  C   UNL     1     -11.134  15.013  66.547  1.00  0.00    -0.329 C  
ENDBRANCH  21  27
ENDBRANCH   2  19
TORSDOF 6
ENDMDL
MODEL       58
REMARK 921   NORMALIZED FREE ENERGY PREDICTED BY IDOCK:   -5.24 KCAL/MOL
REMARK 922        TOTAL FREE ENERGY PREDICTED BY IDOCK:   -7.38 KCAL/MOL
REMARK 923 INTER-LIGAND FREE ENERGY PREDICTED BY IDOCK:   -6.96 KCAL/MOL
REMARK 924 INTRA-LIGAND FREE ENERGY PREDICTED BY IDOCK:   -0.42 KCAL/MOL
REMARK 927      BINDING AFFINITY PREDICTED BY RF-SCORE:    0.00 PKD
ROOT
HETATM    1  C   UNL     1      -9.070  10.636  67.117  1.00  0.00    -0.154 C  
HETATM    2  C   UNL     1      -9.657   9.751  66.287  1.00  0.00    -0.271 C  
ENDROOT
BRANCH   1   3
HETATM    3  C   UNL     1      -9.182  12.029  66.829  1.00  0.00    -0.201 A  
HETATM    4  N   UNL     1     -10.005  12.619  65.976  1.00  0.00    -0.257 NA 
HETATM    5  N   UNL     1     -10.479  14.936  65.447  1.00  0.00    -0.353 N  
HETATM    6  O   UNL     1     -10.824  17.190  65.184  1.00  0.00    -0.626 OA 
HETATM    7  C   UNL     1      -9.802  13.951  66.124  1.00  0.00    -0.302 A  
HETATM    8  C   UNL     1      -8.843  14.222  67.051  1.00  0.00    -0.226 A  
HETATM    9  C   UNL     1     -10.193  16.274  65.719  1.00  0.00    -0.367 C  
HETATM   10  N   UNL     1      -8.428  12.992  67.500  1.00  0.00    -0.178 NA 
HETATM   11  C   UNL     1      -7.400  12.735  68.480  1.00  0.00    -0.115 C  
HETATM   12  N   UNL     1      -9.140  16.533  66.620  1.00  0.00    -0.236 N  
HETATM   13  C   UNL     1      -8.448  15.563  67.361  1.00  0.00    -0.180 C  
HETATM   14  O   UNL     1      -7.587  15.836  68.192  1.00  0.00    -0.120 OA 
BRANCH  12  15
HETATM   15  C   UNL     1      -8.739  17.929  66.790  1.00  0.00    -0.254 C  
HETATM   16  C   UNL     1      -7.524  18.315  65.959  1.00  0.00    -0.255 C  
ENDBRANCH  12  15
BRANCH   5  17
HETATM   17  C   UNL     1     -11.499  14.588  64.463  1.00  0.00    -0.343 C  
HETATM   18  C   UNL     1     -12.797  14.125  65.107  1.00  0.00    -0.321 C  
ENDBRANCH   5  17
ENDBRANCH   1   3
BRANCH   2  19
HETATM   19  C   UNL     1      -9.779   8.296  66.492  1.00  0.00    -0.323 A  
HETATM   20  C   UNL     1     -10.832   6.316  67.436  1.00  0.00    -0.448 A  
HETATM   21  C   UNL     1      -9.937   5.486  66.756  1.00  0.00    -0.183 A  
HETATM   22  C   UNL     1      -8.928   6.063  65.963  1.00  0.00    -0.147 A  
HETATM   23  C   UNL     1      -8.850   7.457  65.849  1.00  0.00    -0.149 A  
HETATM   24  C   UNL     1     -10.754   7.710  67.304  1.00  0.00    -0.344 A  
BRANCH  22  25
HETATM   25  O   UNL     1      -8.085   5.179  65.336  1.00  0.00    -0.110 OA 
HETATM   26  C   UNL     1      -8.080   5.148  63.916  1.00  0.00    -0.119 C  
ENDBRANCH  22  25
BRANCH  21  27
HETATM   27  O   UNL     1      -9.955   4.113  66.795  1.00  0.00    -0.218 OA 
HETATM   28  C   UNL     1      -9.503   3.471  67.975  1.00  0.00    -0.160 C  
ENDBRANCH  21  27
ENDBRANCH   2  19
TORSDOF 6
ENDMDL
MODEL       59
REMARK 921   NORMALIZED FREE ENERGY PREDICTED BY IDOCK:   -5.24 KCAL/MOL
REMARK 922        TOTAL FREE ENERGY PREDICTED BY IDOCK:   -7.37 KCAL/MOL
REMARK 923 INTER-LIGAND FREE ENERGY PREDICTED BY IDOCK:   -6.97 KCAL/MOL
REMARK 924 INTRA-LIGAND FREE ENERGY PREDICTED BY IDOCK:   -0.40 KCAL/MOL
REMARK 927      BINDING AFFINITY PREDICTED BY RF-SCORE:    0.00 PKD
ROOT
HETATM    1  C   UNL     1     -10.206   8.468  70.136  1.00  0.00    -0.202 C  
HETATM    2  C   UNL     1     -11.081   7.479  70.407  1.00  0.00    -0.277 C  
ENDROOT
BRANCH   1   3
HETATM    3  C   UNL     1     -10.690   9.671  69.540  1.00  0.00    -0.232 A  
HETATM    4  N   UNL     1     -11.095  10.773  70.149  1.00  0.00    -0.265 NA 
HETATM    5  N   UNL     1     -11.792  12.956  69.359  1.00  0.00    -0.316 N  
HETATM    6  O   UNL     1     -12.321  14.965  68.385  1.00  0.00    -0.090 OA 
HETATM    7  C   UNL     1     -11.369  11.663  69.164  1.00  0.00    -0.283 A  
HETATM    8  C   UNL     1     -11.163  11.136  67.927  1.00  0.00    -0.302 A  
HETATM    9  C   UNL     1     -12.008  13.779  68.254  1.00  0.00    -0.357 C  
HETATM   10  N   UNL     1     -10.739   9.849  68.157  1.00  0.00    -0.228 NA 
HETATM   11  C   UNL     1     -10.408   8.860  67.160  1.00  0.00    -0.281 C  
HETATM   12  N   UNL     1     -11.868  13.191  66.980  1.00  0.00    -0.379 N  
HETATM   13  C   UNL     1     -11.404  11.889  66.733  1.00  0.00    -0.330 C  
HETATM   14  O   UNL     1     -11.226  11.439  65.606  1.00  0.00    -0.205 OA 
BRANCH  12  15
HETATM   15  C   UNL     1     -12.241  14.007  65.826  1.00  0.00    -0.453 C  
HETATM   16  C   UNL     1     -11.079  14.796  65.241  1.00  0.00    -0.374 C  
ENDBRANCH  12  15
BRANCH   5  17
HETATM   17  C   UNL     1     -11.997  13.470  70.709  1.00  0.00    -0.173 C  
HETATM   18  C   UNL     1     -13.285  12.963  71.339  1.00  0.00    -0.262 C  
ENDBRANCH   5  17
ENDBRANCH   1   3
BRANCH   2  19
HETATM   19  C   UNL     1     -10.805   6.235  71.149  1.00  0.00    -0.320 A  
HETATM   20  C   UNL     1     -11.008   4.765  73.078  1.00  0.00    -0.346 A  
HETATM   21  C   UNL     1     -10.245   3.783  72.440  1.00  0.00    -0.149 A  
HETATM   22  C   UNL     1      -9.724   4.039  71.158  1.00  0.00    -0.187 A  
HETATM   23  C   UNL     1      -9.997   5.263  70.532  1.00  0.00    -0.299 A  
HETATM   24  C   UNL     1     -11.286   5.981  72.437  1.00  0.00    -0.349 A  
BRANCH  22  25
HETATM   25  O   UNL     1      -8.979   3.026  70.605  1.00  0.00    -0.077 OA 
HETATM   26  C   UNL     1      -7.865   3.377  69.798  1.00  0.00    -0.049 C  
ENDBRANCH  22  25
BRANCH  21  27
HETATM   27  O   UNL     1      -9.949   2.551  72.971  1.00  0.00    -0.106 OA 
HETATM   28  C   UNL     1      -9.190   2.503  74.168  1.00  0.00    -0.077 C  
ENDBRANCH  21  27
ENDBRANCH   2  19
TORSDOF 6
ENDMDL
MODEL       60
REMARK 921   NORMALIZED FREE ENERGY PREDICTED BY IDOCK:   -5.23 KCAL/MOL
REMARK 922        TOTAL FREE ENERGY PREDICTED BY IDOCK:   -7.36 KCAL/MOL
REMARK 923 INTER-LIGAND FREE ENERGY PREDICTED BY IDOCK:   -6.89 KCAL/MOL
REMARK 924 INTRA-LIGAND FREE ENERGY PREDICTED BY IDOCK:   -0.47 KCAL/MOL
REMARK 927      BINDING AFFINITY PREDICTED BY RF-SCORE:    0.00 PKD
ROOT
HETATM    1  C   UNL     1     -10.855  10.749  67.039  1.00  0.00    -0.311 C  
HETATM    2  C   UNL     1     -10.045   9.984  67.798  1.00  0.00    -0.222 C  
ENDROOT
BRANCH   1   3
HETATM    3  C   UNL     1     -10.819  12.166  67.206  1.00  0.00    -0.244 A  
HETATM    4  N   UNL     1     -10.986  12.857  68.322  1.00  0.00    -0.244 NA 
HETATM    5  N   UNL     1     -10.812  15.212  68.868  1.00  0.00    -0.231 N  
HETATM    6  O   UNL     1     -10.498  17.466  69.165  1.00  0.00    -0.341 OA 
HETATM    7  C   UNL     1     -10.771  14.154  67.993  1.00  0.00    -0.242 A  
HETATM    8  C   UNL     1     -10.486  14.305  66.671  1.00  0.00    -0.278 A  
HETATM    9  C   UNL     1     -10.538  16.498  68.401  1.00  0.00    -0.323 C  
HETATM   10  N   UNL     1     -10.528  13.033  66.153  1.00  0.00    -0.274 NA 
HETATM   11  C   UNL     1     -10.316  12.656  64.776  1.00  0.00    -0.312 C  
HETATM   12  N   UNL     1     -10.327  16.644  67.015  1.00  0.00    -0.301 N  
HETATM   13  C   UNL     1     -10.239  15.591  66.092  1.00  0.00    -0.306 C  
HETATM   14  O   UNL     1      -9.979  15.756  64.904  1.00  0.00    -0.341 OA 
BRANCH  12  15
HETATM   15  C   UNL     1     -10.191  18.007  66.503  1.00  0.00    -0.382 C  
HETATM   16  C   UNL     1      -8.748  18.484  66.427  1.00  0.00    -0.274 C  
ENDBRANCH  12  15
BRANCH   5  17
HETATM   17  C   UNL     1     -11.123  14.993  70.277  1.00  0.00    -0.229 C  
HETATM   18  C   UNL     1     -12.600  15.179  70.586  1.00  0.00    -0.450 C  
ENDBRANCH   5  17
ENDBRANCH   1   3
BRANCH   2  19
HETATM   19  C   UNL     1      -9.830   8.531  67.671  1.00  0.00    -0.222 A  
HETATM   20  C   UNL     1     -10.539   6.271  67.114  1.00  0.00    -0.380 A  
HETATM   21  C   UNL     1      -9.271   5.771  67.422  1.00  0.00    -0.109 A  
HETATM   22  C   UNL     1      -8.280   6.650  67.896  1.00  0.00    -0.120 A  
HETATM   23  C   UNL     1      -8.571   8.015  68.028  1.00  0.00    -0.129 A  
HETATM   24  C   UNL     1     -10.816   7.640  67.236  1.00  0.00    -0.263 A  
BRANCH  22  25
HETATM   25  O   UNL     1      -7.065   6.079  68.184  1.00  0.00    -0.073 OA 
HETATM   26  C   UNL     1      -5.951   6.426  67.375  1.00  0.00    -0.020 C  
ENDBRANCH  22  25
BRANCH  21  27
HETATM   27  O   UNL     1      -8.895   4.456  67.302  1.00  0.00    -0.104 OA 
HETATM   28  C   UNL     1      -9.231   3.564  68.353  1.00  0.00    -0.168 C  
ENDBRANCH  21  27
ENDBRANCH   2  19
TORSDOF 6
ENDMDL
MODEL       61
REMARK 921   NORMALIZED FREE ENERGY PREDICTED BY IDOCK:   -5.23 KCAL/MOL
REMARK 922        TOTAL FREE ENERGY PREDICTED BY IDOCK:   -7.36 KCAL/MOL
REMARK 923 INTER-LIGAND FREE ENERGY PREDICTED BY IDOCK:   -6.88 KCAL/MOL
REMARK 924 INTRA-LIGAND FREE ENERGY PREDICTED BY IDOCK:   -0.47 KCAL/MOL
REMARK 927      BINDING AFFINITY PREDICTED BY RF-SCORE:    0.00 PKD
ROOT
HETATM    1  C   UNL     1      -9.304   8.593  66.530  1.00  0.00    -0.257 C  
HETATM    2  C   UNL     1     -10.188   7.800  67.168  1.00  0.00    -0.365 C  
ENDROOT
BRANCH   1   3
HETATM    3  C   UNL     1      -9.620   9.974  66.355  1.00  0.00    -0.196 A  
HETATM    4  N   UNL     1     -10.135  10.560  65.286  1.00  0.00    -0.297 NA 
HETATM    5  N   UNL     1     -10.891  12.815  64.821  1.00  0.00    -0.294 N  
HETATM    6  O   UNL     1     -11.628  14.981  64.645  1.00  0.00    -0.410 OA 
HETATM    7  C   UNL     1     -10.337  11.855  65.632  1.00  0.00    -0.247 A  
HETATM    8  C   UNL     1      -9.938  12.111  66.908  1.00  0.00    -0.204 A  
HETATM    9  C   UNL     1     -11.072  14.106  65.315  1.00  0.00    -0.331 C  
HETATM   10  N   UNL     1      -9.462  10.910  67.377  1.00  0.00    -0.155 NA 
HETATM   11  C   UNL     1      -8.898  10.658  68.681  1.00  0.00    -0.151 C  
HETATM   12  N   UNL     1     -10.578  14.373  66.609  1.00  0.00    -0.279 N  
HETATM   13  C   UNL     1     -10.040  13.417  67.485  1.00  0.00    -0.227 C  
HETATM   14  O   UNL     1      -9.689  13.676  68.631  1.00  0.00    -0.202 OA 
BRANCH  12  15
HETATM   15  C   UNL     1     -10.630  15.760  67.068  1.00  0.00    -0.316 C  
HETATM   16  C   UNL     1      -9.369  16.550  66.749  1.00  0.00    -0.262 C  
ENDBRANCH  12  15
BRANCH   5  17
HETATM   17  C   UNL     1     -11.302  12.485  63.460  1.00  0.00    -0.486 C  
HETATM   18  C   UNL     1     -12.768  12.092  63.371  1.00  0.00    -0.527 C  
ENDBRANCH   5  17
ENDBRANCH   1   3
BRANCH   2  19
HETATM   19  C   UNL     1      -9.982   6.398  67.575  1.00  0.00    -0.165 A  
HETATM   20  C   UNL     1      -9.882   4.605  69.216  1.00  0.00    -0.260 A  
HETATM   21  C   UNL     1      -9.619   3.668  68.213  1.00  0.00    -0.099 A  
HETATM   22  C   UNL     1      -9.500   4.101  66.879  1.00  0.00    -0.191 A  
HETATM   23  C   UNL     1      -9.669   5.459  66.575  1.00  0.00    -0.179 A  
HETATM   24  C   UNL     1     -10.063   5.959  68.899  1.00  0.00    -0.231 A  
BRANCH  22  25
HETATM   25  O   UNL     1      -9.233   3.120  65.956  1.00  0.00    -0.153 OA 
HETATM   26  C   UNL     1      -9.665   3.322  64.619  1.00  0.00    -0.149 C  
ENDBRANCH  22  25
BRANCH  21  27
HETATM   27  O   UNL     1      -9.461   2.320  68.420  1.00  0.00    -0.200 OA 
HETATM   28  C   UNL     1      -8.500   1.897  69.373  1.00  0.00    -0.051 C  
ENDBRANCH  21  27
ENDBRANCH   2  19
TORSDOF 6
ENDMDL
MODEL       62
REMARK 921   NORMALIZED FREE ENERGY PREDICTED BY IDOCK:   -5.17 KCAL/MOL
REMARK 922        TOTAL FREE ENERGY PREDICTED BY IDOCK:   -7.29 KCAL/MOL
REMARK 923 INTER-LIGAND FREE ENERGY PREDICTED BY IDOCK:   -6.79 KCAL/MOL
REMARK 924 INTRA-LIGAND FREE ENERGY PREDICTED BY IDOCK:   -0.50 KCAL/MOL
REMARK 927      BINDING AFFINITY PREDICTED BY RF-SCORE:    0.00 PKD
ROOT
HETATM    1  C   UNL     1      -8.826  11.550  68.244  1.00  0.00    -0.166 C  
HETATM    2  C   UNL     1      -9.867  11.325  69.069  1.00  0.00    -0.101 C  
ENDROOT
BRANCH   1   3
HETATM    3  C   UNL     1      -8.584  12.881  67.788  1.00  0.00    -0.185 A  
HETATM    4  N   UNL     1      -9.451  13.727  67.255  1.00  0.00    -0.228 NA 
HETATM    5  N   UNL     1      -9.310  16.047  66.567  1.00  0.00    -0.245 N  
HETATM    6  O   UNL     1      -8.965  18.262  66.078  1.00  0.00    -0.500 OA 
HETATM    7  C   UNL     1      -8.774  14.887  67.072  1.00  0.00    -0.238 A  
HETATM    8  C   UNL     1      -7.474  14.788  67.464  1.00  0.00    -0.198 A  
HETATM    9  C   UNL     1      -8.507  17.182  66.461  1.00  0.00    -0.274 C  
HETATM   10  N   UNL     1      -7.339  13.496  67.914  1.00  0.00    -0.130 NA 
HETATM   11  C   UNL     1      -6.134  12.883  68.420  1.00  0.00    -0.074 C  
HETATM   12  N   UNL     1      -7.145  17.037  66.795  1.00  0.00    -0.212 N  
HETATM   13  C   UNL     1      -6.563  15.886  67.348  1.00  0.00    -0.188 C  
HETATM   14  O   UNL     1      -5.387  15.824  67.694  1.00  0.00    -0.155 OA 
BRANCH  12  15
HETATM   15  C   UNL     1      -6.272  18.182  66.540  1.00  0.00    -0.180 C  
HETATM   16  C   UNL     1      -6.139  19.119  67.732  1.00  0.00    -0.211 C  
ENDBRANCH  12  15
BRANCH   5  17
HETATM   17  C   UNL     1     -10.711  16.097  66.162  1.00  0.00    -0.221 C  
HETATM   18  C   UNL     1     -10.915  15.683  64.713  1.00  0.00    -0.418 C  
ENDBRANCH   5  17
ENDBRANCH   1   3
BRANCH   2  19
HETATM   19  C   UNL     1     -10.190  10.062  69.759  1.00  0.00    -0.286 A  
HETATM   20  C   UNL     1      -9.824   7.712  70.271  1.00  0.00    -0.180 A  
HETATM   21  C   UNL     1     -10.879   7.722  71.187  1.00  0.00    -0.235 A  
HETATM   22  C   UNL     1     -11.623   8.902  71.368  1.00  0.00    -0.312 A  
HETATM   23  C   UNL     1     -11.282  10.053  70.646  1.00  0.00    -0.425 A  
HETATM   24  C   UNL     1      -9.482   8.873  69.563  1.00  0.00    -0.159 A  
BRANCH  22  25
HETATM   25  O   UNL     1     -12.648   8.826  72.280  1.00  0.00    -0.370 OA 
HETATM   26  C   UNL     1     -13.975   8.707  71.790  1.00  0.00    -0.434 C  
ENDBRANCH  22  25
BRANCH  21  27
HETATM   27  O   UNL     1     -11.266   6.648  71.951  1.00  0.00    -0.242 OA 
HETATM   28  C   UNL     1     -10.589   5.416  71.764  1.00  0.00    -0.222 C  
ENDBRANCH  21  27
ENDBRANCH   2  19
TORSDOF 6
ENDMDL
MODEL       63
REMARK 921   NORMALIZED FREE ENERGY PREDICTED BY IDOCK:   -5.17 KCAL/MOL
REMARK 922        TOTAL FREE ENERGY PREDICTED BY IDOCK:   -7.28 KCAL/MOL
REMARK 923 INTER-LIGAND FREE ENERGY PREDICTED BY IDOCK:   -6.82 KCAL/MOL
REMARK 924 INTRA-LIGAND FREE ENERGY PREDICTED BY IDOCK:   -0.46 KCAL/MOL
REMARK 927      BINDING AFFINITY PREDICTED BY RF-SCORE:    0.00 PKD
ROOT
HETATM    1  C   UNL     1     -10.822  12.258  67.433  1.00  0.00    -0.277 C  
HETATM    2  C   UNL     1      -9.762  13.082  67.546  1.00  0.00    -0.206 C  
ENDROOT
BRANCH   1   3
HETATM    3  C   UNL     1     -10.701  10.913  67.896  1.00  0.00    -0.231 A  
HETATM    4  N   UNL     1     -10.933  10.450  69.113  1.00  0.00    -0.227 NA 
HETATM    5  N   UNL     1     -10.951   8.225  70.075  1.00  0.00    -0.232 N  
HETATM    6  O   UNL     1     -11.001   6.028  70.738  1.00  0.00    -0.278 OA 
HETATM    7  C   UNL     1     -10.772   9.106  69.037  1.00  0.00    -0.153 A  
HETATM    8  C   UNL     1     -10.418   8.704  67.785  1.00  0.00    -0.224 A  
HETATM    9  C   UNL     1     -10.783   6.859  69.851  1.00  0.00    -0.246 C  
HETATM   10  N   UNL     1     -10.356   9.862  67.047  1.00  0.00    -0.235 NA 
HETATM   11  C   UNL     1      -9.998   9.976  65.654  1.00  0.00    -0.285 C  
HETATM   12  N   UNL     1     -10.337   6.470  68.571  1.00  0.00    -0.175 N  
HETATM   13  C   UNL     1     -10.177   7.328  67.472  1.00  0.00    -0.221 C  
HETATM   14  O   UNL     1      -9.858   6.938  66.354  1.00  0.00    -0.139 OA 
BRANCH  12  15
HETATM   15  C   UNL     1     -10.014   5.057  68.380  1.00  0.00    -0.136 C  
HETATM   16  C   UNL     1      -8.565   4.719  68.698  1.00  0.00    -0.101 C  
ENDBRANCH  12  15
BRANCH   5  17
HETATM   17  C   UNL     1     -11.332   8.711  71.398  1.00  0.00    -0.284 C  
HETATM   18  C   UNL     1     -10.178   8.673  72.389  1.00  0.00    -0.319 C  
ENDBRANCH   5  17
ENDBRANCH   1   3
BRANCH   2  19
HETATM   19  C   UNL     1      -9.735  14.530  67.266  1.00  0.00    -0.232 A  
HETATM   20  C   UNL     1     -10.400  16.515  66.026  1.00  0.00    -0.358 A  
HETATM   21  C   UNL     1      -9.640  17.327  66.872  1.00  0.00    -0.268 A  
HETATM   22  C   UNL     1      -8.889  16.736  67.905  1.00  0.00    -0.218 A  
HETATM   23  C   UNL     1      -8.933  15.347  68.083  1.00  0.00    -0.176 A  
HETATM   24  C   UNL     1     -10.448  15.127  66.222  1.00  0.00    -0.312 A  
BRANCH  22  25
HETATM   25  O   UNL     1      -8.164  17.603  68.685  1.00  0.00    -0.279 OA 
HETATM   26  C   UNL     1      -6.854  17.218  69.075  1.00  0.00    -0.245 C  
ENDBRANCH  22  25
BRANCH  21  27
HETATM   27  O   UNL     1      -9.558  18.696  66.781  1.00  0.00    -0.294 OA 
HETATM   28  C   UNL     1     -10.437  19.361  65.889  1.00  0.00    -0.472 C  
ENDBRANCH  21  27
ENDBRANCH   2  19
TORSDOF 6
ENDMDL
MODEL       64
REMARK 921   NORMALIZED FREE ENERGY PREDICTED BY IDOCK:   -5.17 KCAL/MOL
REMARK 922        TOTAL FREE ENERGY PREDICTED BY IDOCK:   -7.28 KCAL/MOL
REMARK 923 INTER-LIGAND FREE ENERGY PREDICTED BY IDOCK:   -6.76 KCAL/MOL
REMARK 924 INTRA-LIGAND FREE ENERGY PREDICTED BY IDOCK:   -0.53 KCAL/MOL
REMARK 927      BINDING AFFINITY PREDICTED BY RF-SCORE:    0.00 PKD
ROOT
HETATM    1  C   UNL     1     -10.276   8.961  70.403  1.00  0.00    -0.236 C  
HETATM    2  C   UNL     1     -11.401   9.498  69.891  1.00  0.00    -0.161 C  
ENDROOT
BRANCH   1   3
HETATM    3  C   UNL     1     -10.232   7.555  70.645  1.00  0.00    -0.202 A  
HETATM    4  N   UNL     1     -10.013   6.587  69.770  1.00  0.00    -0.164 NA 
HETATM    5  N   UNL     1      -9.738   4.187  69.972  1.00  0.00    -0.211 N  
HETATM    6  O   UNL     1      -9.417   1.959  70.420  1.00  0.00    -0.111 OA 
HETATM    7  C   UNL     1      -9.976   5.437  70.489  1.00  0.00    -0.221 A  
HETATM    8  C   UNL     1     -10.189   5.656  71.815  1.00  0.00    -0.202 A  
HETATM    9  C   UNL     1      -9.695   3.089  70.831  1.00  0.00    -0.085 C  
HETATM   10  N   UNL     1     -10.369   7.015  71.924  1.00  0.00    -0.193 NA 
HETATM   11  C   UNL     1     -10.651   7.751  73.133  1.00  0.00    -0.352 C  
HETATM   12  N   UNL     1      -9.999   3.324  72.188  1.00  0.00    -0.166 N  
HETATM   13  C   UNL     1     -10.211   4.586  72.765  1.00  0.00    -0.179 C  
HETATM   14  O   UNL     1     -10.400   4.755  73.966  1.00  0.00    -0.202 OA 
BRANCH  12  15
HETATM   15  C   UNL     1     -10.104   2.155  73.058  1.00  0.00    -0.118 C  
HETATM   16  C   UNL     1     -11.504   1.560  73.107  1.00  0.00    -0.243 C  
ENDBRANCH  12  15
BRANCH   5  17
HETATM   17  C   UNL     1      -9.516   4.009  68.541  1.00  0.00    -0.151 C  
HETATM   18  C   UNL     1      -8.050   4.141  68.156  1.00  0.00    -0.085 C  
ENDBRANCH   5  17
ENDBRANCH   1   3
BRANCH   2  19
HETATM   19  C   UNL     1     -11.587  10.888  69.436  1.00  0.00    -0.387 A  
HETATM   20  C   UNL     1     -12.027  13.253  69.803  1.00  0.00    -0.391 A  
HETATM   21  C   UNL     1     -11.868  13.519  68.441  1.00  0.00    -0.373 A  
HETATM   22  C   UNL     1     -11.602  12.457  67.557  1.00  0.00    -0.365 A  
HETATM   23  C   UNL     1     -11.477  11.154  68.059  1.00  0.00    -0.366 A  
HETATM   24  C   UNL     1     -11.887  11.948  70.297  1.00  0.00    -0.368 A  
BRANCH  22  25
HETATM   25  O   UNL     1     -11.467  12.801  66.234  1.00  0.00    -0.316 OA 
HETATM   26  C   UNL     1     -11.123  11.782  65.307  1.00  0.00    -0.276 C  
ENDBRANCH  22  25
BRANCH  21  27
HETATM   27  O   UNL     1     -11.952  14.765  67.869  1.00  0.00    -0.330 OA 
HETATM   28  C   UNL     1     -10.854  15.649  68.027  1.00  0.00    -0.308 C  
ENDBRANCH  21  27
ENDBRANCH   2  19
TORSDOF 6
ENDMDL
MODEL       65
REMARK 921   NORMALIZED FREE ENERGY PREDICTED BY IDOCK:   -5.14 KCAL/MOL
REMARK 922        TOTAL FREE ENERGY PREDICTED BY IDOCK:   -7.24 KCAL/MOL
REMARK 923 INTER-LIGAND FREE ENERGY PREDICTED BY IDOCK:   -6.71 KCAL/MOL
REMARK 924 INTRA-LIGAND FREE ENERGY PREDICTED BY IDOCK:   -0.54 KCAL/MOL
REMARK 927      BINDING AFFINITY PREDICTED BY RF-SCORE:    0.00 PKD
ROOT
HETATM    1  C   UNL     1     -10.737   9.806  67.846  1.00  0.00    -0.312 C  
HETATM    2  C   UNL     1     -10.902  11.139  67.953  1.00  0.00    -0.285 C  
ENDROOT
BRANCH   1   3
HETATM    3  C   UNL     1      -9.953   9.293  66.769  1.00  0.00    -0.245 A  
HETATM    4  N   UNL     1      -9.427   9.962  65.757  1.00  0.00    -0.202 NA 
HETATM    5  N   UNL     1      -7.954   9.344  63.934  1.00  0.00    -0.133 N  
HETATM    6  O   UNL     1      -6.488   8.549  62.357  1.00  0.00    -0.094 OA 
HETATM    7  C   UNL     1      -8.698   9.061  65.053  1.00  0.00    -0.183 A  
HETATM    8  C   UNL     1      -8.768   7.814  65.594  1.00  0.00    -0.104 A  
HETATM    9  C   UNL     1      -7.223   8.325  63.323  1.00  0.00    -0.093 C  
HETATM   10  N   UNL     1      -9.585   7.950  66.691  1.00  0.00    -0.212 NA 
HETATM   11  C   UNL     1      -9.993   6.902  67.595  1.00  0.00    -0.144 C  
HETATM   12  N   UNL     1      -7.373   7.026  63.848  1.00  0.00    -0.077 N  
HETATM   13  C   UNL     1      -8.090   6.697  65.009  1.00  0.00    -0.124 C  
HETATM   14  O   UNL     1      -8.136   5.563  65.475  1.00  0.00    -0.109 OA 
BRANCH  12  15
HETATM   15  C   UNL     1      -6.729   5.935  63.118  1.00  0.00    -0.033 C  
HETATM   16  C   UNL     1      -5.346   5.585  63.647  1.00  0.00    -0.013 C  
ENDBRANCH  12  15
BRANCH   5  17
HETATM   17  C   UNL     1      -7.915  10.701  63.397  1.00  0.00     0.029 C  
HETATM   18  C   UNL     1      -9.010  10.956  62.373  1.00  0.00    -0.353 C  
ENDBRANCH   5  17
ENDBRANCH   1   3
BRANCH   2  19
HETATM   19  C   UNL     1     -11.543  11.863  69.066  1.00  0.00    -0.376 A  
HETATM   20  C   UNL     1     -12.240  13.885  70.227  1.00  0.00    -0.428 A  
HETATM   21  C   UNL     1     -12.853  13.127  71.228  1.00  0.00    -0.296 A  
HETATM   22  C   UNL     1     -12.782  11.723  71.172  1.00  0.00    -0.305 A  
HETATM   23  C   UNL     1     -12.119  11.106  70.102  1.00  0.00    -0.443 A  
HETATM   24  C   UNL     1     -11.591  13.257  69.154  1.00  0.00    -0.370 A  
BRANCH  22  25
HETATM   25  O   UNL     1     -13.402  11.053  72.198  1.00  0.00    -0.451 OA 
HETATM   26  C   UNL     1     -13.514   9.641  72.107  1.00  0.00    -0.429 C  
ENDBRANCH  22  25
BRANCH  21  27
HETATM   27  O   UNL     1     -13.540  13.648  72.298  1.00  0.00    -0.475 OA 
HETATM   28  C   UNL     1     -12.867  14.568  73.142  1.00  0.00    -0.444 C  
ENDBRANCH  21  27
ENDBRANCH   2  19
TORSDOF 6
ENDMDL
MODEL       66
REMARK 921   NORMALIZED FREE ENERGY PREDICTED BY IDOCK:   -5.12 KCAL/MOL
REMARK 922        TOTAL FREE ENERGY PREDICTED BY IDOCK:   -7.22 KCAL/MOL
REMARK 923 INTER-LIGAND FREE ENERGY PREDICTED BY IDOCK:   -6.80 KCAL/MOL
REMARK 924 INTRA-LIGAND FREE ENERGY PREDICTED BY IDOCK:   -0.42 KCAL/MOL
REMARK 927      BINDING AFFINITY PREDICTED BY RF-SCORE:    0.00 PKD
ROOT
HETATM    1  C   UNL     1      -9.222  13.923  68.337  1.00  0.00    -0.194 C  
HETATM    2  C   UNL     1      -8.764  12.964  67.508  1.00  0.00    -0.190 C  
ENDROOT
BRANCH   1   3
HETATM    3  C   UNL     1      -8.656  15.231  68.256  1.00  0.00    -0.159 A  
HETATM    4  N   UNL     1      -9.106  16.270  67.572  1.00  0.00    -0.192 NA 
HETATM    5  N   UNL     1      -8.418  18.588  67.413  1.00  0.00    -0.255 N  
HETATM    6  O   UNL     1      -7.644  20.747  67.497  1.00  0.00    -0.325 OA 
HETATM    7  C   UNL     1      -8.287  17.304  67.883  1.00  0.00    -0.220 A  
HETATM    8  C   UNL     1      -7.302  16.935  68.746  1.00  0.00    -0.227 A  
HETATM    9  C   UNL     1      -7.522  19.568  67.841  1.00  0.00    -0.275 C  
HETATM   10  N   UNL     1      -7.523  15.598  68.982  1.00  0.00    -0.165 NA 
HETATM   11  C   UNL     1      -6.730  14.730  69.819  1.00  0.00    -0.173 C  
HETATM   12  N   UNL     1      -6.461  19.148  68.669  1.00  0.00    -0.247 N  
HETATM   13  C   UNL     1      -6.309  17.859  69.202  1.00  0.00    -0.236 C  
HETATM   14  O   UNL     1      -5.411  17.553  69.980  1.00  0.00    -0.190 OA 
BRANCH  12  15
HETATM   15  C   UNL     1      -5.437  20.140  68.993  1.00  0.00    -0.229 C  
HETATM   16  C   UNL     1      -5.569  20.711  70.397  1.00  0.00    -0.285 C  
ENDBRANCH  12  15
BRANCH   5  17
HETATM   17  C   UNL     1      -9.495  18.931  66.489  1.00  0.00    -0.340 C  
HETATM   18  C   UNL     1     -10.744  19.422  67.203  1.00  0.00    -0.593 C  
ENDBRANCH   5  17
ENDBRANCH   1   3
BRANCH   2  19
HETATM   19  C   UNL     1      -9.316  11.608  67.338  1.00  0.00    -0.168 A  
HETATM   20  C   UNL     1      -9.925   9.662  66.010  1.00  0.00    -0.344 A  
HETATM   21  C   UNL     1     -10.348   8.982  67.156  1.00  0.00    -0.272 A  
HETATM   22  C   UNL     1     -10.290   9.631  68.403  1.00  0.00    -0.204 A  
HETATM   23  C   UNL     1      -9.789  10.938  68.480  1.00  0.00    -0.188 A  
HETATM   24  C   UNL     1      -9.413  10.964  66.101  1.00  0.00    -0.230 A  
BRANCH  22  25
HETATM   25  O   UNL     1     -10.732   8.898  69.477  1.00  0.00    -0.230 OA 
HETATM   26  C   UNL     1      -9.784   8.508  70.459  1.00  0.00    -0.177 C  
ENDBRANCH  22  25
BRANCH  21  27
HETATM   27  O   UNL     1     -10.831   7.696  67.173  1.00  0.00    -0.317 OA 
HETATM   28  C   UNL     1      -9.963   6.650  66.766  1.00  0.00    -0.176 C  
ENDBRANCH  21  27
ENDBRANCH   2  19
TORSDOF 6
ENDMDL
MODEL       67
REMARK 921   NORMALIZED FREE ENERGY PREDICTED BY IDOCK:   -5.12 KCAL/MOL
REMARK 922        TOTAL FREE ENERGY PREDICTED BY IDOCK:   -7.21 KCAL/MOL
REMARK 923 INTER-LIGAND FREE ENERGY PREDICTED BY IDOCK:   -6.63 KCAL/MOL
REMARK 924 INTRA-LIGAND FREE ENERGY PREDICTED BY IDOCK:   -0.58 KCAL/MOL
REMARK 927      BINDING AFFINITY PREDICTED BY RF-SCORE:    0.00 PKD
ROOT
HETATM    1  C   UNL     1      -9.758   8.116  69.167  1.00  0.00    -0.163 C  
HETATM    2  C   UNL     1     -10.496   8.279  68.052  1.00  0.00    -0.239 C  
ENDROOT
BRANCH   1   3
HETATM    3  C   UNL     1      -9.816   6.868  69.857  1.00  0.00    -0.165 A  
HETATM    4  N   UNL     1      -9.317   5.704  69.473  1.00  0.00    -0.131 NA 
HETATM    5  N   UNL     1      -9.156   3.529  70.529  1.00  0.00    -0.108 N  
HETATM    6  O   UNL     1      -9.034   1.597  71.762  1.00  0.00    -0.065 OA 
HETATM    7  C   UNL     1      -9.544   4.846  70.498  1.00  0.00    -0.184 A  
HETATM    8  C   UNL     1     -10.203   5.443  71.528  1.00  0.00    -0.219 A  
HETATM    9  C   UNL     1      -9.425   2.763  71.663  1.00  0.00    -0.141 C  
HETATM   10  N   UNL     1     -10.394   6.741  71.120  1.00  0.00    -0.204 NA 
HETATM   11  C   UNL     1     -11.071   7.783  71.854  1.00  0.00    -0.257 C  
HETATM   12  N   UNL     1     -10.179   3.375  72.685  1.00  0.00    -0.161 N  
HETATM   13  C   UNL     1     -10.565   4.724  72.712  1.00  0.00    -0.211 C  
HETATM   14  O   UNL     1     -11.158   5.238  73.656  1.00  0.00    -0.297 OA 
BRANCH  12  15
HETATM   15  C   UNL     1     -10.593   2.530  73.804  1.00  0.00    -0.158 C  
HETATM   16  C   UNL     1     -11.907   1.802  73.559  1.00  0.00    -0.270 C  
ENDBRANCH  12  15
BRANCH   5  17
HETATM   17  C   UNL     1      -8.451   2.939  69.395  1.00  0.00    -0.062 C  
HETATM   18  C   UNL     1      -9.395   2.293  68.392  1.00  0.00    -0.260 C  
ENDBRANCH   5  17
ENDBRANCH   1   3
BRANCH   2  19
HETATM   19  C   UNL     1     -10.459   9.427  67.128  1.00  0.00    -0.315 A  
HETATM   20  C   UNL     1      -9.925  10.489  65.005  1.00  0.00    -0.388 A  
HETATM   21  C   UNL     1     -10.499  11.689  65.434  1.00  0.00    -0.275 A  
HETATM   22  C   UNL     1     -11.027  11.775  66.735  1.00  0.00    -0.288 A  
HETATM   23  C   UNL     1     -10.990  10.651  67.571  1.00  0.00    -0.371 A  
HETATM   24  C   UNL     1      -9.906   9.367  65.845  1.00  0.00    -0.362 A  
BRANCH  22  25
HETATM   25  O   UNL     1     -11.564  12.991  67.081  1.00  0.00    -0.318 OA 
HETATM   26  C   UNL     1     -10.833  13.818  67.974  1.00  0.00    -0.249 C  
ENDBRANCH  22  25
BRANCH  21  27
HETATM   27  O   UNL     1     -10.595  12.829  64.673  1.00  0.00    -0.312 OA 
HETATM   28  C   UNL     1     -11.443  12.806  63.536  1.00  0.00    -0.459 C  
ENDBRANCH  21  27
ENDBRANCH   2  19
TORSDOF 6
ENDMDL
MODEL       68
REMARK 921   NORMALIZED FREE ENERGY PREDICTED BY IDOCK:   -5.11 KCAL/MOL
REMARK 922        TOTAL FREE ENERGY PREDICTED BY IDOCK:   -7.20 KCAL/MOL
REMARK 923 INTER-LIGAND FREE ENERGY PREDICTED BY IDOCK:   -6.67 KCAL/MOL
REMARK 924 INTRA-LIGAND FREE ENERGY PREDICTED BY IDOCK:   -0.53 KCAL/MOL
REMARK 927      BINDING AFFINITY PREDICTED BY RF-SCORE:    0.00 PKD
ROOT
HETATM    1  C   UNL     1     -11.034   9.759  69.199  1.00  0.00    -0.205 C  
HETATM    2  C   UNL     1     -11.006  10.068  67.888  1.00  0.00    -0.311 C  
ENDROOT
BRANCH   1   3
HETATM    3  C   UNL     1     -10.800   8.408  69.594  1.00  0.00    -0.148 A  
HETATM    4  N   UNL     1     -10.215   7.448  68.896  1.00  0.00    -0.191 NA 
HETATM    5  N   UNL     1      -9.575   5.167  69.408  1.00  0.00    -0.146 N  
HETATM    6  O   UNL     1      -8.979   3.078  70.150  1.00  0.00    -0.080 OA 
HETATM    7  C   UNL     1     -10.144   6.376  69.724  1.00  0.00    -0.176 A  
HETATM    8  C   UNL     1     -10.695   6.634  70.941  1.00  0.00    -0.235 A  
HETATM    9  C   UNL     1      -9.540   4.156  70.368  1.00  0.00    -0.196 C  
HETATM   10  N   UNL     1     -11.133   7.934  70.863  1.00  0.00    -0.251 NA 
HETATM   11  C   UNL     1     -11.814   8.677  71.896  1.00  0.00    -0.351 C  
HETATM   12  N   UNL     1     -10.188   4.413  71.593  1.00  0.00    -0.157 N  
HETATM   13  C   UNL     1     -10.748   5.642  71.973  1.00  0.00    -0.235 C  
HETATM   14  O   UNL     1     -11.239   5.847  73.079  1.00  0.00    -0.263 OA 
BRANCH  12  15
HETATM   15  C   UNL     1     -10.285   3.303  72.540  1.00  0.00    -0.146 C  
HETATM   16  C   UNL     1      -9.135   3.256  73.537  1.00  0.00    -0.094 C  
ENDBRANCH  12  15
BRANCH   5  17
HETATM   17  C   UNL     1      -8.997   4.945  68.086  1.00  0.00    -0.110 C  
HETATM   18  C   UNL     1     -10.019   4.443  67.078  1.00  0.00    -0.197 C  
ENDBRANCH   5  17
ENDBRANCH   1   3
BRANCH   2  19
HETATM   19  C   UNL     1     -11.074  11.417  67.297  1.00  0.00    -0.363 A  
HETATM   20  C   UNL     1     -10.909  12.990  65.448  1.00  0.00    -0.304 A  
HETATM   21  C   UNL     1     -11.295  14.045  66.278  1.00  0.00    -0.333 A  
HETATM   22  C   UNL     1     -11.539  13.796  67.641  1.00  0.00    -0.347 A  
HETATM   23  C   UNL     1     -11.415  12.491  68.139  1.00  0.00    -0.368 A  
HETATM   24  C   UNL     1     -10.800  11.686  65.953  1.00  0.00    -0.339 A  
BRANCH  22  25
HETATM   25  O   UNL     1     -11.906  14.887  68.390  1.00  0.00    -0.319 OA 
HETATM   26  C   UNL     1     -11.927  14.754  69.804  1.00  0.00    -0.321 C  
ENDBRANCH  22  25
BRANCH  21  27
HETATM   27  O   UNL     1     -11.462  15.345  65.869  1.00  0.00    -0.189 OA 
HETATM   28  C   UNL     1     -11.525  15.606  64.477  1.00  0.00    -0.300 C  
ENDBRANCH  21  27
ENDBRANCH   2  19
TORSDOF 6
ENDMDL
MODEL       69
REMARK 921   NORMALIZED FREE ENERGY PREDICTED BY IDOCK:   -5.06 KCAL/MOL
REMARK 922        TOTAL FREE ENERGY PREDICTED BY IDOCK:   -7.14 KCAL/MOL
REMARK 923 INTER-LIGAND FREE ENERGY PREDICTED BY IDOCK:   -6.65 KCAL/MOL
REMARK 924 INTRA-LIGAND FREE ENERGY PREDICTED BY IDOCK:   -0.49 KCAL/MOL
REMARK 927      BINDING AFFINITY PREDICTED BY RF-SCORE:    0.00 PKD
ROOT
HETATM    1  C   UNL     1     -10.883  12.160  67.625  1.00  0.00    -0.272 C  
HETATM    2  C   UNL     1     -10.000  13.079  68.064  1.00  0.00    -0.233 C  
ENDROOT
BRANCH   1   3
HETATM    3  C   UNL     1     -10.673  10.788  67.957  1.00  0.00    -0.228 A  
HETATM    4  N   UNL     1     -11.068  10.146  69.045  1.00  0.00    -0.222 NA 
HETATM    5  N   UNL     1     -10.969   7.827  69.740  1.00  0.00    -0.206 N  
HETATM    6  O   UNL     1     -10.847   5.570  70.141  1.00  0.00    -0.306 OA 
HETATM    7  C   UNL     1     -10.715   8.850  68.860  1.00  0.00    -0.106 A  
HETATM    8  C   UNL     1     -10.079   8.657  67.673  1.00  0.00    -0.213 A  
HETATM    9  C   UNL     1     -10.579   6.529  69.411  1.00  0.00    -0.245 C  
HETATM   10  N   UNL     1     -10.035   9.902  67.090  1.00  0.00    -0.189 NA 
HETATM   11  C   UNL     1      -9.436  10.236  65.820  1.00  0.00    -0.203 C  
HETATM   12  N   UNL     1      -9.849   6.363  68.216  1.00  0.00    -0.126 N  
HETATM   13  C   UNL     1      -9.600   7.370  67.271  1.00  0.00    -0.150 C  
HETATM   14  O   UNL     1      -9.024   7.168  66.207  1.00  0.00    -0.153 OA 
BRANCH  12  15
HETATM   15  C   UNL     1      -9.309   5.031  67.947  1.00  0.00    -0.124 C  
HETATM   16  C   UNL     1     -10.135   4.233  66.948  1.00  0.00    -0.097 C  
ENDBRANCH  12  15
BRANCH   5  17
HETATM   17  C   UNL     1     -11.656   8.090  71.001  1.00  0.00    -0.283 C  
HETATM   18  C   UNL     1     -10.695   8.430  72.130  1.00  0.00    -0.407 C  
ENDBRANCH   5  17
ENDBRANCH   1   3
BRANCH   2  19
HETATM   19  C   UNL     1     -10.121  14.544  67.953  1.00  0.00    -0.227 A  
HETATM   20  C   UNL     1     -10.082  16.801  68.861  1.00  0.00    -0.285 A  
HETATM   21  C   UNL     1     -10.326  17.340  67.595  1.00  0.00    -0.350 A  
HETATM   22  C   UNL     1     -10.507  16.475  66.500  1.00  0.00    -0.270 A  
HETATM   23  C   UNL     1     -10.416  15.090  66.691  1.00  0.00    -0.284 A  
HETATM   24  C   UNL     1      -9.980  15.414  69.038  1.00  0.00    -0.229 A  
BRANCH  22  25
HETATM   25  O   UNL     1     -10.750  17.084  65.293  1.00  0.00    -0.616 OA 
HETATM   26  C   UNL     1     -11.249  16.288  64.229  1.00  0.00     0.052 C  
ENDBRANCH  22  25
BRANCH  21  27
HETATM   27  O   UNL     1     -10.409  18.683  67.316  1.00  0.00    -0.358 OA 
HETATM   28  C   UNL     1      -9.264  19.487  67.549  1.00  0.00    -0.315 C  
ENDBRANCH  21  27
ENDBRANCH   2  19
TORSDOF 6
ENDMDL
MODEL       70
REMARK 921   NORMALIZED FREE ENERGY PREDICTED BY IDOCK:   -5.06 KCAL/MOL
REMARK 922        TOTAL FREE ENERGY PREDICTED BY IDOCK:   -7.13 KCAL/MOL
REMARK 923 INTER-LIGAND FREE ENERGY PREDICTED BY IDOCK:   -6.56 KCAL/MOL
REMARK 924 INTRA-LIGAND FREE ENERGY PREDICTED BY IDOCK:   -0.57 KCAL/MOL
REMARK 927      BINDING AFFINITY PREDICTED BY RF-SCORE:    0.00 PKD
ROOT
HETATM    1  C   UNL     1      -9.143   9.905  67.669  1.00  0.00    -0.140 C  
HETATM    2  C   UNL     1      -9.695   9.240  66.635  1.00  0.00    -0.281 C  
ENDROOT
BRANCH   1   3
HETATM    3  C   UNL     1      -9.761  11.108  68.123  1.00  0.00    -0.181 A  
HETATM    4  N   UNL     1      -9.656  12.321  67.605  1.00  0.00    -0.186 NA 
HETATM    5  N   UNL     1     -10.718  14.443  68.098  1.00  0.00    -0.232 N  
HETATM    6  O   UNL     1     -11.917  16.311  68.682  1.00  0.00    -0.182 OA 
HETATM    7  C   UNL     1     -10.495  13.107  68.324  1.00  0.00    -0.250 A  
HETATM    8  C   UNL     1     -11.125  12.414  69.311  1.00  0.00    -0.147 A  
HETATM    9  C   UNL     1     -11.636  15.128  68.894  1.00  0.00    -0.341 C  
HETATM   10  N   UNL     1     -10.649  11.129  69.199  1.00  0.00    -0.217 NA 
HETATM   11  C   UNL     1     -10.995  10.007  70.038  1.00  0.00    -0.300 C  
HETATM   12  N   UNL     1     -12.215  14.414  69.962  1.00  0.00    -0.336 N  
HETATM   13  C   UNL     1     -12.046  13.043  70.208  1.00  0.00    -0.314 C  
HETATM   14  O   UNL     1     -12.627  12.442  71.106  1.00  0.00    -0.364 OA 
BRANCH  12  15
HETATM   15  C   UNL     1     -13.058  15.169  70.888  1.00  0.00    -0.441 C  
HETATM   16  C   UNL     1     -12.276  15.842  72.007  1.00  0.00    -0.570 C  
ENDBRANCH  12  15
BRANCH   5  17
HETATM   17  C   UNL     1     -10.015  15.138  67.023  1.00  0.00    -0.241 C  
HETATM   18  C   UNL     1     -10.768  15.085  65.703  1.00  0.00    -0.365 C  
ENDBRANCH   5  17
ENDBRANCH   1   3
BRANCH   2  19
HETATM   19  C   UNL     1      -9.295   7.917  66.122  1.00  0.00    -0.188 A  
HETATM   20  C   UNL     1      -8.036   6.449  64.645  1.00  0.00    -0.118 A  
HETATM   21  C   UNL     1      -8.572   5.320  65.270  1.00  0.00    -0.150 A  
HETATM   22  C   UNL     1      -9.507   5.485  66.308  1.00  0.00    -0.157 A  
HETATM   23  C   UNL     1      -9.869   6.777  66.714  1.00  0.00    -0.236 A  
HETATM   24  C   UNL     1      -8.394   7.737  65.069  1.00  0.00    -0.094 A  
BRANCH  22  25
HETATM   25  O   UNL     1      -9.992   4.326  66.863  1.00  0.00    -0.216 OA 
HETATM   26  C   UNL     1      -9.647   4.031  68.208  1.00  0.00    -0.125 C  
ENDBRANCH  22  25
BRANCH  21  27
HETATM   27  O   UNL     1      -8.257   4.022  64.950  1.00  0.00    -0.096 OA 
HETATM   28  C   UNL     1      -8.109   3.687  63.580  1.00  0.00    -0.088 C  
ENDBRANCH  21  27
ENDBRANCH   2  19
TORSDOF 6
ENDMDL
MODEL       71
REMARK 921   NORMALIZED FREE ENERGY PREDICTED BY IDOCK:   -5.04 KCAL/MOL
REMARK 922        TOTAL FREE ENERGY PREDICTED BY IDOCK:   -7.11 KCAL/MOL
REMARK 923 INTER-LIGAND FREE ENERGY PREDICTED BY IDOCK:   -6.63 KCAL/MOL
REMARK 924 INTRA-LIGAND FREE ENERGY PREDICTED BY IDOCK:   -0.48 KCAL/MOL
REMARK 927      BINDING AFFINITY PREDICTED BY RF-SCORE:    0.00 PKD
ROOT
HETATM    1  C   UNL     1     -11.153  10.249  68.353  1.00  0.00    -0.302 C  
HETATM    2  C   UNL     1     -10.284   9.465  69.021  1.00  0.00    -0.216 C  
ENDROOT
BRANCH   1   3
HETATM    3  C   UNL     1     -11.002  11.665  68.430  1.00  0.00    -0.220 A  
HETATM    4  N   UNL     1     -11.431  12.478  69.382  1.00  0.00    -0.275 NA 
HETATM    5  N   UNL     1     -11.159  14.850  69.799  1.00  0.00    -0.269 N  
HETATM    6  O   UNL     1     -10.687  17.083  70.035  1.00  0.00    -0.149 OA 
HETATM    7  C   UNL     1     -10.969  13.710  69.057  1.00  0.00    -0.234 A  
HETATM    8  C   UNL     1     -10.262  13.700  67.893  1.00  0.00    -0.250 A  
HETATM    9  C   UNL     1     -10.599  16.051  69.364  1.00  0.00    -0.275 C  
HETATM   10  N   UNL     1     -10.290  12.391  67.475  1.00  0.00    -0.213 NA 
HETATM   11  C   UNL     1      -9.698  11.860  66.270  1.00  0.00    -0.229 C  
HETATM   12  N   UNL     1      -9.942  16.037  68.117  1.00  0.00    -0.225 N  
HETATM   13  C   UNL     1      -9.692  14.893  67.344  1.00  0.00    -0.217 C  
HETATM   14  O   UNL     1      -9.051  14.912  66.298  1.00  0.00    -0.282 OA 
BRANCH  12  15
HETATM   15  C   UNL     1      -9.489  17.323  67.590  1.00  0.00    -0.246 C  
HETATM   16  C   UNL     1     -10.356  17.852  66.457  1.00  0.00    -0.362 C  
ENDBRANCH  12  15
BRANCH   5  17
HETATM   17  C   UNL     1     -11.925  14.803  71.041  1.00  0.00    -0.331 C  
HETATM   18  C   UNL     1     -13.375  15.217  70.849  1.00  0.00    -0.475 C  
ENDBRANCH   5  17
ENDBRANCH   1   3
BRANCH   2  19
HETATM   19  C   UNL     1     -10.183   7.996  68.948  1.00  0.00    -0.220 A  
HETATM   20  C   UNL     1     -10.224   5.872  67.761  1.00  0.00    -0.223 A  
HETATM   21  C   UNL     1      -9.911   5.182  68.936  1.00  0.00    -0.175 A  
HETATM   22  C   UNL     1      -9.768   5.897  70.139  1.00  0.00    -0.168 A  
HETATM   23  C   UNL     1      -9.918   7.291  70.136  1.00  0.00    -0.184 A  
HETATM   24  C   UNL     1     -10.358   7.268  67.768  1.00  0.00    -0.267 A  
BRANCH  22  25
HETATM   25  O   UNL     1      -9.469   5.145  71.248  1.00  0.00    -0.144 OA 
HETATM   26  C   UNL     1      -8.523   5.660  72.173  1.00  0.00    -0.126 C  
ENDBRANCH  22  25
BRANCH  21  27
HETATM   27  O   UNL     1      -9.726   3.824  69.023  1.00  0.00    -0.156 OA 
HETATM   28  C   UNL     1      -9.333   3.126  67.852  1.00  0.00    -0.201 C  
ENDBRANCH  21  27
ENDBRANCH   2  19
TORSDOF 6
ENDMDL
MODEL       72
REMARK 921   NORMALIZED FREE ENERGY PREDICTED BY IDOCK:   -5.04 KCAL/MOL
REMARK 922        TOTAL FREE ENERGY PREDICTED BY IDOCK:   -7.11 KCAL/MOL
REMARK 923 INTER-LIGAND FREE ENERGY PREDICTED BY IDOCK:   -6.59 KCAL/MOL
REMARK 924 INTRA-LIGAND FREE ENERGY PREDICTED BY IDOCK:   -0.51 KCAL/MOL
REMARK 927      BINDING AFFINITY PREDICTED BY RF-SCORE:    0.00 PKD
ROOT
HETATM    1  C   UNL     1      -9.055  12.420  66.818  1.00  0.00    -0.212 C  
HETATM    2  C   UNL     1      -8.424  13.351  67.560  1.00  0.00    -0.192 C  
ENDROOT
BRANCH   1   3
HETATM    3  C   UNL     1      -9.429  11.187  67.432  1.00  0.00    -0.164 A  
HETATM    4  N   UNL     1     -10.023  11.010  68.601  1.00  0.00    -0.193 NA 
HETATM    5  N   UNL     1     -10.884   9.060  69.755  1.00  0.00    -0.227 N  
HETATM    6  O   UNL     1     -11.708   7.096  70.609  1.00  0.00    -0.313 OA 
HETATM    7  C   UNL     1     -10.253   9.677  68.703  1.00  0.00    -0.189 A  
HETATM    8  C   UNL     1      -9.794   8.995  67.619  1.00  0.00    -0.173 A  
HETATM    9  C   UNL     1     -11.085   7.680  69.719  1.00  0.00    -0.106 C  
HETATM   10  N   UNL     1      -9.250   9.956  66.801  1.00  0.00    -0.146 NA 
HETATM   11  C   UNL     1      -8.607   9.739  65.528  1.00  0.00    -0.145 C  
HETATM   12  N   UNL     1     -10.531   6.981  68.627  1.00  0.00    -0.197 N  
HETATM   13  C   UNL     1      -9.911   7.572  67.515  1.00  0.00    -0.174 C  
HETATM   14  O   UNL     1      -9.507   6.932  66.549  1.00  0.00    -0.168 OA 
BRANCH  12  15
HETATM   15  C   UNL     1     -10.607   5.522  68.664  1.00  0.00    -0.145 C  
HETATM   16  C   UNL     1      -9.424   4.871  69.367  1.00  0.00    -0.218 C  
ENDBRANCH  12  15
BRANCH   5  17
HETATM   17  C   UNL     1     -11.358   9.841  70.894  1.00  0.00    -0.365 C  
HETATM   18  C   UNL     1     -12.832  10.199  70.785  1.00  0.00    -0.388 C  
ENDBRANCH   5  17
ENDBRANCH   1   3
BRANCH   2  19
HETATM   19  C   UNL     1      -8.093  14.729  67.153  1.00  0.00    -0.226 A  
HETATM   20  C   UNL     1      -6.560  16.592  66.836  1.00  0.00    -0.212 A  
HETATM   21  C   UNL     1      -7.582  17.370  66.284  1.00  0.00    -0.313 A  
HETATM   22  C   UNL     1      -8.882  16.840  66.197  1.00  0.00    -0.263 A  
HETATM   23  C   UNL     1      -9.128  15.534  66.642  1.00  0.00    -0.310 A  
HETATM   24  C   UNL     1      -6.814  15.281  67.266  1.00  0.00    -0.108 A  
BRANCH  22  25
HETATM   25  O   UNL     1      -9.829  17.671  65.650  1.00  0.00    -0.536 OA 
HETATM   26  C   UNL     1     -10.784  18.262  66.518  1.00  0.00    -0.170 C  
ENDBRANCH  22  25
BRANCH  21  27
HETATM   27  O   UNL     1      -7.423  18.647  65.805  1.00  0.00    -0.459 OA 
HETATM   28  C   UNL     1      -6.218  18.964  65.129  1.00  0.00    -0.278 C  
ENDBRANCH  21  27
ENDBRANCH   2  19
TORSDOF 6
ENDMDL
MODEL       73
REMARK 921   NORMALIZED FREE ENERGY PREDICTED BY IDOCK:   -5.03 KCAL/MOL
REMARK 922        TOTAL FREE ENERGY PREDICTED BY IDOCK:   -7.10 KCAL/MOL
REMARK 923 INTER-LIGAND FREE ENERGY PREDICTED BY IDOCK:   -6.50 KCAL/MOL
REMARK 924 INTRA-LIGAND FREE ENERGY PREDICTED BY IDOCK:   -0.60 KCAL/MOL
REMARK 927      BINDING AFFINITY PREDICTED BY RF-SCORE:    0.00 PKD
ROOT
HETATM    1  C   UNL     1     -10.531   9.315  67.934  1.00  0.00    -0.290 C  
HETATM    2  C   UNL     1     -10.891  10.510  67.425  1.00  0.00    -0.349 C  
ENDROOT
BRANCH   1   3
HETATM    3  C   UNL     1      -9.994   8.327  67.056  1.00  0.00    -0.255 A  
HETATM    4  N   UNL     1      -9.213   8.513  66.004  1.00  0.00    -0.206 NA 
HETATM    5  N   UNL     1      -8.068   7.007  64.489  1.00  0.00    -0.107 N  
HETATM    6  O   UNL     1      -7.007   5.396  63.246  1.00  0.00    -0.039 OA 
HETATM    7  C   UNL     1      -8.893   7.275  65.554  1.00  0.00     0.043 A  
HETATM    8  C   UNL     1      -9.477   6.295  66.296  1.00  0.00    -0.100 A  
HETATM    9  C   UNL     1      -7.796   5.681  64.151  1.00  0.00    -0.112 C  
HETATM   10  N   UNL     1     -10.199   6.962  67.257  1.00  0.00    -0.194 NA 
HETATM   11  C   UNL     1     -11.021   6.367  68.283  1.00  0.00    -0.312 C  
HETATM   12  N   UNL     1      -8.474   4.682  64.879  1.00  0.00    -0.129 N  
HETATM   13  C   UNL     1      -9.295   4.907  65.995  1.00  0.00    -0.156 C  
HETATM   14  O   UNL     1      -9.809   4.004  66.647  1.00  0.00    -0.215 OA 
BRANCH  12  15
HETATM   15  C   UNL     1      -8.308   3.302  64.427  1.00  0.00    -0.093 C  
HETATM   16  C   UNL     1      -9.329   2.880  63.380  1.00  0.00    -0.095 C  
ENDBRANCH  12  15
BRANCH   5  17
HETATM   17  C   UNL     1      -7.467   8.097  63.728  1.00  0.00    -0.120 C  
HETATM   18  C   UNL     1      -8.347   8.562  62.578  1.00  0.00    -0.182 C  
ENDBRANCH   5  17
ENDBRANCH   1   3
BRANCH   2  19
HETATM   19  C   UNL     1     -11.321  11.699  68.183  1.00  0.00    -0.358 A  
HETATM   20  C   UNL     1     -11.706  14.088  68.444  1.00  0.00    -0.389 A  
HETATM   21  C   UNL     1     -12.230  13.888  69.724  1.00  0.00    -0.332 A  
HETATM   22  C   UNL     1     -12.269  12.587  70.258  1.00  0.00    -0.267 A  
HETATM   23  C   UNL     1     -11.804  11.510  69.491  1.00  0.00    -0.419 A  
HETATM   24  C   UNL     1     -11.256  13.001  67.680  1.00  0.00    -0.315 A  
BRANCH  22  25
HETATM   25  O   UNL     1     -12.791  12.478  71.524  1.00  0.00    -0.358 OA 
HETATM   26  C   UNL     1     -13.255  11.206  71.951  1.00  0.00    -0.382 C  
ENDBRANCH  22  25
BRANCH  21  27
HETATM   27  O   UNL     1     -12.726  14.882  70.533  1.00  0.00    -0.346 OA 
HETATM   28  C   UNL     1     -11.850  15.927  70.923  1.00  0.00    -0.417 C  
ENDBRANCH  21  27
ENDBRANCH   2  19
TORSDOF 6
ENDMDL
MODEL       74
REMARK 921   NORMALIZED FREE ENERGY PREDICTED BY IDOCK:   -5.03 KCAL/MOL
REMARK 922        TOTAL FREE ENERGY PREDICTED BY IDOCK:   -7.09 KCAL/MOL
REMARK 923 INTER-LIGAND FREE ENERGY PREDICTED BY IDOCK:   -6.60 KCAL/MOL
REMARK 924 INTRA-LIGAND FREE ENERGY PREDICTED BY IDOCK:   -0.48 KCAL/MOL
REMARK 927      BINDING AFFINITY PREDICTED BY RF-SCORE:    0.00 PKD
ROOT
HETATM    1  C   UNL     1     -10.677  11.474  66.897  1.00  0.00    -0.304 C  
HETATM    2  C   UNL     1      -9.825  12.419  67.342  1.00  0.00    -0.199 C  
ENDROOT
BRANCH   1   3
HETATM    3  C   UNL     1     -10.381  10.103  67.156  1.00  0.00    -0.238 A  
HETATM    4  N   UNL     1     -10.709   9.387  68.220  1.00  0.00    -0.204 NA 
HETATM    5  N   UNL     1     -10.461   7.047  68.797  1.00  0.00    -0.200 N  
HETATM    6  O   UNL     1     -10.201   4.784  69.083  1.00  0.00    -0.171 OA 
HETATM    7  C   UNL     1     -10.289   8.124  67.963  1.00  0.00    -0.211 A  
HETATM    8  C   UNL     1      -9.677   8.025  66.751  1.00  0.00    -0.237 A  
HETATM    9  C   UNL     1     -10.008   5.791  68.395  1.00  0.00    -0.153 C  
HETATM   10  N   UNL     1      -9.719   9.296  66.230  1.00  0.00    -0.250 NA 
HETATM   11  C   UNL     1      -9.176   9.725  64.963  1.00  0.00    -0.249 C  
HETATM   12  N   UNL     1      -9.304   5.724  67.175  1.00  0.00    -0.114 N  
HETATM   13  C   UNL     1      -9.138   6.788  66.275  1.00  0.00    -0.139 C  
HETATM   14  O   UNL     1      -8.582   6.670  65.188  1.00  0.00    -0.089 OA 
BRANCH  12  15
HETATM   15  C   UNL     1      -8.697   4.440  66.827  1.00  0.00    -0.112 C  
HETATM   16  C   UNL     1      -9.576   3.579  65.931  1.00  0.00    -0.106 C  
ENDBRANCH  12  15
BRANCH   5  17
HETATM   17  C   UNL     1     -11.126   7.210  70.087  1.00  0.00    -0.272 C  
HETATM   18  C   UNL     1     -10.154   7.543  71.208  1.00  0.00    -0.197 C  
ENDBRANCH   5  17
ENDBRANCH   1   3
BRANCH   2  19
HETATM   19  C   UNL     1     -10.028  13.879  67.306  1.00  0.00    -0.242 A  
HETATM   20  C   UNL     1     -10.064  16.040  66.188  1.00  0.00    -0.346 A  
HETATM   21  C   UNL     1     -10.506  16.664  67.357  1.00  0.00    -0.314 A  
HETATM   22  C   UNL     1     -10.678  15.899  68.525  1.00  0.00    -0.274 A  
HETATM   23  C   UNL     1     -10.426  14.521  68.492  1.00  0.00    -0.250 A  
HETATM   24  C   UNL     1      -9.828  14.658  66.162  1.00  0.00    -0.334 A  
BRANCH  22  25
HETATM   25  O   UNL     1     -11.107  16.590  69.632  1.00  0.00    -0.316 OA 
HETATM   26  C   UNL     1     -11.291  15.870  70.842  1.00  0.00    -0.391 C  
ENDBRANCH  22  25
BRANCH  21  27
HETATM   27  O   UNL     1     -10.796  18.002  67.471  1.00  0.00    -0.379 OA 
HETATM   28  C   UNL     1      -9.718  18.923  67.470  1.00  0.00    -0.313 C  
ENDBRANCH  21  27
ENDBRANCH   2  19
TORSDOF 6
ENDMDL
MODEL       75
REMARK 921   NORMALIZED FREE ENERGY PREDICTED BY IDOCK:   -5.00 KCAL/MOL
REMARK 922        TOTAL FREE ENERGY PREDICTED BY IDOCK:   -7.06 KCAL/MOL
REMARK 923 INTER-LIGAND FREE ENERGY PREDICTED BY IDOCK:   -6.58 KCAL/MOL
REMARK 924 INTRA-LIGAND FREE ENERGY PREDICTED BY IDOCK:   -0.48 KCAL/MOL
REMARK 927      BINDING AFFINITY PREDICTED BY RF-SCORE:    0.00 PKD
ROOT
HETATM    1  C   UNL     1      -9.389  11.086  68.291  1.00  0.00    -0.172 C  
HETATM    2  C   UNL     1     -10.110  10.566  69.304  1.00  0.00    -0.244 C  
ENDROOT
BRANCH   1   3
HETATM    3  C   UNL     1      -9.364  12.503  68.120  1.00  0.00    -0.210 A  
HETATM    4  N   UNL     1     -10.333  13.368  68.372  1.00  0.00    -0.248 NA 
HETATM    5  N   UNL     1     -10.464  15.788  68.313  1.00  0.00    -0.252 N  
HETATM    6  O   UNL     1     -10.322  18.078  68.277  1.00  0.00    -0.368 OA 
HETATM    7  C   UNL     1      -9.804  14.595  68.142  1.00  0.00    -0.224 A  
HETATM    8  C   UNL     1      -8.510  14.525  67.726  1.00  0.00    -0.174 A  
HETATM    9  C   UNL     1      -9.790  16.984  68.070  1.00  0.00    -0.275 C  
HETATM   10  N   UNL     1      -8.222  13.181  67.695  1.00  0.00    -0.161 NA 
HETATM   11  C   UNL     1      -6.974  12.578  67.295  1.00  0.00    -0.112 C  
HETATM   12  N   UNL     1      -8.478  16.888  67.562  1.00  0.00    -0.193 N  
HETATM   13  C   UNL     1      -7.753  15.697  67.406  1.00  0.00    -0.187 C  
HETATM   14  O   UNL     1      -6.586  15.662  67.029  1.00  0.00    -0.283 OA 
BRANCH  12  15
HETATM   15  C   UNL     1      -7.827  18.135  67.163  1.00  0.00    -0.218 C  
HETATM   16  C   UNL     1      -7.010  18.775  68.277  1.00  0.00    -0.266 C  
ENDBRANCH  12  15
BRANCH   5  17
HETATM   17  C   UNL     1     -11.853  15.805  68.763  1.00  0.00    -0.309 C  
HETATM   18  C   UNL     1     -11.981  15.652  70.270  1.00  0.00    -0.398 C  
ENDBRANCH   5  17
ENDBRANCH   1   3
BRANCH   2  19
HETATM   19  C   UNL     1     -10.141   9.155  69.731  1.00  0.00    -0.211 A  
HETATM   20  C   UNL     1      -9.835   7.370  71.357  1.00  0.00    -0.194 A  
HETATM   21  C   UNL     1     -10.301   6.423  70.441  1.00  0.00    -0.205 A  
HETATM   22  C   UNL     1     -10.657   6.835  69.143  1.00  0.00    -0.232 A  
HETATM   23  C   UNL     1     -10.562   8.190  68.798  1.00  0.00    -0.149 A  
HETATM   24  C   UNL     1      -9.757   8.725  71.005  1.00  0.00    -0.292 A  
BRANCH  22  25
HETATM   25  O   UNL     1     -11.097   5.843  68.302  1.00  0.00    -0.258 OA 
HETATM   26  C   UNL     1     -10.707   5.899  66.938  1.00  0.00    -0.321 C  
ENDBRANCH  22  25
BRANCH  21  27
HETATM   27  O   UNL     1     -10.445   5.082  70.702  1.00  0.00    -0.234 OA 
HETATM   28  C   UNL     1     -10.179   4.625  72.018  1.00  0.00    -0.190 C  
ENDBRANCH  21  27
ENDBRANCH   2  19
TORSDOF 6
ENDMDL
MODEL       76
REMARK 921   NORMALIZED FREE ENERGY PREDICTED BY IDOCK:   -4.92 KCAL/MOL
REMARK 922        TOTAL FREE ENERGY PREDICTED BY IDOCK:   -6.94 KCAL/MOL
REMARK 923 INTER-LIGAND FREE ENERGY PREDICTED BY IDOCK:   -6.62 KCAL/MOL
REMARK 924 INTRA-LIGAND FREE ENERGY PREDICTED BY IDOCK:   -0.33 KCAL/MOL
REMARK 927      BINDING AFFINITY PREDICTED BY RF-SCORE:    0.00 PKD
ROOT
HETATM    1  C   UNL     1     -10.047  12.564  68.521  1.00  0.00    -0.186 C  
HETATM    2  C   UNL     1     -10.176  13.320  67.413  1.00  0.00    -0.229 C  
ENDROOT
BRANCH   1   3
HETATM    3  C   UNL     1      -9.985  11.145  68.383  1.00  0.00    -0.187 A  
HETATM    4  N   UNL     1      -9.254  10.443  67.532  1.00  0.00    -0.144 NA 
HETATM    5  N   UNL     1      -8.869   8.070  67.227  1.00  0.00    -0.129 N  
HETATM    6  O   UNL     1      -8.586   5.793  67.190  1.00  0.00    -0.111 OA 
HETATM    7  C   UNL     1      -9.464   9.141  67.847  1.00  0.00    -0.141 A  
HETATM    8  C   UNL     1     -10.338   9.000  68.880  1.00  0.00    -0.215 A  
HETATM    9  C   UNL     1      -9.150   6.779  67.672  1.00  0.00    -0.117 C  
HETATM   10  N   UNL     1     -10.690  10.284  69.223  1.00  0.00    -0.219 NA 
HETATM   11  C   UNL     1     -11.619  10.675  70.256  1.00  0.00    -0.336 C  
HETATM   12  N   UNL     1     -10.119   6.649  68.688  1.00  0.00    -0.154 N  
HETATM   13  C   UNL     1     -10.724   7.713  69.373  1.00  0.00    -0.184 C  
HETATM   14  O   UNL     1     -11.510   7.557  70.303  1.00  0.00    -0.248 OA 
BRANCH  12  15
HETATM   15  C   UNL     1     -10.526   5.291  69.049  1.00  0.00    -0.136 C  
HETATM   16  C   UNL     1      -9.728   4.708  70.206  1.00  0.00    -0.295 C  
ENDBRANCH  12  15
BRANCH   5  17
HETATM   17  C   UNL     1      -7.937   8.280  66.123  1.00  0.00    -0.100 C  
HETATM   18  C   UNL     1      -8.634   8.728  64.847  1.00  0.00    -0.177 C  
ENDBRANCH   5  17
ENDBRANCH   1   3
BRANCH   2  19
HETATM   19  C   UNL     1     -10.109  14.791  67.335  1.00  0.00    -0.231 A  
HETATM   20  C   UNL     1     -10.864  17.033  67.905  1.00  0.00    -0.302 A  
HETATM   21  C   UNL     1      -9.838  17.598  67.144  1.00  0.00    -0.306 A  
HETATM   22  C   UNL     1      -8.958  16.757  66.439  1.00  0.00    -0.289 A  
HETATM   23  C   UNL     1      -9.109  15.366  66.530  1.00  0.00    -0.334 A  
HETATM   24  C   UNL     1     -10.998  15.640  68.001  1.00  0.00    -0.318 A  
BRANCH  22  25
HETATM   25  O   UNL     1      -7.983  17.391  65.709  1.00  0.00    -0.538 OA 
HETATM   26  C   UNL     1      -6.674  17.460  66.254  1.00  0.00    -0.260 C  
ENDBRANCH  22  25
BRANCH  21  27
HETATM   27  O   UNL     1      -9.605  18.946  67.017  1.00  0.00    -0.297 OA 
HETATM   28  C   UNL     1     -10.033  19.801  68.066  1.00  0.00    -0.433 C  
ENDBRANCH  21  27
ENDBRANCH   2  19
TORSDOF 6
ENDMDL
MODEL       77
REMARK 921   NORMALIZED FREE ENERGY PREDICTED BY IDOCK:   -4.91 KCAL/MOL
REMARK 922        TOTAL FREE ENERGY PREDICTED BY IDOCK:   -6.93 KCAL/MOL
REMARK 923 INTER-LIGAND FREE ENERGY PREDICTED BY IDOCK:   -6.70 KCAL/MOL
REMARK 924 INTRA-LIGAND FREE ENERGY PREDICTED BY IDOCK:   -0.22 KCAL/MOL
REMARK 927      BINDING AFFINITY PREDICTED BY RF-SCORE:    0.00 PKD
ROOT
HETATM    1  C   UNL     1     -10.214   9.902  68.916  1.00  0.00    -0.209 C  
HETATM    2  C   UNL     1     -11.288  10.691  68.718  1.00  0.00    -0.339 C  
ENDROOT
BRANCH   1   3
HETATM    3  C   UNL     1      -9.653   9.209  67.802  1.00  0.00    -0.146 A  
HETATM    4  N   UNL     1      -9.596   7.902  67.603  1.00  0.00    -0.147 NA 
HETATM    5  N   UNL     1      -8.852   6.527  65.752  1.00  0.00    -0.125 N  
HETATM    6  O   UNL     1      -8.180   5.441  63.845  1.00  0.00    -0.124 OA 
HETATM    7  C   UNL     1      -9.060   7.736  66.369  1.00  0.00    -0.175 A  
HETATM    8  C   UNL     1      -8.753   8.924  65.781  1.00  0.00    -0.176 A  
HETATM    9  C   UNL     1      -8.320   6.500  64.462  1.00  0.00     0.039 C  
HETATM   10  N   UNL     1      -9.119   9.878  66.701  1.00  0.00    -0.145 NA 
HETATM   11  C   UNL     1      -8.976  11.307  66.561  1.00  0.00    -0.184 C  
HETATM   12  N   UNL     1      -7.933   7.735  63.903  1.00  0.00    -0.128 N  
HETATM   13  C   UNL     1      -8.160   8.994  64.480  1.00  0.00    -0.143 C  
HETATM   14  O   UNL     1      -7.874  10.051  63.926  1.00  0.00    -0.143 OA 
BRANCH  12  15
HETATM   15  C   UNL     1      -7.237   7.694  62.618  1.00  0.00    -0.085 C  
HETATM   16  C   UNL     1      -5.723   7.608  62.752  1.00  0.00    -0.051 C  
ENDBRANCH  12  15
BRANCH   5  17
HETATM   17  C   UNL     1      -9.199   5.282  66.429  1.00  0.00    -0.144 C  
HETATM   18  C   UNL     1     -10.637   4.858  66.172  1.00  0.00    -0.322 C  
ENDBRANCH   5  17
ENDBRANCH   1   3
BRANCH   2  19
HETATM   19  C   UNL     1     -11.913  11.595  69.700  1.00  0.00    -0.390 A  
HETATM   20  C   UNL     1     -13.120  12.063  71.761  1.00  0.00    -0.460 A  
HETATM   21  C   UNL     1     -13.024  13.438  71.533  1.00  0.00    -0.341 A  
HETATM   22  C   UNL     1     -12.400  13.901  70.360  1.00  0.00    -0.363 A  
HETATM   23  C   UNL     1     -11.864  12.979  69.452  1.00  0.00    -0.380 A  
HETATM   24  C   UNL     1     -12.568  11.149  70.852  1.00  0.00    -0.483 A  
BRANCH  22  25
HETATM   25  O   UNL     1     -12.354  15.266  70.208  1.00  0.00    -0.334 OA 
HETATM   26  C   UNL     1     -11.533  15.799  69.180  1.00  0.00    -0.380 C  
ENDBRANCH  22  25
BRANCH  21  27
HETATM   27  O   UNL     1     -13.502  14.410  72.379  1.00  0.00    -0.386 OA 
HETATM   28  C   UNL     1     -12.697  14.790  73.483  1.00  0.00    -0.437 C  
ENDBRANCH  21  27
ENDBRANCH   2  19
TORSDOF 6
ENDMDL
MODEL       78
REMARK 921   NORMALIZED FREE ENERGY PREDICTED BY IDOCK:   -4.87 KCAL/MOL
REMARK 922        TOTAL FREE ENERGY PREDICTED BY IDOCK:   -6.87 KCAL/MOL
REMARK 923 INTER-LIGAND FREE ENERGY PREDICTED BY IDOCK:   -6.31 KCAL/MOL
REMARK 924 INTRA-LIGAND FREE ENERGY PREDICTED BY IDOCK:   -0.57 KCAL/MOL
REMARK 927      BINDING AFFINITY PREDICTED BY RF-SCORE:    0.00 PKD
ROOT
HETATM    1  C   UNL     1     -10.128  11.996  67.189  1.00  0.00    -0.217 C  
HETATM    2  C   UNL     1      -9.994  13.026  66.331  1.00  0.00    -0.277 C  
ENDROOT
BRANCH   1   3
HETATM    3  C   UNL     1      -9.819  10.678  66.738  1.00  0.00    -0.198 A  
HETATM    4  N   UNL     1      -9.159  10.328  65.646  1.00  0.00    -0.165 NA 
HETATM    5  N   UNL     1      -8.388   8.203  64.773  1.00  0.00    -0.139 N  
HETATM    6  O   UNL     1      -7.678   6.098  64.195  1.00  0.00    -0.093 OA 
HETATM    7  C   UNL     1      -9.039   8.978  65.700  1.00  0.00    -0.223 A  
HETATM    8  C   UNL     1      -9.634   8.457  66.808  1.00  0.00    -0.219 A  
HETATM    9  C   UNL     1      -8.311   6.824  64.967  1.00  0.00    -0.048 C  
HETATM   10  N   UNL     1     -10.150   9.542  67.475  1.00  0.00    -0.190 NA 
HETATM   11  C   UNL     1     -10.901   9.516  68.707  1.00  0.00    -0.142 C  
HETATM   12  N   UNL     1      -9.003   6.294  66.076  1.00  0.00    -0.155 N  
HETATM   13  C   UNL     1      -9.648   7.049  67.067  1.00  0.00    -0.157 C  
HETATM   14  O   UNL     1     -10.176   6.552  68.057  1.00  0.00    -0.141 OA 
BRANCH  12  15
HETATM   15  C   UNL     1      -9.051   4.837  66.195  1.00  0.00    -0.129 C  
HETATM   16  C   UNL     1     -10.281   4.217  65.548  1.00  0.00    -0.173 C  
ENDBRANCH  12  15
BRANCH   5  17
HETATM   17  C   UNL     1      -7.767   8.815  63.602  1.00  0.00    -0.133 C  
HETATM   18  C   UNL     1      -6.333   9.250  63.862  1.00  0.00    -0.090 C  
ENDBRANCH   5  17
ENDBRANCH   1   3
BRANCH   2  19
HETATM   19  C   UNL     1     -10.120  14.461  66.646  1.00  0.00    -0.276 A  
HETATM   20  C   UNL     1      -9.962  16.827  66.101  1.00  0.00    -0.345 A  
HETATM   21  C   UNL     1     -10.458  17.175  67.360  1.00  0.00    -0.334 A  
HETATM   22  C   UNL     1     -10.755  16.161  68.289  1.00  0.00    -0.307 A  
HETATM   23  C   UNL     1     -10.572  14.819  67.929  1.00  0.00    -0.248 A  
HETATM   24  C   UNL     1      -9.795  15.480  65.747  1.00  0.00    -0.392 A  
BRANCH  22  25
HETATM   25  O   UNL     1     -11.230  16.587  69.505  1.00  0.00    -0.283 OA 
HETATM   26  C   UNL     1     -11.135  15.701  70.610  1.00  0.00    -0.359 C  
ENDBRANCH  22  25
BRANCH  21  27
HETATM   27  O   UNL     1     -10.688  18.461  67.785  1.00  0.00    -0.414 OA 
HETATM   28  C   UNL     1     -10.739  19.489  66.810  1.00  0.00    -0.460 C  
ENDBRANCH  21  27
ENDBRANCH   2  19
TORSDOF 6
ENDMDL
MODEL       79
REMARK 921   NORMALIZED FREE ENERGY PREDICTED BY IDOCK:   -4.80 KCAL/MOL
REMARK 922        TOTAL FREE ENERGY PREDICTED BY IDOCK:   -6.79 KCAL/MOL
REMARK 923 INTER-LIGAND FREE ENERGY PREDICTED BY IDOCK:   -6.43 KCAL/MOL
REMARK 924 INTRA-LIGAND FREE ENERGY PREDICTED BY IDOCK:   -0.36 KCAL/MOL
REMARK 927      BINDING AFFINITY PREDICTED BY RF-SCORE:    0.00 PKD
ROOT
HETATM    1  C   UNL     1     -10.122  10.009  69.122  1.00  0.00    -0.219 C  
HETATM    2  C   UNL     1     -10.527   9.898  70.402  1.00  0.00    -0.347 C  
ENDROOT
BRANCH   1   3
HETATM    3  C   UNL     1      -9.736  11.292  68.630  1.00  0.00    -0.195 A  
HETATM    4  N   UNL     1      -8.517  11.802  68.561  1.00  0.00    -0.150 NA 
HETATM    5  N   UNL     1      -7.618  13.853  67.634  1.00  0.00    -0.164 N  
HETATM    6  O   UNL     1      -6.988  15.807  66.609  1.00  0.00    -0.177 OA 
HETATM    7  C   UNL     1      -8.650  13.000  67.940  1.00  0.00    -0.189 A  
HETATM    8  C   UNL     1      -9.946  13.273  67.628  1.00  0.00    -0.229 A  
HETATM    9  C   UNL     1      -7.891  15.045  66.963  1.00  0.00    -0.129 C  
HETATM   10  N   UNL     1     -10.655  12.186  68.081  1.00  0.00    -0.208 NA 
HETATM   11  C   UNL     1     -12.084  11.999  68.008  1.00  0.00     0.043 C  
HETATM   12  N   UNL     1      -9.247  15.348  66.722  1.00  0.00    -0.231 N  
HETATM   13  C   UNL     1     -10.328  14.493  66.983  1.00  0.00    -0.263 C  
HETATM   14  O   UNL     1     -11.489  14.764  66.690  1.00  0.00    -0.355 OA 
BRANCH  12  15
HETATM   15  C   UNL     1      -9.544  16.663  66.157  1.00  0.00    -0.294 C  
HETATM   16  C   UNL     1      -9.901  17.706  67.207  1.00  0.00    -0.303 C  
ENDBRANCH  12  15
BRANCH   5  17
HETATM   17  C   UNL     1      -6.245  13.510  67.992  1.00  0.00    -0.136 C  
HETATM   18  C   UNL     1      -5.997  13.577  69.491  1.00  0.00    -0.110 C  
ENDBRANCH   5  17
ENDBRANCH   1   3
BRANCH   2  19
HETATM   19  C   UNL     1     -10.820   8.650  71.130  1.00  0.00    -0.320 A  
HETATM   20  C   UNL     1     -11.909   6.489  71.387  1.00  0.00    -0.384 A  
HETATM   21  C   UNL     1     -11.253   6.276  72.602  1.00  0.00    -0.267 A  
HETATM   22  C   UNL     1     -10.399   7.272  73.109  1.00  0.00    -0.313 A  
HETATM   23  C   UNL     1     -10.201   8.451  72.378  1.00  0.00    -0.399 A  
HETATM   24  C   UNL     1     -11.694   7.667  70.657  1.00  0.00    -0.214 A  
BRANCH  22  25
HETATM   25  O   UNL     1      -9.800   6.988  74.312  1.00  0.00    -0.289 OA 
HETATM   26  C   UNL     1      -8.386   6.867  74.345  1.00  0.00    -0.151 C  
ENDBRANCH  22  25
BRANCH  21  27
HETATM   27  O   UNL     1     -11.373   5.143  73.371  1.00  0.00    -0.313 OA 
HETATM   28  C   UNL     1     -10.737   3.958  72.920  1.00  0.00    -0.120 C  
ENDBRANCH  21  27
ENDBRANCH   2  19
TORSDOF 6
ENDMDL
MODEL       80
REMARK 921   NORMALIZED FREE ENERGY PREDICTED BY IDOCK:   -4.78 KCAL/MOL
REMARK 922        TOTAL FREE ENERGY PREDICTED BY IDOCK:   -6.76 KCAL/MOL
REMARK 923 INTER-LIGAND FREE ENERGY PREDICTED BY IDOCK:   -6.55 KCAL/MOL
REMARK 924 INTRA-LIGAND FREE ENERGY PREDICTED BY IDOCK:   -0.21 KCAL/MOL
REMARK 927      BINDING AFFINITY PREDICTED BY RF-SCORE:    0.00 PKD
ROOT
HETATM    1  C   UNL     1      -9.874  15.571  67.584  1.00  0.00    -0.213 C  
HETATM    2  C   UNL     1      -8.711  15.745  66.926  1.00  0.00    -0.274 C  
ENDROOT
BRANCH   1   3
HETATM    3  C   UNL     1     -10.268  14.248  67.947  1.00  0.00    -0.237 A  
HETATM    4  N   UNL     1      -9.827  13.104  67.451  1.00  0.00    -0.222 NA 
HETATM    5  N   UNL     1     -10.223  10.780  68.011  1.00  0.00    -0.172 N  
HETATM    6  O   UNL     1     -10.677   8.666  68.781  1.00  0.00    -0.174 OA 
HETATM    7  C   UNL     1     -10.427  12.128  68.175  1.00  0.00    -0.211 A  
HETATM    8  C   UNL     1     -11.265  12.634  69.120  1.00  0.00    -0.243 A  
HETATM    9  C   UNL     1     -10.883   9.881  68.849  1.00  0.00    -0.210 C  
HETATM   10  N   UNL     1     -11.180  13.998  68.972  1.00  0.00    -0.265 NA 
HETATM   11  C   UNL     1     -11.901  14.993  69.730  1.00  0.00    -0.321 C  
HETATM   12  N   UNL     1     -11.808  10.420  69.766  1.00  0.00    -0.234 N  
HETATM   13  C   UNL     1     -12.021  11.789  69.993  1.00  0.00    -0.344 C  
HETATM   14  O   UNL     1     -12.783  12.218  70.854  1.00  0.00    -0.289 OA 
BRANCH  12  15
HETATM   15  C   UNL     1     -12.611   9.472  70.537  1.00  0.00     0.110 C  
HETATM   16  C   UNL     1     -11.839   8.803  71.665  1.00  0.00    -0.399 C  
ENDBRANCH  12  15
BRANCH   5  17
HETATM   17  C   UNL     1      -9.312  10.290  66.981  1.00  0.00    -0.154 C  
HETATM   18  C   UNL     1     -10.033   9.544  65.869  1.00  0.00    -0.342 C  
ENDBRANCH   5  17
ENDBRANCH   1   3
BRANCH   2  19
HETATM   19  C   UNL     1      -8.065  17.030  66.599  1.00  0.00    -0.297 A  
HETATM   20  C   UNL     1      -6.178  18.396  65.895  1.00  0.00    -0.264 A  
HETATM   21  C   UNL     1      -6.964  19.550  65.947  1.00  0.00    -0.277 A  
HETATM   22  C   UNL     1      -8.305  19.454  66.363  1.00  0.00    -0.331 A  
HETATM   23  C   UNL     1      -8.837  18.202  66.697  1.00  0.00    -0.287 A  
HETATM   24  C   UNL     1      -6.725  17.145  66.218  1.00  0.00    -0.213 A  
BRANCH  22  25
HETATM   25  O   UNL     1      -9.005  20.635  66.395  1.00  0.00    -0.029 OA 
HETATM   26  C   UNL     1      -9.946  20.829  67.439  1.00  0.00    -0.214 C  
ENDBRANCH  22  25
BRANCH  21  27
HETATM   27  O   UNL     1      -6.529  20.811  65.618  1.00  0.00    -0.235 OA 
HETATM   28  C   UNL     1      -5.400  20.929  64.768  1.00  0.00    -0.206 C  
ENDBRANCH  21  27
ENDBRANCH   2  19
TORSDOF 6
ENDMDL
MODEL       81
REMARK 921   NORMALIZED FREE ENERGY PREDICTED BY IDOCK:   -4.78 KCAL/MOL
REMARK 922        TOTAL FREE ENERGY PREDICTED BY IDOCK:   -6.76 KCAL/MOL
REMARK 923 INTER-LIGAND FREE ENERGY PREDICTED BY IDOCK:   -6.63 KCAL/MOL
REMARK 924 INTRA-LIGAND FREE ENERGY PREDICTED BY IDOCK:   -0.13 KCAL/MOL
REMARK 927      BINDING AFFINITY PREDICTED BY RF-SCORE:    0.00 PKD
ROOT
HETATM    1  C   UNL     1      -9.288  10.590  67.299  1.00  0.00    -0.164 C  
HETATM    2  C   UNL     1     -10.310   9.975  67.927  1.00  0.00    -0.249 C  
ENDROOT
BRANCH   1   3
HETATM    3  C   UNL     1      -9.443  11.951  66.902  1.00  0.00    -0.199 A  
HETATM    4  N   UNL     1     -10.117  12.423  65.865  1.00  0.00    -0.249 NA 
HETATM    5  N   UNL     1     -10.645  14.660  65.098  1.00  0.00    -0.391 N  
HETATM    6  O   UNL     1     -11.096  16.859  64.621  1.00  0.00    -0.934 OA 
HETATM    7  C   UNL     1     -10.048  13.774  65.960  1.00  0.00    -0.311 A  
HETATM    8  C   UNL     1      -9.319  14.174  67.038  1.00  0.00    -0.246 A  
HETATM    9  C   UNL     1     -10.521  16.030  65.330  1.00  0.00    -0.392 C  
HETATM   10  N   UNL     1      -8.914  13.008  67.642  1.00  0.00    -0.181 NA 
HETATM   11  C   UNL     1      -8.090  12.892  68.822  1.00  0.00     0.087 C  
HETATM   12  N   UNL     1      -9.695  16.426  66.402  1.00  0.00    -0.269 N  
HETATM   13  C   UNL     1      -9.097  15.558  67.329  1.00  0.00    -0.203 C  
HETATM   14  O   UNL     1      -8.445  15.946  68.294  1.00  0.00    -0.164 OA 
BRANCH  12  15
HETATM   15  C   UNL     1      -9.441  17.857  66.554  1.00  0.00    -0.299 C  
HETATM   16  C   UNL     1      -7.980  18.237  66.361  1.00  0.00    -0.290 C  
ENDBRANCH  12  15
BRANCH   5  17
HETATM   17  C   UNL     1     -11.416  14.176  63.957  1.00  0.00    -0.040 C  
HETATM   18  C   UNL     1     -12.706  13.487  64.374  1.00  0.00    -0.126 C  
ENDBRANCH   5  17
ENDBRANCH   1   3
BRANCH   2  19
HETATM   19  C   UNL     1     -10.290   8.634  68.541  1.00  0.00    -0.228 A  
HETATM   20  C   UNL     1     -10.689   7.075  70.366  1.00  0.00    -0.259 A  
HETATM   21  C   UNL     1     -10.252   6.006  69.580  1.00  0.00    -0.208 A  
HETATM   22  C   UNL     1      -9.793   6.253  68.273  1.00  0.00    -0.126 A  
HETATM   23  C   UNL     1      -9.804   7.561  67.772  1.00  0.00    -0.191 A  
HETATM   24  C   UNL     1     -10.709   8.379  69.850  1.00  0.00    -0.227 A  
BRANCH  22  25
HETATM   25  O   UNL     1      -9.373   5.150  67.571  1.00  0.00    -0.114 OA 
HETATM   26  C   UNL     1     -10.161   4.712  66.475  1.00  0.00    -0.238 C  
ENDBRANCH  22  25
BRANCH  21  27
HETATM   27  O   UNL     1     -10.228   4.693  69.984  1.00  0.00    -0.234 OA 
HETATM   28  C   UNL     1      -9.699   4.397  71.266  1.00  0.00    -0.182 C  
ENDBRANCH  21  27
ENDBRANCH   2  19
TORSDOF 6
ENDMDL
MODEL       82
REMARK 921   NORMALIZED FREE ENERGY PREDICTED BY IDOCK:   -4.78 KCAL/MOL
REMARK 922        TOTAL FREE ENERGY PREDICTED BY IDOCK:   -6.75 KCAL/MOL
REMARK 923 INTER-LIGAND FREE ENERGY PREDICTED BY IDOCK:   -6.35 KCAL/MOL
REMARK 924 INTRA-LIGAND FREE ENERGY PREDICTED BY IDOCK:   -0.40 KCAL/MOL
REMARK 927      BINDING AFFINITY PREDICTED BY RF-SCORE:    0.00 PKD
ROOT
HETATM    1  C   UNL     1      -8.047  13.871  67.205  1.00  0.00    -0.162 C  
HETATM    2  C   UNL     1      -9.139  13.332  67.781  1.00  0.00    -0.202 C  
ENDROOT
BRANCH   1   3
HETATM    3  C   UNL     1      -7.663  15.198  67.562  1.00  0.00    -0.181 A  
HETATM    4  N   UNL     1      -8.080  16.335  67.028  1.00  0.00    -0.187 NA 
HETATM    5  N   UNL     1      -7.700  18.668  67.564  1.00  0.00    -0.229 N  
HETATM    6  O   UNL     1      -7.271  20.793  68.315  1.00  0.00    -0.107 OA 
HETATM    7  C   UNL     1      -7.507  17.322  67.759  1.00  0.00    -0.176 A  
HETATM    8  C   UNL     1      -6.710  16.830  68.746  1.00  0.00    -0.185 A  
HETATM    9  C   UNL     1      -7.072  19.579  68.412  1.00  0.00    -0.314 C  
HETATM   10  N   UNL     1      -6.793  15.464  68.619  1.00  0.00    -0.104 NA 
HETATM   11  C   UNL     1      -6.106  14.481  69.422  1.00  0.00    -0.106 C  
HETATM   12  N   UNL     1      -6.187  19.053  69.375  1.00  0.00    -0.259 N  
HETATM   13  C   UNL     1      -5.987  17.689  69.635  1.00  0.00    -0.254 C  
HETATM   14  O   UNL     1      -5.262  17.272  70.533  1.00  0.00    -0.230 OA 
BRANCH  12  15
HETATM   15  C   UNL     1      -5.413  20.013  70.162  1.00  0.00    -0.254 C  
HETATM   16  C   UNL     1      -5.908  20.160  71.594  1.00  0.00    -0.360 C  
ENDBRANCH  12  15
BRANCH   5  17
HETATM   17  C   UNL     1      -8.567  19.141  66.489  1.00  0.00    -0.322 C  
HETATM   18  C   UNL     1     -10.000  19.360  66.948  1.00  0.00    -0.470 C  
ENDBRANCH   5  17
ENDBRANCH   1   3
BRANCH   2  19
HETATM   19  C   UNL     1      -9.607  11.939  67.658  1.00  0.00    -0.185 A  
HETATM   20  C   UNL     1     -10.782   9.964  68.457  1.00  0.00    -0.260 A  
HETATM   21  C   UNL     1     -10.488   9.281  67.274  1.00  0.00    -0.264 A  
HETATM   22  C   UNL     1      -9.714   9.916  66.285  1.00  0.00    -0.222 A  
HETATM   23  C   UNL     1      -9.272  11.230  66.491  1.00  0.00    -0.200 A  
HETATM   24  C   UNL     1     -10.346  11.283  68.647  1.00  0.00    -0.217 A  
BRANCH  22  25
HETATM   25  O   UNL     1      -9.463   9.174  65.157  1.00  0.00    -0.191 OA 
HETATM   26  C   UNL     1      -9.316   9.859  63.922  1.00  0.00    -0.207 C  
ENDBRANCH  22  25
BRANCH  21  27
HETATM   27  O   UNL     1     -10.899   8.003  66.982  1.00  0.00    -0.283 OA 
HETATM   28  C   UNL     1     -10.649   6.985  67.937  1.00  0.00    -0.218 C  
ENDBRANCH  21  27
ENDBRANCH   2  19
TORSDOF 6
ENDMDL
MODEL       83
REMARK 921   NORMALIZED FREE ENERGY PREDICTED BY IDOCK:   -4.77 KCAL/MOL
REMARK 922        TOTAL FREE ENERGY PREDICTED BY IDOCK:   -6.74 KCAL/MOL
REMARK 923 INTER-LIGAND FREE ENERGY PREDICTED BY IDOCK:   -6.27 KCAL/MOL
REMARK 924 INTRA-LIGAND FREE ENERGY PREDICTED BY IDOCK:   -0.48 KCAL/MOL
REMARK 927      BINDING AFFINITY PREDICTED BY RF-SCORE:    0.00 PKD
ROOT
HETATM    1  C   UNL     1      -9.105  11.757  68.500  1.00  0.00    -0.144 C  
HETATM    2  C   UNL     1      -9.688  12.972  68.510  1.00  0.00    -0.132 C  
ENDROOT
BRANCH   1   3
HETATM    3  C   UNL     1      -9.735  10.685  69.199  1.00  0.00    -0.189 A  
HETATM    4  N   UNL     1     -10.966  10.642  69.682  1.00  0.00    -0.261 NA 
HETATM    5  N   UNL     1     -12.283   8.906  70.742  1.00  0.00    -0.131 N  
HETATM    6  O   UNL     1     -13.362   7.087  71.635  1.00  0.00    -0.369 OA 
HETATM    7  C   UNL     1     -11.130   9.390  70.174  1.00  0.00    -0.242 A  
HETATM    8  C   UNL     1     -10.008   8.633  70.030  1.00  0.00    -0.185 A  
HETATM    9  C   UNL     1     -12.326   7.583  71.181  1.00  0.00    -0.291 C  
HETATM   10  N   UNL     1      -9.100   9.462  69.416  1.00  0.00    -0.152 NA 
HETATM   11  C   UNL     1      -7.739   9.136  69.063  1.00  0.00    -0.078 C  
HETATM   12  N   UNL     1     -11.130   6.841  71.099  1.00  0.00    -0.259 N  
HETATM   13  C   UNL     1      -9.943   7.280  70.494  1.00  0.00    -0.190 C  
HETATM   14  O   UNL     1      -8.945   6.576  70.377  1.00  0.00    -0.150 OA 
BRANCH  12  15
HETATM   15  C   UNL     1     -11.133   5.507  71.697  1.00  0.00    -0.122 C  
HETATM   16  C   UNL     1     -10.766   5.505  73.174  1.00  0.00    -0.308 C  
ENDBRANCH  12  15
BRANCH   5  17
HETATM   17  C   UNL     1     -13.459   9.762  70.871  1.00  0.00    -0.109 C  
HETATM   18  C   UNL     1     -13.365  10.709  72.057  1.00  0.00    -0.409 C  
ENDBRANCH   5  17
ENDBRANCH   1   3
BRANCH   2  19
HETATM   19  C   UNL     1      -9.276  14.156  67.734  1.00  0.00    -0.193 A  
HETATM   20  C   UNL     1      -9.630  15.888  66.062  1.00  0.00    -0.385 A  
HETATM   21  C   UNL     1      -8.387  16.457  66.354  1.00  0.00    -0.328 A  
HETATM   22  C   UNL     1      -7.561  15.853  67.319  1.00  0.00    -0.203 A  
HETATM   23  C   UNL     1      -8.005  14.704  67.988  1.00  0.00    -0.137 A  
HETATM   24  C   UNL     1     -10.071  14.747  66.748  1.00  0.00    -0.258 A  
BRANCH  22  25
HETATM   25  O   UNL     1      -6.354  16.469  67.540  1.00  0.00    -0.131 OA 
HETATM   26  C   UNL     1      -5.221  15.653  67.797  1.00  0.00    -0.109 C  
ENDBRANCH  22  25
BRANCH  21  27
HETATM   27  O   UNL     1      -7.885  17.591  65.763  1.00  0.00    -0.544 OA 
HETATM   28  C   UNL     1      -8.356  18.849  66.218  1.00  0.00    -0.260 C  
ENDBRANCH  21  27
ENDBRANCH   2  19
TORSDOF 6
ENDMDL
MODEL       84
REMARK 921   NORMALIZED FREE ENERGY PREDICTED BY IDOCK:   -4.73 KCAL/MOL
REMARK 922        TOTAL FREE ENERGY PREDICTED BY IDOCK:   -6.68 KCAL/MOL
REMARK 923 INTER-LIGAND FREE ENERGY PREDICTED BY IDOCK:   -6.30 KCAL/MOL
REMARK 924 INTRA-LIGAND FREE ENERGY PREDICTED BY IDOCK:   -0.38 KCAL/MOL
REMARK 927      BINDING AFFINITY PREDICTED BY RF-SCORE:    0.00 PKD
ROOT
HETATM    1  C   UNL     1     -10.640   8.995  67.619  1.00  0.00    -0.298 C  
HETATM    2  C   UNL     1     -10.039  10.128  67.205  1.00  0.00    -0.260 C  
ENDROOT
BRANCH   1   3
HETATM    3  C   UNL     1      -9.934   8.123  68.500  1.00  0.00    -0.190 A  
HETATM    4  N   UNL     1      -9.783   8.239  69.809  1.00  0.00    -0.178 NA 
HETATM    5  N   UNL     1      -8.783   6.825  71.504  1.00  0.00    -0.127 N  
HETATM    6  O   UNL     1      -7.865   5.284  72.938  1.00  0.00    -0.097 OA 
HETATM    7  C   UNL     1      -9.119   7.126  70.207  1.00  0.00    -0.156 A  
HETATM    8  C   UNL     1      -8.824   6.305  69.162  1.00  0.00    -0.128 A  
HETATM    9  C   UNL     1      -8.125   5.626  71.780  1.00  0.00    -0.118 C  
HETATM   10  N   UNL     1      -9.332   6.945  68.057  1.00  0.00    -0.124 NA 
HETATM   11  C   UNL     1      -9.257   6.490  66.689  1.00  0.00    -0.153 C  
HETATM   12  N   UNL     1      -7.756   4.829  70.677  1.00  0.00    -0.064 N  
HETATM   13  C   UNL     1      -8.110   5.078  69.342  1.00  0.00    -0.079 C  
HETATM   14  O   UNL     1      -7.831   4.320  68.418  1.00  0.00    -0.074 OA 
BRANCH  12  15
HETATM   15  C   UNL     1      -6.935   3.651  70.953  1.00  0.00    -0.033 C  
HETATM   16  C   UNL     1      -5.440   3.921  70.863  1.00  0.00    -0.008 C  
ENDBRANCH  12  15
BRANCH   5  17
HETATM   17  C   UNL     1      -9.124   7.741  72.588  1.00  0.00    -0.173 C  
HETATM   18  C   UNL     1     -10.531   7.519  73.120  1.00  0.00    -0.419 C  
ENDBRANCH   5  17
ENDBRANCH   1   3
BRANCH   2  19
HETATM   19  C   UNL     1     -10.652  11.218  66.423  1.00  0.00    -0.316 A  
HETATM   20  C   UNL     1     -11.337  12.280  64.344  1.00  0.00    -0.396 A  
HETATM   21  C   UNL     1     -11.904  13.347  65.048  1.00  0.00    -0.352 A  
HETATM   22  C   UNL     1     -11.814  13.372  66.452  1.00  0.00    -0.396 A  
HETATM   23  C   UNL     1     -11.180  12.318  67.123  1.00  0.00    -0.365 A  
HETATM   24  C   UNL     1     -10.717  11.224  65.027  1.00  0.00    -0.322 A  
BRANCH  22  25
HETATM   25  O   UNL     1     -12.388  14.458  67.066  1.00  0.00    -0.353 OA 
HETATM   26  C   UNL     1     -11.665  15.101  68.105  1.00  0.00    -0.302 C  
ENDBRANCH  22  25
BRANCH  21  27
HETATM   27  O   UNL     1     -12.560  14.407  64.472  1.00  0.00    -0.651 OA 
HETATM   28  C   UNL     1     -11.821  15.588  64.207  1.00  0.00    -0.173 C  
ENDBRANCH  21  27
ENDBRANCH   2  19
TORSDOF 6
ENDMDL
MODEL       85
REMARK 921   NORMALIZED FREE ENERGY PREDICTED BY IDOCK:   -4.72 KCAL/MOL
REMARK 922        TOTAL FREE ENERGY PREDICTED BY IDOCK:   -6.68 KCAL/MOL
REMARK 923 INTER-LIGAND FREE ENERGY PREDICTED BY IDOCK:   -6.15 KCAL/MOL
REMARK 924 INTRA-LIGAND FREE ENERGY PREDICTED BY IDOCK:   -0.52 KCAL/MOL
REMARK 927      BINDING AFFINITY PREDICTED BY RF-SCORE:    0.00 PKD
ROOT
HETATM    1  C   UNL     1     -10.521   9.150  67.948  1.00  0.00    -0.293 C  
HETATM    2  C   UNL     1     -10.211  10.358  68.458  1.00  0.00    -0.191 C  
ENDROOT
BRANCH   1   3
HETATM    3  C   UNL     1     -10.305   7.988  68.748  1.00  0.00    -0.206 A  
HETATM    4  N   UNL     1     -10.785   7.733  69.955  1.00  0.00    -0.246 NA 
HETATM    5  N   UNL     1     -10.688   5.799  71.413  1.00  0.00    -0.252 N  
HETATM    6  O   UNL     1     -10.542   3.825  72.574  1.00  0.00    -0.136 OA 
HETATM    7  C   UNL     1     -10.380   6.474  70.257  1.00  0.00    -0.201 A  
HETATM    8  C   UNL     1      -9.628   5.927  69.264  1.00  0.00    -0.141 A  
HETATM    9  C   UNL     1     -10.232   4.492  71.583  1.00  0.00    -0.144 C  
HETATM   10  N   UNL     1      -9.563   6.899  68.294  1.00  0.00    -0.129 NA 
HETATM   11  C   UNL     1      -8.855   6.816  67.039  1.00  0.00    -0.115 C  
HETATM   12  N   UNL     1      -9.387   3.972  70.581  1.00  0.00    -0.131 N  
HETATM   13  C   UNL     1      -9.076   4.610  69.371  1.00  0.00    -0.108 C  
HETATM   14  O   UNL     1      -8.396   4.092  68.491  1.00  0.00    -0.082 OA 
BRANCH  12  15
HETATM   15  C   UNL     1      -8.786   2.663  70.831  1.00  0.00    -0.082 C  
HETATM   16  C   UNL     1      -9.607   1.505  70.281  1.00  0.00    -0.115 C  
ENDBRANCH  12  15
BRANCH   5  17
HETATM   17  C   UNL     1     -11.500   6.435  72.446  1.00  0.00    -0.282 C  
HETATM   18  C   UNL     1     -10.668   7.252  73.422  1.00  0.00    -0.415 C  
ENDBRANCH   5  17
ENDBRANCH   1   3
BRANCH   2  19
HETATM   19  C   UNL     1     -10.496  11.672  67.853  1.00  0.00    -0.217 A  
HETATM   20  C   UNL     1     -11.860  13.218  66.560  1.00  0.00    -0.450 A  
HETATM   21  C   UNL     1     -10.950  14.253  66.793  1.00  0.00    -0.304 A  
HETATM   22  C   UNL     1      -9.782  13.991  67.531  1.00  0.00    -0.232 A  
HETATM   23  C   UNL     1      -9.560  12.705  68.042  1.00  0.00    -0.213 A  
HETATM   24  C   UNL     1     -11.635  11.938  67.087  1.00  0.00    -0.363 A  
BRANCH  22  25
HETATM   25  O   UNL     1      -8.936  15.059  67.707  1.00  0.00    -0.174 OA 
HETATM   26  C   UNL     1      -8.739  15.549  69.025  1.00  0.00    -0.235 C  
ENDBRANCH  22  25
BRANCH  21  27
HETATM   27  O   UNL     1     -11.100  15.544  66.349  1.00  0.00    -0.283 OA 
HETATM   28  C   UNL     1     -10.947  15.797  64.962  1.00  0.00    -0.417 C  
ENDBRANCH  21  27
ENDBRANCH   2  19
TORSDOF 6
ENDMDL
MODEL       86
REMARK 921   NORMALIZED FREE ENERGY PREDICTED BY IDOCK:   -4.71 KCAL/MOL
REMARK 922        TOTAL FREE ENERGY PREDICTED BY IDOCK:   -6.66 KCAL/MOL
REMARK 923 INTER-LIGAND FREE ENERGY PREDICTED BY IDOCK:   -6.10 KCAL/MOL
REMARK 924 INTRA-LIGAND FREE ENERGY PREDICTED BY IDOCK:   -0.56 KCAL/MOL
REMARK 927      BINDING AFFINITY PREDICTED BY RF-SCORE:    0.00 PKD
ROOT
HETATM    1  C   UNL     1     -10.057  13.029  66.185  1.00  0.00    -0.287 C  
HETATM    2  C   UNL     1      -9.117  13.777  66.795  1.00  0.00    -0.235 C  
ENDROOT
BRANCH   1   3
HETATM    3  C   UNL     1      -9.820  11.634  66.007  1.00  0.00    -0.230 A  
HETATM    4  N   UNL     1      -9.172  11.040  65.018  1.00  0.00    -0.209 NA 
HETATM    5  N   UNL     1      -8.516   8.745  64.594  1.00  0.00    -0.169 N  
HETATM    6  O   UNL     1      -7.923   6.532  64.455  1.00  0.00    -0.115 OA 
HETATM    7  C   UNL     1      -9.129   9.723  65.339  1.00  0.00    -0.204 A  
HETATM    8  C   UNL     1      -9.762   9.463  66.515  1.00  0.00    -0.236 A  
HETATM    9  C   UNL     1      -8.520   7.429  65.057  1.00  0.00     0.018 C  
HETATM   10  N   UNL     1     -10.221  10.684  66.946  1.00  0.00    -0.214 NA 
HETATM   11  C   UNL     1     -10.983  10.943  68.145  1.00  0.00    -0.249 C  
HETATM   12  N   UNL     1      -9.249   7.167  66.234  1.00  0.00    -0.156 N  
HETATM   13  C   UNL     1      -9.858   8.136  67.045  1.00  0.00    -0.232 C  
HETATM   14  O   UNL     1     -10.422   7.874  68.103  1.00  0.00    -0.207 OA 
BRANCH  12  15
HETATM   15  C   UNL     1      -9.381   5.767  66.637  1.00  0.00    -0.146 C  
HETATM   16  C   UNL     1     -10.656   5.109  66.128  1.00  0.00    -0.293 C  
ENDBRANCH  12  15
BRANCH   5  17
HETATM   17  C   UNL     1      -7.851   9.080  63.339  1.00  0.00    -0.139 C  
HETATM   18  C   UNL     1      -6.375   9.395  63.524  1.00  0.00    -0.094 C  
ENDBRANCH   5  17
ENDBRANCH   1   3
BRANCH   2  19
HETATM   19  C   UNL     1      -9.237  15.189  67.201  1.00  0.00    -0.226 A  
HETATM   20  C   UNL     1     -10.422  17.309  67.365  1.00  0.00    -0.338 A  
HETATM   21  C   UNL     1      -9.363  17.872  68.082  1.00  0.00    -0.286 A  
HETATM   22  C   UNL     1      -8.212  17.103  68.332  1.00  0.00    -0.253 A  
HETATM   23  C   UNL     1      -8.155  15.777  67.880  1.00  0.00    -0.149 A  
HETATM   24  C   UNL     1     -10.359  15.977  66.928  1.00  0.00    -0.289 A  
BRANCH  22  25
HETATM   25  O   UNL     1      -7.215  17.733  69.036  1.00  0.00    -0.255 OA 
HETATM   26  C   UNL     1      -5.952  17.896  68.408  1.00  0.00    -0.174 C  
ENDBRANCH  22  25
BRANCH  21  27
HETATM   27  O   UNL     1      -9.346  19.153  68.579  1.00  0.00    -0.339 OA 
HETATM   28  C   UNL     1     -10.094  20.146  67.898  1.00  0.00    -0.392 C  
ENDBRANCH  21  27
ENDBRANCH   2  19
TORSDOF 6
ENDMDL
MODEL       87
REMARK 921   NORMALIZED FREE ENERGY PREDICTED BY IDOCK:   -4.69 KCAL/MOL
REMARK 922        TOTAL FREE ENERGY PREDICTED BY IDOCK:   -6.64 KCAL/MOL
REMARK 923 INTER-LIGAND FREE ENERGY PREDICTED BY IDOCK:   -6.26 KCAL/MOL
REMARK 924 INTRA-LIGAND FREE ENERGY PREDICTED BY IDOCK:   -0.38 KCAL/MOL
REMARK 927      BINDING AFFINITY PREDICTED BY RF-SCORE:    0.00 PKD
ROOT
HETATM    1  C   UNL     1     -11.090   9.733  68.241  1.00  0.00    -0.158 C  
HETATM    2  C   UNL     1     -10.766  10.504  69.297  1.00  0.00    -0.269 C  
ENDROOT
BRANCH   1   3
HETATM    3  C   UNL     1     -10.360   8.527  68.019  1.00  0.00    -0.217 A  
HETATM    4  N   UNL     1      -9.455   8.286  67.084  1.00  0.00    -0.151 NA 
HETATM    5  N   UNL     1      -7.997   6.407  66.620  1.00  0.00    -0.107 N  
HETATM    6  O   UNL     1      -6.651   4.556  66.435  1.00  0.00    -0.043 OA 
HETATM    7  C   UNL     1      -8.982   7.041  67.337  1.00  0.00    -0.117 A  
HETATM    8  C   UNL     1      -9.589   6.472  68.414  1.00  0.00    -0.122 A  
HETATM    9  C   UNL     1      -7.579   5.134  67.009  1.00  0.00    -0.088 C  
HETATM   10  N   UNL     1     -10.487   7.415  68.852  1.00  0.00    -0.207 NA 
HETATM   11  C   UNL     1     -11.399   7.285  69.962  1.00  0.00    -0.166 C  
HETATM   12  N   UNL     1      -8.276   4.529  68.075  1.00  0.00    -0.094 N  
HETATM   13  C   UNL     1      -9.261   5.151  68.857  1.00  0.00    -0.118 C  
HETATM   14  O   UNL     1      -9.792   4.615  69.825  1.00  0.00    -0.196 OA 
BRANCH  12  15
HETATM   15  C   UNL     1      -7.943   3.139  68.383  1.00  0.00    -0.058 C  
HETATM   16  C   UNL     1      -8.833   2.131  67.670  1.00  0.00    -0.161 C  
ENDBRANCH  12  15
BRANCH   5  17
HETATM   17  C   UNL     1      -7.378   7.064  65.472  1.00  0.00    -0.079 C  
HETATM   18  C   UNL     1      -7.997   6.636  64.151  1.00  0.00    -0.084 C  
ENDBRANCH   5  17
ENDBRANCH   1   3
BRANCH   2  19
HETATM   19  C   UNL     1     -11.491  11.696  69.776  1.00  0.00    -0.339 A  
HETATM   20  C   UNL     1     -12.940  12.878  71.333  1.00  0.00    -0.362 A  
HETATM   21  C   UNL     1     -12.783  14.066  70.614  1.00  0.00    -0.303 A  
HETATM   22  C   UNL     1     -12.004  14.066  69.443  1.00  0.00    -0.343 A  
HETATM   23  C   UNL     1     -11.377  12.883  69.029  1.00  0.00    -0.341 A  
HETATM   24  C   UNL     1     -12.297  11.702  70.917  1.00  0.00    -0.436 A  
BRANCH  22  25
HETATM   25  O   UNL     1     -11.908  15.271  68.791  1.00  0.00    -0.338 OA 
HETATM   26  C   UNL     1     -11.259  15.301  67.529  1.00  0.00    -0.317 C  
ENDBRANCH  22  25
BRANCH  21  27
HETATM   27  O   UNL     1     -13.343  15.272  70.960  1.00  0.00    -0.460 OA 
HETATM   28  C   UNL     1     -14.258  15.299  72.043  1.00  0.00    -0.581 C  
ENDBRANCH  21  27
ENDBRANCH   2  19
TORSDOF 6
ENDMDL
MODEL       88
REMARK 921   NORMALIZED FREE ENERGY PREDICTED BY IDOCK:   -4.68 KCAL/MOL
REMARK 922        TOTAL FREE ENERGY PREDICTED BY IDOCK:   -6.62 KCAL/MOL
REMARK 923 INTER-LIGAND FREE ENERGY PREDICTED BY IDOCK:   -6.14 KCAL/MOL
REMARK 924 INTRA-LIGAND FREE ENERGY PREDICTED BY IDOCK:   -0.48 KCAL/MOL
REMARK 927      BINDING AFFINITY PREDICTED BY RF-SCORE:    0.00 PKD
ROOT
HETATM    1  C   UNL     1     -10.605   9.355  69.970  1.00  0.00    -0.267 C  
HETATM    2  C   UNL     1      -9.384   9.172  70.509  1.00  0.00    -0.287 C  
ENDROOT
BRANCH   1   3
HETATM    3  C   UNL     1     -10.846  10.528  69.193  1.00  0.00    -0.237 A  
HETATM    4  N   UNL     1     -11.387  11.668  69.591  1.00  0.00    -0.258 NA 
HETATM    5  N   UNL     1     -11.743  13.811  68.515  1.00  0.00    -0.335 N  
HETATM    6  O   UNL     1     -11.888  15.768  67.325  1.00  0.00     0.136 OA 
HETATM    7  C   UNL     1     -11.319  12.504  68.526  1.00  0.00    -0.297 A  
HETATM    8  C   UNL     1     -10.756  11.906  67.441  1.00  0.00    -0.232 A  
HETATM    9  C   UNL     1     -11.584  14.572  67.358  1.00  0.00    -0.385 C  
HETATM   10  N   UNL     1     -10.461  10.629  67.857  1.00  0.00    -0.194 NA 
HETATM   11  C   UNL     1      -9.867   9.581  67.062  1.00  0.00    -0.190 C  
HETATM   12  N   UNL     1     -11.075  13.911  66.221  1.00  0.00    -0.302 N  
HETATM   13  C   UNL     1     -10.595  12.593  66.196  1.00  0.00    -0.258 C  
HETATM   14  O   UNL     1     -10.091  12.077  65.203  1.00  0.00    -0.259 OA 
BRANCH  12  15
HETATM   15  C   UNL     1     -11.050  14.665  64.969  1.00  0.00    -0.394 C  
HETATM   16  C   UNL     1     -12.296  14.466  64.118  1.00  0.00    -0.340 C  
ENDBRANCH  12  15
BRANCH   5  17
HETATM   17  C   UNL     1     -12.340  14.403  69.708  1.00  0.00    -0.285 C  
HETATM   18  C   UNL     1     -11.320  15.123  70.576  1.00  0.00    -0.334 C  
ENDBRANCH   5  17
ENDBRANCH   1   3
BRANCH   2  19
HETATM   19  C   UNL     1      -8.900   7.968  71.209  1.00  0.00    -0.163 A  
HETATM   20  C   UNL     1      -7.231   6.269  71.709  1.00  0.00    -0.087 A  
HETATM   21  C   UNL     1      -8.073   5.686  72.659  1.00  0.00    -0.102 A  
HETATM   22  C   UNL     1      -9.357   6.224  72.865  1.00  0.00    -0.139 A  
HETATM   23  C   UNL     1      -9.762   7.348  72.132  1.00  0.00    -0.182 A  
HETATM   24  C   UNL     1      -7.641   7.401  70.990  1.00  0.00    -0.086 A  
BRANCH  22  25
HETATM   25  O   UNL     1     -10.125   5.589  73.810  1.00  0.00    -0.176 OA 
HETATM   26  C   UNL     1     -11.196   4.771  73.365  1.00  0.00    -0.343 C  
ENDBRANCH  22  25
BRANCH  21  27
HETATM   27  O   UNL     1      -7.749   4.600  73.435  1.00  0.00    -0.091 OA 
HETATM   28  C   UNL     1      -6.439   4.529  73.973  1.00  0.00    -0.053 C  
ENDBRANCH  21  27
ENDBRANCH   2  19
TORSDOF 6
ENDMDL
MODEL       89
REMARK 921   NORMALIZED FREE ENERGY PREDICTED BY IDOCK:   -4.67 KCAL/MOL
REMARK 922        TOTAL FREE ENERGY PREDICTED BY IDOCK:   -6.61 KCAL/MOL
REMARK 923 INTER-LIGAND FREE ENERGY PREDICTED BY IDOCK:   -6.26 KCAL/MOL
REMARK 924 INTRA-LIGAND FREE ENERGY PREDICTED BY IDOCK:   -0.36 KCAL/MOL
REMARK 927      BINDING AFFINITY PREDICTED BY RF-SCORE:    0.00 PKD
ROOT
HETATM    1  C   UNL     1      -9.836  11.332  68.245  1.00  0.00    -0.201 C  
HETATM    2  C   UNL     1     -10.686  12.103  67.539  1.00  0.00    -0.265 C  
ENDROOT
BRANCH   1   3
HETATM    3  C   UNL     1      -9.774   9.935  67.960  1.00  0.00    -0.140 A  
HETATM    4  N   UNL     1     -10.361   8.946  68.614  1.00  0.00    -0.204 NA 
HETATM    5  N   UNL     1     -10.529   6.559  68.228  1.00  0.00    -0.196 N  
HETATM    6  O   UNL     1     -10.629   4.352  67.609  1.00  0.00     0.267 OA 
HETATM    7  C   UNL     1     -10.082   7.819  67.913  1.00  0.00    -0.185 A  
HETATM    8  C   UNL     1      -9.305   8.073  66.825  1.00  0.00    -0.180 A  
HETATM    9  C   UNL     1     -10.194   5.488  67.401  1.00  0.00    -0.209 C  
HETATM   10  N   UNL     1      -9.090   9.430  66.854  1.00  0.00    -0.133 NA 
HETATM   11  C   UNL     1      -8.300  10.196  65.920  1.00  0.00    -0.136 C  
HETATM   12  N   UNL     1      -9.321   5.757  66.327  1.00  0.00    -0.157 N  
HETATM   13  C   UNL     1      -8.871   7.030  65.946  1.00  0.00    -0.103 C  
HETATM   14  O   UNL     1      -8.171   7.231  64.958  1.00  0.00    -0.137 OA 
BRANCH  12  15
HETATM   15  C   UNL     1      -8.848   4.611  65.551  1.00  0.00    -0.134 C  
HETATM   16  C   UNL     1      -9.818   4.175  64.463  1.00  0.00    -0.168 C  
ENDBRANCH  12  15
BRANCH   5  17
HETATM   17  C   UNL     1     -11.361   6.344  69.408  1.00  0.00    -0.377 C  
HETATM   18  C   UNL     1     -10.550   5.945  70.631  1.00  0.00    -0.334 C  
ENDBRANCH   5  17
ENDBRANCH   1   3
BRANCH   2  19
HETATM   19  C   UNL     1     -10.787  13.573  67.582  1.00  0.00    -0.273 A  
HETATM   20  C   UNL     1     -11.651  15.667  68.473  1.00  0.00    -0.378 A  
HETATM   21  C   UNL     1     -10.847  16.399  67.596  1.00  0.00    -0.280 A  
HETATM   22  C   UNL     1     -10.030  15.718  66.675  1.00  0.00    -0.257 A  
HETATM   23  C   UNL     1     -10.018  14.316  66.668  1.00  0.00    -0.279 A  
HETATM   24  C   UNL     1     -11.620  14.265  68.467  1.00  0.00    -0.355 A  
BRANCH  22  25
HETATM   25  O   UNL     1      -9.278  16.511  65.844  1.00  0.00    -0.451 OA 
HETATM   26  C   UNL     1      -7.920  16.743  66.185  1.00  0.00    -0.238 C  
ENDBRANCH  22  25
BRANCH  21  27
HETATM   27  O   UNL     1     -10.782  17.771  67.551  1.00  0.00    -0.375 OA 
HETATM   28  C   UNL     1     -10.124  18.445  68.611  1.00  0.00    -0.377 C  
ENDBRANCH  21  27
ENDBRANCH   2  19
TORSDOF 6
ENDMDL
MODEL       90
REMARK 921   NORMALIZED FREE ENERGY PREDICTED BY IDOCK:   -4.64 KCAL/MOL
REMARK 922        TOTAL FREE ENERGY PREDICTED BY IDOCK:   -6.57 KCAL/MOL
REMARK 923 INTER-LIGAND FREE ENERGY PREDICTED BY IDOCK:   -6.15 KCAL/MOL
REMARK 924 INTRA-LIGAND FREE ENERGY PREDICTED BY IDOCK:   -0.42 KCAL/MOL
REMARK 927      BINDING AFFINITY PREDICTED BY RF-SCORE:    0.00 PKD
ROOT
HETATM    1  C   UNL     1     -10.181   9.504  70.493  1.00  0.00    -0.349 C  
HETATM    2  C   UNL     1     -11.306  10.019  69.958  1.00  0.00    -0.334 C  
ENDROOT
BRANCH   1   3
HETATM    3  C   UNL     1     -10.043   8.086  70.575  1.00  0.00    -0.192 A  
HETATM    4  N   UNL     1     -10.161   7.319  71.647  1.00  0.00    -0.193 NA 
HETATM    5  N   UNL     1     -10.130   4.921  71.994  1.00  0.00    -0.190 N  
HETATM    6  O   UNL     1     -10.160   2.627  72.063  1.00  0.00    -0.165 OA 
HETATM    7  C   UNL     1     -10.037   6.043  71.207  1.00  0.00    -0.192 A  
HETATM    8  C   UNL     1      -9.821   5.983  69.865  1.00  0.00    -0.170 A  
HETATM    9  C   UNL     1     -10.015   3.661  71.406  1.00  0.00    -0.093 C  
HETATM   10  N   UNL     1      -9.809   7.294  69.451  1.00  0.00    -0.162 NA 
HETATM   11  C   UNL     1      -9.591   7.770  68.106  1.00  0.00    -0.151 C  
HETATM   12  N   UNL     1      -9.709   3.623  70.030  1.00  0.00    -0.168 N  
HETATM   13  C   UNL     1      -9.642   4.738  69.182  1.00  0.00    -0.167 C  
HETATM   14  O   UNL     1      -9.446   4.656  67.973  1.00  0.00    -0.132 OA 
BRANCH  12  15
HETATM   15  C   UNL     1      -9.438   2.310  69.446  1.00  0.00    -0.048 C  
HETATM   16  C   UNL     1      -7.967   1.923  69.485  1.00  0.00    -0.053 C  
ENDBRANCH  12  15
BRANCH   5  17
HETATM   17  C   UNL     1     -10.364   5.043  73.430  1.00  0.00    -0.202 C  
HETATM   18  C   UNL     1      -9.072   5.105  74.229  1.00  0.00    -0.114 C  
ENDBRANCH   5  17
ENDBRANCH   1   3
BRANCH   2  19
HETATM   19  C   UNL     1     -11.569  11.437  69.652  1.00  0.00    -0.399 A  
HETATM   20  C   UNL     1     -11.714  13.344  68.149  1.00  0.00    -0.397 A  
HETATM   21  C   UNL     1     -12.160  14.162  69.190  1.00  0.00    -0.325 A  
HETATM   22  C   UNL     1     -12.279  13.626  70.486  1.00  0.00    -0.368 A  
HETATM   23  C   UNL     1     -11.971  12.277  70.707  1.00  0.00    -0.101 A  
HETATM   24  C   UNL     1     -11.422  11.992  68.378  1.00  0.00    -0.356 A  
BRANCH  22  25
HETATM   25  O   UNL     1     -12.716  14.497  71.453  1.00  0.00    -0.300 OA 
HETATM   26  C   UNL     1     -13.951  14.221  72.097  1.00  0.00    -0.523 C  
ENDBRANCH  22  25
BRANCH  21  27
HETATM   27  O   UNL     1     -12.503  15.485  69.057  1.00  0.00    -0.090 OA 
HETATM   28  C   UNL     1     -11.462  16.432  68.877  1.00  0.00    -0.216 C  
ENDBRANCH  21  27
ENDBRANCH   2  19
TORSDOF 6
ENDMDL
MODEL       91
REMARK 921   NORMALIZED FREE ENERGY PREDICTED BY IDOCK:   -4.64 KCAL/MOL
REMARK 922        TOTAL FREE ENERGY PREDICTED BY IDOCK:   -6.56 KCAL/MOL
REMARK 923 INTER-LIGAND FREE ENERGY PREDICTED BY IDOCK:   -5.99 KCAL/MOL
REMARK 924 INTRA-LIGAND FREE ENERGY PREDICTED BY IDOCK:   -0.57 KCAL/MOL
REMARK 927      BINDING AFFINITY PREDICTED BY RF-SCORE:    0.00 PKD
ROOT
HETATM    1  C   UNL     1      -9.221  10.228  69.161  1.00  0.00    -0.203 C  
HETATM    2  C   UNL     1     -10.293  11.045  69.137  1.00  0.00    -0.210 C  
ENDROOT
BRANCH   1   3
HETATM    3  C   UNL     1      -9.273   9.047  69.960  1.00  0.00    -0.180 A  
HETATM    4  N   UNL     1      -9.006   8.927  71.251  1.00  0.00    -0.231 NA 
HETATM    5  N   UNL     1      -9.177   7.093  72.826  1.00  0.00    -0.137 N  
HETATM    6  O   UNL     1      -9.513   5.246  74.146  1.00  0.00    -0.130 OA 
HETATM    7  C   UNL     1      -9.285   7.639  71.570  1.00  0.00    -0.135 A  
HETATM    8  C   UNL     1      -9.711   6.925  70.493  1.00  0.00    -0.172 A  
HETATM    9  C   UNL     1      -9.529   5.757  73.023  1.00  0.00    -0.150 C  
HETATM   10  N   UNL     1      -9.693   7.819  69.448  1.00  0.00    -0.167 NA 
HETATM   11  C   UNL     1     -10.039   7.545  68.074  1.00  0.00    -0.183 C  
HETATM   12  N   UNL     1      -9.889   5.014  71.881  1.00  0.00    -0.174 N  
HETATM   13  C   UNL     1     -10.048   5.538  70.589  1.00  0.00    -0.223 C  
HETATM   14  O   UNL     1     -10.434   4.871  69.634  1.00  0.00    -0.206 OA 
BRANCH  12  15
HETATM   15  C   UNL     1     -10.109   3.580  72.063  1.00  0.00    -0.116 C  
HETATM   16  C   UNL     1      -8.867   2.739  71.805  1.00  0.00    -0.120 C  
ENDBRANCH  12  15
BRANCH   5  17
HETATM   17  C   UNL     1      -8.716   7.904  73.948  1.00  0.00    -0.272 C  
HETATM   18  C   UNL     1      -7.220   7.771  74.189  1.00  0.00    -0.161 C  
ENDBRANCH   5  17
ENDBRANCH   1   3
BRANCH   2  19
HETATM   19  C   UNL     1     -10.487  12.220  68.268  1.00  0.00    -0.236 A  
HETATM   20  C   UNL     1     -11.710  13.520  66.614  1.00  0.00    -0.425 A  
HETATM   21  C   UNL     1     -10.770  14.551  66.695  1.00  0.00    -0.305 A  
HETATM   22  C   UNL     1      -9.657  14.405  67.542  1.00  0.00    -0.215 A  
HETATM   23  C   UNL     1      -9.519  13.239  68.308  1.00  0.00    -0.209 A  
HETATM   24  C   UNL     1     -11.570  12.364  67.395  1.00  0.00    -0.433 A  
BRANCH  22  25
HETATM   25  O   UNL     1      -8.777  15.459  67.557  1.00  0.00    -0.165 OA 
HETATM   26  C   UNL     1      -7.445  15.228  67.121  1.00  0.00    -0.167 C  
ENDBRANCH  22  25
BRANCH  21  27
HETATM   27  O   UNL     1     -10.839  15.732  65.997  1.00  0.00    -0.317 OA 
HETATM   28  C   UNL     1     -11.383  15.705  64.687  1.00  0.00    -0.349 C  
ENDBRANCH  21  27
ENDBRANCH   2  19
TORSDOF 6
ENDMDL
MODEL       92
REMARK 921   NORMALIZED FREE ENERGY PREDICTED BY IDOCK:   -4.62 KCAL/MOL
REMARK 922        TOTAL FREE ENERGY PREDICTED BY IDOCK:   -6.54 KCAL/MOL
REMARK 923 INTER-LIGAND FREE ENERGY PREDICTED BY IDOCK:   -6.55 KCAL/MOL
REMARK 924 INTRA-LIGAND FREE ENERGY PREDICTED BY IDOCK:    0.01 KCAL/MOL
REMARK 927      BINDING AFFINITY PREDICTED BY RF-SCORE:    0.00 PKD
ROOT
HETATM    1  C   UNL     1      -9.736  13.659  67.923  1.00  0.00    -0.234 C  
HETATM    2  C   UNL     1      -8.673  14.414  68.263  1.00  0.00    -0.180 C  
ENDROOT
BRANCH   1   3
HETATM    3  C   UNL     1      -9.955  12.429  68.612  1.00  0.00    -0.107 A  
HETATM    4  N   UNL     1     -11.058  12.024  69.221  1.00  0.00    -0.217 NA 
HETATM    5  N   UNL     1     -11.705   9.952  70.297  1.00  0.00    -0.242 N  
HETATM    6  O   UNL     1     -12.123   7.873  71.175  1.00  0.00    -0.304 OA 
HETATM    7  C   UNL     1     -10.809  10.760  69.642  1.00  0.00    -0.241 A  
HETATM    8  C   UNL     1      -9.549  10.356  69.326  1.00  0.00    -0.209 A  
HETATM    9  C   UNL     1     -11.328   8.655  70.647  1.00  0.00    -0.247 C  
HETATM   10  N   UNL     1      -8.986  11.428  68.676  1.00  0.00    -0.161 NA 
HETATM   11  C   UNL     1      -7.642  11.511  68.156  1.00  0.00    -0.113 C  
HETATM   12  N   UNL     1      -9.994   8.283  70.385  1.00  0.00    -0.187 N  
HETATM   13  C   UNL     1      -9.057   9.060  69.687  1.00  0.00    -0.154 C  
HETATM   14  O   UNL     1      -7.926   8.670  69.415  1.00  0.00    -0.098 OA 
BRANCH  12  15
HETATM   15  C   UNL     1      -9.555   6.982  70.888  1.00  0.00    -0.167 C  
HETATM   16  C   UNL     1      -9.802   5.841  69.911  1.00  0.00    -0.234 C  
ENDBRANCH  12  15
BRANCH   5  17
HETATM   17  C   UNL     1     -13.046  10.437  70.610  1.00  0.00    -0.224 C  
HETATM   18  C   UNL     1     -13.130  11.071  71.990  1.00  0.00    -0.449 C  
ENDBRANCH   5  17
ENDBRANCH   1   3
BRANCH   2  19
HETATM   19  C   UNL     1      -8.363  15.772  67.778  1.00  0.00    -0.163 A  
HETATM   20  C   UNL     1      -7.364  17.343  66.211  1.00  0.00    -0.347 A  
HETATM   21  C   UNL     1      -7.886  18.425  66.926  1.00  0.00    -0.234 A  
HETATM   22  C   UNL     1      -8.625  18.184  68.099  1.00  0.00    -0.274 A  
HETATM   23  C   UNL     1      -8.844  16.865  68.520  1.00  0.00    -0.251 A  
HETATM   24  C   UNL     1      -7.601  16.027  66.634  1.00  0.00    -0.200 A  
BRANCH  22  25
HETATM   25  O   UNL     1      -9.096  19.300  68.746  1.00  0.00    -0.365 OA 
HETATM   26  C   UNL     1     -10.411  19.744  68.448  1.00  0.00    -0.391 C  
ENDBRANCH  22  25
BRANCH  21  27
HETATM   27  O   UNL     1      -7.738  19.744  66.573  1.00  0.00    -0.261 OA 
HETATM   28  C   UNL     1      -6.948  20.048  65.435  1.00  0.00    -0.302 C  
ENDBRANCH  21  27
ENDBRANCH   2  19
TORSDOF 6
ENDMDL
MODEL       93
REMARK 921   NORMALIZED FREE ENERGY PREDICTED BY IDOCK:   -4.61 KCAL/MOL
REMARK 922        TOTAL FREE ENERGY PREDICTED BY IDOCK:   -6.53 KCAL/MOL
REMARK 923 INTER-LIGAND FREE ENERGY PREDICTED BY IDOCK:   -5.96 KCAL/MOL
REMARK 924 INTRA-LIGAND FREE ENERGY PREDICTED BY IDOCK:   -0.57 KCAL/MOL
REMARK 927      BINDING AFFINITY PREDICTED BY RF-SCORE:    0.00 PKD
ROOT
HETATM    1  C   UNL     1     -11.141   9.267  69.572  1.00  0.00    -0.099 C  
HETATM    2  C   UNL     1     -10.474   9.763  68.511  1.00  0.00    -0.239 C  
ENDROOT
BRANCH   1   3
HETATM    3  C   UNL     1     -10.563   8.188  70.305  1.00  0.00    -0.228 A  
HETATM    4  N   UNL     1      -9.628   7.342  69.903  1.00  0.00    -0.164 NA 
HETATM    5  N   UNL     1      -8.401   5.566  71.006  1.00  0.00    -0.119 N  
HETATM    6  O   UNL     1      -7.303   4.004  72.279  1.00  0.00    -0.054 OA 
HETATM    7  C   UNL     1      -9.345   6.563  70.977  1.00  0.00    -0.160 A  
HETATM    8  C   UNL     1     -10.104   6.888  72.059  1.00  0.00    -0.185 A  
HETATM    9  C   UNL     1      -8.188   4.860  72.189  1.00  0.00    -0.115 C  
HETATM   10  N   UNL     1     -10.901   7.924  71.632  1.00  0.00    -0.228 NA 
HETATM   11  C   UNL     1     -11.905   8.612  72.407  1.00  0.00    -0.331 C  
HETATM   12  N   UNL     1      -9.039   5.155  73.274  1.00  0.00    -0.123 N  
HETATM   13  C   UNL     1      -9.990   6.187  73.301  1.00  0.00    -0.181 C  
HETATM   14  O   UNL     1     -10.660   6.460  74.292  1.00  0.00    -0.257 OA 
BRANCH  12  15
HETATM   15  C   UNL     1      -8.918   4.313  74.462  1.00  0.00    -0.099 C  
HETATM   16  C   UNL     1      -9.890   3.142  74.475  1.00  0.00    -0.162 C  
ENDBRANCH  12  15
BRANCH   5  17
HETATM   17  C   UNL     1      -7.614   5.259  69.815  1.00  0.00    -0.069 C  
HETATM   18  C   UNL     1      -6.365   6.119  69.701  1.00  0.00    -0.034 C  
ENDBRANCH   5  17
ENDBRANCH   1   3
BRANCH   2  19
HETATM   19  C   UNL     1     -10.830  10.960  67.726  1.00  0.00    -0.309 A  
HETATM   20  C   UNL     1     -11.397  12.112  65.659  1.00  0.00    -0.395 A  
HETATM   21  C   UNL     1     -11.561  13.317  66.347  1.00  0.00    -0.347 A  
HETATM   22  C   UNL     1     -11.323  13.357  67.733  1.00  0.00    -0.294 A  
HETATM   23  C   UNL     1     -10.949  12.186  68.405  1.00  0.00    -0.271 A  
HETATM   24  C   UNL     1     -11.035  10.942  66.343  1.00  0.00    -0.156 A  
BRANCH  22  25
HETATM   25  O   UNL     1     -11.499  14.580  68.332  1.00  0.00    -0.272 OA 
HETATM   26  C   UNL     1     -10.487  15.048  69.211  1.00  0.00    -0.249 C  
ENDBRANCH  22  25
BRANCH  21  27
HETATM   27  O   UNL     1     -11.946  14.503  65.772  1.00  0.00    -0.360 OA 
HETATM   28  C   UNL     1     -12.218  14.515  64.380  1.00  0.00    -0.458 C  
ENDBRANCH  21  27
ENDBRANCH   2  19
TORSDOF 6
ENDMDL
MODEL       94
REMARK 921   NORMALIZED FREE ENERGY PREDICTED BY IDOCK:   -4.61 KCAL/MOL
REMARK 922        TOTAL FREE ENERGY PREDICTED BY IDOCK:   -6.53 KCAL/MOL
REMARK 923 INTER-LIGAND FREE ENERGY PREDICTED BY IDOCK:   -6.44 KCAL/MOL
REMARK 924 INTRA-LIGAND FREE ENERGY PREDICTED BY IDOCK:   -0.09 KCAL/MOL
REMARK 927      BINDING AFFINITY PREDICTED BY RF-SCORE:    0.00 PKD
ROOT
HETATM    1  C   UNL     1      -9.055  11.386  67.649  1.00  0.00    -0.155 C  
HETATM    2  C   UNL     1      -9.297  10.454  66.706  1.00  0.00    -0.181 C  
ENDROOT
BRANCH   1   3
HETATM    3  C   UNL     1      -9.182  12.765  67.303  1.00  0.00    -0.203 A  
HETATM    4  N   UNL     1      -9.883  13.292  66.312  1.00  0.00    -0.282 NA 
HETATM    5  N   UNL     1     -10.369  15.569  65.641  1.00  0.00    -0.354 N  
HETATM    6  O   UNL     1     -10.768  17.796  65.255  1.00  0.00    -0.649 OA 
HETATM    7  C   UNL     1      -9.766  14.636  66.448  1.00  0.00    -0.295 A  
HETATM    8  C   UNL     1      -8.980  14.977  67.505  1.00  0.00    -0.183 A  
HETATM    9  C   UNL     1     -10.191  16.926  65.912  1.00  0.00    -0.314 C  
HETATM   10  N   UNL     1      -8.588  13.779  68.053  1.00  0.00    -0.167 NA 
HETATM   11  C   UNL     1      -7.719  13.597  69.192  1.00  0.00     0.182 C  
HETATM   12  N   UNL     1      -9.308  17.259  66.959  1.00  0.00    -0.245 N  
HETATM   13  C   UNL     1      -8.700  16.342  67.831  1.00  0.00    -0.179 C  
HETATM   14  O   UNL     1      -7.996  16.677  68.778  1.00  0.00    -0.218 OA 
BRANCH  12  15
HETATM   15  C   UNL     1      -9.001  18.676  67.146  1.00  0.00    -0.281 C  
HETATM   16  C   UNL     1      -9.896  19.360  68.170  1.00  0.00    -0.485 C  
ENDBRANCH  12  15
BRANCH   5  17
HETATM   17  C   UNL     1     -11.204  15.148  64.520  1.00  0.00    -0.272 C  
HETATM   18  C   UNL     1     -12.328  14.217  64.945  1.00  0.00    -0.446 C  
ENDBRANCH   5  17
ENDBRANCH   1   3
BRANCH   2  19
HETATM   19  C   UNL     1      -9.363   8.994  66.905  1.00  0.00    -0.203 A  
HETATM   20  C   UNL     1      -8.980   6.690  66.224  1.00  0.00    -0.168 A  
HETATM   21  C   UNL     1      -9.500   6.221  67.434  1.00  0.00    -0.115 A  
HETATM   22  C   UNL     1      -9.992   7.142  68.377  1.00  0.00    -0.158 A  
HETATM   23  C   UNL     1      -9.931   8.515  68.099  1.00  0.00    -0.214 A  
HETATM   24  C   UNL     1      -8.912   8.066  65.963  1.00  0.00    -0.205 A  
BRANCH  22  25
HETATM   25  O   UNL     1     -10.493   6.600  69.534  1.00  0.00    -0.194 OA 
HETATM   26  C   UNL     1     -11.653   7.188  70.104  1.00  0.00    -0.168 C  
ENDBRANCH  22  25
BRANCH  21  27
HETATM   27  O   UNL     1      -9.578   4.898  67.794  1.00  0.00    -0.135 OA 
HETATM   28  C   UNL     1      -9.081   3.927  66.888  1.00  0.00    -0.151 C  
ENDBRANCH  21  27
ENDBRANCH   2  19
TORSDOF 6
ENDMDL
MODEL       95
REMARK 921   NORMALIZED FREE ENERGY PREDICTED BY IDOCK:   -4.59 KCAL/MOL
REMARK 922        TOTAL FREE ENERGY PREDICTED BY IDOCK:   -6.49 KCAL/MOL
REMARK 923 INTER-LIGAND FREE ENERGY PREDICTED BY IDOCK:   -5.90 KCAL/MOL
REMARK 924 INTRA-LIGAND FREE ENERGY PREDICTED BY IDOCK:   -0.59 KCAL/MOL
REMARK 927      BINDING AFFINITY PREDICTED BY RF-SCORE:    0.00 PKD
ROOT
HETATM    1  C   UNL     1      -9.811   8.983  67.248  1.00  0.00    -0.252 C  
HETATM    2  C   UNL     1     -10.503   9.904  66.549  1.00  0.00    -0.213 C  
ENDROOT
BRANCH   1   3
HETATM    3  C   UNL     1      -9.380   7.795  66.584  1.00  0.00    -0.188 A  
HETATM    4  N   UNL     1      -8.509   7.689  65.593  1.00  0.00    -0.146 NA 
HETATM    5  N   UNL     1      -7.519   5.803  64.438  1.00  0.00    -0.070 N  
HETATM    6  O   UNL     1      -6.646   3.871  63.558  1.00  0.00    -0.036 OA 
HETATM    7  C   UNL     1      -8.361   6.360  65.368  1.00  0.00    -0.141 A  
HETATM    8  C   UNL     1      -9.144   5.612  66.193  1.00  0.00    -0.152 A  
HETATM    9  C   UNL     1      -7.439   4.415  64.332  1.00  0.00    -0.071 C  
HETATM   10  N   UNL     1      -9.814   6.527  66.970  1.00  0.00    -0.148 NA 
HETATM   11  C   UNL     1     -10.790   6.237  67.993  1.00  0.00    -0.326 C  
HETATM   12  N   UNL     1      -8.317   3.659  65.136  1.00  0.00    -0.097 N  
HETATM   13  C   UNL     1      -9.166   4.183  66.123  1.00  0.00    -0.150 C  
HETATM   14  O   UNL     1      -9.862   3.484  66.854  1.00  0.00    -0.105 OA 
BRANCH  12  15
HETATM   15  C   UNL     1      -8.344   2.214  64.916  1.00  0.00    -0.086 C  
HETATM   16  C   UNL     1      -9.407   1.773  63.921  1.00  0.00    -0.119 C  
ENDBRANCH  12  15
BRANCH   5  17
HETATM   17  C   UNL     1      -6.700   6.653  63.579  1.00  0.00    -0.048 C  
HETATM   18  C   UNL     1      -5.342   6.964  64.189  1.00  0.00    -0.028 C  
ENDBRANCH   5  17
ENDBRANCH   1   3
BRANCH   2  19
HETATM   19  C   UNL     1     -10.902  11.246  67.010  1.00  0.00    -0.332 A  
HETATM   20  C   UNL     1     -10.983  13.045  68.647  1.00  0.00    -0.297 A  
HETATM   21  C   UNL     1     -11.681  13.860  67.751  1.00  0.00    -0.366 A  
HETATM   22  C   UNL     1     -12.027  13.355  66.485  1.00  0.00    -0.400 A  
HETATM   23  C   UNL     1     -11.647  12.053  66.132  1.00  0.00    -0.371 A  
HETATM   24  C   UNL     1     -10.596  11.749  68.278  1.00  0.00    -0.236 A  
BRANCH  22  25
HETATM   25  O   UNL     1     -12.719  14.216  65.669  1.00  0.00    -0.514 OA 
HETATM   26  C   UNL     1     -12.144  14.563  64.418  1.00  0.00    -0.472 C  
ENDBRANCH  22  25
BRANCH  21  27
HETATM   27  O   UNL     1     -12.072  15.152  68.007  1.00  0.00    -0.192 OA 
HETATM   28  C   UNL     1     -11.103  16.058  68.509  1.00  0.00    -0.347 C  
ENDBRANCH  21  27
ENDBRANCH   2  19
TORSDOF 6
ENDMDL
MODEL       96
REMARK 921   NORMALIZED FREE ENERGY PREDICTED BY IDOCK:   -4.58 KCAL/MOL
REMARK 922        TOTAL FREE ENERGY PREDICTED BY IDOCK:   -6.48 KCAL/MOL
REMARK 923 INTER-LIGAND FREE ENERGY PREDICTED BY IDOCK:   -5.93 KCAL/MOL
REMARK 924 INTRA-LIGAND FREE ENERGY PREDICTED BY IDOCK:   -0.55 KCAL/MOL
REMARK 927      BINDING AFFINITY PREDICTED BY RF-SCORE:    0.00 PKD
ROOT
HETATM    1  C   UNL     1      -8.491  11.226  68.389  1.00  0.00    -0.153 C  
HETATM    2  C   UNL     1      -9.554  12.055  68.393  1.00  0.00    -0.190 C  
ENDROOT
BRANCH   1   3
HETATM    3  C   UNL     1      -8.651   9.899  68.889  1.00  0.00    -0.135 A  
HETATM    4  N   UNL     1      -9.582   9.016  68.566  1.00  0.00    -0.151 NA 
HETATM    5  N   UNL     1      -9.952   6.694  69.151  1.00  0.00    -0.154 N  
HETATM    6  O   UNL     1     -10.044   4.485  69.769  1.00  0.00    -0.229 OA 
HETATM    7  C   UNL     1      -9.261   7.878  69.230  1.00  0.00    -0.148 A  
HETATM    8  C   UNL     1      -8.144   8.028  69.992  1.00  0.00    -0.116 A  
HETATM    9  C   UNL     1      -9.494   5.586  69.864  1.00  0.00    -0.157 C  
HETATM   10  N   UNL     1      -7.751   9.330  69.790  1.00  0.00    -0.086 NA 
HETATM   11  C   UNL     1      -6.622   9.992  70.398  1.00  0.00    -0.132 C  
HETATM   12  N   UNL     1      -8.384   5.783  70.711  1.00  0.00    -0.122 N  
HETATM   13  C   UNL     1      -7.627   6.962  70.794  1.00  0.00    -0.091 C  
HETATM   14  O   UNL     1      -6.622   7.069  71.490  1.00  0.00    -0.047 OA 
BRANCH  12  15
HETATM   15  C   UNL     1      -7.997   4.667  71.572  1.00  0.00    -0.100 C  
HETATM   16  C   UNL     1      -8.666   4.696  72.938  1.00  0.00    -0.116 C  
ENDBRANCH  12  15
BRANCH   5  17
HETATM   17  C   UNL     1     -11.146   6.588  68.317  1.00  0.00    -0.243 C  
HETATM   18  C   UNL     1     -10.826   6.173  66.889  1.00  0.00    -0.411 C  
ENDBRANCH   5  17
ENDBRANCH   1   3
BRANCH   2  19
HETATM   19  C   UNL     1      -9.629  13.398  67.790  1.00  0.00    -0.213 A  
HETATM   20  C   UNL     1      -9.140  15.781  67.725  1.00  0.00    -0.188 A  
HETATM   21  C   UNL     1      -9.799  15.907  66.499  1.00  0.00    -0.261 A  
HETATM   22  C   UNL     1     -10.413  14.778  65.927  1.00  0.00    -0.312 A  
HETATM   23  C   UNL     1     -10.334  13.542  66.581  1.00  0.00    -0.271 A  
HETATM   24  C   UNL     1      -9.054  14.536  68.364  1.00  0.00    -0.191 A  
BRANCH  22  25
HETATM   25  O   UNL     1     -11.047  14.989  64.727  1.00  0.00    -0.387 OA 
HETATM   26  C   UNL     1     -12.235  14.259  64.458  1.00  0.00    -0.455 C  
ENDBRANCH  22  25
BRANCH  21  27
HETATM   27  O   UNL     1      -9.906  17.074  65.782  1.00  0.00    -0.525 OA 
HETATM   28  C   UNL     1      -9.696  18.300  66.463  1.00  0.00    -0.343 C  
ENDBRANCH  21  27
ENDBRANCH   2  19
TORSDOF 6
ENDMDL
MODEL       97
REMARK 921   NORMALIZED FREE ENERGY PREDICTED BY IDOCK:   -4.55 KCAL/MOL
REMARK 922        TOTAL FREE ENERGY PREDICTED BY IDOCK:   -6.45 KCAL/MOL
REMARK 923 INTER-LIGAND FREE ENERGY PREDICTED BY IDOCK:   -6.31 KCAL/MOL
REMARK 924 INTRA-LIGAND FREE ENERGY PREDICTED BY IDOCK:   -0.14 KCAL/MOL
REMARK 927      BINDING AFFINITY PREDICTED BY RF-SCORE:    0.00 PKD
ROOT
HETATM    1  C   UNL     1      -9.288   8.170  69.488  1.00  0.00    -0.155 C  
HETATM    2  C   UNL     1     -10.288   7.297  69.720  1.00  0.00    -0.227 C  
ENDROOT
BRANCH   1   3
HETATM    3  C   UNL     1      -9.537   9.292  68.642  1.00  0.00    -0.147 A  
HETATM    4  N   UNL     1      -9.071   9.509  67.422  1.00  0.00    -0.130 NA 
HETATM    5  N   UNL     1      -9.476  11.229  65.764  1.00  0.00    -0.221 N  
HETATM    6  O   UNL     1     -10.087  12.908  64.322  1.00  0.00    -0.339 OA 
HETATM    7  C   UNL     1      -9.657  10.656  66.998  1.00  0.00    -0.169 A  
HETATM    8  C   UNL     1     -10.481  11.188  67.942  1.00  0.00    -0.190 A  
HETATM    9  C   UNL     1     -10.168  12.397  65.443  1.00  0.00    -0.278 C  
HETATM   10  N   UNL     1     -10.400  10.325  69.009  1.00  0.00    -0.198 NA 
HETATM   11  C   UNL     1     -11.075  10.459  70.277  1.00  0.00    -0.307 C  
HETATM   12  N   UNL     1     -10.951  12.977  66.461  1.00  0.00    -0.282 N  
HETATM   13  C   UNL     1     -11.195  12.409  67.721  1.00  0.00    -0.275 C  
HETATM   14  O   UNL     1     -11.944  12.910  68.554  1.00  0.00    -0.309 OA 
BRANCH  12  15
HETATM   15  C   UNL     1     -11.554  14.278  66.177  1.00  0.00    -0.369 C  
HETATM   16  C   UNL     1     -12.908  14.181  65.489  1.00  0.00    -0.404 C  
ENDBRANCH  12  15
BRANCH   5  17
HETATM   17  C   UNL     1      -8.580  10.615  64.788  1.00  0.00    -0.130 C  
HETATM   18  C   UNL     1      -9.330   9.923  63.661  1.00  0.00    -0.242 C  
ENDBRANCH   5  17
ENDBRANCH   1   3
BRANCH   2  19
HETATM   19  C   UNL     1     -10.273   6.171  70.671  1.00  0.00    -0.250 A  
HETATM   20  C   UNL     1     -10.687   5.158  72.845  1.00  0.00    -0.300 A  
HETATM   21  C   UNL     1     -10.242   3.918  72.379  1.00  0.00    -0.157 A  
HETATM   22  C   UNL     1      -9.773   3.806  71.057  1.00  0.00    -0.178 A  
HETATM   23  C   UNL     1      -9.780   4.932  70.223  1.00  0.00    -0.287 A  
HETATM   24  C   UNL     1     -10.703   6.275  71.997  1.00  0.00    -0.268 A  
BRANCH  22  25
HETATM   25  O   UNL     1      -9.346   2.556  70.681  1.00  0.00    -0.122 OA 
HETATM   26  C   UNL     1      -9.310   2.249  69.295  1.00  0.00    -0.105 C  
ENDBRANCH  22  25
BRANCH  21  27
HETATM   27  O   UNL     1     -10.221   2.762  73.121  1.00  0.00    -0.120 OA 
HETATM   28  C   UNL     1     -10.418   2.862  74.522  1.00  0.00    -0.147 C  
ENDBRANCH  21  27
ENDBRANCH   2  19
TORSDOF 6
ENDMDL
MODEL       98
REMARK 921   NORMALIZED FREE ENERGY PREDICTED BY IDOCK:   -4.54 KCAL/MOL
REMARK 922        TOTAL FREE ENERGY PREDICTED BY IDOCK:   -6.44 KCAL/MOL
REMARK 923 INTER-LIGAND FREE ENERGY PREDICTED BY IDOCK:   -6.05 KCAL/MOL
REMARK 924 INTRA-LIGAND FREE ENERGY PREDICTED BY IDOCK:   -0.39 KCAL/MOL
REMARK 927      BINDING AFFINITY PREDICTED BY RF-SCORE:    0.00 PKD
ROOT
HETATM    1  C   UNL     1      -8.631  10.415  67.323  1.00  0.00    -0.126 C  
HETATM    2  C   UNL     1      -9.494   9.700  66.576  1.00  0.00    -0.233 C  
ENDROOT
BRANCH   1   3
HETATM    3  C   UNL     1      -8.765  11.835  67.361  1.00  0.00    -0.162 A  
HETATM    4  N   UNL     1      -9.865  12.542  67.566  1.00  0.00    -0.196 NA 
HETATM    5  N   UNL     1     -10.300  14.912  67.829  1.00  0.00    -0.243 N  
HETATM    6  O   UNL     1     -10.454  17.180  68.141  1.00  0.00    -0.330 OA 
HETATM    7  C   UNL     1      -9.472  13.839  67.603  1.00  0.00    -0.217 A  
HETATM    8  C   UNL     1      -8.133  13.974  67.404  1.00  0.00    -0.185 A  
HETATM    9  C   UNL     1      -9.758  16.196  67.874  1.00  0.00    -0.225 C  
HETATM   10  N   UNL     1      -7.670  12.691  67.233  1.00  0.00    -0.161 NA 
HETATM   11  C   UNL     1      -6.308  12.295  66.967  1.00  0.00    -0.050 C  
HETATM   12  N   UNL     1      -8.384  16.323  67.584  1.00  0.00    -0.159 N  
HETATM   13  C   UNL     1      -7.495  15.255  67.385  1.00  0.00    -0.209 C  
HETATM   14  O   UNL     1      -6.290  15.405  67.208  1.00  0.00    -0.305 OA 
BRANCH  12  15
HETATM   15  C   UNL     1      -7.849  17.679  67.480  1.00  0.00    -0.202 C  
HETATM   16  C   UNL     1      -7.483  18.079  66.057  1.00  0.00    -0.271 C  
ENDBRANCH  12  15
BRANCH   5  17
HETATM   17  C   UNL     1     -11.730  14.710  68.037  1.00  0.00    -0.342 C  
HETATM   18  C   UNL     1     -12.096  14.590  69.508  1.00  0.00    -0.348 C  
ENDBRANCH   5  17
ENDBRANCH   1   3
BRANCH   2  19
HETATM   19  C   UNL     1      -9.612   8.231  66.526  1.00  0.00    -0.312 A  
HETATM   20  C   UNL     1     -10.726   6.123  67.012  1.00  0.00    -0.423 A  
HETATM   21  C   UNL     1      -9.746   5.416  66.310  1.00  0.00    -0.162 A  
HETATM   22  C   UNL     1      -8.666   6.114  65.740  1.00  0.00    -0.145 A  
HETATM   23  C   UNL     1      -8.602   7.509  65.864  1.00  0.00    -0.165 A  
HETATM   24  C   UNL     1     -10.660   7.520  67.118  1.00  0.00    -0.415 A  
BRANCH  22  25
HETATM   25  O   UNL     1      -7.743   5.345  65.076  1.00  0.00    -0.080 OA 
HETATM   26  C   UNL     1      -6.760   6.004  64.292  1.00  0.00    -0.041 C  
ENDBRANCH  22  25
BRANCH  21  27
HETATM   27  O   UNL     1      -9.743   4.055  66.123  1.00  0.00    -0.190 OA 
HETATM   28  C   UNL     1      -9.440   3.227  67.234  1.00  0.00    -0.148 C  
ENDBRANCH  21  27
ENDBRANCH   2  19
TORSDOF 6
ENDMDL
MODEL       99
REMARK 921   NORMALIZED FREE ENERGY PREDICTED BY IDOCK:   -4.52 KCAL/MOL
REMARK 922        TOTAL FREE ENERGY PREDICTED BY IDOCK:   -6.40 KCAL/MOL
REMARK 923 INTER-LIGAND FREE ENERGY PREDICTED BY IDOCK:   -5.99 KCAL/MOL
REMARK 924 INTRA-LIGAND FREE ENERGY PREDICTED BY IDOCK:   -0.41 KCAL/MOL
REMARK 927      BINDING AFFINITY PREDICTED BY RF-SCORE:    0.00 PKD
ROOT
HETATM    1  C   UNL     1      -9.369   8.987  66.617  1.00  0.00    -0.229 C  
HETATM    2  C   UNL     1     -10.467   9.710  66.915  1.00  0.00    -0.282 C  
ENDROOT
BRANCH   1   3
HETATM    3  C   UNL     1      -9.224   7.687  67.187  1.00  0.00    -0.132 A  
HETATM    4  N   UNL     1      -9.687   7.253  68.349  1.00  0.00    -0.146 NA 
HETATM    5  N   UNL     1      -9.705   5.086  69.433  1.00  0.00    -0.166 N  
HETATM    6  O   UNL     1      -9.685   2.929  70.217  1.00  0.00    -0.118 OA 
HETATM    7  C   UNL     1      -9.377   5.935  68.404  1.00  0.00    -0.120 A  
HETATM    8  C   UNL     1      -8.702   5.521  67.297  1.00  0.00    -0.107 A  
HETATM    9  C   UNL     1      -9.351   3.739  69.348  1.00  0.00    -0.175 C  
HETATM   10  N   UNL     1      -8.586   6.645  66.514  1.00  0.00    -0.119 NA 
HETATM   11  C   UNL     1      -7.926   6.738  65.235  1.00  0.00    -0.127 C  
HETATM   12  N   UNL     1      -8.581   3.348  68.234  1.00  0.00    -0.089 N  
HETATM   13  C   UNL     1      -8.256   4.170  67.144  1.00  0.00    -0.100 C  
HETATM   14  O   UNL     1      -7.646   3.770  66.157  1.00  0.00    -0.085 OA 
BRANCH  12  15
HETATM   15  C   UNL     1      -8.082   1.974  68.220  1.00  0.00    -0.057 C  
HETATM   16  C   UNL     1      -6.712   1.822  68.866  1.00  0.00    -0.029 C  
ENDBRANCH  12  15
BRANCH   5  17
HETATM   17  C   UNL     1     -10.431   5.583  70.598  1.00  0.00    -0.272 C  
HETATM   18  C   UNL     1      -9.504   6.041  71.713  1.00  0.00    -0.165 C  
ENDBRANCH   5  17
ENDBRANCH   1   3
BRANCH   2  19
HETATM   19  C   UNL     1     -10.866  10.997  66.317  1.00  0.00    -0.234 A  
HETATM   20  C   UNL     1     -11.150  12.527  64.446  1.00  0.00    -0.383 A  
HETATM   21  C   UNL     1     -11.721  13.486  65.287  1.00  0.00    -0.322 A  
HETATM   22  C   UNL     1     -11.835  13.218  66.663  1.00  0.00    -0.395 A  
HETATM   23  C   UNL     1     -11.396  11.985  67.166  1.00  0.00    -0.396 A  
HETATM   24  C   UNL     1     -10.726  11.292  64.957  1.00  0.00    -0.322 A  
BRANCH  22  25
HETATM   25  O   UNL     1     -12.399  14.215  67.421  1.00  0.00    -0.317 OA 
HETATM   26  C   UNL     1     -11.535  15.153  68.045  1.00  0.00    -0.342 C  
ENDBRANCH  22  25
BRANCH  21  27
HETATM   27  O   UNL     1     -12.196  14.708  64.875  1.00  0.00    -0.401 OA 
HETATM   28  C   UNL     1     -11.255  15.728  64.585  1.00  0.00    -0.363 C  
ENDBRANCH  21  27
ENDBRANCH   2  19
TORSDOF 6
ENDMDL
MODEL      100
REMARK 921   NORMALIZED FREE ENERGY PREDICTED BY IDOCK:   -4.47 KCAL/MOL
REMARK 922        TOTAL FREE ENERGY PREDICTED BY IDOCK:   -6.34 KCAL/MOL
REMARK 923 INTER-LIGAND FREE ENERGY PREDICTED BY IDOCK:   -6.16 KCAL/MOL
REMARK 924 INTRA-LIGAND FREE ENERGY PREDICTED BY IDOCK:   -0.18 KCAL/MOL
REMARK 927      BINDING AFFINITY PREDICTED BY RF-SCORE:    0.00 PKD
ROOT
HETATM    1  C   UNL     1     -10.901   8.155  68.862  1.00  0.00     0.004 C  
HETATM    2  C   UNL     1      -9.714   7.641  69.238  1.00  0.00    -0.164 C  
ENDROOT
BRANCH   1   3
HETATM    3  C   UNL     1     -11.007   9.562  68.652  1.00  0.00    -0.072 A  
HETATM    4  N   UNL     1     -10.807  10.233  67.529  1.00  0.00    -0.295 NA 
HETATM    5  N   UNL     1     -11.080  12.559  66.905  1.00  0.00    -0.265 N  
HETATM    6  O   UNL     1     -11.503  14.782  66.522  1.00  0.00    -0.352 OA 
HETATM    7  C   UNL     1     -11.117  11.524  67.806  1.00  0.00    -0.260 A  
HETATM    8  C   UNL     1     -11.496  11.691  69.103  1.00  0.00    -0.300 A  
HETATM    9  C   UNL     1     -11.456  13.838  67.316  1.00  0.00    -0.341 C  
HETATM   10  N   UNL     1     -11.415  10.437  69.659  1.00  0.00    -0.259 NA 
HETATM   11  C   UNL     1     -11.695  10.084  71.030  1.00  0.00    -0.392 C  
HETATM   12  N   UNL     1     -11.766  14.007  68.680  1.00  0.00    -0.332 N  
HETATM   13  C   UNL     1     -11.853  12.974  69.627  1.00  0.00    -0.319 C  
HETATM   14  O   UNL     1     -12.199  13.154  70.791  1.00  0.00    -0.361 OA 
BRANCH  12  15
HETATM   15  C   UNL     1     -12.012  15.372  69.142  1.00  0.00    -0.299 C  
HETATM   16  C   UNL     1     -10.828  15.985  69.877  1.00  0.00    -0.351 C  
ENDBRANCH  12  15
BRANCH   5  17
HETATM   17  C   UNL     1     -10.666  12.323  65.525  1.00  0.00    -0.279 C  
HETATM   18  C   UNL     1     -11.791  12.558  64.529  1.00  0.00    -0.448 C  
ENDBRANCH   5  17
ENDBRANCH   1   3
BRANCH   2  19
HETATM   19  C   UNL     1      -9.368   6.213  69.359  1.00  0.00    -0.147 A  
HETATM   20  C   UNL     1      -9.334   3.912  68.568  1.00  0.00    -0.224 A  
HETATM   21  C   UNL     1      -8.596   3.513  69.686  1.00  0.00    -0.067 A  
HETATM   22  C   UNL     1      -8.270   4.462  70.672  1.00  0.00    -0.071 A  
HETATM   23  C   UNL     1      -8.669   5.796  70.506  1.00  0.00    -0.140 A  
HETATM   24  C   UNL     1      -9.716   5.251  68.405  1.00  0.00    -0.189 A  
BRANCH  22  25
HETATM   25  O   UNL     1      -7.552   3.988  71.742  1.00  0.00    -0.058 OA 
HETATM   26  C   UNL     1      -8.218   3.849  72.988  1.00  0.00    -0.088 C  
ENDBRANCH  22  25
BRANCH  21  27
HETATM   27  O   UNL     1      -8.148   2.235  69.915  1.00  0.00    -0.042 OA 
HETATM   28  C   UNL     1      -7.688   1.478  68.808  1.00  0.00    -0.046 C  
ENDBRANCH  21  27
ENDBRANCH   2  19
TORSDOF 6
ENDMDL
MODEL      101
REMARK 921   NORMALIZED FREE ENERGY PREDICTED BY IDOCK:   -4.47 KCAL/MOL
REMARK 922        TOTAL FREE ENERGY PREDICTED BY IDOCK:   -6.34 KCAL/MOL
REMARK 923 INTER-LIGAND FREE ENERGY PREDICTED BY IDOCK:   -5.94 KCAL/MOL
REMARK 924 INTRA-LIGAND FREE ENERGY PREDICTED BY IDOCK:   -0.39 KCAL/MOL
REMARK 927      BINDING AFFINITY PREDICTED BY RF-SCORE:    0.00 PKD
ROOT
HETATM    1  C   UNL     1     -10.479  10.187  67.885  1.00  0.00    -0.265 C  
HETATM    2  C   UNL     1      -9.654  11.210  68.185  1.00  0.00    -0.181 C  
ENDROOT
BRANCH   1   3
HETATM    3  C   UNL     1     -10.183   8.890  68.402  1.00  0.00    -0.199 A  
HETATM    4  N   UNL     1     -10.516   8.391  69.582  1.00  0.00    -0.220 NA 
HETATM    5  N   UNL     1     -10.270   6.204  70.596  1.00  0.00    -0.192 N  
HETATM    6  O   UNL     1     -10.012   4.038  71.310  1.00  0.00    -0.185 OA 
HETATM    7  C   UNL     1     -10.095   7.102  69.572  1.00  0.00    -0.179 A  
HETATM    8  C   UNL     1      -9.479   6.774  68.404  1.00  0.00    -0.126 A  
HETATM    9  C   UNL     1      -9.815   4.894  70.443  1.00  0.00    -0.232 C  
HETATM   10  N   UNL     1      -9.518   7.922  67.650  1.00  0.00    -0.142 NA 
HETATM   11  C   UNL     1      -8.971   8.102  66.326  1.00  0.00    -0.177 C  
HETATM   12  N   UNL     1      -9.107   4.596  69.261  1.00  0.00    -0.101 N  
HETATM   13  C   UNL     1      -8.937   5.469  68.175  1.00  0.00    -0.108 C  
HETATM   14  O   UNL     1      -8.377   5.146  67.132  1.00  0.00    -0.107 OA 
BRANCH  12  15
HETATM   15  C   UNL     1      -8.499   3.270  69.166  1.00  0.00    -0.063 C  
HETATM   16  C   UNL     1      -9.429   2.219  68.576  1.00  0.00    -0.213 C  
ENDBRANCH  12  15
BRANCH   5  17
HETATM   17  C   UNL     1     -10.939   6.609  71.829  1.00  0.00    -0.240 C  
HETATM   18  C   UNL     1     -12.443   6.756  71.656  1.00  0.00    -0.398 C  
ENDBRANCH   5  17
ENDBRANCH   1   3
BRANCH   2  19
HETATM   19  C   UNL     1      -9.866  12.635  67.874  1.00  0.00    -0.218 A  
HETATM   20  C   UNL     1      -9.310  14.999  68.031  1.00  0.00    -0.185 A  
HETATM   21  C   UNL     1     -10.349  15.326  67.156  1.00  0.00    -0.265 A  
HETATM   22  C   UNL     1     -11.182  14.306  66.661  1.00  0.00    -0.334 A  
HETATM   23  C   UNL     1     -10.942  12.976  67.034  1.00  0.00    -0.289 A  
HETATM   24  C   UNL     1      -9.070  13.664  68.386  1.00  0.00    -0.165 A  
BRANCH  22  25
HETATM   25  O   UNL     1     -12.184  14.712  65.814  1.00  0.00    -0.282 OA 
HETATM   26  C   UNL     1     -12.989  13.716  65.201  1.00  0.00    -0.221 C  
ENDBRANCH  22  25
BRANCH  21  27
HETATM   27  O   UNL     1     -10.641  16.597  66.723  1.00  0.00    -0.293 OA 
HETATM   28  C   UNL     1     -10.594  17.653  67.669  1.00  0.00    -0.362 C  
ENDBRANCH  21  27
ENDBRANCH   2  19
TORSDOF 6
ENDMDL
MODEL      102
REMARK 921   NORMALIZED FREE ENERGY PREDICTED BY IDOCK:   -4.46 KCAL/MOL
REMARK 922        TOTAL FREE ENERGY PREDICTED BY IDOCK:   -6.32 KCAL/MOL
REMARK 923 INTER-LIGAND FREE ENERGY PREDICTED BY IDOCK:   -5.78 KCAL/MOL
REMARK 924 INTRA-LIGAND FREE ENERGY PREDICTED BY IDOCK:   -0.54 KCAL/MOL
REMARK 927      BINDING AFFINITY PREDICTED BY RF-SCORE:    0.00 PKD
ROOT
HETATM    1  C   UNL     1      -8.048  14.501  68.109  1.00  0.00    -0.137 C  
HETATM    2  C   UNL     1      -8.282  15.172  66.964  1.00  0.00    -0.262 C  
ENDROOT
BRANCH   1   3
HETATM    3  C   UNL     1      -8.352  13.108  68.166  1.00  0.00    -0.161 A  
HETATM    4  N   UNL     1      -9.492  12.540  68.527  1.00  0.00    -0.150 NA 
HETATM    5  N   UNL     1     -10.278  10.247  68.548  1.00  0.00    -0.165 N  
HETATM    6  O   UNL     1     -10.832   8.026  68.389  1.00  0.00    -0.074 OA 
HETATM    7  C   UNL     1      -9.323  11.209  68.329  1.00  0.00    -0.176 A  
HETATM    8  C   UNL     1      -8.078  10.915  67.864  1.00  0.00    -0.113 A  
HETATM    9  C   UNL     1      -9.982   8.913  68.272  1.00  0.00    -0.175 C  
HETATM   10  N   UNL     1      -7.441  12.130  67.768  1.00  0.00    -0.111 NA 
HETATM   11  C   UNL     1      -6.082  12.358  67.342  1.00  0.00    -0.158 C  
HETATM   12  N   UNL     1      -8.663   8.619  67.870  1.00  0.00    -0.137 N  
HETATM   13  C   UNL     1      -7.667   9.570  67.598  1.00  0.00    -0.095 C  
HETATM   14  O   UNL     1      -6.552   9.277  67.178  1.00  0.00    -0.066 OA 
BRANCH  12  15
HETATM   15  C   UNL     1      -8.309   7.208  67.728  1.00  0.00    -0.118 C  
HETATM   16  C   UNL     1      -7.758   6.591  69.006  1.00  0.00    -0.109 C  
ENDBRANCH  12  15
BRANCH   5  17
HETATM   17  C   UNL     1     -11.599  10.618  69.048  1.00  0.00    -0.261 C  
HETATM   18  C   UNL     1     -11.658  10.660  70.567  1.00  0.00    -0.444 C  
ENDBRANCH   5  17
ENDBRANCH   1   3
BRANCH   2  19
HETATM   19  C   UNL     1      -7.901  16.563  66.662  1.00  0.00    -0.321 A  
HETATM   20  C   UNL     1      -6.290  18.307  66.126  1.00  0.00    -0.252 A  
HETATM   21  C   UNL     1      -7.312  19.257  66.040  1.00  0.00    -0.279 A  
HETATM   22  C   UNL     1      -8.638  18.870  66.302  1.00  0.00    -0.257 A  
HETATM   23  C   UNL     1      -8.918  17.534  66.623  1.00  0.00    -0.283 A  
HETATM   24  C   UNL     1      -6.583  16.971  66.434  1.00  0.00    -0.201 A  
BRANCH  22  25
HETATM   25  O   UNL     1      -9.580  19.865  66.205  1.00  0.00    -0.390 OA 
HETATM   26  C   UNL     1     -10.727  19.787  67.038  1.00  0.00    -0.418 C  
ENDBRANCH  22  25
BRANCH  21  27
HETATM   27  O   UNL     1      -7.129  20.579  65.712  1.00  0.00    -0.225 OA 
HETATM   28  C   UNL     1      -5.807  21.094  65.722  1.00  0.00    -0.244 C  
ENDBRANCH  21  27
ENDBRANCH   2  19
TORSDOF 6
ENDMDL
MODEL      103
REMARK 921   NORMALIZED FREE ENERGY PREDICTED BY IDOCK:   -4.39 KCAL/MOL
REMARK 922        TOTAL FREE ENERGY PREDICTED BY IDOCK:   -6.22 KCAL/MOL
REMARK 923 INTER-LIGAND FREE ENERGY PREDICTED BY IDOCK:   -5.66 KCAL/MOL
REMARK 924 INTRA-LIGAND FREE ENERGY PREDICTED BY IDOCK:   -0.56 KCAL/MOL
REMARK 927      BINDING AFFINITY PREDICTED BY RF-SCORE:    0.00 PKD
ROOT
HETATM    1  C   UNL     1      -8.313  12.170  68.125  1.00  0.00    -0.170 C  
HETATM    2  C   UNL     1      -7.872  11.677  66.951  1.00  0.00    -0.156 C  
ENDROOT
BRANCH   1   3
HETATM    3  C   UNL     1      -8.371  13.585  68.300  1.00  0.00    -0.165 A  
HETATM    4  N   UNL     1      -7.364  14.421  68.496  1.00  0.00    -0.114 NA 
HETATM    5  N   UNL     1      -7.206  16.834  68.656  1.00  0.00    -0.195 N  
HETATM    6  O   UNL     1      -7.291  19.127  68.680  1.00  0.00    -0.301 OA 
HETATM    7  C   UNL     1      -7.908  15.662  68.511  1.00  0.00    -0.133 A  
HETATM    8  C   UNL     1      -9.259  15.630  68.347  1.00  0.00    -0.191 A  
HETATM    9  C   UNL     1      -7.889  18.049  68.622  1.00  0.00    -0.290 C  
HETATM   10  N   UNL     1      -9.568  14.296  68.224  1.00  0.00    -0.215 NA 
HETATM   11  C   UNL     1     -10.884  13.730  68.054  1.00  0.00    -0.249 C  
HETATM   12  N   UNL     1      -9.295  17.992  68.534  1.00  0.00    -0.300 N  
HETATM   13  C   UNL     1     -10.049  16.823  68.347  1.00  0.00    -0.285 C  
HETATM   14  O   UNL     1     -11.268  16.823  68.201  1.00  0.00    -0.325 OA 
BRANCH  12  15
HETATM   15  C   UNL     1     -10.021  19.255  68.651  1.00  0.00    -0.431 C  
HETATM   16  C   UNL     1     -10.329  19.904  67.309  1.00  0.00    -0.574 C  
ENDBRANCH  12  15
BRANCH   5  17
HETATM   17  C   UNL     1      -5.757  16.810  68.829  1.00  0.00    -0.136 C  
HETATM   18  C   UNL     1      -5.343  16.771  70.291  1.00  0.00    -0.209 C  
ENDBRANCH   5  17
ENDBRANCH   1   3
BRANCH   2  19
HETATM   19  C   UNL     1      -7.879  10.265  66.527  1.00  0.00    -0.116 A  
HETATM   20  C   UNL     1      -8.104   7.877  66.933  1.00  0.00    -0.115 A  
HETATM   21  C   UNL     1      -7.921   7.604  65.574  1.00  0.00    -0.120 A  
HETATM   22  C   UNL     1      -7.678   8.666  64.684  1.00  0.00    -0.121 A  
HETATM   23  C   UNL     1      -7.646   9.981  65.169  1.00  0.00    -0.138 A  
HETATM   24  C   UNL     1      -8.084   9.197  67.405  1.00  0.00    -0.107 A  
BRANCH  22  25
HETATM   25  O   UNL     1      -7.501   8.313  63.369  1.00  0.00    -0.106 OA 
HETATM   26  C   UNL     1      -8.525   8.643  62.442  1.00  0.00    -0.194 C  
ENDBRANCH  22  25
BRANCH  21  27
HETATM   27  O   UNL     1      -7.959   6.351  65.013  1.00  0.00    -0.109 OA 
HETATM   28  C   UNL     1      -8.995   5.469  65.412  1.00  0.00    -0.099 C  
ENDBRANCH  21  27
ENDBRANCH   2  19
TORSDOF 6
ENDMDL
MODEL      104
REMARK 921   NORMALIZED FREE ENERGY PREDICTED BY IDOCK:   -4.36 KCAL/MOL
REMARK 922        TOTAL FREE ENERGY PREDICTED BY IDOCK:   -6.19 KCAL/MOL
REMARK 923 INTER-LIGAND FREE ENERGY PREDICTED BY IDOCK:   -5.65 KCAL/MOL
REMARK 924 INTRA-LIGAND FREE ENERGY PREDICTED BY IDOCK:   -0.55 KCAL/MOL
REMARK 927      BINDING AFFINITY PREDICTED BY RF-SCORE:    0.00 PKD
ROOT
HETATM    1  C   UNL     1      -8.001  13.918  68.099  1.00  0.00    -0.148 C  
HETATM    2  C   UNL     1      -8.228  14.629  66.977  1.00  0.00    -0.188 C  
ENDROOT
BRANCH   1   3
HETATM    3  C   UNL     1      -8.225  12.509  68.080  1.00  0.00    -0.166 A  
HETATM    4  N   UNL     1      -7.347  11.550  67.833  1.00  0.00    -0.089 NA 
HETATM    5  N   UNL     1      -7.457   9.130  67.901  1.00  0.00    -0.084 N  
HETATM    6  O   UNL     1      -7.773   6.868  68.125  1.00  0.00    -0.108 OA 
HETATM    7  C   UNL     1      -8.009  10.382  68.022  1.00  0.00    -0.105 A  
HETATM    8  C   UNL     1      -9.310  10.582  68.368  1.00  0.00    -0.158 A  
HETATM    9  C   UNL     1      -8.245   8.008  68.155  1.00  0.00    -0.126 C  
HETATM   10  N   UNL     1      -9.462  11.948  68.395  1.00  0.00    -0.202 NA 
HETATM   11  C   UNL     1     -10.675  12.672  68.689  1.00  0.00    -0.242 C  
HETATM   12  N   UNL     1      -9.609   8.232  68.432  1.00  0.00    -0.143 N  
HETATM   13  C   UNL     1     -10.207   9.491  68.601  1.00  0.00    -0.195 C  
HETATM   14  O   UNL     1     -11.383   9.642  68.915  1.00  0.00    -0.044 OA 
BRANCH  12  15
HETATM   15  C   UNL     1     -10.467   7.054  68.547  1.00  0.00    -0.200 C  
HETATM   16  C   UNL     1     -11.042   6.591  67.216  1.00  0.00    -0.429 C  
ENDBRANCH  12  15
BRANCH   5  17
HETATM   17  C   UNL     1      -6.055   8.974  67.527  1.00  0.00    -0.051 C  
HETATM   18  C   UNL     1      -5.125   8.975  68.730  1.00  0.00    -0.034 C  
ENDBRANCH   5  17
ENDBRANCH   1   3
BRANCH   2  19
HETATM   19  C   UNL     1      -7.916  16.053  66.756  1.00  0.00    -0.302 A  
HETATM   20  C   UNL     1      -6.395  17.946  66.604  1.00  0.00    -0.218 A  
HETATM   21  C   UNL     1      -7.448  18.795  66.254  1.00  0.00    -0.262 A  
HETATM   22  C   UNL     1      -8.756  18.281  66.188  1.00  0.00    -0.094 A  
HETATM   23  C   UNL     1      -8.979  16.923  66.451  1.00  0.00    -0.317 A  
HETATM   24  C   UNL     1      -6.627  16.585  66.852  1.00  0.00    -0.212 A  
BRANCH  22  25
HETATM   25  O   UNL     1      -9.734  19.182  65.846  1.00  0.00    -0.453 OA 
HETATM   26  C   UNL     1     -10.712  19.514  66.820  1.00  0.00    -0.460 C  
ENDBRANCH  22  25
BRANCH  21  27
HETATM   27  O   UNL     1      -7.315  20.130  65.959  1.00  0.00    -0.289 OA 
HETATM   28  C   UNL     1      -6.870  21.001  66.987  1.00  0.00    -0.328 C  
ENDBRANCH  21  27
ENDBRANCH   2  19
TORSDOF 6
ENDMDL
MODEL      105
REMARK 921   NORMALIZED FREE ENERGY PREDICTED BY IDOCK:   -4.35 KCAL/MOL
REMARK 922        TOTAL FREE ENERGY PREDICTED BY IDOCK:   -6.17 KCAL/MOL
REMARK 923 INTER-LIGAND FREE ENERGY PREDICTED BY IDOCK:   -6.49 KCAL/MOL
REMARK 924 INTRA-LIGAND FREE ENERGY PREDICTED BY IDOCK:    0.31 KCAL/MOL
REMARK 927      BINDING AFFINITY PREDICTED BY RF-SCORE:    0.00 PKD
ROOT
HETATM    1  C   UNL     1     -10.154   8.708  66.469  1.00  0.00    -0.339 C  
HETATM    2  C   UNL     1     -10.091   7.517  67.097  1.00  0.00    -0.317 C  
ENDROOT
BRANCH   1   3
HETATM    3  C   UNL     1     -10.632   9.843  67.191  1.00  0.00    -0.228 A  
HETATM    4  N   UNL     1     -11.023   9.897  68.454  1.00  0.00    -0.217 NA 
HETATM    5  N   UNL     1     -11.707  11.707  69.913  1.00  0.00    -0.331 N  
HETATM    6  O   UNL     1     -12.227  13.585  71.126  1.00  0.00    -0.330 OA 
HETATM    7  C   UNL     1     -11.298  11.201  68.703  1.00  0.00    -0.277 A  
HETATM    8  C   UNL     1     -11.106  11.982  67.606  1.00  0.00    -0.264 A  
HETATM    9  C   UNL     1     -11.925  13.079  70.041  1.00  0.00    -0.312 C  
HETATM   10  N   UNL     1     -10.691  11.116  66.623  1.00  0.00    -0.268 NA 
HETATM   11  C   UNL     1     -10.377  11.452  65.255  1.00  0.00    -0.282 C  
HETATM   12  N   UNL     1     -11.801  13.859  68.874  1.00  0.00    -0.340 N  
HETATM   13  C   UNL     1     -11.351  13.393  67.629  1.00  0.00    -0.290 C  
HETATM   14  O   UNL     1     -11.186  14.121  66.656  1.00  0.00    -0.309 OA 
BRANCH  12  15
HETATM   15  C   UNL     1     -12.177  15.269  68.973  1.00  0.00    -0.124 C  
HETATM   16  C   UNL     1     -11.070  16.153  69.530  1.00  0.00    -0.344 C  
ENDBRANCH  12  15
BRANCH   5  17
HETATM   17  C   UNL     1     -11.897  10.823  71.058  1.00  0.00    -0.247 C  
HETATM   18  C   UNL     1     -13.156  11.148  71.846  1.00  0.00    -0.513 C  
ENDBRANCH   5  17
ENDBRANCH   1   3
BRANCH   2  19
HETATM   19  C   UNL     1      -9.494   6.275  66.575  1.00  0.00    -0.181 A  
HETATM   20  C   UNL     1      -9.385   3.857  66.319  1.00  0.00    -0.186 A  
HETATM   21  C   UNL     1      -8.285   3.973  65.465  1.00  0.00    -0.105 A  
HETATM   22  C   UNL     1      -7.758   5.248  65.188  1.00  0.00    -0.085 A  
HETATM   23  C   UNL     1      -8.356   6.382  65.755  1.00  0.00    -0.146 A  
HETATM   24  C   UNL     1      -9.985   4.999  66.869  1.00  0.00    -0.238 A  
BRANCH  22  25
HETATM   25  O   UNL     1      -6.672   5.274  64.347  1.00  0.00    -0.044 OA 
HETATM   26  C   UNL     1      -5.376   5.229  64.924  1.00  0.00    -0.013 C  
ENDBRANCH  22  25
BRANCH  21  27
HETATM   27  O   UNL     1      -7.653   2.919  64.852  1.00  0.00    -0.074 OA 
HETATM   28  C   UNL     1      -8.446   1.988  64.134  1.00  0.00    -0.082 C  
ENDBRANCH  21  27
ENDBRANCH   2  19
TORSDOF 6
ENDMDL
MODEL      106
REMARK 921   NORMALIZED FREE ENERGY PREDICTED BY IDOCK:   -4.35 KCAL/MOL
REMARK 922        TOTAL FREE ENERGY PREDICTED BY IDOCK:   -6.17 KCAL/MOL
REMARK 923 INTER-LIGAND FREE ENERGY PREDICTED BY IDOCK:   -5.74 KCAL/MOL
REMARK 924 INTRA-LIGAND FREE ENERGY PREDICTED BY IDOCK:   -0.43 KCAL/MOL
REMARK 927      BINDING AFFINITY PREDICTED BY RF-SCORE:    0.00 PKD
ROOT
HETATM    1  C   UNL     1      -9.271   8.382  67.047  1.00  0.00    -0.186 C  
HETATM    2  C   UNL     1     -10.012   7.311  67.393  1.00  0.00    -0.228 C  
ENDROOT
BRANCH   1   3
HETATM    3  C   UNL     1      -9.929   9.624  66.802  1.00  0.00    -0.227 A  
HETATM    4  N   UNL     1     -10.593  10.376  67.666  1.00  0.00    -0.236 NA 
HETATM    5  N   UNL     1     -11.635  12.559  67.521  1.00  0.00    -0.341 N  
HETATM    6  O   UNL     1     -12.465  14.670  67.172  1.00  0.00    -0.093 OA 
HETATM    7  C   UNL     1     -10.952  11.493  66.987  1.00  0.00    -0.294 A  
HETATM    8  C   UNL     1     -10.542  11.458  65.690  1.00  0.00    -0.258 A  
HETATM    9  C   UNL     1     -11.914  13.664  66.717  1.00  0.00    -0.414 C  
HETATM   10  N   UNL     1      -9.894  10.253  65.558  1.00  0.00    -0.262 NA 
HETATM   11  C   UNL     1      -9.292   9.727  64.356  1.00  0.00    -0.215 C  
HETATM   12  N   UNL     1     -11.554  13.574  65.357  1.00  0.00    -0.310 N  
HETATM   13  C   UNL     1     -10.824  12.524  64.778  1.00  0.00    -0.298 C  
HETATM   14  O   UNL     1     -10.466  12.519  63.604  1.00  0.00    -0.425 OA 
BRANCH  12  15
HETATM   15  C   UNL     1     -11.981  14.665  64.482  1.00  0.00    -0.460 C  
HETATM   16  C   UNL     1     -11.068  15.882  64.542  1.00  0.00    -0.285 C  
ENDBRANCH  12  15
BRANCH   5  17
HETATM   17  C   UNL     1     -12.052  12.544  68.920  1.00  0.00    -0.122 C  
HETATM   18  C   UNL     1     -11.067  13.261  69.830  1.00  0.00     0.083 C  
ENDBRANCH   5  17
ENDBRANCH   1   3
BRANCH   2  19
HETATM   19  C   UNL     1      -9.511   5.994  67.827  1.00  0.00    -0.112 A  
HETATM   20  C   UNL     1      -8.305   3.908  67.485  1.00  0.00    -0.096 A  
HETATM   21  C   UNL     1      -8.562   3.516  68.801  1.00  0.00    -0.087 A  
HETATM   22  C   UNL     1      -9.332   4.350  69.632  1.00  0.00    -0.158 A  
HETATM   23  C   UNL     1      -9.809   5.571  69.135  1.00  0.00    -0.227 A  
HETATM   24  C   UNL     1      -8.775   5.138  67.002  1.00  0.00    -0.103 A  
BRANCH  22  25
HETATM   25  O   UNL     1      -9.546   3.888  70.908  1.00  0.00    -0.163 OA 
HETATM   26  C   UNL     1      -9.504   4.822  71.976  1.00  0.00    -0.141 C  
ENDBRANCH  22  25
BRANCH  21  27
HETATM   27  O   UNL     1      -8.117   2.349  69.374  1.00  0.00    -0.045 OA 
HETATM   28  C   UNL     1      -7.232   1.531  68.626  1.00  0.00    -0.039 C  
ENDBRANCH  21  27
ENDBRANCH   2  19
TORSDOF 6
ENDMDL
MODEL      107
REMARK 921   NORMALIZED FREE ENERGY PREDICTED BY IDOCK:   -4.35 KCAL/MOL
REMARK 922        TOTAL FREE ENERGY PREDICTED BY IDOCK:   -6.17 KCAL/MOL
REMARK 923 INTER-LIGAND FREE ENERGY PREDICTED BY IDOCK:   -5.63 KCAL/MOL
REMARK 924 INTRA-LIGAND FREE ENERGY PREDICTED BY IDOCK:   -0.54 KCAL/MOL
REMARK 927      BINDING AFFINITY PREDICTED BY RF-SCORE:    0.00 PKD
ROOT
HETATM    1  C   UNL     1      -9.616  10.644  68.655  1.00  0.00    -0.179 C  
HETATM    2  C   UNL     1     -10.103  10.369  69.881  1.00  0.00    -0.144 C  
ENDROOT
BRANCH   1   3
HETATM    3  C   UNL     1      -9.302  11.997  68.327  1.00  0.00    -0.197 A  
HETATM    4  N   UNL     1     -10.110  13.044  68.340  1.00  0.00    -0.234 NA 
HETATM    5  N   UNL     1      -9.770  15.417  67.984  1.00  0.00    -0.207 N  
HETATM    6  O   UNL     1      -9.191  17.620  67.703  1.00  0.00    -0.242 OA 
HETATM    7  C   UNL     1      -9.334  14.116  68.044  1.00  0.00    -0.203 A  
HETATM    8  C   UNL     1      -8.039  13.764  67.821  1.00  0.00    -0.176 A  
HETATM    9  C   UNL     1      -8.856  16.432  67.699  1.00  0.00    -0.188 C  
HETATM   10  N   UNL     1      -8.010  12.400  67.987  1.00  0.00    -0.144 NA 
HETATM   11  C   UNL     1      -6.863  11.538  67.836  1.00  0.00    -0.073 C  
HETATM   12  N   UNL     1      -7.538  16.039  67.391  1.00  0.00    -0.154 N  
HETATM   13  C   UNL     1      -7.041  14.730  67.475  1.00  0.00    -0.184 C  
HETATM   14  O   UNL     1      -5.866  14.440  67.270  1.00  0.00    -0.293 OA 
BRANCH  12  15
HETATM   15  C   UNL     1      -6.619  17.086  66.944  1.00  0.00    -0.216 C  
HETATM   16  C   UNL     1      -5.830  17.723  68.078  1.00  0.00    -0.156 C  
ENDBRANCH  12  15
BRANCH   5  17
HETATM   17  C   UNL     1     -11.172  15.739  68.233  1.00  0.00    -0.356 C  
HETATM   18  C   UNL     1     -11.455  16.024  69.700  1.00  0.00    -0.326 C  
ENDBRANCH   5  17
ENDBRANCH   1   3
BRANCH   2  19
HETATM   19  C   UNL     1     -10.345   9.033  70.456  1.00  0.00    -0.266 A  
HETATM   20  C   UNL     1     -11.629   6.983  70.722  1.00  0.00    -0.381 A  
HETATM   21  C   UNL     1     -10.662   6.461  71.585  1.00  0.00    -0.232 A  
HETATM   22  C   UNL     1      -9.541   7.243  71.919  1.00  0.00    -0.148 A  
HETATM   23  C   UNL     1      -9.400   8.522  71.363  1.00  0.00    -0.274 A  
HETATM   24  C   UNL     1     -11.471   8.258  70.161  1.00  0.00     0.010 A  
BRANCH  22  25
HETATM   25  O   UNL     1      -8.642   6.660  72.779  1.00  0.00    -0.123 OA 
HETATM   26  C   UNL     1      -8.583   7.140  74.113  1.00  0.00    -0.191 C  
ENDBRANCH  22  25
BRANCH  21  27
HETATM   27  O   UNL     1     -10.711   5.212  72.156  1.00  0.00    -0.219 OA 
HETATM   28  C   UNL     1     -11.718   4.956  73.121  1.00  0.00    -0.131 C  
ENDBRANCH  21  27
ENDBRANCH   2  19
TORSDOF 6
ENDMDL
MODEL      108
REMARK 921   NORMALIZED FREE ENERGY PREDICTED BY IDOCK:   -4.33 KCAL/MOL
REMARK 922        TOTAL FREE ENERGY PREDICTED BY IDOCK:   -6.15 KCAL/MOL
REMARK 923 INTER-LIGAND FREE ENERGY PREDICTED BY IDOCK:   -5.61 KCAL/MOL
REMARK 924 INTRA-LIGAND FREE ENERGY PREDICTED BY IDOCK:   -0.54 KCAL/MOL
REMARK 927      BINDING AFFINITY PREDICTED BY RF-SCORE:    0.00 PKD
ROOT
HETATM    1  C   UNL     1     -10.287   8.782  67.297  1.00  0.00    -0.360 C  
HETATM    2  C   UNL     1      -9.895   9.605  66.305  1.00  0.00    -0.323 C  
ENDROOT
BRANCH   1   3
HETATM    3  C   UNL     1      -9.395   7.759  67.737  1.00  0.00    -0.143 A  
HETATM    4  N   UNL     1      -8.227   7.905  68.342  1.00  0.00    -0.123 NA 
HETATM    5  N   UNL     1      -6.643   6.345  69.307  1.00  0.00    -0.043 N  
HETATM    6  O   UNL     1      -5.345   4.695  70.234  1.00  0.00    -0.003 OA 
HETATM    7  C   UNL     1      -7.804   6.652  68.641  1.00  0.00    -0.114 A  
HETATM    8  C   UNL     1      -8.680   5.701  68.216  1.00  0.00    -0.106 A  
HETATM    9  C   UNL     1      -6.342   5.010  69.580  1.00  0.00    -0.034 C  
HETATM   10  N   UNL     1      -9.701   6.403  67.620  1.00  0.00    -0.117 NA 
HETATM   11  C   UNL     1     -10.872   5.848  66.986  1.00  0.00    -0.295 C  
HETATM   12  N   UNL     1      -7.220   4.037  69.059  1.00  0.00    -0.053 N  
HETATM   13  C   UNL     1      -8.433   4.304  68.407  1.00  0.00    -0.092 C  
HETATM   14  O   UNL     1      -9.206   3.427  68.034  1.00  0.00    -0.153 OA 
BRANCH  12  15
HETATM   15  C   UNL     1      -6.826   2.637  69.212  1.00  0.00    -0.033 C  
HETATM   16  C   UNL     1      -6.017   2.105  68.038  1.00  0.00    -0.024 C  
ENDBRANCH  12  15
BRANCH   5  17
HETATM   17  C   UNL     1      -5.739   7.405  69.742  1.00  0.00    -0.023 C  
HETATM   18  C   UNL     1      -5.951   7.794  71.197  1.00  0.00    -0.034 C  
ENDBRANCH   5  17
ENDBRANCH   1   3
BRANCH   2  19
HETATM   19  C   UNL     1     -10.605  10.803  65.818  1.00  0.00    -0.204 A  
HETATM   20  C   UNL     1     -11.494  12.239  64.067  1.00  0.00    -0.483 A  
HETATM   21  C   UNL     1     -12.033  13.108  65.020  1.00  0.00    -0.383 A  
HETATM   22  C   UNL     1     -11.827  12.846  66.387  1.00  0.00    -0.415 A  
HETATM   23  C   UNL     1     -11.106  11.707  66.772  1.00  0.00    -0.366 A  
HETATM   24  C   UNL     1     -10.786  11.095  64.464  1.00  0.00    -0.320 A  
BRANCH  22  25
HETATM   25  O   UNL     1     -12.382  13.752  67.257  1.00  0.00    -0.337 OA 
HETATM   26  C   UNL     1     -11.873  13.808  68.582  1.00  0.00    -0.374 C  
ENDBRANCH  22  25
BRANCH  21  27
HETATM   27  O   UNL     1     -12.768  14.231  64.731  1.00  0.00    -0.646 OA 
HETATM   28  C   UNL     1     -12.135  15.279  64.015  1.00  0.00    -0.010 C  
ENDBRANCH  21  27
ENDBRANCH   2  19
TORSDOF 6
ENDMDL
MODEL      109
REMARK 921   NORMALIZED FREE ENERGY PREDICTED BY IDOCK:   -4.31 KCAL/MOL
REMARK 922        TOTAL FREE ENERGY PREDICTED BY IDOCK:   -6.12 KCAL/MOL
REMARK 923 INTER-LIGAND FREE ENERGY PREDICTED BY IDOCK:   -5.69 KCAL/MOL
REMARK 924 INTRA-LIGAND FREE ENERGY PREDICTED BY IDOCK:   -0.43 KCAL/MOL
REMARK 927      BINDING AFFINITY PREDICTED BY RF-SCORE:    0.00 PKD
ROOT
HETATM    1  C   UNL     1      -9.330  12.858  67.920  1.00  0.00    -0.208 C  
HETATM    2  C   UNL     1      -9.017  11.955  66.970  1.00  0.00    -0.190 C  
ENDROOT
BRANCH   1   3
HETATM    3  C   UNL     1      -9.081  14.240  67.666  1.00  0.00    -0.192 A  
HETATM    4  N   UNL     1      -7.914  14.832  67.469  1.00  0.00    -0.173 NA 
HETATM    5  N   UNL     1      -7.270  17.091  66.871  1.00  0.00    -0.186 N  
HETATM    6  O   UNL     1      -6.908  19.259  66.211  1.00  0.00    -0.199 OA 
HETATM    7  C   UNL     1      -8.198  16.126  67.178  1.00  0.00    -0.196 A  
HETATM    8  C   UNL     1      -9.535  16.374  67.205  1.00  0.00    -0.227 A  
HETATM    9  C   UNL     1      -7.701  18.380  66.558  1.00  0.00    -0.252 C  
HETATM   10  N   UNL     1     -10.112  15.170  67.532  1.00  0.00    -0.231 NA 
HETATM   11  C   UNL     1     -11.520  14.910  67.710  1.00  0.00    -0.338 C  
HETATM   12  N   UNL     1      -9.082  18.638  66.673  1.00  0.00    -0.299 N  
HETATM   13  C   UNL     1     -10.068  17.677  66.945  1.00  0.00    -0.331 C  
HETATM   14  O   UNL     1     -11.269  17.929  66.963  1.00  0.00     0.108 OA 
BRANCH  12  15
HETATM   15  C   UNL     1      -9.517  20.023  66.494  1.00  0.00    -0.404 C  
HETATM   16  C   UNL     1     -10.031  20.665  67.774  1.00  0.00    -0.326 C  
ENDBRANCH  12  15
BRANCH   5  17
HETATM   17  C   UNL     1      -5.846  16.769  66.856  1.00  0.00    -0.146 C  
HETATM   18  C   UNL     1      -5.185  16.977  68.209  1.00  0.00    -0.119 C  
ENDBRANCH   5  17
ENDBRANCH   1   3
BRANCH   2  19
HETATM   19  C   UNL     1      -9.331  10.514  66.984  1.00  0.00    -0.176 A  
HETATM   20  C   UNL     1     -10.582   8.571  67.745  1.00  0.00    -0.242 A  
HETATM   21  C   UNL     1      -9.871   7.742  66.873  1.00  0.00    -0.235 A  
HETATM   22  C   UNL     1      -8.854   8.293  66.072  1.00  0.00    -0.168 A  
HETATM   23  C   UNL     1      -8.586   9.667  66.144  1.00  0.00    -0.138 A  
HETATM   24  C   UNL     1     -10.314   9.947  67.799  1.00  0.00    -0.268 A  
BRANCH  22  25
HETATM   25  O   UNL     1      -8.198   7.410  65.250  1.00  0.00    -0.130 OA 
HETATM   26  C   UNL     1      -6.828   7.145  65.507  1.00  0.00    -0.052 C  
ENDBRANCH  22  25
BRANCH  21  27
HETATM   27  O   UNL     1     -10.084   6.393  66.724  1.00  0.00    -0.172 OA 
HETATM   28  C   UNL     1     -10.305   5.618  67.891  1.00  0.00    -0.205 C  
ENDBRANCH  21  27
ENDBRANCH   2  19
TORSDOF 6
ENDMDL
MODEL      110
REMARK 921   NORMALIZED FREE ENERGY PREDICTED BY IDOCK:   -4.28 KCAL/MOL
REMARK 922        TOTAL FREE ENERGY PREDICTED BY IDOCK:   -6.08 KCAL/MOL
REMARK 923 INTER-LIGAND FREE ENERGY PREDICTED BY IDOCK:   -5.53 KCAL/MOL
REMARK 924 INTRA-LIGAND FREE ENERGY PREDICTED BY IDOCK:   -0.55 KCAL/MOL
REMARK 927      BINDING AFFINITY PREDICTED BY RF-SCORE:    0.00 PKD
ROOT
HETATM    1  C   UNL     1      -8.898  14.168  67.263  1.00  0.00    -0.227 C  
HETATM    2  C   UNL     1      -7.793  14.884  67.549  1.00  0.00    -0.206 C  
ENDROOT
BRANCH   1   3
HETATM    3  C   UNL     1      -8.939  12.789  67.627  1.00  0.00    -0.191 A  
HETATM    4  N   UNL     1      -8.059  11.845  67.336  1.00  0.00    -0.156 NA 
HETATM    5  N   UNL     1      -7.840   9.516  67.970  1.00  0.00    -0.087 N  
HETATM    6  O   UNL     1      -7.789   7.368  68.777  1.00  0.00    -0.116 OA 
HETATM    7  C   UNL     1      -8.485  10.729  67.977  1.00  0.00    -0.124 A  
HETATM    8  C   UNL     1      -9.641  10.942  68.662  1.00  0.00    -0.190 A  
HETATM    9  C   UNL     1      -8.371   8.454  68.701  1.00  0.00    -0.120 C  
HETATM   10  N   UNL     1      -9.950  12.262  68.432  1.00  0.00    -0.219 NA 
HETATM   11  C   UNL     1     -11.104  12.974  68.924  1.00  0.00    -0.262 C  
HETATM   12  N   UNL     1      -9.612   8.671  69.336  1.00  0.00    -0.165 N  
HETATM   13  C   UNL     1     -10.286   9.899  69.401  1.00  0.00    -0.222 C  
HETATM   14  O   UNL     1     -11.329  10.064  70.027  1.00  0.00    -0.253 OA 
BRANCH  12  15
HETATM   15  C   UNL     1     -10.243   7.516  69.973  1.00  0.00    -0.215 C  
HETATM   16  C   UNL     1     -11.029   6.644  69.005  1.00  0.00    -0.332 C  
ENDBRANCH  12  15
BRANCH   5  17
HETATM   17  C   UNL     1      -6.601   9.343  67.218  1.00  0.00    -0.071 C  
HETATM   18  C   UNL     1      -6.844   8.893  65.786  1.00  0.00    -0.072 C  
ENDBRANCH   5  17
ENDBRANCH   1   3
BRANCH   2  19
HETATM   19  C   UNL     1      -7.618  16.339  67.389  1.00  0.00    -0.183 A  
HETATM   20  C   UNL     1      -8.152  18.495  66.397  1.00  0.00    -0.295 A  
HETATM   21  C   UNL     1      -7.221  19.133  67.220  1.00  0.00    -0.215 A  
HETATM   22  C   UNL     1      -6.451  18.366  68.114  1.00  0.00    -0.200 A  
HETATM   23  C   UNL     1      -6.647  16.979  68.181  1.00  0.00    -0.149 A  
HETATM   24  C   UNL     1      -8.350  17.110  66.481  1.00  0.00    -0.309 A  
BRANCH  22  25
HETATM   25  O   UNL     1      -5.553  19.067  68.881  1.00  0.00    -0.195 OA 
HETATM   26  C   UNL     1      -5.761  19.112  70.285  1.00  0.00    -0.235 C  
ENDBRANCH  22  25
BRANCH  21  27
HETATM   27  O   UNL     1      -6.981  20.485  67.235  1.00  0.00    -0.266 OA 
HETATM   28  C   UNL     1      -6.283  21.054  66.139  1.00  0.00    -0.255 C  
ENDBRANCH  21  27
ENDBRANCH   2  19
TORSDOF 6
ENDMDL
MODEL      111
REMARK 921   NORMALIZED FREE ENERGY PREDICTED BY IDOCK:   -4.27 KCAL/MOL
REMARK 922        TOTAL FREE ENERGY PREDICTED BY IDOCK:   -6.07 KCAL/MOL
REMARK 923 INTER-LIGAND FREE ENERGY PREDICTED BY IDOCK:   -5.67 KCAL/MOL
REMARK 924 INTRA-LIGAND FREE ENERGY PREDICTED BY IDOCK:   -0.40 KCAL/MOL
REMARK 927      BINDING AFFINITY PREDICTED BY RF-SCORE:    0.00 PKD
ROOT
HETATM    1  C   UNL     1      -9.857   9.057  70.836  1.00  0.00    -0.330 C  
HETATM    2  C   UNL     1     -11.158   9.299  70.586  1.00  0.00    -0.335 C  
ENDROOT
BRANCH   1   3
HETATM    3  C   UNL     1      -9.284   7.832  70.378  1.00  0.00    -0.156 A  
HETATM    4  N   UNL     1      -9.118   6.709  71.059  1.00  0.00    -0.156 NA 
HETATM    5  N   UNL     1      -8.333   4.496  70.459  1.00  0.00    -0.077 N  
HETATM    6  O   UNL     1      -7.649   2.465  69.638  1.00  0.00    -0.043 OA 
HETATM    7  C   UNL     1      -8.622   5.809  70.175  1.00  0.00    -0.128 A  
HETATM    8  C   UNL     1      -8.451   6.348  68.937  1.00  0.00    -0.121 A  
HETATM    9  C   UNL     1      -7.857   3.666  69.444  1.00  0.00    -0.051 C  
HETATM   10  N   UNL     1      -8.861   7.654  69.061  1.00  0.00    -0.135 NA 
HETATM   11  C   UNL     1      -8.853   8.660  68.027  1.00  0.00    -0.141 C  
HETATM   12  N   UNL     1      -7.608   4.263  68.191  1.00  0.00    -0.068 N  
HETATM   13  C   UNL     1      -7.923   5.586  67.846  1.00  0.00    -0.097 C  
HETATM   14  O   UNL     1      -7.758   6.047  66.721  1.00  0.00    -0.097 OA 
BRANCH  12  15
HETATM   15  C   UNL     1      -6.968   3.431  67.174  1.00  0.00    -0.057 C  
HETATM   16  C   UNL     1      -5.448   3.519  67.189  1.00  0.00    -0.020 C  
ENDBRANCH  12  15
BRANCH   5  17
HETATM   17  C   UNL     1      -8.537   3.969  71.804  1.00  0.00    -0.099 C  
HETATM   18  C   UNL     1      -7.482   4.453  72.788  1.00  0.00    -0.080 C  
ENDBRANCH   5  17
ENDBRANCH   1   3
BRANCH   2  19
HETATM   19  C   UNL     1     -11.887  10.555  70.843  1.00  0.00    -0.455 A  
HETATM   20  C   UNL     1     -13.479  11.932  72.063  1.00  0.00    -0.336 A  
HETATM   21  C   UNL     1     -13.175  13.036  71.262  1.00  0.00    -0.105 A  
HETATM   22  C   UNL     1     -12.246  12.894  70.215  1.00  0.00    -0.289 A  
HETATM   23  C   UNL     1     -11.623  11.656  70.008  1.00  0.00    -0.338 A  
HETATM   24  C   UNL     1     -12.839  10.702  71.856  1.00  0.00    -0.487 A  
BRANCH  22  25
HETATM   25  O   UNL     1     -12.010  14.023  69.470  1.00  0.00    -0.299 OA 
HETATM   26  C   UNL     1     -11.563  13.863  68.132  1.00  0.00    -0.335 C  
ENDBRANCH  22  25
BRANCH  21  27
HETATM   27  O   UNL     1     -13.722  14.288  71.410  1.00  0.00    -0.358 OA 
HETATM   28  C   UNL     1     -13.521  14.965  72.639  1.00  0.00    -0.471 C  
ENDBRANCH  21  27
ENDBRANCH   2  19
TORSDOF 6
ENDMDL
MODEL      112
REMARK 921   NORMALIZED FREE ENERGY PREDICTED BY IDOCK:   -4.25 KCAL/MOL
REMARK 922        TOTAL FREE ENERGY PREDICTED BY IDOCK:   -6.04 KCAL/MOL
REMARK 923 INTER-LIGAND FREE ENERGY PREDICTED BY IDOCK:   -5.77 KCAL/MOL
REMARK 924 INTRA-LIGAND FREE ENERGY PREDICTED BY IDOCK:   -0.27 KCAL/MOL
REMARK 927      BINDING AFFINITY PREDICTED BY RF-SCORE:    0.00 PKD
ROOT
HETATM    1  C   UNL     1      -8.786  11.991  68.280  1.00  0.00    -0.182 C  
HETATM    2  C   UNL     1      -9.130  11.145  67.289  1.00  0.00    -0.152 C  
ENDROOT
BRANCH   1   3
HETATM    3  C   UNL     1      -8.546  13.362  67.963  1.00  0.00    -0.174 A  
HETATM    4  N   UNL     1      -9.409  14.365  67.988  1.00  0.00    -0.194 NA 
HETATM    5  N   UNL     1      -9.198  16.756  67.653  1.00  0.00    -0.222 N  
HETATM    6  O   UNL     1      -8.739  18.989  67.391  1.00  0.00    -0.274 OA 
HETATM    7  C   UNL     1      -8.693  15.479  67.700  1.00  0.00    -0.175 A  
HETATM    8  C   UNL     1      -7.381  15.199  67.472  1.00  0.00    -0.196 A  
HETATM    9  C   UNL     1      -8.341  17.821  67.376  1.00  0.00    -0.222 C  
HETATM   10  N   UNL     1      -7.279  13.837  67.625  1.00  0.00    -0.163 NA 
HETATM   11  C   UNL     1      -6.087  13.040  67.464  1.00  0.00    -0.125 C  
HETATM   12  N   UNL     1      -7.004  17.502  67.062  1.00  0.00    -0.164 N  
HETATM   13  C   UNL     1      -6.437  16.221  67.134  1.00  0.00    -0.179 C  
HETATM   14  O   UNL     1      -5.249  15.996  66.924  1.00  0.00    -0.322 OA 
BRANCH  12  15
HETATM   15  C   UNL     1      -6.144  18.600  66.624  1.00  0.00    -0.155 C  
HETATM   16  C   UNL     1      -5.233  19.132  67.721  1.00  0.00    -0.174 C  
ENDBRANCH  12  15
BRANCH   5  17
HETATM   17  C   UNL     1     -10.615  16.999  67.907  1.00  0.00    -0.365 C  
HETATM   18  C   UNL     1     -11.000  16.751  69.357  1.00  0.00    -0.176 C  
ENDBRANCH   5  17
ENDBRANCH   1   3
BRANCH   2  19
HETATM   19  C   UNL     1      -9.559   9.742  67.435  1.00  0.00    -0.187 A  
HETATM   20  C   UNL     1      -9.851   7.465  66.629  1.00  0.00    -0.263 A  
HETATM   21  C   UNL     1     -10.372   7.069  67.864  1.00  0.00    -0.199 A  
HETATM   22  C   UNL     1     -10.524   8.024  68.886  1.00  0.00    -0.191 A  
HETATM   23  C   UNL     1     -10.130   9.349  68.659  1.00  0.00    -0.208 A  
HETATM   24  C   UNL     1      -9.447   8.791  66.417  1.00  0.00    -0.291 A  
BRANCH  22  25
HETATM   25  O   UNL     1     -11.051   7.556  70.065  1.00  0.00    -0.257 OA 
HETATM   26  C   UNL     1     -10.195   7.467  71.194  1.00  0.00    -0.193 C  
ENDBRANCH  22  25
BRANCH  21  27
HETATM   27  O   UNL     1     -10.762   5.790  68.177  1.00  0.00    -0.240 OA 
HETATM   28  C   UNL     1      -9.833   4.738  67.973  1.00  0.00    -0.126 C  
ENDBRANCH  21  27
ENDBRANCH   2  19
TORSDOF 6
ENDMDL
MODEL      113
REMARK 921   NORMALIZED FREE ENERGY PREDICTED BY IDOCK:   -4.23 KCAL/MOL
REMARK 922        TOTAL FREE ENERGY PREDICTED BY IDOCK:   -6.02 KCAL/MOL
REMARK 923 INTER-LIGAND FREE ENERGY PREDICTED BY IDOCK:   -6.87 KCAL/MOL
REMARK 924 INTRA-LIGAND FREE ENERGY PREDICTED BY IDOCK:    0.85 KCAL/MOL
REMARK 927      BINDING AFFINITY PREDICTED BY RF-SCORE:    0.00 PKD
ROOT
HETATM    1  C   UNL     1     -10.993   8.735  69.059  1.00  0.00     0.046 C  
HETATM    2  C   UNL     1     -11.018   8.021  70.202  1.00  0.00    -0.226 C  
ENDROOT
BRANCH   1   3
HETATM    3  C   UNL     1     -11.302  10.127  69.110  1.00  0.00    -0.143 A  
HETATM    4  N   UNL     1     -11.889  10.794  70.091  1.00  0.00    -0.312 NA 
HETATM    5  N   UNL     1     -12.362  13.141  70.462  1.00  0.00    -0.334 N  
HETATM    6  O   UNL     1     -12.618  15.416  70.636  1.00  0.00    -0.387 OA 
HETATM    7  C   UNL     1     -11.877  12.096  69.715  1.00  0.00    -0.327 A  
HETATM    8  C   UNL     1     -11.305  12.270  68.492  1.00  0.00    -0.286 A  
HETATM    9  C   UNL     1     -12.258  14.442  69.969  1.00  0.00    -0.351 C  
HETATM   10  N   UNL     1     -10.944  11.007  68.088  1.00  0.00    -0.226 NA 
HETATM   11  C   UNL     1     -10.316  10.649  66.839  1.00  0.00    -0.236 C  
HETATM   12  N   UNL     1     -11.738  14.593  68.667  1.00  0.00    -0.322 N  
HETATM   13  C   UNL     1     -11.199  13.561  67.883  1.00  0.00    -0.274 C  
HETATM   14  O   UNL     1     -10.688  13.747  66.783  1.00  0.00    -0.275 OA 
BRANCH  12  15
HETATM   15  C   UNL     1     -11.770  15.936  68.090  1.00  0.00    -0.130 C  
HETATM   16  C   UNL     1     -10.561  16.783  68.461  1.00  0.00    -0.354 C  
ENDBRANCH  12  15
BRANCH   5  17
HETATM   17  C   UNL     1     -12.965  12.898  71.769  1.00  0.00    -0.315 C  
HETATM   18  C   UNL     1     -13.193  14.179  72.556  1.00  0.00    -0.596 C  
ENDBRANCH   5  17
ENDBRANCH   1   3
BRANCH   2  19
HETATM   19  C   UNL     1     -10.589   6.621  70.378  1.00  0.00    -0.266 A  
HETATM   20  C   UNL     1      -9.451   4.592  69.665  1.00  0.00    -0.232 A  
HETATM   21  C   UNL     1      -9.786   3.955  70.863  1.00  0.00    -0.183 A  
HETATM   22  C   UNL     1     -10.561   4.641  71.816  1.00  0.00    -0.008 A  
HETATM   23  C   UNL     1     -10.965   5.958  71.560  1.00  0.00    -0.323 A  
HETATM   24  C   UNL     1      -9.849   5.915  69.425  1.00  0.00    -0.207 A  
BRANCH  22  25
HETATM   25  O   UNL     1     -10.853   3.942  72.962  1.00  0.00    -0.177 OA 
HETATM   26  C   UNL     1     -10.372   4.448  74.198  1.00  0.00    -0.235 C  
ENDBRANCH  22  25
BRANCH  21  27
HETATM   27  O   UNL     1      -9.413   2.677  71.204  1.00  0.00    -0.133 OA 
HETATM   28  C   UNL     1      -8.132   2.484  71.780  1.00  0.00    -0.056 C  
ENDBRANCH  21  27
ENDBRANCH   2  19
TORSDOF 6
ENDMDL
MODEL      114
REMARK 921   NORMALIZED FREE ENERGY PREDICTED BY IDOCK:   -4.23 KCAL/MOL
REMARK 922        TOTAL FREE ENERGY PREDICTED BY IDOCK:   -6.02 KCAL/MOL
REMARK 923 INTER-LIGAND FREE ENERGY PREDICTED BY IDOCK:   -5.46 KCAL/MOL
REMARK 924 INTRA-LIGAND FREE ENERGY PREDICTED BY IDOCK:   -0.56 KCAL/MOL
REMARK 927      BINDING AFFINITY PREDICTED BY RF-SCORE:    0.00 PKD
ROOT
HETATM    1  C   UNL     1      -8.100  14.064  68.298  1.00  0.00    -0.148 C  
HETATM    2  C   UNL     1      -7.965  14.884  67.237  1.00  0.00    -0.237 C  
ENDROOT
BRANCH   1   3
HETATM    3  C   UNL     1      -8.149  12.655  68.078  1.00  0.00    -0.161 A  
HETATM    4  N   UNL     1      -8.920  11.992  67.231  1.00  0.00    -0.174 NA 
HETATM    5  N   UNL     1      -9.064   9.661  66.581  1.00  0.00    -0.145 N  
HETATM    6  O   UNL     1      -8.950   7.430  66.057  1.00  0.00    -0.166 OA 
HETATM    7  C   UNL     1      -8.539  10.694  67.319  1.00  0.00    -0.126 A  
HETATM    8  C   UNL     1      -7.543  10.514  68.229  1.00  0.00    -0.096 A  
HETATM    9  C   UNL     1      -8.555   8.373  66.748  1.00  0.00    -0.118 C  
HETATM   10  N   UNL     1      -7.294  11.769  68.733  1.00  0.00    -0.115 NA 
HETATM   11  C   UNL     1      -6.333  12.112  69.753  1.00  0.00    -0.102 C  
HETATM   12  N   UNL     1      -7.582   8.194  67.752  1.00  0.00    -0.097 N  
HETATM   13  C   UNL     1      -6.992   9.221  68.503  1.00  0.00    -0.067 C  
HETATM   14  O   UNL     1      -6.094   9.031  69.317  1.00  0.00    -0.041 OA 
BRANCH  12  15
HETATM   15  C   UNL     1      -7.161   6.822  68.032  1.00  0.00    -0.085 C  
HETATM   16  C   UNL     1      -7.995   6.139  69.107  1.00  0.00    -0.108 C  
ENDBRANCH  12  15
BRANCH   5  17
HETATM   17  C   UNL     1     -10.132   9.911  65.618  1.00  0.00    -0.237 C  
HETATM   18  C   UNL     1      -9.602  10.302  64.246  1.00  0.00    -0.375 C  
ENDBRANCH   5  17
ENDBRANCH   1   3
BRANCH   2  19
HETATM   19  C   UNL     1      -7.747  16.342  67.270  1.00  0.00    -0.210 A  
HETATM   20  C   UNL     1      -6.450  18.354  66.838  1.00  0.00    -0.204 A  
HETATM   21  C   UNL     1      -7.478  19.155  67.342  1.00  0.00    -0.233 A  
HETATM   22  C   UNL     1      -8.640  18.546  67.850  1.00  0.00    -0.287 A  
HETATM   23  C   UNL     1      -8.758  17.149  67.821  1.00  0.00    -0.220 A  
HETATM   24  C   UNL     1      -6.584  16.959  66.801  1.00  0.00    -0.260 A  
BRANCH  22  25
HETATM   25  O   UNL     1      -9.599  19.401  68.334  1.00  0.00    -0.343 OA 
HETATM   26  C   UNL     1     -10.785  19.579  67.574  1.00  0.00    -0.440 C  
ENDBRANCH  22  25
BRANCH  21  27
HETATM   27  O   UNL     1      -7.455  20.527  67.388  1.00  0.00    -0.304 OA 
HETATM   28  C   UNL     1      -6.231  21.165  67.717  1.00  0.00    -0.361 C  
ENDBRANCH  21  27
ENDBRANCH   2  19
TORSDOF 6
ENDMDL
MODEL      115
REMARK 921   NORMALIZED FREE ENERGY PREDICTED BY IDOCK:   -4.23 KCAL/MOL
REMARK 922        TOTAL FREE ENERGY PREDICTED BY IDOCK:   -6.01 KCAL/MOL
REMARK 923 INTER-LIGAND FREE ENERGY PREDICTED BY IDOCK:   -5.53 KCAL/MOL
REMARK 924 INTRA-LIGAND FREE ENERGY PREDICTED BY IDOCK:   -0.48 KCAL/MOL
REMARK 927      BINDING AFFINITY PREDICTED BY RF-SCORE:    0.00 PKD
ROOT
HETATM    1  C   UNL     1      -8.607   9.321  67.464  1.00  0.00    -0.116 C  
HETATM    2  C   UNL     1      -9.281   8.355  66.810  1.00  0.00    -0.214 C  
ENDROOT
BRANCH   1   3
HETATM    3  C   UNL     1      -9.310  10.493  67.875  1.00  0.00    -0.143 A  
HETATM    4  N   UNL     1      -9.315  11.683  67.295  1.00  0.00    -0.167 NA 
HETATM    5  N   UNL     1     -10.533  13.736  67.711  1.00  0.00    -0.237 N  
HETATM    6  O   UNL     1     -11.864  15.531  68.236  1.00  0.00    -0.330 OA 
HETATM    7  C   UNL     1     -10.197  12.435  67.997  1.00  0.00    -0.219 A  
HETATM    8  C   UNL     1     -10.745  11.746  69.035  1.00  0.00    -0.169 A  
HETATM    9  C   UNL     1     -11.483  14.386  68.498  1.00  0.00    -0.297 C  
HETATM   10  N   UNL     1     -10.169  10.500  68.974  1.00  0.00    -0.205 NA 
HETATM   11  C   UNL     1     -10.403   9.398  69.877  1.00  0.00    -0.227 C  
HETATM   12  N   UNL     1     -11.977  13.685  69.617  1.00  0.00    -0.329 N  
HETATM   13  C   UNL     1     -11.691  12.346  69.926  1.00  0.00    -0.266 C  
HETATM   14  O   UNL     1     -12.201  11.748  70.869  1.00  0.00    -0.362 OA 
BRANCH  12  15
HETATM   15  C   UNL     1     -12.855  14.418  70.527  1.00  0.00    -0.294 C  
HETATM   16  C   UNL     1     -12.109  15.128  71.648  1.00  0.00    -0.424 C  
ENDBRANCH  12  15
BRANCH   5  17
HETATM   17  C   UNL     1      -9.915  14.428  66.584  1.00  0.00    -0.272 C  
HETATM   18  C   UNL     1      -8.647  15.170  66.978  1.00  0.00    -0.265 C  
ENDBRANCH   5  17
ENDBRANCH   1   3
BRANCH   2  19
HETATM   19  C   UNL     1      -8.774   7.021  66.439  1.00  0.00    -0.148 A  
HETATM   20  C   UNL     1      -7.007   5.374  66.143  1.00  0.00    -0.063 A  
HETATM   21  C   UNL     1      -7.939   4.410  65.751  1.00  0.00    -0.095 A  
HETATM   22  C   UNL     1      -9.299   4.759  65.665  1.00  0.00    -0.163 A  
HETATM   23  C   UNL     1      -9.701   6.060  65.996  1.00  0.00     0.013 A  
HETATM   24  C   UNL     1      -7.421   6.669  66.486  1.00  0.00    -0.078 A  
BRANCH  22  25
HETATM   25  O   UNL     1     -10.148   3.756  65.264  1.00  0.00    -0.147 OA 
HETATM   26  C   UNL     1     -10.736   3.851  63.976  1.00  0.00    -0.208 C  
ENDBRANCH  22  25
BRANCH  21  27
HETATM   27  O   UNL     1      -7.635   3.109  65.431  1.00  0.00    -0.078 OA 
HETATM   28  C   UNL     1      -6.418   2.854  64.748  1.00  0.00    -0.027 C  
ENDBRANCH  21  27
ENDBRANCH   2  19
TORSDOF 6
ENDMDL
MODEL      116
REMARK 921   NORMALIZED FREE ENERGY PREDICTED BY IDOCK:   -4.22 KCAL/MOL
REMARK 922        TOTAL FREE ENERGY PREDICTED BY IDOCK:   -6.00 KCAL/MOL
REMARK 923 INTER-LIGAND FREE ENERGY PREDICTED BY IDOCK:   -6.07 KCAL/MOL
REMARK 924 INTRA-LIGAND FREE ENERGY PREDICTED BY IDOCK:    0.07 KCAL/MOL
REMARK 927      BINDING AFFINITY PREDICTED BY RF-SCORE:    0.00 PKD
ROOT
HETATM    1  C   UNL     1     -11.149   8.827  70.497  1.00  0.00    -0.278 C  
HETATM    2  C   UNL     1     -10.446   8.413  71.569  1.00  0.00    -0.305 C  
ENDROOT
BRANCH   1   3
HETATM    3  C   UNL     1     -10.785  10.053  69.865  1.00  0.00    -0.286 A  
HETATM    4  N   UNL     1      -9.834  10.254  68.968  1.00  0.00    -0.196 NA 
HETATM    5  N   UNL     1      -9.152  12.178  67.662  1.00  0.00    -0.175 N  
HETATM    6  O   UNL     1      -8.750  14.099  66.470  1.00  0.00    -0.122 OA 
HETATM    7  C   UNL     1      -9.935  11.556  68.603  1.00  0.00    -0.199 A  
HETATM    8  C   UNL     1     -10.930  12.199  69.273  1.00  0.00    -0.110 A  
HETATM    9  C   UNL     1      -9.384  13.520  67.357  1.00  0.00    -0.228 C  
HETATM   10  N   UNL     1     -11.474  11.244  70.098  1.00  0.00    -0.282 NA 
HETATM   11  C   UNL     1     -12.555  11.431  71.036  1.00  0.00    -0.386 C  
HETATM   12  N   UNL     1     -10.363  14.189  68.119  1.00  0.00    -0.234 N  
HETATM   13  C   UNL     1     -11.210  13.587  69.062  1.00  0.00    -0.269 C  
HETATM   14  O   UNL     1     -12.100  14.191  69.652  1.00  0.00    -0.316 OA 
BRANCH  12  15
HETATM   15  C   UNL     1     -10.501  15.629  67.907  1.00  0.00    -0.267 C  
HETATM   16  C   UNL     1     -10.743  16.007  66.453  1.00  0.00    -0.232 C  
ENDBRANCH  12  15
BRANCH   5  17
HETATM   17  C   UNL     1      -8.098  11.440  66.972  1.00  0.00    -0.157 C  
HETATM   18  C   UNL     1      -6.714  11.743  67.526  1.00  0.00    -0.107 C  
ENDBRANCH   5  17
ENDBRANCH   1   3
BRANCH   2  19
HETATM   19  C   UNL     1     -10.570   7.117  72.260  1.00  0.00    -0.244 A  
HETATM   20  C   UNL     1     -11.748   5.068  72.840  1.00  0.00    -0.200 A  
HETATM   21  C   UNL     1     -10.658   4.626  73.594  1.00  0.00    -0.249 A  
HETATM   22  C   UNL     1      -9.524   5.450  73.717  1.00  0.00    -0.138 A  
HETATM   23  C   UNL     1      -9.496   6.689  73.062  1.00  0.00    -0.157 A  
HETATM   24  C   UNL     1     -11.703   6.303  72.177  1.00  0.00    -0.368 A  
BRANCH  22  25
HETATM   25  O   UNL     1      -8.501   4.947  74.482  1.00  0.00    -0.109 OA 
HETATM   26  C   UNL     1      -7.166   5.215  74.079  1.00  0.00    -0.083 C  
ENDBRANCH  22  25
BRANCH  21  27
HETATM   27  O   UNL     1     -10.594   3.420  74.249  1.00  0.00    -0.187 OA 
HETATM   28  C   UNL     1     -11.350   2.337  73.733  1.00  0.00    -0.189 C  
ENDBRANCH  21  27
ENDBRANCH   2  19
TORSDOF 6
ENDMDL
MODEL      117
REMARK 921   NORMALIZED FREE ENERGY PREDICTED BY IDOCK:   -4.18 KCAL/MOL
REMARK 922        TOTAL FREE ENERGY PREDICTED BY IDOCK:   -5.95 KCAL/MOL
REMARK 923 INTER-LIGAND FREE ENERGY PREDICTED BY IDOCK:   -5.67 KCAL/MOL
REMARK 924 INTRA-LIGAND FREE ENERGY PREDICTED BY IDOCK:   -0.28 KCAL/MOL
REMARK 927      BINDING AFFINITY PREDICTED BY RF-SCORE:    0.00 PKD
ROOT
HETATM    1  C   UNL     1      -8.339  14.644  68.031  1.00  0.00    -0.146 C  
HETATM    2  C   UNL     1      -8.321  15.520  67.008  1.00  0.00    -0.265 C  
ENDROOT
BRANCH   1   3
HETATM    3  C   UNL     1      -8.531  13.258  67.748  1.00  0.00    -0.181 A  
HETATM    4  N   UNL     1      -7.607  12.347  67.485  1.00  0.00    -0.144 NA 
HETATM    5  N   UNL     1      -7.680   9.950  67.140  1.00  0.00    -0.092 N  
HETATM    6  O   UNL     1      -7.983   7.683  66.941  1.00  0.00    -0.111 OA 
HETATM    7  C   UNL     1      -8.268  11.168  67.377  1.00  0.00    -0.132 A  
HETATM    8  C   UNL     1      -9.610  11.316  67.550  1.00  0.00    -0.170 A  
HETATM    9  C   UNL     1      -8.476   8.806  67.084  1.00  0.00    -0.110 C  
HETATM   10  N   UNL     1      -9.790  12.660  67.775  1.00  0.00    -0.206 NA 
HETATM   11  C   UNL     1     -11.047  13.334  67.995  1.00  0.00    -0.256 C  
HETATM   12  N   UNL     1      -9.870   8.990  67.183  1.00  0.00    -0.186 N  
HETATM   13  C   UNL     1     -10.510  10.207  67.462  1.00  0.00    -0.253 C  
HETATM   14  O   UNL     1     -11.724  10.312  67.614  1.00  0.00    -0.192 OA 
BRANCH  12  15
HETATM   15  C   UNL     1     -10.713   7.814  66.973  1.00  0.00    -0.246 C  
HETATM   16  C   UNL     1     -10.683   6.832  68.136  1.00  0.00    -0.295 C  
ENDBRANCH  12  15
BRANCH   5  17
HETATM   17  C   UNL     1      -6.235   9.848  66.963  1.00  0.00    -0.063 C  
HETATM   18  C   UNL     1      -5.820   9.899  65.501  1.00  0.00    -0.073 C  
ENDBRANCH   5  17
ENDBRANCH   1   3
BRANCH   2  19
HETATM   19  C   UNL     1      -7.991  16.955  67.080  1.00  0.00    -0.210 A  
HETATM   20  C   UNL     1      -8.109  19.163  68.097  1.00  0.00    -0.351 A  
HETATM   21  C   UNL     1      -7.236  19.679  67.136  1.00  0.00    -0.214 A  
HETATM   22  C   UNL     1      -6.762  18.838  66.113  1.00  0.00    -0.231 A  
HETATM   23  C   UNL     1      -7.152  17.492  66.087  1.00  0.00    -0.341 A  
HETATM   24  C   UNL     1      -8.483  17.811  68.070  1.00  0.00    -0.253 A  
BRANCH  22  25
HETATM   25  O   UNL     1      -5.916  19.424  65.203  1.00  0.00    -0.202 OA 
HETATM   26  C   UNL     1      -5.640  18.728  63.997  1.00  0.00    -0.102 C  
ENDBRANCH  22  25
BRANCH  21  27
HETATM   27  O   UNL     1      -6.787  20.977  67.099  1.00  0.00    -0.324 OA 
HETATM   28  C   UNL     1      -5.719  21.339  67.958  1.00  0.00    -0.316 C  
ENDBRANCH  21  27
ENDBRANCH   2  19
TORSDOF 6
ENDMDL
MODEL      118
REMARK 921   NORMALIZED FREE ENERGY PREDICTED BY IDOCK:   -4.17 KCAL/MOL
REMARK 922        TOTAL FREE ENERGY PREDICTED BY IDOCK:   -5.94 KCAL/MOL
REMARK 923 INTER-LIGAND FREE ENERGY PREDICTED BY IDOCK:   -5.46 KCAL/MOL
REMARK 924 INTRA-LIGAND FREE ENERGY PREDICTED BY IDOCK:   -0.47 KCAL/MOL
REMARK 927      BINDING AFFINITY PREDICTED BY RF-SCORE:    0.00 PKD
ROOT
HETATM    1  C   UNL     1      -9.800  11.721  65.726  1.00  0.00    -0.267 C  
HETATM    2  C   UNL     1      -9.170  12.512  66.616  1.00  0.00    -0.223 C  
ENDROOT
BRANCH   1   3
HETATM    3  C   UNL     1      -9.395  10.359  65.605  1.00  0.00    -0.198 A  
HETATM    4  N   UNL     1      -9.535   9.388  66.493  1.00  0.00    -0.175 NA 
HETATM    5  N   UNL     1      -9.079   7.008  66.449  1.00  0.00    -0.160 N  
HETATM    6  O   UNL     1      -8.656   4.773  66.141  1.00  0.00    -0.114 OA 
HETATM    7  C   UNL     1      -9.083   8.262  65.888  1.00  0.00    -0.149 A  
HETATM    8  C   UNL     1      -8.636   8.504  64.626  1.00  0.00    -0.055 A  
HETATM    9  C   UNL     1      -8.614   5.926  65.702  1.00  0.00    -0.155 C  
HETATM   10  N   UNL     1      -8.819   9.853  64.439  1.00  0.00    -0.199 NA 
HETATM   11  C   UNL     1      -8.478  10.613  63.261  1.00  0.00    -0.119 C  
HETATM   12  N   UNL     1      -8.079   6.209  64.429  1.00  0.00    -0.122 N  
HETATM   13  C   UNL     1      -8.096   7.465  63.802  1.00  0.00    -0.017 C  
HETATM   14  O   UNL     1      -7.686   7.655  62.661  1.00  0.00    -0.108 OA 
BRANCH  12  15
HETATM   15  C   UNL     1      -7.453   5.101  63.709  1.00  0.00    -0.061 C  
HETATM   16  C   UNL     1      -8.427   4.315  62.843  1.00  0.00    -0.096 C  
ENDBRANCH  12  15
BRANCH   5  17
HETATM   17  C   UNL     1      -9.572   6.805  67.808  1.00  0.00    -0.124 C  
HETATM   18  C   UNL     1     -11.067   6.532  67.853  1.00  0.00    -0.352 C  
ENDBRANCH   5  17
ENDBRANCH   1   3
BRANCH   2  19
HETATM   19  C   UNL     1      -9.538  13.890  66.990  1.00  0.00    -0.254 A  
HETATM   20  C   UNL     1     -11.117  15.600  67.696  1.00  0.00    -0.305 A  
HETATM   21  C   UNL     1     -10.099  16.556  67.741  1.00  0.00    -0.264 A  
HETATM   22  C   UNL     1      -8.791  16.189  67.373  1.00  0.00    -0.187 A  
HETATM   23  C   UNL     1      -8.526  14.867  66.990  1.00  0.00    -0.260 A  
HETATM   24  C   UNL     1     -10.838  14.277  67.325  1.00  0.00    -0.285 A  
BRANCH  22  25
HETATM   25  O   UNL     1      -7.852  17.189  67.436  1.00  0.00    -0.167 OA 
HETATM   26  C   UNL     1      -7.122  17.500  66.259  1.00  0.00    -0.305 C  
ENDBRANCH  22  25
BRANCH  21  27
HETATM   27  O   UNL     1     -10.267  17.865  68.125  1.00  0.00    -0.341 OA 
HETATM   28  C   UNL     1     -10.748  18.788  67.162  1.00  0.00    -0.403 C  
ENDBRANCH  21  27
ENDBRANCH   2  19
TORSDOF 6
ENDMDL
MODEL      119
REMARK 921   NORMALIZED FREE ENERGY PREDICTED BY IDOCK:   -4.13 KCAL/MOL
REMARK 922        TOTAL FREE ENERGY PREDICTED BY IDOCK:   -5.88 KCAL/MOL
REMARK 923 INTER-LIGAND FREE ENERGY PREDICTED BY IDOCK:   -5.34 KCAL/MOL
REMARK 924 INTRA-LIGAND FREE ENERGY PREDICTED BY IDOCK:   -0.54 KCAL/MOL
REMARK 927      BINDING AFFINITY PREDICTED BY RF-SCORE:    0.00 PKD
ROOT
HETATM    1  C   UNL     1     -10.350   9.438  67.146  1.00  0.00    -0.326 C  
HETATM    2  C   UNL     1     -10.315   9.659  68.475  1.00  0.00    -0.231 C  
ENDROOT
BRANCH   1   3
HETATM    3  C   UNL     1      -9.731   8.262  66.626  1.00  0.00    -0.251 A  
HETATM    4  N   UNL     1     -10.064   7.001  66.854  1.00  0.00    -0.215 NA 
HETATM    5  N   UNL     1      -9.279   4.884  65.975  1.00  0.00    -0.144 N  
HETATM    6  O   UNL     1      -8.441   3.017  64.935  1.00  0.00    -0.093 OA 
HETATM    7  C   UNL     1      -9.248   6.254  66.071  1.00  0.00    -0.078 A  
HETATM    8  C   UNL     1      -8.381   7.021  65.356  1.00  0.00    -0.118 A  
HETATM    9  C   UNL     1      -8.402   4.239  65.103  1.00  0.00    -0.114 C  
HETATM   10  N   UNL     1      -8.675   8.315  65.717  1.00  0.00    -0.163 NA 
HETATM   11  C   UNL     1      -8.014   9.510  65.250  1.00  0.00    -0.112 C  
HETATM   12  N   UNL     1      -7.457   5.044  64.434  1.00  0.00    -0.066 N  
HETATM   13  C   UNL     1      -7.413   6.446  64.473  1.00  0.00    -0.089 C  
HETATM   14  O   UNL     1      -6.620   7.115  63.817  1.00  0.00    -0.043 OA 
BRANCH  12  15
HETATM   15  C   UNL     1      -6.441   4.356  63.639  1.00  0.00    -0.030 C  
HETATM   16  C   UNL     1      -5.215   3.950  64.444  1.00  0.00    -0.009 C  
ENDBRANCH  12  15
BRANCH   5  17
HETATM   17  C   UNL     1     -10.231   4.109  66.765  1.00  0.00     0.162 C  
HETATM   18  C   UNL     1      -9.609   3.530  68.026  1.00  0.00    -0.166 C  
ENDBRANCH   5  17
ENDBRANCH   1   3
BRANCH   2  19
HETATM   19  C   UNL     1     -11.016  10.727  69.211  1.00  0.00    -0.292 A  
HETATM   20  C   UNL     1     -12.604  11.544  70.863  1.00  0.00    -0.438 A  
HETATM   21  C   UNL     1     -12.247  12.866  70.588  1.00  0.00    -0.302 A  
HETATM   22  C   UNL     1     -11.292  13.129  69.589  1.00  0.00    -0.112 A  
HETATM   23  C   UNL     1     -10.697  12.062  68.903  1.00  0.00    -0.222 A  
HETATM   24  C   UNL     1     -11.993  10.482  70.181  1.00  0.00    -0.398 A  
BRANCH  22  25
HETATM   25  O   UNL     1     -11.003  14.455  69.375  1.00  0.00    -0.251 OA 
HETATM   26  C   UNL     1     -11.513  15.071  68.201  1.00  0.00    -0.339 C  
ENDBRANCH  22  25
BRANCH  21  27
HETATM   27  O   UNL     1     -12.763  13.968  71.226  1.00  0.00    -0.327 OA 
HETATM   28  C   UNL     1     -13.714  13.760  72.258  1.00  0.00    -0.575 C  
ENDBRANCH  21  27
ENDBRANCH   2  19
TORSDOF 6
ENDMDL
MODEL      120
REMARK 921   NORMALIZED FREE ENERGY PREDICTED BY IDOCK:   -4.11 KCAL/MOL
REMARK 922        TOTAL FREE ENERGY PREDICTED BY IDOCK:   -5.85 KCAL/MOL
REMARK 923 INTER-LIGAND FREE ENERGY PREDICTED BY IDOCK:   -5.30 KCAL/MOL
REMARK 924 INTRA-LIGAND FREE ENERGY PREDICTED BY IDOCK:   -0.55 KCAL/MOL
REMARK 927      BINDING AFFINITY PREDICTED BY RF-SCORE:    0.00 PKD
ROOT
HETATM    1  C   UNL     1      -9.642   9.050  66.147  1.00  0.00    -0.341 C  
HETATM    2  C   UNL     1     -10.009   9.588  67.326  1.00  0.00    -0.244 C  
ENDROOT
BRANCH   1   3
HETATM    3  C   UNL     1      -9.172   7.703  66.121  1.00  0.00    -0.116 A  
HETATM    4  N   UNL     1      -9.427   6.737  66.989  1.00  0.00    -0.140 NA 
HETATM    5  N   UNL     1      -8.882   4.377  67.065  1.00  0.00    -0.112 N  
HETATM    6  O   UNL     1      -8.330   2.157  66.874  1.00  0.00    -0.081 OA 
HETATM    7  C   UNL     1      -8.836   5.623  66.490  1.00  0.00    -0.123 A  
HETATM    8  C   UNL     1      -8.187   5.869  65.320  1.00  0.00    -0.141 A  
HETATM    9  C   UNL     1      -8.256   3.306  66.428  1.00  0.00    -0.097 C  
HETATM   10  N   UNL     1      -8.385   7.208  65.081  1.00  0.00    -0.115 NA 
HETATM   11  C   UNL     1      -7.875   7.968  63.965  1.00  0.00    -0.145 C  
HETATM   12  N   UNL     1      -7.520   3.596  65.261  1.00  0.00    -0.076 N  
HETATM   13  C   UNL     1      -7.476   4.843  64.619  1.00  0.00    -0.072 C  
HETATM   14  O   UNL     1      -6.883   5.037  63.562  1.00  0.00    -0.043 OA 
BRANCH  12  15
HETATM   15  C   UNL     1      -6.739   2.506  64.678  1.00  0.00    -0.039 C  
HETATM   16  C   UNL     1      -7.497   1.716  63.621  1.00  0.00    -0.053 C  
ENDBRANCH  12  15
BRANCH   5  17
HETATM   17  C   UNL     1      -9.594   4.169  68.323  1.00  0.00    -0.128 C  
HETATM   18  C   UNL     1      -8.695   4.338  69.538  1.00  0.00    -0.121 C  
ENDBRANCH   5  17
ENDBRANCH   1   3
BRANCH   2  19
HETATM   19  C   UNL     1     -10.654  10.898  67.536  1.00  0.00    -0.271 A  
HETATM   20  C   UNL     1     -11.949  12.498  68.833  1.00  0.00    -0.282 A  
HETATM   21  C   UNL     1     -11.796  13.466  67.836  1.00  0.00    -0.357 A  
HETATM   22  C   UNL     1     -11.097  13.140  66.660  1.00  0.00    -0.292 A  
HETATM   23  C   UNL     1     -10.546  11.859  66.515  1.00  0.00    -0.278 A  
HETATM   24  C   UNL     1     -11.381  11.225  68.684  1.00  0.00    -0.336 A  
BRANCH  22  25
HETATM   25  O   UNL     1     -10.999  14.143  65.727  1.00  0.00    -0.293 OA 
HETATM   26  C   UNL     1     -11.695  13.989  64.499  1.00  0.00    -0.413 C  
ENDBRANCH  22  25
BRANCH  21  27
HETATM   27  O   UNL     1     -12.284  14.748  67.906  1.00  0.00    -0.209 OA 
HETATM   28  C   UNL     1     -11.748  15.616  68.891  1.00  0.00    -0.384 C  
ENDBRANCH  21  27
ENDBRANCH   2  19
TORSDOF 6
ENDMDL
MODEL      121
REMARK 921   NORMALIZED FREE ENERGY PREDICTED BY IDOCK:   -4.10 KCAL/MOL
REMARK 922        TOTAL FREE ENERGY PREDICTED BY IDOCK:   -5.84 KCAL/MOL
REMARK 923 INTER-LIGAND FREE ENERGY PREDICTED BY IDOCK:   -5.45 KCAL/MOL
REMARK 924 INTRA-LIGAND FREE ENERGY PREDICTED BY IDOCK:   -0.39 KCAL/MOL
REMARK 927      BINDING AFFINITY PREDICTED BY RF-SCORE:    0.00 PKD
ROOT
HETATM    1  C   UNL     1      -9.756   9.940  69.186  1.00  0.00    -0.204 C  
HETATM    2  C   UNL     1     -10.715  10.542  68.455  1.00  0.00    -0.259 C  
ENDROOT
BRANCH   1   3
HETATM    3  C   UNL     1      -9.555   8.535  69.036  1.00  0.00    -0.167 A  
HETATM    4  N   UNL     1      -9.947   7.567  69.848  1.00  0.00    -0.187 NA 
HETATM    5  N   UNL     1      -9.863   5.148  69.723  1.00  0.00    -0.191 N  
HETATM    6  O   UNL     1      -9.757   2.888  69.341  1.00  0.00    -0.067 OA 
HETATM    7  C   UNL     1      -9.607   6.406  69.235  1.00  0.00    -0.137 A  
HETATM    8  C   UNL     1      -8.982   6.620  68.046  1.00  0.00    -0.117 A  
HETATM    9  C   UNL     1      -9.486   4.034  68.973  1.00  0.00    -0.173 C  
HETATM   10  N   UNL     1      -8.931   7.988  67.915  1.00  0.00    -0.130 NA 
HETATM   11  C   UNL     1      -8.340   8.727  66.825  1.00  0.00    -0.108 C  
HETATM   12  N   UNL     1      -8.767   4.275  67.784  1.00  0.00    -0.103 N  
HETATM   13  C   UNL     1      -8.516   5.540  67.230  1.00  0.00    -0.110 C  
HETATM   14  O   UNL     1      -7.950   5.705  66.154  1.00  0.00    -0.102 OA 
BRANCH  12  15
HETATM   15  C   UNL     1      -8.240   3.109  67.077  1.00  0.00    -0.084 C  
HETATM   16  C   UNL     1      -9.181   2.573  66.008  1.00  0.00    -0.044 C  
ENDBRANCH  12  15
BRANCH   5  17
HETATM   17  C   UNL     1     -10.538   4.976  71.006  1.00  0.00    -0.076 C  
HETATM   18  C   UNL     1      -9.564   4.868  72.169  1.00  0.00    -0.196 C  
ENDBRANCH   5  17
ENDBRANCH   1   3
BRANCH   2  19
HETATM   19  C   UNL     1     -10.974  11.990  68.359  1.00  0.00    -0.276 A  
HETATM   20  C   UNL     1     -11.164  14.086  67.139  1.00  0.00    -0.327 A  
HETATM   21  C   UNL     1     -11.549  14.757  68.303  1.00  0.00    -0.323 A  
HETATM   22  C   UNL     1     -11.614  14.049  69.517  1.00  0.00    -0.295 A  
HETATM   23  C   UNL     1     -11.314  12.680  69.537  1.00  0.00    -0.227 A  
HETATM   24  C   UNL     1     -10.879  12.714  67.167  1.00  0.00    -0.282 A  
BRANCH  22  25
HETATM   25  O   UNL     1     -11.992  14.783  70.615  1.00  0.00    -0.272 OA 
HETATM   26  C   UNL     1     -13.076  14.307  71.399  1.00  0.00    -0.351 C  
ENDBRANCH  22  25
BRANCH  21  27
HETATM   27  O   UNL     1     -11.880  16.089  68.369  1.00  0.00    -0.304 OA 
HETATM   28  C   UNL     1     -10.845  17.044  68.207  1.00  0.00    -0.341 C  
ENDBRANCH  21  27
ENDBRANCH   2  19
TORSDOF 6
ENDMDL
MODEL      122
REMARK 921   NORMALIZED FREE ENERGY PREDICTED BY IDOCK:   -4.09 KCAL/MOL
REMARK 922        TOTAL FREE ENERGY PREDICTED BY IDOCK:   -5.82 KCAL/MOL
REMARK 923 INTER-LIGAND FREE ENERGY PREDICTED BY IDOCK:   -5.34 KCAL/MOL
REMARK 924 INTRA-LIGAND FREE ENERGY PREDICTED BY IDOCK:   -0.48 KCAL/MOL
REMARK 927      BINDING AFFINITY PREDICTED BY RF-SCORE:    0.00 PKD
ROOT
HETATM    1  C   UNL     1      -8.588  13.974  67.853  1.00  0.00    -0.181 C  
HETATM    2  C   UNL     1      -7.934  15.041  67.353  1.00  0.00    -0.218 C  
ENDROOT
BRANCH   1   3
HETATM    3  C   UNL     1      -8.683  12.791  67.061  1.00  0.00    -0.197 A  
HETATM    4  N   UNL     1      -9.208  12.663  65.853  1.00  0.00    -0.008 NA 
HETATM    5  N   UNL     1      -9.336  10.826  64.277  1.00  0.00    -0.229 N  
HETATM    6  O   UNL     1      -9.252   8.980  62.916  1.00  0.00     0.062 OA 
HETATM    7  C   UNL     1      -8.981  11.378  65.483  1.00  0.00    -0.088 A  
HETATM    8  C   UNL     1      -8.332  10.674  66.451  1.00  0.00    -0.151 A  
HETATM    9  C   UNL     1      -9.013   9.496  64.011  1.00  0.00    -0.188 C  
HETATM   10  N   UNL     1      -8.149  11.571  67.476  1.00  0.00    -0.131 NA 
HETATM   11  C   UNL     1      -7.524  11.306  68.750  1.00  0.00    -0.123 C  
HETATM   12  N   UNL     1      -8.415   8.761  65.056  1.00  0.00    -0.170 N  
HETATM   13  C   UNL     1      -8.002   9.291  66.288  1.00  0.00    -0.107 C  
HETATM   14  O   UNL     1      -7.418   8.633  67.143  1.00  0.00    -0.087 OA 
BRANCH  12  15
HETATM   15  C   UNL     1      -8.215   7.330  64.833  1.00  0.00    -0.073 C  
HETATM   16  C   UNL     1      -6.816   6.983  64.345  1.00  0.00    -0.047 C  
ENDBRANCH  12  15
BRANCH   5  17
HETATM   17  C   UNL     1     -10.030  11.628  63.274  1.00  0.00    -0.419 C  
HETATM   18  C   UNL     1     -11.530  11.699  63.518  1.00  0.00    -0.427 C  
ENDBRANCH   5  17
ENDBRANCH   1   3
BRANCH   2  19
HETATM   19  C   UNL     1      -7.603  16.288  68.067  1.00  0.00    -0.143 A  
HETATM   20  C   UNL     1      -6.102  17.748  69.306  1.00  0.00    -0.233 A  
HETATM   21  C   UNL     1      -7.079  18.746  69.361  1.00  0.00    -0.107 A  
HETATM   22  C   UNL     1      -8.345  18.503  68.797  1.00  0.00    -0.246 A  
HETATM   23  C   UNL     1      -8.599  17.276  68.169  1.00  0.00    -0.242 A  
HETATM   24  C   UNL     1      -6.362  16.529  68.663  1.00  0.00    -0.139 A  
BRANCH  22  25
HETATM   25  O   UNL     1      -9.251  19.530  68.901  1.00  0.00    -0.377 OA 
HETATM   26  C   UNL     1     -10.270  19.628  67.917  1.00  0.00    -0.448 C  
ENDBRANCH  22  25
BRANCH  21  27
HETATM   27  O   UNL     1      -6.908  19.981  69.936  1.00  0.00    -0.309 OA 
HETATM   28  C   UNL     1      -5.881  20.134  70.902  1.00  0.00    -0.311 C  
ENDBRANCH  21  27
ENDBRANCH   2  19
TORSDOF 6
ENDMDL
MODEL      123
REMARK 921   NORMALIZED FREE ENERGY PREDICTED BY IDOCK:   -4.05 KCAL/MOL
REMARK 922        TOTAL FREE ENERGY PREDICTED BY IDOCK:   -5.77 KCAL/MOL
REMARK 923 INTER-LIGAND FREE ENERGY PREDICTED BY IDOCK:   -5.24 KCAL/MOL
REMARK 924 INTRA-LIGAND FREE ENERGY PREDICTED BY IDOCK:   -0.53 KCAL/MOL
REMARK 927      BINDING AFFINITY PREDICTED BY RF-SCORE:    0.00 PKD
ROOT
HETATM    1  C   UNL     1      -9.507   9.690  66.413  1.00  0.00    -0.244 C  
HETATM    2  C   UNL     1      -9.329   8.739  67.352  1.00  0.00    -0.166 C  
ENDROOT
BRANCH   1   3
HETATM    3  C   UNL     1      -9.365  11.060  66.785  1.00  0.00    -0.181 A  
HETATM    4  N   UNL     1     -10.300  11.881  67.234  1.00  0.00    -0.203 NA 
HETATM    5  N   UNL     1     -10.263  14.157  68.066  1.00  0.00    -0.228 N  
HETATM    6  O   UNL     1      -9.968  16.275  68.899  1.00  0.00    -0.225 OA 
HETATM    7  C   UNL     1      -9.665  13.040  67.535  1.00  0.00    -0.206 A  
HETATM    8  C   UNL     1      -8.333  12.978  67.265  1.00  0.00    -0.185 A  
HETATM    9  C   UNL     1      -9.484  15.276  68.359  1.00  0.00    -0.206 C  
HETATM   10  N   UNL     1      -8.132  11.712  66.769  1.00  0.00    -0.163 NA 
HETATM   11  C   UNL     1      -6.882  11.156  66.310  1.00  0.00    -0.055 C  
HETATM   12  N   UNL     1      -8.123  15.222  67.996  1.00  0.00    -0.134 N  
HETATM   13  C   UNL     1      -7.463  14.093  67.488  1.00  0.00    -0.174 C  
HETATM   14  O   UNL     1      -6.259  14.064  67.254  1.00  0.00    -0.304 OA 
BRANCH  12  15
HETATM   15  C   UNL     1      -7.341  16.446  68.162  1.00  0.00    -0.148 C  
HETATM   16  C   UNL     1      -7.281  17.302  66.905  1.00  0.00    -0.235 C  
ENDBRANCH  12  15
BRANCH   5  17
HETATM   17  C   UNL     1     -11.697  14.169  68.336  1.00  0.00    -0.345 C  
HETATM   18  C   UNL     1     -12.038  13.609  69.709  1.00  0.00    -0.396 C  
ENDBRANCH   5  17
ENDBRANCH   1   3
BRANCH   2  19
HETATM   19  C   UNL     1      -9.286   7.281  67.135  1.00  0.00    -0.156 A  
HETATM   20  C   UNL     1      -8.915   5.297  65.776  1.00  0.00    -0.154 A  
HETATM   21  C   UNL     1      -9.188   4.469  66.867  1.00  0.00    -0.133 A  
HETATM   22  C   UNL     1      -9.550   5.047  68.098  1.00  0.00    -0.138 A  
HETATM   23  C   UNL     1      -9.608   6.442  68.217  1.00  0.00    -0.123 A  
HETATM   24  C   UNL     1      -8.963   6.693  65.909  1.00  0.00    -0.096 A  
BRANCH  22  25
HETATM   25  O   UNL     1      -9.810   4.164  69.117  1.00  0.00    -0.167 OA 
HETATM   26  C   UNL     1     -10.067   4.689  70.411  1.00  0.00    -0.205 C  
ENDBRANCH  22  25
BRANCH  21  27
HETATM   27  O   UNL     1      -9.134   3.097  66.844  1.00  0.00    -0.150 OA 
HETATM   28  C   UNL     1      -9.003   2.453  65.587  1.00  0.00    -0.121 C  
ENDBRANCH  21  27
ENDBRANCH   2  19
TORSDOF 6
ENDMDL
MODEL      124
REMARK 921   NORMALIZED FREE ENERGY PREDICTED BY IDOCK:   -4.04 KCAL/MOL
REMARK 922        TOTAL FREE ENERGY PREDICTED BY IDOCK:   -5.76 KCAL/MOL
REMARK 923 INTER-LIGAND FREE ENERGY PREDICTED BY IDOCK:   -5.22 KCAL/MOL
REMARK 924 INTRA-LIGAND FREE ENERGY PREDICTED BY IDOCK:   -0.53 KCAL/MOL
REMARK 927      BINDING AFFINITY PREDICTED BY RF-SCORE:    0.00 PKD
ROOT
HETATM    1  C   UNL     1      -9.217  10.245  69.160  1.00  0.00    -0.203 C  
HETATM    2  C   UNL     1      -9.702  10.370  67.909  1.00  0.00    -0.168 C  
ENDROOT
BRANCH   1   3
HETATM    3  C   UNL     1      -8.987   8.937  69.682  1.00  0.00    -0.147 A  
HETATM    4  N   UNL     1      -9.868   8.115  70.231  1.00  0.00    -0.183 NA 
HETATM    5  N   UNL     1      -9.746   5.829  71.027  1.00  0.00    -0.167 N  
HETATM    6  O   UNL     1      -9.415   3.638  71.626  1.00  0.00    -0.123 OA 
HETATM    7  C   UNL     1      -9.196   6.965  70.484  1.00  0.00    -0.156 A  
HETATM    8  C   UNL     1      -7.887   7.047  70.121  1.00  0.00    -0.109 A  
HETATM    9  C   UNL     1      -8.946   4.700  71.205  1.00  0.00    -0.127 C  
HETATM   10  N   UNL     1      -7.740   8.317  69.616  1.00  0.00    -0.097 NA 
HETATM   11  C   UNL     1      -6.522   8.907  69.114  1.00  0.00    -0.043 C  
HETATM   12  N   UNL     1      -7.576   4.831  70.900  1.00  0.00    -0.067 N  
HETATM   13  C   UNL     1      -6.980   5.956  70.311  1.00  0.00    -0.062 C  
HETATM   14  O   UNL     1      -5.796   6.002  69.992  1.00  0.00    -0.016 OA 
BRANCH  12  15
HETATM   15  C   UNL     1      -6.711   3.699  71.230  1.00  0.00    -0.031 C  
HETATM   16  C   UNL     1      -6.552   2.706  70.088  1.00  0.00    -0.033 C  
ENDBRANCH  12  15
BRANCH   5  17
HETATM   17  C   UNL     1     -11.157   5.796  71.398  1.00  0.00    -0.204 C  
HETATM   18  C   UNL     1     -11.404   6.320  72.805  1.00  0.00    -0.236 C  
ENDBRANCH   5  17
ENDBRANCH   1   3
BRANCH   2  19
HETATM   19  C   UNL     1      -9.864  11.621  67.146  1.00  0.00    -0.205 A  
HETATM   20  C   UNL     1      -9.778  14.040  66.897  1.00  0.00    -0.272 A  
HETATM   21  C   UNL     1     -10.160  13.939  65.556  1.00  0.00    -0.298 A  
HETATM   22  C   UNL     1     -10.434  12.672  65.010  1.00  0.00    -0.308 A  
HETATM   23  C   UNL     1     -10.296  11.530  65.810  1.00  0.00    -0.295 A  
HETATM   24  C   UNL     1      -9.630  12.889  67.685  1.00  0.00    -0.196 A  
BRANCH  22  25
HETATM   25  O   UNL     1     -10.811  12.661  63.690  1.00  0.00    -0.426 OA 
HETATM   26  C   UNL     1     -12.184  12.463  63.386  1.00  0.00    -0.523 C  
ENDBRANCH  22  25
BRANCH  21  27
HETATM   27  O   UNL     1     -10.298  15.003  64.698  1.00  0.00    -0.267 OA 
HETATM   28  C   UNL     1     -11.235  16.014  65.030  1.00  0.00    -0.261 C  
ENDBRANCH  21  27
ENDBRANCH   2  19
TORSDOF 6
ENDMDL
MODEL      125
REMARK 921   NORMALIZED FREE ENERGY PREDICTED BY IDOCK:   -4.00 KCAL/MOL
REMARK 922        TOTAL FREE ENERGY PREDICTED BY IDOCK:   -5.70 KCAL/MOL
REMARK 923 INTER-LIGAND FREE ENERGY PREDICTED BY IDOCK:   -5.58 KCAL/MOL
REMARK 924 INTRA-LIGAND FREE ENERGY PREDICTED BY IDOCK:   -0.12 KCAL/MOL
REMARK 927      BINDING AFFINITY PREDICTED BY RF-SCORE:    0.00 PKD
ROOT
HETATM    1  C   UNL     1      -9.823  11.414  67.190  1.00  0.00    -0.212 C  
HETATM    2  C   UNL     1      -9.838  12.257  66.139  1.00  0.00    -0.257 C  
ENDROOT
BRANCH   1   3
HETATM    3  C   UNL     1      -9.368  10.076  66.993  1.00  0.00    -0.154 A  
HETATM    4  N   UNL     1     -10.041   8.953  67.182  1.00  0.00    -0.226 NA 
HETATM    5  N   UNL     1      -9.540   6.618  66.769  1.00  0.00    -0.162 N  
HETATM    6  O   UNL     1      -8.880   4.493  66.205  1.00  0.00    -0.112 OA 
HETATM    7  C   UNL     1      -9.220   7.954  66.774  1.00  0.00    -0.166 A  
HETATM    8  C   UNL     1      -8.018   8.424  66.344  1.00  0.00    -0.099 A  
HETATM    9  C   UNL     1      -8.610   5.694  66.292  1.00  0.00    -0.127 C  
HETATM   10  N   UNL     1      -8.097   9.788  66.494  1.00  0.00    -0.116 NA 
HETATM   11  C   UNL     1      -7.062  10.748  66.197  1.00  0.00    -0.122 C  
HETATM   12  N   UNL     1      -7.341   6.191  65.928  1.00  0.00    -0.078 N  
HETATM   13  C   UNL     1      -6.984   7.547  65.883  1.00  0.00    -0.061 C  
HETATM   14  O   UNL     1      -5.891   7.944  65.489  1.00  0.00    -0.037 OA 
BRANCH  12  15
HETATM   15  C   UNL     1      -6.318   5.209  65.574  1.00  0.00    -0.035 C  
HETATM   16  C   UNL     1      -5.481   4.752  66.760  1.00  0.00    -0.013 C  
ENDBRANCH  12  15
BRANCH   5  17
HETATM   17  C   UNL     1     -10.845   6.169  67.241  1.00  0.00    -0.352 C  
HETATM   18  C   UNL     1     -10.876   5.940  68.744  1.00  0.00    -0.353 C  
ENDBRANCH   5  17
ENDBRANCH   1   3
BRANCH   2  19
HETATM   19  C   UNL     1     -10.129  13.702  66.170  1.00  0.00    -0.311 A  
HETATM   20  C   UNL     1     -10.867  15.792  65.165  1.00  0.00    -0.444 A  
HETATM   21  C   UNL     1     -10.701  16.463  66.380  1.00  0.00    -0.161 A  
HETATM   22  C   UNL     1     -10.210  15.759  67.495  1.00  0.00    -0.265 A  
HETATM   23  C   UNL     1      -9.918  14.393  67.377  1.00  0.00    -0.242 A  
HETATM   24  C   UNL     1     -10.584  14.422  65.062  1.00  0.00    -0.452 A  
BRANCH  22  25
HETATM   25  O   UNL     1     -10.069  16.492  68.648  1.00  0.00    -0.230 OA 
HETATM   26  C   UNL     1     -10.884  16.157  69.761  1.00  0.00    -0.333 C  
ENDBRANCH  22  25
BRANCH  21  27
HETATM   27  O   UNL     1     -10.983  17.791  66.588  1.00  0.00    -0.071 OA 
HETATM   28  C   UNL     1      -9.950  18.737  66.368  1.00  0.00    -0.392 C  
ENDBRANCH  21  27
ENDBRANCH   2  19
TORSDOF 6
ENDMDL
MODEL      126
REMARK 921   NORMALIZED FREE ENERGY PREDICTED BY IDOCK:   -4.00 KCAL/MOL
REMARK 922        TOTAL FREE ENERGY PREDICTED BY IDOCK:   -5.70 KCAL/MOL
REMARK 923 INTER-LIGAND FREE ENERGY PREDICTED BY IDOCK:   -5.26 KCAL/MOL
REMARK 924 INTRA-LIGAND FREE ENERGY PREDICTED BY IDOCK:   -0.43 KCAL/MOL
REMARK 927      BINDING AFFINITY PREDICTED BY RF-SCORE:    0.00 PKD
ROOT
HETATM    1  C   UNL     1      -9.265  12.869  67.892  1.00  0.00    -0.208 C  
HETATM    2  C   UNL     1      -8.945  11.955  66.955  1.00  0.00    -0.190 C  
ENDROOT
BRANCH   1   3
HETATM    3  C   UNL     1      -9.027  14.249  67.617  1.00  0.00    -0.194 A  
HETATM    4  N   UNL     1      -7.867  14.844  67.391  1.00  0.00    -0.186 NA 
HETATM    5  N   UNL     1      -7.245  17.098  66.755  1.00  0.00    -0.199 N  
HETATM    6  O   UNL     1      -6.905  19.260  66.064  1.00  0.00    -0.219 OA 
HETATM    7  C   UNL     1      -8.162  16.133  67.090  1.00  0.00    -0.196 A  
HETATM    8  C   UNL     1      -9.500  16.376  67.141  1.00  0.00    -0.231 A  
HETATM    9  C   UNL     1      -7.688  18.382  66.436  1.00  0.00    -0.262 C  
HETATM   10  N   UNL     1     -10.064  15.174  67.493  1.00  0.00    -0.231 NA 
HETATM   11  C   UNL     1     -11.468  14.910  67.702  1.00  0.00    -0.352 C  
HETATM   12  N   UNL     1      -9.068  18.636  66.574  1.00  0.00    -0.313 N  
HETATM   13  C   UNL     1     -10.043  17.674  66.878  1.00  0.00    -0.331 C  
HETATM   14  O   UNL     1     -11.245  17.921  66.916  1.00  0.00     0.175 OA 
BRANCH  12  15
HETATM   15  C   UNL     1      -9.512  20.016  66.389  1.00  0.00    -0.403 C  
HETATM   16  C   UNL     1      -9.971  20.683  67.678  1.00  0.00    -0.388 C  
ENDBRANCH  12  15
BRANCH   5  17
HETATM   17  C   UNL     1      -5.820  16.782  66.715  1.00  0.00    -0.103 C  
HETATM   18  C   UNL     1      -5.132  17.014  68.052  1.00  0.00    -0.117 C  
ENDBRANCH   5  17
ENDBRANCH   1   3
BRANCH   2  19
HETATM   19  C   UNL     1      -9.248  10.512  66.990  1.00  0.00    -0.167 A  
HETATM   20  C   UNL     1     -10.137   8.456  66.041  1.00  0.00     0.170 A  
HETATM   21  C   UNL     1      -9.721   7.731  67.160  1.00  0.00    -0.186 A  
HETATM   22  C   UNL     1      -9.094   8.404  68.224  1.00  0.00    -0.139 A  
HETATM   23  C   UNL     1      -8.876   9.786  68.135  1.00  0.00    -0.119 A  
HETATM   24  C   UNL     1      -9.902   9.836  65.956  1.00  0.00    -0.342 A  
BRANCH  22  25
HETATM   25  O   UNL     1      -8.723   7.621  69.290  1.00  0.00    -0.135 OA 
HETATM   26  C   UNL     1      -9.381   7.822  70.531  1.00  0.00    -0.163 C  
ENDBRANCH  22  25
BRANCH  21  27
HETATM   27  O   UNL     1      -9.875   6.375  67.319  1.00  0.00    -0.126 OA 
HETATM   28  C   UNL     1     -10.592   5.662  66.324  1.00  0.00    -0.111 C  
ENDBRANCH  21  27
ENDBRANCH   2  19
TORSDOF 6
ENDMDL
MODEL      127
REMARK 921   NORMALIZED FREE ENERGY PREDICTED BY IDOCK:   -3.93 KCAL/MOL
REMARK 922        TOTAL FREE ENERGY PREDICTED BY IDOCK:   -5.61 KCAL/MOL
REMARK 923 INTER-LIGAND FREE ENERGY PREDICTED BY IDOCK:   -5.16 KCAL/MOL
REMARK 924 INTRA-LIGAND FREE ENERGY PREDICTED BY IDOCK:   -0.45 KCAL/MOL
REMARK 927      BINDING AFFINITY PREDICTED BY RF-SCORE:    0.00 PKD
ROOT
HETATM    1  C   UNL     1      -8.435  13.604  68.255  1.00  0.00    -0.170 C  
HETATM    2  C   UNL     1      -7.287  14.309  68.295  1.00  0.00    -0.124 C  
ENDROOT
BRANCH   1   3
HETATM    3  C   UNL     1      -8.369  12.188  68.090  1.00  0.00    -0.170 A  
HETATM    4  N   UNL     1      -7.590  11.332  68.730  1.00  0.00    -0.124 NA 
HETATM    5  N   UNL     1      -7.418   8.914  68.734  1.00  0.00    -0.082 N  
HETATM    6  O   UNL     1      -7.504   6.623  68.641  1.00  0.00    -0.085 OA 
HETATM    7  C   UNL     1      -7.956  10.100  68.297  1.00  0.00    -0.101 A  
HETATM    8  C   UNL     1      -8.950  10.159  67.370  1.00  0.00    -0.134 A  
HETATM    9  C   UNL     1      -7.911   7.712  68.227  1.00  0.00    -0.121 C  
HETATM   10  N   UNL     1      -9.214  11.499  67.219  1.00  0.00    -0.165 NA 
HETATM   11  C   UNL     1     -10.180  12.092  66.326  1.00  0.00    -0.222 C  
HETATM   12  N   UNL     1      -8.882   7.796  67.209  1.00  0.00    -0.127 N  
HETATM   13  C   UNL     1      -9.486   8.980  66.759  1.00  0.00    -0.182 C  
HETATM   14  O   UNL     1     -10.382   9.004  65.921  1.00  0.00    -0.050 OA 
BRANCH  12  15
HETATM   15  C   UNL     1      -9.288   6.544  66.571  1.00  0.00    -0.159 C  
HETATM   16  C   UNL     1     -10.564   5.954  67.153  1.00  0.00    -0.373 C  
ENDBRANCH  12  15
BRANCH   5  17
HETATM   17  C   UNL     1      -6.352   8.909  69.731  1.00  0.00    -0.035 C  
HETATM   18  C   UNL     1      -6.877   9.089  71.147  1.00  0.00    -0.092 C  
ENDBRANCH   5  17
ENDBRANCH   1   3
BRANCH   2  19
HETATM   19  C   UNL     1      -7.142  15.743  68.604  1.00  0.00    -0.129 A  
HETATM   20  C   UNL     1      -6.054  17.633  69.683  1.00  0.00    -0.245 A  
HETATM   21  C   UNL     1      -6.941  18.524  69.072  1.00  0.00    -0.267 A  
HETATM   22  C   UNL     1      -7.963  18.021  68.246  1.00  0.00    -0.290 A  
HETATM   23  C   UNL     1      -8.062  16.640  68.031  1.00  0.00    -0.181 A  
HETATM   24  C   UNL     1      -6.154  16.254  69.451  1.00  0.00    -0.169 A  
BRANCH  22  25
HETATM   25  O   UNL     1      -8.797  18.961  67.690  1.00  0.00    -0.283 OA 
HETATM   26  C   UNL     1     -10.141  19.016  68.142  1.00  0.00    -0.395 C  
ENDBRANCH  22  25
BRANCH  21  27
HETATM   27  O   UNL     1      -6.902  19.890  69.211  1.00  0.00    -0.334 OA 
HETATM   28  C   UNL     1      -5.877  20.452  70.014  1.00  0.00    -0.352 C  
ENDBRANCH  21  27
ENDBRANCH   2  19
TORSDOF 6
ENDMDL
MODEL      128
REMARK 921   NORMALIZED FREE ENERGY PREDICTED BY IDOCK:   -3.84 KCAL/MOL
REMARK 922        TOTAL FREE ENERGY PREDICTED BY IDOCK:   -5.49 KCAL/MOL
REMARK 923 INTER-LIGAND FREE ENERGY PREDICTED BY IDOCK:   -5.03 KCAL/MOL
REMARK 924 INTRA-LIGAND FREE ENERGY PREDICTED BY IDOCK:   -0.46 KCAL/MOL
REMARK 927      BINDING AFFINITY PREDICTED BY RF-SCORE:    0.00 PKD
ROOT
HETATM    1  C   UNL     1      -9.991  13.739  68.273  1.00  0.00    -0.243 C  
HETATM    2  C   UNL     1      -8.949  14.507  67.898  1.00  0.00    -0.187 C  
ENDROOT
BRANCH   1   3
HETATM    3  C   UNL     1      -9.944  12.337  68.011  1.00  0.00    -0.202 A  
HETATM    4  N   UNL     1      -9.294  11.714  67.041  1.00  0.00    -0.177 NA 
HETATM    5  N   UNL     1      -8.942   9.377  66.503  1.00  0.00    -0.144 N  
HETATM    6  O   UNL     1      -8.668   7.113  66.248  1.00  0.00    -0.135 OA 
HETATM    7  C   UNL     1      -9.477  10.389  67.262  1.00  0.00    -0.154 A  
HETATM    8  C   UNL     1     -10.256  10.155  68.354  1.00  0.00    -0.169 A  
HETATM    9  C   UNL     1      -9.185   8.051  66.861  1.00  0.00    -0.154 C  
HETATM   10  N   UNL     1     -10.573  11.404  68.835  1.00  0.00    -0.203 NA 
HETATM   11  C   UNL     1     -11.404  11.701  69.976  1.00  0.00    -0.091 C  
HETATM   12  N   UNL     1     -10.060   7.830  67.945  1.00  0.00    -0.176 N  
HETATM   13  C   UNL     1     -10.598   8.829  68.770  1.00  0.00    -0.145 C  
HETATM   14  O   UNL     1     -11.298   8.590  69.749  1.00  0.00    -0.059 OA 
BRANCH  12  15
HETATM   15  C   UNL     1     -10.435   6.445  68.225  1.00  0.00    -0.223 C  
HETATM   16  C   UNL     1      -9.444   5.719  69.124  1.00  0.00    -0.157 C  
ENDBRANCH  12  15
BRANCH   5  17
HETATM   17  C   UNL     1      -8.113   9.684  65.342  1.00  0.00    -0.127 C  
HETATM   18  C   UNL     1      -6.633   9.762  65.684  1.00  0.00    -0.087 C  
ENDBRANCH   5  17
ENDBRANCH   1   3
BRANCH   2  19
HETATM   19  C   UNL     1      -8.746  15.933  68.209  1.00  0.00    -0.174 A  
HETATM   20  C   UNL     1      -7.447  17.808  69.058  1.00  0.00    -0.170 A  
HETATM   21  C   UNL     1      -8.461  18.702  68.705  1.00  0.00    -0.260 A  
HETATM   22  C   UNL     1      -9.647  18.208  68.132  1.00  0.00    -0.307 A  
HETATM   23  C   UNL     1      -9.784  16.832  67.902  1.00  0.00    -0.245 A  
HETATM   24  C   UNL     1      -7.588  16.434  68.811  1.00  0.00    -0.211 A  
BRANCH  22  25
HETATM   25  O   UNL     1     -10.597  19.150  67.823  1.00  0.00    -0.415 OA 
HETATM   26  C   UNL     1     -10.826  19.448  66.454  1.00  0.00    -0.322 C  
ENDBRANCH  22  25
BRANCH  21  27
HETATM   27  O   UNL     1      -8.401  20.063  68.875  1.00  0.00    -0.083 OA 
HETATM   28  C   UNL     1      -7.666  20.824  67.931  1.00  0.00    -0.007 C  
ENDBRANCH  21  27
ENDBRANCH   2  19
TORSDOF 6
ENDMDL
MODEL      129
REMARK 921   NORMALIZED FREE ENERGY PREDICTED BY IDOCK:   -3.82 KCAL/MOL
REMARK 922        TOTAL FREE ENERGY PREDICTED BY IDOCK:   -5.46 KCAL/MOL
REMARK 923 INTER-LIGAND FREE ENERGY PREDICTED BY IDOCK:   -5.40 KCAL/MOL
REMARK 924 INTRA-LIGAND FREE ENERGY PREDICTED BY IDOCK:   -0.06 KCAL/MOL
REMARK 927      BINDING AFFINITY PREDICTED BY RF-SCORE:    0.00 PKD
ROOT
HETATM    1  C   UNL     1      -8.403  14.553  67.702  1.00  0.00    -0.188 C  
HETATM    2  C   UNL     1      -8.170  15.495  66.767  1.00  0.00    -0.277 C  
ENDROOT
BRANCH   1   3
HETATM    3  C   UNL     1      -8.429  13.182  67.308  1.00  0.00    -0.198 A  
HETATM    4  N   UNL     1      -9.118  12.634  66.320  1.00  0.00    -0.115 NA 
HETATM    5  N   UNL     1      -9.196  10.402  65.379  1.00  0.00    -0.179 N  
HETATM    6  O   UNL     1      -9.030   8.250  64.598  1.00  0.00     0.125 OA 
HETATM    7  C   UNL     1      -8.743  11.331  66.283  1.00  0.00    -0.184 A  
HETATM    8  C   UNL     1      -7.835  11.033  67.252  1.00  0.00    -0.122 A  
HETATM    9  C   UNL     1      -8.703   9.098  65.433  1.00  0.00    -0.186 C  
HETATM   10  N   UNL     1      -7.637  12.214  67.926  1.00  0.00    -0.113 NA 
HETATM   11  C   UNL     1      -6.775  12.421  69.064  1.00  0.00    -0.100 C  
HETATM   12  N   UNL     1      -7.827   8.788  66.493  1.00  0.00    -0.102 N  
HETATM   13  C   UNL     1      -7.310   9.711  67.415  1.00  0.00    -0.087 C  
HETATM   14  O   UNL     1      -6.491   9.415  68.279  1.00  0.00    -0.053 OA 
BRANCH  12  15
HETATM   15  C   UNL     1      -7.430   7.389  66.640  1.00  0.00    -0.088 C  
HETATM   16  C   UNL     1      -6.221   7.010  65.798  1.00  0.00    -0.037 C  
ENDBRANCH  12  15
BRANCH   5  17
HETATM   17  C   UNL     1     -10.171  10.777  64.359  1.00  0.00    -0.364 C  
HETATM   18  C   UNL     1      -9.621  10.643  62.947  1.00  0.00    -0.358 C  
ENDBRANCH   5  17
ENDBRANCH   1   3
BRANCH   2  19
HETATM   19  C   UNL     1      -7.959  16.935  66.998  1.00  0.00    -0.228 A  
HETATM   20  C   UNL     1      -8.088  18.962  68.338  1.00  0.00    -0.376 A  
HETATM   21  C   UNL     1      -7.447  19.695  67.335  1.00  0.00    -0.253 A  
HETATM   22  C   UNL     1      -7.088  19.054  66.135  1.00  0.00    -0.253 A  
HETATM   23  C   UNL     1      -7.359  17.688  65.973  1.00  0.00    -0.301 A  
HETATM   24  C   UNL     1      -8.341  17.593  68.171  1.00  0.00    -0.259 A  
BRANCH  22  25
HETATM   25  O   UNL     1      -6.470  19.846  65.198  1.00  0.00    -0.253 OA 
HETATM   26  C   UNL     1      -5.850  19.213  64.089  1.00  0.00    -0.233 C  
ENDBRANCH  22  25
BRANCH  21  27
HETATM   27  O   UNL     1      -7.126  21.028  67.420  1.00  0.00    -0.365 OA 
HETATM   28  C   UNL     1      -5.870  21.380  67.977  1.00  0.00    -0.249 C  
ENDBRANCH  21  27
ENDBRANCH   2  19
TORSDOF 6
ENDMDL
MODEL      130
REMARK 921   NORMALIZED FREE ENERGY PREDICTED BY IDOCK:   -3.80 KCAL/MOL
REMARK 922        TOTAL FREE ENERGY PREDICTED BY IDOCK:   -5.44 KCAL/MOL
REMARK 923 INTER-LIGAND FREE ENERGY PREDICTED BY IDOCK:   -5.12 KCAL/MOL
REMARK 924 INTRA-LIGAND FREE ENERGY PREDICTED BY IDOCK:   -0.32 KCAL/MOL
REMARK 927      BINDING AFFINITY PREDICTED BY RF-SCORE:    0.00 PKD
ROOT
HETATM    1  C   UNL     1      -8.327   7.998  66.189  1.00  0.00    -0.125 C  
HETATM    2  C   UNL     1      -8.791   6.924  66.857  1.00  0.00    -0.122 C  
ENDROOT
BRANCH   1   3
HETATM    3  C   UNL     1      -9.185   9.125  66.013  1.00  0.00    -0.215 A  
HETATM    4  N   UNL     1      -9.946   9.715  66.920  1.00  0.00    -0.198 NA 
HETATM    5  N   UNL     1     -11.336  11.700  66.895  1.00  0.00    -0.318 N  
HETATM    6  O   UNL     1     -12.508  13.659  66.661  1.00  0.00    -0.361 OA 
HETATM    7  C   UNL     1     -10.498  10.788  66.302  1.00  0.00    -0.226 A  
HETATM    8  C   UNL     1     -10.113  10.881  65.000  1.00  0.00    -0.300 A  
HETATM    9  C   UNL     1     -11.809  12.780  66.150  1.00  0.00    -0.425 C  
HETATM   10  N   UNL     1      -9.279   9.807  64.801  1.00  0.00    -0.250 NA 
HETATM   11  C   UNL     1      -8.622   9.445  63.568  1.00  0.00    -0.206 C  
HETATM   12  N   UNL     1     -11.466  12.814  64.783  1.00  0.00    -0.305 N  
HETATM   13  C   UNL     1     -10.585  11.928  64.145  1.00  0.00    -0.350 C  
HETATM   14  O   UNL     1     -10.254  12.036  62.968  1.00  0.00    -0.343 OA 
BRANCH  12  15
HETATM   15  C   UNL     1     -12.084  13.859  63.968  1.00  0.00    -0.396 C  
HETATM   16  C   UNL     1     -11.493  15.241  64.206  1.00  0.00    -0.162 C  
ENDBRANCH  12  15
BRANCH   5  17
HETATM   17  C   UNL     1     -11.716  11.552  68.297  1.00  0.00    -0.301 C  
HETATM   18  C   UNL     1     -10.650  12.069  69.249  1.00  0.00     0.008 C  
ENDBRANCH   5  17
ENDBRANCH   1   3
BRANCH   2  19
HETATM   19  C   UNL     1      -8.019   5.737  67.267  1.00  0.00    -0.102 A  
HETATM   20  C   UNL     1      -7.060   4.235  68.924  1.00  0.00    -0.051 A  
HETATM   21  C   UNL     1      -6.565   3.402  67.918  1.00  0.00    -0.038 A  
HETATM   22  C   UNL     1      -6.765   3.754  66.570  1.00  0.00    -0.046 A  
HETATM   23  C   UNL     1      -7.476   4.921  66.259  1.00  0.00    -0.086 A  
HETATM   24  C   UNL     1      -7.782   5.393  68.601  1.00  0.00    -0.084 A  
BRANCH  22  25
HETATM   25  O   UNL     1      -6.241   2.886  65.643  1.00  0.00    -0.023 OA 
HETATM   26  C   UNL     1      -6.982   2.643  64.457  1.00  0.00    -0.048 C  
ENDBRANCH  22  25
BRANCH  21  27
HETATM   27  O   UNL     1      -5.878   2.232  68.134  1.00  0.00    -0.022 OA 
HETATM   28  C   UNL     1      -5.722   1.785  69.471  1.00  0.00    -0.022 C  
ENDBRANCH  21  27
ENDBRANCH   2  19
TORSDOF 6
ENDMDL
MODEL      131
REMARK 921   NORMALIZED FREE ENERGY PREDICTED BY IDOCK:   -3.80 KCAL/MOL
REMARK 922        TOTAL FREE ENERGY PREDICTED BY IDOCK:   -5.44 KCAL/MOL
REMARK 923 INTER-LIGAND FREE ENERGY PREDICTED BY IDOCK:   -4.88 KCAL/MOL
REMARK 924 INTRA-LIGAND FREE ENERGY PREDICTED BY IDOCK:   -0.55 KCAL/MOL
REMARK 927      BINDING AFFINITY PREDICTED BY RF-SCORE:    0.00 PKD
ROOT
HETATM    1  C   UNL     1      -8.927  10.104  69.559  1.00  0.00    -0.205 C  
HETATM    2  C   UNL     1      -9.618   9.981  68.409  1.00  0.00    -0.153 C  
ENDROOT
BRANCH   1   3
HETATM    3  C   UNL     1      -8.582   8.926  70.286  1.00  0.00    -0.167 A  
HETATM    4  N   UNL     1      -9.376   8.164  71.021  1.00  0.00    -0.148 NA 
HETATM    5  N   UNL     1      -9.058   6.067  72.193  1.00  0.00    -0.143 N  
HETATM    6  O   UNL     1      -8.547   4.040  73.143  1.00  0.00    -0.092 OA 
HETATM    7  C   UNL     1      -8.615   7.119  71.430  1.00  0.00    -0.116 A  
HETATM    8  C   UNL     1      -7.334   7.213  70.981  1.00  0.00    -0.075 A  
HETATM    9  C   UNL     1      -8.174   5.037  72.517  1.00  0.00    -0.116 C  
HETATM   10  N   UNL     1      -7.299   8.380  70.255  1.00  0.00    -0.054 NA 
HETATM   11  C   UNL     1      -6.151   8.944  69.587  1.00  0.00    -0.039 C  
HETATM   12  N   UNL     1      -6.833   5.193  72.113  1.00  0.00    -0.062 N  
HETATM   13  C   UNL     1      -6.345   6.230  71.303  1.00  0.00    -0.048 C  
HETATM   14  O   UNL     1      -5.183   6.290  70.911  1.00  0.00    -0.017 OA 
BRANCH  12  15
HETATM   15  C   UNL     1      -5.876   4.192  72.582  1.00  0.00    -0.015 C  
HETATM   16  C   UNL     1      -5.698   3.026  71.620  1.00  0.00    -0.009 C  
ENDBRANCH  12  15
BRANCH   5  17
HETATM   17  C   UNL     1     -10.444   6.015  72.648  1.00  0.00    -0.205 C  
HETATM   18  C   UNL     1     -10.629   6.629  74.027  1.00  0.00    -0.196 C  
ENDBRANCH   5  17
ENDBRANCH   1   3
BRANCH   2  19
HETATM   19  C   UNL     1      -9.935  11.054  67.449  1.00  0.00    -0.209 A  
HETATM   20  C   UNL     1     -10.169  13.387  66.800  1.00  0.00    -0.259 A  
HETATM   21  C   UNL     1     -10.517  13.015  65.498  1.00  0.00    -0.285 A  
HETATM   22  C   UNL     1     -10.611  11.649  65.173  1.00  0.00    -0.290 A  
HETATM   23  C   UNL     1     -10.333  10.685  66.152  1.00  0.00    -0.291 A  
HETATM   24  C   UNL     1      -9.880  12.414  67.767  1.00  0.00    -0.203 A  
BRANCH  22  25
HETATM   25  O   UNL     1     -10.966  11.368  63.877  1.00  0.00    -0.373 OA 
HETATM   26  C   UNL     1      -9.994  10.775  63.029  1.00  0.00    -0.243 C  
ENDBRANCH  22  25
BRANCH  21  27
HETATM   27  O   UNL     1     -10.784  13.892  64.476  1.00  0.00    -0.412 OA 
HETATM   28  C   UNL     1     -11.975  14.659  64.545  1.00  0.00    -0.460 C  
ENDBRANCH  21  27
ENDBRANCH   2  19
TORSDOF 6
ENDMDL
MODEL      132
REMARK 921   NORMALIZED FREE ENERGY PREDICTED BY IDOCK:   -3.59 KCAL/MOL
REMARK 922        TOTAL FREE ENERGY PREDICTED BY IDOCK:   -5.15 KCAL/MOL
REMARK 923 INTER-LIGAND FREE ENERGY PREDICTED BY IDOCK:   -5.40 KCAL/MOL
REMARK 924 INTRA-LIGAND FREE ENERGY PREDICTED BY IDOCK:    0.24 KCAL/MOL
REMARK 927      BINDING AFFINITY PREDICTED BY RF-SCORE:    0.00 PKD
ROOT
HETATM    1  C   UNL     1      -8.892  13.510  68.670  1.00  0.00    -0.003 C  
HETATM    2  C   UNL     1      -8.483  12.599  67.765  1.00  0.00    -0.172 C  
ENDROOT
BRANCH   1   3
HETATM    3  C   UNL     1      -8.689  14.895  68.394  1.00  0.00    -0.172 A  
HETATM    4  N   UNL     1      -9.470  15.709  67.702  1.00  0.00    -0.210 NA 
HETATM    5  N   UNL     1      -9.414  18.088  67.246  1.00  0.00    -0.256 N  
HETATM    6  O   UNL     1      -9.203  20.364  67.029  1.00  0.00    -0.367 OA 
HETATM    7  C   UNL     1      -8.905  16.938  67.796  1.00  0.00    -0.217 A  
HETATM    8  C   UNL     1      -7.756  16.917  68.526  1.00  0.00    -0.227 A  
HETATM    9  C   UNL     1      -8.746  19.296  67.447  1.00  0.00    -0.293 C  
HETATM   10  N   UNL     1      -7.601  15.604  68.903  1.00  0.00    -0.158 NA 
HETATM   11  C   UNL     1      -6.515  15.054  69.678  1.00  0.00    -0.154 C  
HETATM   12  N   UNL     1      -7.516  19.241  68.135  1.00  0.00    -0.278 N  
HETATM   13  C   UNL     1      -6.977  18.098  68.744  1.00  0.00    -0.270 C  
HETATM   14  O   UNL     1      -5.938  18.108  69.397  1.00  0.00    -0.222 OA 
BRANCH  12  15
HETATM   15  C   UNL     1      -6.742  20.479  68.213  1.00  0.00    -0.251 C  
HETATM   16  C   UNL     1      -5.799  20.679  67.034  1.00  0.00    -0.241 C  
ENDBRANCH  12  15
BRANCH   5  17
HETATM   17  C   UNL     1     -10.651  18.053  66.473  1.00  0.00    -0.253 C  
HETATM   18  C   UNL     1     -10.728  16.849  65.548  1.00  0.00    -0.171 C  
ENDBRANCH   5  17
ENDBRANCH   1   3
BRANCH   2  19
HETATM   19  C   UNL     1      -8.734  11.147  67.798  1.00  0.00    -0.132 A  
HETATM   20  C   UNL     1      -9.315   9.019  66.771  1.00  0.00    -0.213 A  
HETATM   21  C   UNL     1      -9.134   8.355  67.987  1.00  0.00    -0.137 A  
HETATM   22  C   UNL     1      -8.784   9.095  69.131  1.00  0.00    -0.138 A  
HETATM   23  C   UNL     1      -8.601  10.481  69.029  1.00  0.00    -0.160 A  
HETATM   24  C   UNL     1      -9.116  10.404  66.677  1.00  0.00    -0.169 A  
BRANCH  22  25
HETATM   25  O   UNL     1      -8.633   8.369  70.287  1.00  0.00    -0.121 OA 
HETATM   26  C   UNL     1      -9.748   8.256  71.159  1.00  0.00    -0.165 C  
ENDBRANCH  22  25
BRANCH  21  27
HETATM   27  O   UNL     1      -9.271   7.001  68.170  1.00  0.00    -0.132 OA 
HETATM   28  C   UNL     1      -8.279   6.147  67.624  1.00  0.00    -0.113 C  
ENDBRANCH  21  27
ENDBRANCH   2  19
TORSDOF 6
ENDMDL
MODEL      133
REMARK 921   NORMALIZED FREE ENERGY PREDICTED BY IDOCK:   -3.56 KCAL/MOL
REMARK 922        TOTAL FREE ENERGY PREDICTED BY IDOCK:   -5.11 KCAL/MOL
REMARK 923 INTER-LIGAND FREE ENERGY PREDICTED BY IDOCK:   -5.06 KCAL/MOL
REMARK 924 INTRA-LIGAND FREE ENERGY PREDICTED BY IDOCK:   -0.04 KCAL/MOL
REMARK 927      BINDING AFFINITY PREDICTED BY RF-SCORE:    0.00 PKD
ROOT
HETATM    1  C   UNL     1      -9.389  13.157  67.946  1.00  0.00    -0.215 C  
HETATM    2  C   UNL     1     -10.380  12.749  68.762  1.00  0.00    -0.136 C  
ENDROOT
BRANCH   1   3
HETATM    3  C   UNL     1      -8.835  12.228  67.016  1.00  0.00    -0.205 A  
HETATM    4  N   UNL     1      -9.383  11.771  65.901  1.00  0.00    -0.224 NA 
HETATM    5  N   UNL     1      -8.584  10.340  64.115  1.00  0.00    -0.183 N  
HETATM    6  O   UNL     1      -7.581   9.048  62.505  1.00  0.00    -0.106 OA 
HETATM    7  C   UNL     1      -8.441  10.989  65.317  1.00  0.00     0.004 A  
HETATM    8  C   UNL     1      -7.301  10.924  66.056  1.00  0.00    -0.081 A  
HETATM    9  C   UNL     1      -7.520   9.591  63.611  1.00  0.00    -0.115 C  
HETATM   10  N   UNL     1      -7.549  11.706  67.159  1.00  0.00    -0.145 NA 
HETATM   11  C   UNL     1      -6.653  11.945  68.265  1.00  0.00    -0.054 C  
HETATM   12  N   UNL     1      -6.379   9.468  64.430  1.00  0.00    -0.088 N  
HETATM   13  C   UNL     1      -6.175  10.142  65.644  1.00  0.00    -0.101 C  
HETATM   14  O   UNL     1      -5.135  10.065  66.291  1.00  0.00    -0.037 OA 
BRANCH  12  15
HETATM   15  C   UNL     1      -5.327   8.562  63.972  1.00  0.00    -0.056 C  
HETATM   16  C   UNL     1      -5.471   7.146  64.512  1.00  0.00    -0.032 C  
ENDBRANCH  12  15
BRANCH   5  17
HETATM   17  C   UNL     1      -9.830  10.445  63.362  1.00  0.00    -0.189 C  
HETATM   18  C   UNL     1     -10.277  11.886  63.169  1.00  0.00    -0.334 C  
ENDBRANCH   5  17
ENDBRANCH   1   3
BRANCH   2  19
HETATM   19  C   UNL     1     -11.174  13.591  69.676  1.00  0.00    -0.128 A  
HETATM   20  C   UNL     1     -11.881  15.729  70.598  1.00  0.00    -0.415 A  
HETATM   21  C   UNL     1     -12.793  15.091  71.442  1.00  0.00    -0.359 A  
HETATM   22  C   UNL     1     -12.875  13.686  71.433  1.00  0.00    -0.360 A  
HETATM   23  C   UNL     1     -12.058  12.951  70.563  1.00  0.00    -0.364 A  
HETATM   24  C   UNL     1     -11.078  14.985  69.721  1.00  0.00    -0.297 A  
BRANCH  22  25
HETATM   25  O   UNL     1     -13.790  13.137  72.298  1.00  0.00    -0.540 OA 
HETATM   26  C   UNL     1     -13.927  11.725  72.322  1.00  0.00     0.545 C  
ENDBRANCH  22  25
BRANCH  21  27
HETATM   27  O   UNL     1     -13.644  15.734  72.307  1.00  0.00    -0.477 OA 
HETATM   28  C   UNL     1     -13.091  16.336  73.466  1.00  0.00    -0.374 C  
ENDBRANCH  21  27
ENDBRANCH   2  19
TORSDOF 6
ENDMDL
MODEL      134
REMARK 921   NORMALIZED FREE ENERGY PREDICTED BY IDOCK:   -3.50 KCAL/MOL
REMARK 922        TOTAL FREE ENERGY PREDICTED BY IDOCK:   -5.03 KCAL/MOL
REMARK 923 INTER-LIGAND FREE ENERGY PREDICTED BY IDOCK:   -4.50 KCAL/MOL
REMARK 924 INTRA-LIGAND FREE ENERGY PREDICTED BY IDOCK:   -0.52 KCAL/MOL
REMARK 927      BINDING AFFINITY PREDICTED BY RF-SCORE:    0.00 PKD
ROOT
HETATM    1  C   UNL     1      -9.072  10.477  68.062  1.00  0.00    -0.138 C  
HETATM    2  C   UNL     1      -9.341   9.485  68.933  1.00  0.00    -0.149 C  
ENDROOT
BRANCH   1   3
HETATM    3  C   UNL     1      -9.577  11.784  68.329  1.00  0.00    -0.199 A  
HETATM    4  N   UNL     1     -10.719  12.110  68.913  1.00  0.00    -0.206 NA 
HETATM    5  N   UNL     1     -11.697  14.216  69.606  1.00  0.00    -0.297 N  
HETATM    6  O   UNL     1     -12.375  16.310  70.257  1.00  0.00    -0.045 OA 
HETATM    7  C   UNL     1     -10.709  13.461  69.024  1.00  0.00    -0.127 A  
HETATM    8  C   UNL     1      -9.579  14.008  68.497  1.00  0.00    -0.201 A  
HETATM    9  C   UNL     1     -11.545  15.601  69.682  1.00  0.00    -0.356 C  
HETATM   10  N   UNL     1      -8.851  12.938  68.035  1.00  0.00    -0.188 NA 
HETATM   11  C   UNL     1      -7.574  12.991  67.365  1.00  0.00    -0.137 C  
HETATM   12  N   UNL     1     -10.408  16.156  69.059  1.00  0.00    -0.241 N  
HETATM   13  C   UNL     1      -9.358  15.422  68.486  1.00  0.00    -0.198 C  
HETATM   14  O   UNL     1      -8.349  15.942  68.019  1.00  0.00    -0.157 OA 
BRANCH  12  15
HETATM   15  C   UNL     1     -10.325  17.614  69.005  1.00  0.00    -0.272 C  
HETATM   16  C   UNL     1     -10.771  18.197  67.672  1.00  0.00    -0.364 C  
ENDBRANCH  12  15
BRANCH   5  17
HETATM   17  C   UNL     1     -12.888  13.577  70.156  1.00  0.00     0.136 C  
HETATM   18  C   UNL     1     -12.759  13.279  71.641  1.00  0.00    -0.327 C  
ENDBRANCH   5  17
ENDBRANCH   1   3
BRANCH   2  19
HETATM   19  C   UNL     1      -8.790   8.117  68.912  1.00  0.00    -0.141 A  
HETATM   20  C   UNL     1      -8.215   5.990  69.944  1.00  0.00    -0.118 A  
HETATM   21  C   UNL     1      -7.758   5.493  68.721  1.00  0.00    -0.091 A  
HETATM   22  C   UNL     1      -7.781   6.323  67.586  1.00  0.00    -0.098 A  
HETATM   23  C   UNL     1      -8.283   7.628  67.694  1.00  0.00    -0.121 A  
HETATM   24  C   UNL     1      -8.728   7.292  70.038  1.00  0.00    -0.141 A  
BRANCH  22  25
HETATM   25  O   UNL     1      -7.307   5.761  66.426  1.00  0.00    -0.076 OA 
HETATM   26  C   UNL     1      -8.156   5.753  65.289  1.00  0.00    -0.130 C  
ENDBRANCH  22  25
BRANCH  21  27
HETATM   27  O   UNL     1      -7.272   4.223  68.523  1.00  0.00    -0.055 OA 
HETATM   28  C   UNL     1      -8.204   3.167  68.362  1.00  0.00    -0.068 C  
ENDBRANCH  21  27
ENDBRANCH   2  19
TORSDOF 6
ENDMDL
MODEL      135
REMARK 921   NORMALIZED FREE ENERGY PREDICTED BY IDOCK:   -3.45 KCAL/MOL
REMARK 922        TOTAL FREE ENERGY PREDICTED BY IDOCK:   -4.96 KCAL/MOL
REMARK 923 INTER-LIGAND FREE ENERGY PREDICTED BY IDOCK:   -4.48 KCAL/MOL
REMARK 924 INTRA-LIGAND FREE ENERGY PREDICTED BY IDOCK:   -0.47 KCAL/MOL
REMARK 927      BINDING AFFINITY PREDICTED BY RF-SCORE:    0.00 PKD
ROOT
HETATM    1  C   UNL     1      -9.137   9.457  66.588  1.00  0.00    -0.181 C  
HETATM    2  C   UNL     1      -9.731  10.288  65.710  1.00  0.00    -0.297 C  
ENDROOT
BRANCH   1   3
HETATM    3  C   UNL     1      -8.975   8.084  66.235  1.00  0.00    -0.171 A  
HETATM    4  N   UNL     1      -8.595   7.584  65.070  1.00  0.00     0.009 NA 
HETATM    5  N   UNL     1      -8.104   5.339  64.299  1.00  0.00    -0.115 N  
HETATM    6  O   UNL     1      -7.602   3.150  63.826  1.00  0.00    -0.065 OA 
HETATM    7  C   UNL     1      -8.501   6.243  65.253  1.00  0.00    -0.111 A  
HETATM    8  C   UNL     1      -8.836   5.876  66.520  1.00  0.00    -0.128 A  
HETATM    9  C   UNL     1      -8.020   3.987  64.631  1.00  0.00    -0.086 C  
HETATM   10  N   UNL     1      -9.156   7.052  67.156  1.00  0.00    -0.125 NA 
HETATM   11  C   UNL     1      -9.601   7.199  68.521  1.00  0.00    -0.139 C  
HETATM   12  N   UNL     1      -8.449   3.616  65.922  1.00  0.00    -0.109 N  
HETATM   13  C   UNL     1      -8.827   4.507  66.938  1.00  0.00    -0.112 C  
HETATM   14  O   UNL     1      -9.124   4.148  68.074  1.00  0.00    -0.118 OA 
BRANCH  12  15
HETATM   15  C   UNL     1      -8.506   2.186  66.218  1.00  0.00    -0.102 C  
HETATM   16  C   UNL     1      -7.167   1.602  66.646  1.00  0.00    -0.051 C  
ENDBRANCH  12  15
BRANCH   5  17
HETATM   17  C   UNL     1      -7.755   5.789  62.955  1.00  0.00    -0.090 C  
HETATM   18  C   UNL     1      -6.289   6.172  62.829  1.00  0.00    -0.029 C  
ENDBRANCH   5  17
ENDBRANCH   1   3
BRANCH   2  19
HETATM   19  C   UNL     1      -9.855  11.753  65.826  1.00  0.00    -0.267 A  
HETATM   20  C   UNL     1     -10.843  13.901  65.252  1.00  0.00    -0.337 A  
HETATM   21  C   UNL     1     -10.029  14.551  66.184  1.00  0.00    -0.311 A  
HETATM   22  C   UNL     1      -9.092  13.805  66.921  1.00  0.00    -0.242 A  
HETATM   23  C   UNL     1      -9.005  12.419  66.727  1.00  0.00    -0.205 A  
HETATM   24  C   UNL     1     -10.757  12.513  65.075  1.00  0.00    -0.326 A  
BRANCH  22  25
HETATM   25  O   UNL     1      -8.326  14.520  67.810  1.00  0.00    -0.148 OA 
HETATM   26  C   UNL     1      -6.956  14.726  67.500  1.00  0.00    -0.172 C  
ENDBRANCH  22  25
BRANCH  21  27
HETATM   27  O   UNL     1     -10.064  15.898  66.453  1.00  0.00    -0.263 OA 
HETATM   28  C   UNL     1     -10.412  16.782  65.399  1.00  0.00    -0.193 C  
ENDBRANCH  21  27
ENDBRANCH   2  19
TORSDOF 6
ENDMDL
MODEL      136
REMARK 921   NORMALIZED FREE ENERGY PREDICTED BY IDOCK:   -3.15 KCAL/MOL
REMARK 922        TOTAL FREE ENERGY PREDICTED BY IDOCK:   -4.56 KCAL/MOL
REMARK 923 INTER-LIGAND FREE ENERGY PREDICTED BY IDOCK:   -4.12 KCAL/MOL
REMARK 924 INTRA-LIGAND FREE ENERGY PREDICTED BY IDOCK:   -0.44 KCAL/MOL
REMARK 927      BINDING AFFINITY PREDICTED BY RF-SCORE:    0.00 PKD
ROOT
HETATM    1  C   UNL     1      -7.642  10.811  67.276  1.00  0.00    -0.102 C  
HETATM    2  C   UNL     1      -8.605  11.748  67.382  1.00  0.00    -0.160 C  
ENDROOT
BRANCH   1   3
HETATM    3  C   UNL     1      -8.024   9.446  67.112  1.00  0.00    -0.102 A  
HETATM    4  N   UNL     1      -8.525   8.628  68.023  1.00  0.00    -0.126 NA 
HETATM    5  N   UNL     1      -9.382   6.362  67.940  1.00  0.00    -0.116 N  
HETATM    6  O   UNL     1     -10.227   4.256  67.600  1.00  0.00    -0.004 OA 
HETATM    7  C   UNL     1      -8.811   7.474  67.371  1.00  0.00    -0.127 A  
HETATM    8  C   UNL     1      -8.480   7.537  66.053  1.00  0.00    -0.148 A  
HETATM    9  C   UNL     1      -9.653   5.249  67.145  1.00  0.00    -0.141 C  
HETATM   10  N   UNL     1      -7.959   8.797  65.879  1.00  0.00    -0.101 NA 
HETATM   11  C   UNL     1      -7.438   9.351  64.653  1.00  0.00    -0.108 C  
HETATM   12  N   UNL     1      -9.228   5.303  65.802  1.00  0.00    -0.157 N  
HETATM   13  C   UNL     1      -8.676   6.428  65.169  1.00  0.00     0.076 C  
HETATM   14  O   UNL     1      -8.387   6.457  63.977  1.00  0.00    -0.026 OA 
BRANCH  12  15
HETATM   15  C   UNL     1      -9.374   4.083  65.009  1.00  0.00    -0.163 C  
HETATM   16  C   UNL     1     -10.626   4.069  64.144  1.00  0.00    -0.197 C  
ENDBRANCH  12  15
BRANCH   5  17
HETATM   17  C   UNL     1      -9.718   6.349  69.361  1.00  0.00    -0.145 C  
HETATM   18  C   UNL     1     -11.141   6.813  69.629  1.00  0.00    -0.343 C  
ENDBRANCH   5  17
ENDBRANCH   1   3
BRANCH   2  19
HETATM   19  C   UNL     1      -8.416  13.210  67.406  1.00  0.00    -0.201 A  
HETATM   20  C   UNL     1      -7.073  15.222  67.667  1.00  0.00    -0.206 A  
HETATM   21  C   UNL     1      -8.176  16.026  67.368  1.00  0.00    -0.167 A  
HETATM   22  C   UNL     1      -9.423  15.422  67.121  1.00  0.00    -0.213 A  
HETATM   23  C   UNL     1      -9.534  14.026  67.155  1.00  0.00    -0.241 A  
HETATM   24  C   UNL     1      -7.192  13.825  67.685  1.00  0.00    -0.183 A  
BRANCH  22  25
HETATM   25  O   UNL     1     -10.457  16.282  66.843  1.00  0.00    -0.306 OA 
HETATM   26  C   UNL     1     -11.331  16.644  67.902  1.00  0.00     0.001 C  
ENDBRANCH  22  25
BRANCH  21  27
HETATM   27  O   UNL     1      -8.151  17.397  67.293  1.00  0.00    -0.195 OA 
HETATM   28  C   UNL     1      -7.073  18.082  67.911  1.00  0.00    -0.216 C  
ENDBRANCH  21  27
ENDBRANCH   2  19
TORSDOF 6
ENDMDL
MODEL      137
REMARK 921   NORMALIZED FREE ENERGY PREDICTED BY IDOCK:   -3.13 KCAL/MOL
REMARK 922        TOTAL FREE ENERGY PREDICTED BY IDOCK:   -4.53 KCAL/MOL
REMARK 923 INTER-LIGAND FREE ENERGY PREDICTED BY IDOCK:   -4.32 KCAL/MOL
REMARK 924 INTRA-LIGAND FREE ENERGY PREDICTED BY IDOCK:   -0.21 KCAL/MOL
REMARK 927      BINDING AFFINITY PREDICTED BY RF-SCORE:    0.00 PKD
ROOT
HETATM    1  C   UNL     1      -7.096  12.954  68.679  1.00  0.00    -0.103 C  
HETATM    2  C   UNL     1      -6.775  13.826  69.655  1.00  0.00    -0.015 C  
ENDROOT
BRANCH   1   3
HETATM    3  C   UNL     1      -7.392  11.603  69.032  1.00  0.00    -0.074 A  
HETATM    4  N   UNL     1      -8.507  10.929  68.802  1.00  0.00    -0.148 NA 
HETATM    5  N   UNL     1      -9.167   8.625  69.158  1.00  0.00    -0.152 N  
HETATM    6  O   UNL     1      -9.531   6.385  69.502  1.00  0.00    -0.145 OA 
HETATM    7  C   UNL     1      -8.276   9.667  69.238  1.00  0.00    -0.123 A  
HETATM    8  C   UNL     1      -7.028   9.528  69.764  1.00  0.00    -0.071 A  
HETATM    9  C   UNL     1      -8.788   7.363  69.617  1.00  0.00    -0.141 C  
HETATM   10  N   UNL     1      -6.457  10.773  69.649  1.00  0.00    -0.087 NA 
HETATM   11  C   UNL     1      -5.136  11.157  70.087  1.00  0.00    -0.058 C  
HETATM   12  N   UNL     1      -7.524   7.259  70.233  1.00  0.00    -0.082 N  
HETATM   13  C   UNL     1      -6.569   8.285  70.304  1.00  0.00    -0.036 C  
HETATM   14  O   UNL     1      -5.450   8.132  70.783  1.00  0.00    -0.029 OA 
BRANCH  12  15
HETATM   15  C   UNL     1      -7.188   5.977  70.849  1.00  0.00    -0.074 C  
HETATM   16  C   UNL     1      -7.565   5.896  72.322  1.00  0.00    -0.101 C  
ENDBRANCH  12  15
BRANCH   5  17
HETATM   17  C   UNL     1     -10.493   8.829  68.583  1.00  0.00    -0.183 C  
HETATM   18  C   UNL     1     -10.505   8.671  67.070  1.00  0.00    -0.354 C  
ENDBRANCH   5  17
ENDBRANCH   1   3
BRANCH   2  19
HETATM   19  C   UNL     1      -6.585  15.281  69.511  1.00  0.00    -0.164 A  
HETATM   20  C   UNL     1      -5.259  17.319  69.612  1.00  0.00    -0.170 A  
HETATM   21  C   UNL     1      -6.338  18.073  69.141  1.00  0.00    -0.246 A  
HETATM   22  C   UNL     1      -7.565  17.435  68.885  1.00  0.00    -0.224 A  
HETATM   23  C   UNL     1      -7.681  16.053  69.084  1.00  0.00    -0.231 A  
HETATM   24  C   UNL     1      -5.382  15.934  69.795  1.00  0.00    -0.121 A  
BRANCH  22  25
HETATM   25  O   UNL     1      -8.576  18.248  68.432  1.00  0.00    -0.288 OA 
HETATM   26  C   UNL     1      -9.817  17.648  68.092  1.00  0.00    -0.318 C  
ENDBRANCH  22  25
BRANCH  21  27
HETATM   27  O   UNL     1      -6.304  19.425  68.898  1.00  0.00    -0.239 OA 
HETATM   28  C   UNL     1      -6.083  20.296  69.995  1.00  0.00    -0.346 C  
ENDBRANCH  21  27
ENDBRANCH   2  19
TORSDOF 6
ENDMDL
MODEL      138
REMARK 921   NORMALIZED FREE ENERGY PREDICTED BY IDOCK:   -2.99 KCAL/MOL
REMARK 922        TOTAL FREE ENERGY PREDICTED BY IDOCK:   -4.34 KCAL/MOL
REMARK 923 INTER-LIGAND FREE ENERGY PREDICTED BY IDOCK:   -3.98 KCAL/MOL
REMARK 924 INTRA-LIGAND FREE ENERGY PREDICTED BY IDOCK:   -0.36 KCAL/MOL
REMARK 927      BINDING AFFINITY PREDICTED BY RF-SCORE:    0.00 PKD
ROOT
HETATM    1  C   UNL     1      -8.630  10.011  69.667  1.00  0.00    -0.198 C  
HETATM    2  C   UNL     1      -7.547   9.277  69.343  1.00  0.00    -0.080 C  
ENDROOT
BRANCH   1   3
HETATM    3  C   UNL     1      -9.070  11.025  68.766  1.00  0.00    -0.157 A  
HETATM    4  N   UNL     1      -8.606  12.258  68.641  1.00  0.00    -0.049 NA 
HETATM    5  N   UNL     1      -9.077  14.070  67.102  1.00  0.00    -0.222 N  
HETATM    6  O   UNL     1      -9.620  15.600  65.480  1.00  0.00    -0.307 OA 
HETATM    7  C   UNL     1      -9.275  12.804  67.596  1.00  0.00    -0.192 A  
HETATM    8  C   UNL     1     -10.180  11.940  67.061  1.00  0.00    -0.210 A  
HETATM    9  C   UNL     1      -9.814  14.497  65.998  1.00  0.00    -0.318 C  
HETATM   10  N   UNL     1     -10.065  10.797  67.816  1.00  0.00    -0.170 NA 
HETATM   11  C   UNL     1     -10.832   9.584  67.662  1.00  0.00    -0.187 C  
HETATM   12  N   UNL     1     -10.803  13.619  65.510  1.00  0.00    -0.288 N  
HETATM   13  C   UNL     1     -11.015  12.306  65.958  1.00  0.00    -0.292 C  
HETATM   14  O   UNL     1     -11.838  11.547  65.456  1.00  0.00    -0.159 OA 
BRANCH  12  15
HETATM   15  C   UNL     1     -11.678  14.124  64.452  1.00  0.00    -0.392 C  
HETATM   16  C   UNL     1     -12.658  15.184  64.933  1.00  0.00     0.198 C  
ENDBRANCH  12  15
BRANCH   5  17
HETATM   17  C   UNL     1      -8.092  14.957  67.715  1.00  0.00    -0.152 C  
HETATM   18  C   UNL     1      -8.597  15.590  69.002  1.00  0.00    -0.234 C  
ENDBRANCH   5  17
ENDBRANCH   1   3
BRANCH   2  19
HETATM   19  C   UNL     1      -7.031   8.098  70.063  1.00  0.00    -0.040 A  
HETATM   20  C   UNL     1      -5.343   6.412  70.540  1.00  0.00    -0.018 A  
HETATM   21  C   UNL     1      -6.138   5.869  71.554  1.00  0.00    -0.038 A  
HETATM   22  C   UNL     1      -7.408   6.420  71.804  1.00  0.00    -0.088 A  
HETATM   23  C   UNL     1      -7.847   7.517  71.051  1.00  0.00    -0.091 A  
HETATM   24  C   UNL     1      -5.786   7.518  69.801  1.00  0.00    -0.024 A  
BRANCH  22  25
HETATM   25  O   UNL     1      -8.128   5.825  72.811  1.00  0.00    -0.108 OA 
HETATM   26  C   UNL     1      -9.427   5.337  72.508  1.00  0.00    -0.145 C  
ENDBRANCH  22  25
BRANCH  21  27
HETATM   27  O   UNL     1      -5.777   4.811  72.353  1.00  0.00    -0.011 OA 
HETATM   28  C   UNL     1      -5.618   3.539  71.747  1.00  0.00    -0.008 C  
ENDBRANCH  21  27
ENDBRANCH   2  19
TORSDOF 6
ENDMDL
MODEL      139
REMARK 921   NORMALIZED FREE ENERGY PREDICTED BY IDOCK:   -2.86 KCAL/MOL
REMARK 922        TOTAL FREE ENERGY PREDICTED BY IDOCK:   -4.17 KCAL/MOL
REMARK 923 INTER-LIGAND FREE ENERGY PREDICTED BY IDOCK:   -4.21 KCAL/MOL
REMARK 924 INTRA-LIGAND FREE ENERGY PREDICTED BY IDOCK:    0.04 KCAL/MOL
REMARK 927      BINDING AFFINITY PREDICTED BY RF-SCORE:    0.00 PKD
ROOT
HETATM    1  C   UNL     1      -8.159  11.273  68.115  1.00  0.00    -0.134 C  
HETATM    2  C   UNL     1      -8.835  10.546  69.027  1.00  0.00    -0.174 C  
ENDROOT
BRANCH   1   3
HETATM    3  C   UNL     1      -8.434  12.669  68.005  1.00  0.00    -0.177 A  
HETATM    4  N   UNL     1      -7.640  13.680  68.320  1.00  0.00    -0.119 NA 
HETATM    5  N   UNL     1      -7.824  16.084  68.074  1.00  0.00    -0.135 N  
HETATM    6  O   UNL     1      -8.181  18.311  67.653  1.00  0.00    -0.245 OA 
HETATM    7  C   UNL     1      -8.305  14.803  67.954  1.00  0.00    -0.149 A  
HETATM    8  C   UNL     1      -9.528  14.523  67.425  1.00  0.00    -0.202 A  
HETATM    9  C   UNL     1      -8.602  17.151  67.627  1.00  0.00    -0.212 C  
HETATM   10  N   UNL     1      -9.625  13.153  67.467  1.00  0.00    -0.202 NA 
HETATM   11  C   UNL     1     -10.751  12.357  67.039  1.00  0.00    -0.239 C  
HETATM   12  N   UNL     1      -9.897  16.849  67.159  1.00  0.00    -0.263 N  
HETATM   13  C   UNL     1     -10.415  15.556  66.984  1.00  0.00    -0.304 C  
HETATM   14  O   UNL     1     -11.522  15.333  66.504  1.00  0.00    -0.242 OA 
BRANCH  12  15
HETATM   15  C   UNL     1     -10.768  17.977  66.834  1.00  0.00    -0.200 C  
HETATM   16  C   UNL     1     -10.571  18.506  65.421  1.00  0.00     0.216 C  
ENDBRANCH  12  15
BRANCH   5  17
HETATM   17  C   UNL     1      -6.504  16.326  68.649  1.00  0.00    -0.126 C  
HETATM   18  C   UNL     1      -5.414  16.413  67.592  1.00  0.00    -0.163 C  
ENDBRANCH   5  17
ENDBRANCH   1   3
BRANCH   2  19
HETATM   19  C   UNL     1      -8.591   9.138  69.391  1.00  0.00    -0.138 A  
HETATM   20  C   UNL     1      -8.349   7.318  70.988  1.00  0.00    -0.119 A  
HETATM   21  C   UNL     1      -8.165   6.400  69.950  1.00  0.00    -0.126 A  
HETATM   22  C   UNL     1      -8.157   6.856  68.619  1.00  0.00    -0.121 A  
HETATM   23  C   UNL     1      -8.356   8.218  68.354  1.00  0.00    -0.132 A  
HETATM   24  C   UNL     1      -8.561   8.676  70.710  1.00  0.00    -0.197 A  
BRANCH  22  25
HETATM   25  O   UNL     1      -7.962   5.893  67.660  1.00  0.00    -0.101 OA 
HETATM   26  C   UNL     1      -6.642   5.415  67.448  1.00  0.00    -0.053 C  
ENDBRANCH  22  25
BRANCH  21  27
HETATM   27  O   UNL     1      -7.985   5.049  70.120  1.00  0.00    -0.075 OA 
HETATM   28  C   UNL     1      -7.442   4.596  71.349  1.00  0.00    -0.076 C  
ENDBRANCH  21  27
ENDBRANCH   2  19
TORSDOF 6
ENDMDL
MODEL      140
REMARK 921   NORMALIZED FREE ENERGY PREDICTED BY IDOCK:   -2.77 KCAL/MOL
REMARK 922        TOTAL FREE ENERGY PREDICTED BY IDOCK:   -4.04 KCAL/MOL
REMARK 923 INTER-LIGAND FREE ENERGY PREDICTED BY IDOCK:   -3.93 KCAL/MOL
REMARK 924 INTRA-LIGAND FREE ENERGY PREDICTED BY IDOCK:   -0.11 KCAL/MOL
REMARK 927      BINDING AFFINITY PREDICTED BY RF-SCORE:    0.00 PKD
ROOT
HETATM    1  C   UNL     1      -8.714   9.007  68.628  1.00  0.00    -0.133 C  
HETATM    2  C   UNL     1      -7.918   8.136  67.977  1.00  0.00    -0.127 C  
ENDROOT
BRANCH   1   3
HETATM    3  C   UNL     1      -8.697  10.380  68.239  1.00  0.00    -0.128 A  
HETATM    4  N   UNL     1      -9.541  11.006  67.434  1.00  0.00    -0.163 NA 
HETATM    5  N   UNL     1      -9.802  13.322  66.768  1.00  0.00    -0.257 N  
HETATM    6  O   UNL     1      -9.912  15.577  66.356  1.00  0.00    -0.255 OA 
HETATM    7  C   UNL     1      -9.168  12.310  67.447  1.00  0.00    -0.182 A  
HETATM    8  C   UNL     1      -8.081  12.523  68.237  1.00  0.00    -0.165 A  
HETATM    9  C   UNL     1      -9.332  14.629  66.894  1.00  0.00    -0.243 C  
HETATM   10  N   UNL     1      -7.762  11.285  68.740  1.00  0.00    -0.134 NA 
HETATM   11  C   UNL     1      -6.662  10.971  69.620  1.00  0.00    -0.137 C  
HETATM   12  N   UNL     1      -8.157  14.818  67.650  1.00  0.00    -0.156 N  
HETATM   13  C   UNL     1      -7.500  13.823  68.390  1.00  0.00    -0.119 C  
HETATM   14  O   UNL     1      -6.520  14.043  69.095  1.00  0.00    -0.100 OA 
BRANCH  12  15
HETATM   15  C   UNL     1      -7.579  16.161  67.658  1.00  0.00    -0.145 C  
HETATM   16  C   UNL     1      -6.488  16.356  66.615  1.00  0.00     0.087 C  
ENDBRANCH  12  15
BRANCH   5  17
HETATM   17  C   UNL     1     -10.965  13.037  65.934  1.00  0.00    -0.271 C  
HETATM   18  C   UNL     1     -12.203  13.803  66.375  1.00  0.00    -0.480 C  
ENDBRANCH   5  17
ENDBRANCH   1   3
BRANCH   2  19
HETATM   19  C   UNL     1      -7.903   6.670  68.129  1.00  0.00    -0.110 A  
HETATM   20  C   UNL     1      -8.035   4.396  67.275  1.00  0.00    -0.100 A  
HETATM   21  C   UNL     1      -7.797   3.877  68.550  1.00  0.00    -0.068 A  
HETATM   22  C   UNL     1      -7.646   4.758  69.636  1.00  0.00    -0.055 A  
HETATM   23  C   UNL     1      -7.713   6.141  69.419  1.00  0.00    -0.099 A  
HETATM   24  C   UNL     1      -8.087   5.781  67.066  1.00  0.00    -0.102 A  
BRANCH  22  25
HETATM   25  O   UNL     1      -7.423   4.168  70.856  1.00  0.00    -0.046 OA 
HETATM   26  C   UNL     1      -8.311   4.473  71.921  1.00  0.00    -0.108 C  
ENDBRANCH  22  25
BRANCH  21  27
HETATM   27  O   UNL     1      -7.695   2.539  68.847  1.00  0.00    -0.047 OA 
HETATM   28  C   UNL     1      -8.852   1.732  68.704  1.00  0.00    -0.090 C  
ENDBRANCH  21  27
ENDBRANCH   2  19
TORSDOF 6
ENDMDL
MODEL      141
REMARK 921   NORMALIZED FREE ENERGY PREDICTED BY IDOCK:   -2.47 KCAL/MOL
REMARK 922        TOTAL FREE ENERGY PREDICTED BY IDOCK:   -3.63 KCAL/MOL
REMARK 923 INTER-LIGAND FREE ENERGY PREDICTED BY IDOCK:   -3.62 KCAL/MOL
REMARK 924 INTRA-LIGAND FREE ENERGY PREDICTED BY IDOCK:   -0.02 KCAL/MOL
REMARK 927      BINDING AFFINITY PREDICTED BY RF-SCORE:    0.00 PKD
ROOT
HETATM    1  C   UNL     1      -7.708   9.461  66.373  1.00  0.00    -0.097 C  
HETATM    2  C   UNL     1      -8.125  10.339  67.306  1.00  0.00    -0.120 C  
ENDROOT
BRANCH   1   3
HETATM    3  C   UNL     1      -7.272   8.167  66.791  1.00  0.00    -0.082 A  
HETATM    4  N   UNL     1      -7.435   7.599  67.974  1.00  0.00    -0.102 NA 
HETATM    5  N   UNL     1      -6.933   5.395  68.849  1.00  0.00    -0.055 N  
HETATM    6  O   UNL     1      -6.456   3.224  69.423  1.00  0.00    -0.032 OA 
HETATM    7  C   UNL     1      -6.935   6.344  67.856  1.00  0.00    -0.076 A  
HETATM    8  C   UNL     1      -6.436   6.107  66.612  1.00  0.00    -0.046 A  
HETATM    9  C   UNL     1      -6.415   4.127  68.582  1.00  0.00    -0.037 C  
HETATM   10  N   UNL     1      -6.635   7.280  65.923  1.00  0.00    -0.051 NA 
HETATM   11  C   UNL     1      -6.255   7.551  64.558  1.00  0.00    -0.041 C  
HETATM   12  N   UNL     1      -5.829   3.928  67.316  1.00  0.00    -0.022 N  
HETATM   13  C   UNL     1      -5.841   4.854  66.261  1.00  0.00    -0.022 C  
HETATM   14  O   UNL     1      -5.383   4.614  65.148  1.00  0.00    -0.012 OA 
BRANCH  12  15
HETATM   15  C   UNL     1      -5.151   2.652  67.090  1.00  0.00    -0.008 C  
HETATM   16  C   UNL     1      -6.069   1.567  66.545  1.00  0.00    -0.019 C  
ENDBRANCH  12  15
BRANCH   5  17
HETATM   17  C   UNL     1      -7.483   5.701  70.165  1.00  0.00    -0.077 C  
HETATM   18  C   UNL     1      -6.915   6.985  70.752  1.00  0.00    -0.065 C  
ENDBRANCH   5  17
ENDBRANCH   1   3
BRANCH   2  19
HETATM   19  C   UNL     1      -8.745  11.655  67.065  1.00  0.00    -0.173 A  
HETATM   20  C   UNL     1      -9.012  14.038  67.475  1.00  0.00    -0.195 A  
HETATM   21  C   UNL     1      -9.976  14.128  66.467  1.00  0.00    -0.283 A  
HETATM   22  C   UNL     1     -10.359  12.966  65.773  1.00  0.00    -0.284 A  
HETATM   23  C   UNL     1      -9.752  11.742  66.086  1.00  0.00    -0.250 A  
HETATM   24  C   UNL     1      -8.401  12.811  67.771  1.00  0.00    -0.177 A  
BRANCH  22  25
HETATM   25  O   UNL     1     -11.317  13.138  64.805  1.00  0.00    -0.306 OA 
HETATM   26  C   UNL     1     -11.807  11.987  64.133  1.00  0.00    -0.373 C  
ENDBRANCH  22  25
BRANCH  21  27
HETATM   27  O   UNL     1     -10.603  15.288  66.082  1.00  0.00    -0.294 OA 
HETATM   28  C   UNL     1      -9.807  16.442  65.872  1.00  0.00    -0.315 C  
ENDBRANCH  21  27
ENDBRANCH   2  19
TORSDOF 6
ENDMDL
MODEL      142
REMARK 921   NORMALIZED FREE ENERGY PREDICTED BY IDOCK:   -1.79 KCAL/MOL
REMARK 922        TOTAL FREE ENERGY PREDICTED BY IDOCK:   -2.72 KCAL/MOL
REMARK 923 INTER-LIGAND FREE ENERGY PREDICTED BY IDOCK:   -3.97 KCAL/MOL
REMARK 924 INTRA-LIGAND FREE ENERGY PREDICTED BY IDOCK:    1.25 KCAL/MOL
REMARK 927      BINDING AFFINITY PREDICTED BY RF-SCORE:    0.00 PKD
ROOT
HETATM    1  C   UNL     1      -8.982  10.608  67.152  1.00  0.00    -0.143 C  
HETATM    2  C   UNL     1      -8.156  11.630  67.451  1.00  0.00    -0.153 C  
ENDROOT
BRANCH   1   3
HETATM    3  C   UNL     1      -8.586   9.280  67.491  1.00  0.00    -0.116 A  
HETATM    4  N   UNL     1      -9.320   8.330  68.048  1.00  0.00    -0.132 NA 
HETATM    5  N   UNL     1      -8.918   5.996  68.559  1.00  0.00    -0.115 N  
HETATM    6  O   UNL     1      -8.343   3.795  68.861  1.00  0.00    -0.071 OA 
HETATM    7  C   UNL     1      -8.534   7.226  68.085  1.00  0.00    -0.123 A  
HETATM    8  C   UNL     1      -7.295   7.463  67.575  1.00  0.00    -0.102 A  
HETATM    9  C   UNL     1      -8.018   4.932  68.509  1.00  0.00    -0.085 C  
HETATM   10  N   UNL     1      -7.314   8.786  67.203  1.00  0.00    -0.080 NA 
HETATM   11  C   UNL     1      -6.222   9.533  66.625  1.00  0.00    -0.065 C  
HETATM   12  N   UNL     1      -6.714   5.217  68.055  1.00  0.00    -0.053 N  
HETATM   13  C   UNL     1      -6.289   6.446  67.527  1.00  0.00    -0.037 C  
HETATM   14  O   UNL     1      -5.165   6.632  67.073  1.00  0.00    -0.008 OA 
BRANCH  12  15
HETATM   15  C   UNL     1      -5.728   4.141  68.145  1.00  0.00    -0.021 C  
HETATM   16  C   UNL     1      -5.655   3.280  66.893  1.00  0.00    -0.021 C  
ENDBRANCH  12  15
BRANCH   5  17
HETATM   17  C   UNL     1     -10.261   5.797  69.095  1.00  0.00    -0.223 C  
HETATM   18  C   UNL     1     -10.835   7.060  69.718  1.00  0.00    -0.276 C  
ENDBRANCH   5  17
ENDBRANCH   1   3
BRANCH   2  19
HETATM   19  C   UNL     1      -8.448  13.069  67.318  1.00  0.00    -0.199 A  
HETATM   20  C   UNL     1      -9.691  14.960  66.424  1.00  0.00    -0.306 A  
HETATM   21  C   UNL     1      -8.941  15.850  67.197  1.00  0.00    -0.208 A  
HETATM   22  C   UNL     1      -7.909  15.354  68.013  1.00  0.00    -0.127 A  
HETATM   23  C   UNL     1      -7.664  13.974  68.056  1.00  0.00    -0.149 A  
HETATM   24  C   UNL     1      -9.447  13.581  66.485  1.00  0.00    -0.265 A  
BRANCH  22  25
HETATM   25  O   UNL     1      -7.214  16.294  68.734  1.00  0.00    -0.156 OA 
HETATM   26  C   UNL     1      -6.353  15.845  69.770  1.00  0.00    -0.175 C  
ENDBRANCH  22  25
BRANCH  21  27
HETATM   27  O   UNL     1      -9.128  17.211  67.231  1.00  0.00    -0.218 OA 
HETATM   28  C   UNL     1      -9.910  17.753  68.282  1.00  0.00    -0.340 C  
ENDBRANCH  21  27
ENDBRANCH   2  19
TORSDOF 6
ENDMDL
MODEL      143
REMARK 921   NORMALIZED FREE ENERGY PREDICTED BY IDOCK:    0.70 KCAL/MOL
REMARK 922        TOTAL FREE ENERGY PREDICTED BY IDOCK:    0.64 KCAL/MOL
REMARK 923 INTER-LIGAND FREE ENERGY PREDICTED BY IDOCK:   -0.46 KCAL/MOL
REMARK 924 INTRA-LIGAND FREE ENERGY PREDICTED BY IDOCK:    1.10 KCAL/MOL
REMARK 927      BINDING AFFINITY PREDICTED BY RF-SCORE:    0.00 PKD
ROOT
HETATM    1  C   UNL     1      -9.097  16.101  68.289  1.00  0.00    -0.190 C  
HETATM    2  C   UNL     1      -8.024  16.798  67.866  1.00  0.00    -0.182 C  
ENDROOT
BRANCH   1   3
HETATM    3  C   UNL     1      -9.480  14.926  67.576  1.00  0.00    -0.200 A  
HETATM    4  N   UNL     1     -10.431  14.803  66.664  1.00  0.00    -0.281 NA 
HETATM    5  N   UNL     1     -11.141  12.983  65.230  1.00  0.00    -0.283 N  
HETATM    6  O   UNL     1     -11.572  11.155  63.911  1.00  0.00    -0.038 OA 
HETATM    7  C   UNL     1     -10.351  13.527  66.213  1.00  0.00    -0.293 A  
HETATM    8  C   UNL     1      -9.370  12.823  66.841  1.00  0.00    -0.234 A  
HETATM    9  C   UNL     1     -10.931  11.661  64.837  1.00  0.00    -0.284 C  
HETATM   10  N   UNL     1      -8.812  13.711  67.730  1.00  0.00    -0.178 NA 
HETATM   11  C   UNL     1      -7.739  13.441  68.656  1.00  0.00    -0.088 C  
HETATM   12  N   UNL     1      -9.967  10.925  65.555  1.00  0.00    -0.246 N  
HETATM   13  C   UNL     1      -9.114  11.447  66.539  1.00  0.00    -0.186 C  
HETATM   14  O   UNL     1      -8.236  10.790  67.089  1.00  0.00    -0.120 OA 
BRANCH  12  15
HETATM   15  C   UNL     1      -9.854   9.500  65.247  1.00  0.00    -0.109 C  
HETATM   16  C   UNL     1      -8.472   9.094  64.756  1.00  0.00    -0.194 C  
ENDBRANCH  12  15
BRANCH   5  17
HETATM   17  C   UNL     1     -12.179  13.784  64.589  1.00  0.00    -0.406 C  
HETATM   18  C   UNL     1     -12.498  13.309  63.180  1.00  0.00    -0.063 C  
ENDBRANCH   5  17
ENDBRANCH   1   3
BRANCH   2  19
HETATM   19  C   UNL     1      -7.389  17.941  68.548  1.00  0.00    -0.268 A  
HETATM   20  C   UNL     1      -5.508  19.403  69.043  1.00  0.00    -0.215 A  
HETATM   21  C   UNL     1      -6.308  20.190  69.876  1.00  0.00    -0.325 A  
HETATM   22  C   UNL     1      -7.653  19.832  70.080  1.00  0.00     0.503 A  
HETATM   23  C   UNL     1      -8.176  18.707  69.427  1.00  0.00     0.288 A  
HETATM   24  C   UNL     1      -6.045  18.288  68.383  1.00  0.00    -0.193 A  
BRANCH  22  25
HETATM   25  O   UNL     1      -8.367  20.652  70.919  1.00  0.00     1.244 OA 
HETATM   26  C   UNL     1      -9.761  20.797  70.689  1.00  0.00     1.976 C  
ENDBRANCH  22  25
BRANCH  21  27
HETATM   27  O   UNL     1      -5.883  21.318  70.535  1.00  0.00    -0.057 OA 
HETATM   28  C   UNL     1      -5.193  21.155  71.764  1.00  0.00     0.163 C  
ENDBRANCH  21  27
ENDBRANCH   2  19
TORSDOF 6
ENDMDL
MODEL      144
REMARK 921   NORMALIZED FREE ENERGY PREDICTED BY IDOCK:    6.23 KCAL/MOL
REMARK 922        TOTAL FREE ENERGY PREDICTED BY IDOCK:    8.11 KCAL/MOL
REMARK 923 INTER-LIGAND FREE ENERGY PREDICTED BY IDOCK:    6.08 KCAL/MOL
REMARK 924 INTRA-LIGAND FREE ENERGY PREDICTED BY IDOCK:    2.03 KCAL/MOL
REMARK 927      BINDING AFFINITY PREDICTED BY RF-SCORE:    0.00 PKD
ROOT
HETATM    1  C   UNL     1      -9.194  14.430  68.147  1.00  0.00    -0.199 C  
HETATM    2  C   UNL     1      -9.634  14.059  69.366  1.00  0.00     0.471 C  
ENDROOT
BRANCH   1   3
HETATM    3  C   UNL     1      -8.727  13.424  67.248  1.00  0.00    -0.218 A  
HETATM    4  N   UNL     1      -7.765  12.538  67.450  1.00  0.00    -0.161 NA 
HETATM    5  N   UNL     1      -6.923  10.668  66.159  1.00  0.00    -0.130 N  
HETATM    6  O   UNL     1      -6.360   8.899  64.808  1.00  0.00    -0.065 OA 
HETATM    7  C   UNL     1      -7.753  11.745  66.350  1.00  0.00     0.127 A  
HETATM    8  C   UNL     1      -8.685  12.126  65.435  1.00  0.00     0.709 A  
HETATM    9  C   UNL     1      -7.038   9.914  64.991  1.00  0.00    -0.131 C  
HETATM   10  N   UNL     1      -9.308  13.215  65.998  1.00  0.00    -0.087 NA 
HETATM   11  C   UNL     1     -10.364  14.002  65.408  1.00  0.00    -0.359 C  
HETATM   12  N   UNL     1      -7.952  10.374  64.020  1.00  0.00    -0.118 N  
HETATM   13  C   UNL     1      -8.844  11.444  64.187  1.00  0.00     0.317 C  
HETATM   14  O   UNL     1      -9.676  11.766  63.344  1.00  0.00    -0.351 OA 
BRANCH  12  15
HETATM   15  C   UNL     1      -7.963   9.676  62.735  1.00  0.00    -0.125 C  
HETATM   16  C   UNL     1      -7.862   8.163  62.867  1.00  0.00    -0.144 C  
ENDBRANCH  12  15
BRANCH   5  17
HETATM   17  C   UNL     1      -5.941  10.302  67.175  1.00  0.00    -0.050 C  
HETATM   18  C   UNL     1      -5.154  11.500  67.684  1.00  0.00    -0.053 C  
ENDBRANCH   5  17
ENDBRANCH   1   3
BRANCH   2  19
HETATM   19  C   UNL     1     -10.287  14.921  70.368  1.00  0.00     0.168 A  
HETATM   20  C   UNL     1     -10.469  16.948  71.702  1.00  0.00     2.910 A  
HETATM   21  C   UNL     1     -11.667  16.499  72.264  1.00  0.00    -0.263 A  
HETATM   22  C   UNL     1     -12.166  15.234  71.906  1.00  0.00    -0.361 A  
HETATM   23  C   UNL     1     -11.467  14.453  70.974  1.00  0.00    -0.052 A  
HETATM   24  C   UNL     1      -9.785  16.165  70.760  1.00  0.00     1.824 A  
BRANCH  22  25
HETATM   25  O   UNL     1     -13.343  14.864  72.509  1.00  0.00    -0.359 OA 
HETATM   26  C   UNL     1     -13.460  15.039  73.913  1.00  0.00     1.250 C  
ENDBRANCH  22  25
BRANCH  21  27
HETATM   27  O   UNL     1     -12.424  17.207  73.165  1.00  0.00     0.487 OA 
HETATM   28  C   UNL     1     -11.752  18.023  74.110  1.00  0.00     1.046 C  
ENDBRANCH  21  27
ENDBRANCH   2  19
TORSDOF 6
ENDMDL
MODEL      145
REMARK 921   NORMALIZED FREE ENERGY PREDICTED BY IDOCK:   14.04 KCAL/MOL
REMARK 922        TOTAL FREE ENERGY PREDICTED BY IDOCK:   18.67 KCAL/MOL
REMARK 923 INTER-LIGAND FREE ENERGY PREDICTED BY IDOCK:   15.60 KCAL/MOL
REMARK 924 INTRA-LIGAND FREE ENERGY PREDICTED BY IDOCK:    3.07 KCAL/MOL
REMARK 927      BINDING AFFINITY PREDICTED BY RF-SCORE:    0.00 PKD
ROOT
HETATM    1  C   UNL     1      -8.671  14.795  68.197  1.00  0.00    -0.168 C  
HETATM    2  C   UNL     1      -7.749  15.416  68.959  1.00  0.00    -0.186 C  
ENDROOT
BRANCH   1   3
HETATM    3  C   UNL     1      -9.064  13.466  68.536  1.00  0.00    -0.077 A  
HETATM    4  N   UNL     1      -8.647  12.730  69.554  1.00  0.00     1.296 NA 
HETATM    5  N   UNL     1      -9.279  10.552  70.408  1.00  0.00     0.847 N  
HETATM    6  O   UNL     1     -10.108   8.522  71.085  1.00  0.00    -0.183 OA 
HETATM    7  C   UNL     1      -9.372  11.586  69.508  1.00  0.00     0.848 A  
HETATM    8  C   UNL     1     -10.238  11.571  68.458  1.00  0.00    -0.213 A  
HETATM    9  C   UNL     1     -10.110   9.441  70.262  1.00  0.00    -0.240 C  
HETATM   10  N   UNL     1     -10.037  12.771  67.819  1.00  0.00    -0.219 NA 
HETATM   11  C   UNL     1     -10.703  13.231  66.624  1.00  0.00    -0.280 C  
HETATM   12  N   UNL     1     -10.941   9.408  69.123  1.00  0.00    -0.149 N  
HETATM   13  C   UNL     1     -11.095  10.454  68.200  1.00  0.00    -0.285 C  
HETATM   14  O   UNL     1     -11.885  10.415  67.262  1.00  0.00     0.106 OA 
BRANCH  12  15
HETATM   15  C   UNL     1     -11.698   8.180  68.888  1.00  0.00     1.516 C  
HETATM   16  C   UNL     1     -13.205   8.374  68.964  1.00  0.00     7.785 C  
ENDBRANCH  12  15
BRANCH   5  17
HETATM   17  C   UNL     1      -8.332  10.621  71.517  1.00  0.00     5.747 C  
HETATM   18  C   UNL     1      -8.189   9.293  72.245  1.00  0.00     0.925 C  
ENDBRANCH   5  17
ENDBRANCH   1   3
BRANCH   2  19
HETATM   19  C   UNL     1      -7.326  16.825  68.862  1.00  0.00    -0.235 A  
HETATM   20  C   UNL     1      -6.457  18.901  69.787  1.00  0.00    -0.177 A  
HETATM   21  C   UNL     1      -6.495  19.505  68.528  1.00  0.00    -0.261 A  
HETATM   22  C   UNL     1      -6.986  18.779  67.428  1.00  0.00    -0.205 A  
HETATM   23  C   UNL     1      -7.408  17.454  67.607  1.00  0.00    -0.187 A  
HETATM   24  C   UNL     1      -6.869  17.570  69.952  1.00  0.00     0.407 A  
BRANCH  22  25
HETATM   25  O   UNL     1      -6.997  19.448  66.228  1.00  0.00    -0.209 OA 
HETATM   26  C   UNL     1      -6.658  18.726  65.054  1.00  0.00    -0.033 C  
ENDBRANCH  22  25
BRANCH  21  27
HETATM   27  O   UNL     1      -6.081  20.788  68.260  1.00  0.00    -0.299 OA 
HETATM   28  C   UNL     1      -6.412  21.349  67.000  1.00  0.00    -0.270 C  
ENDBRANCH  21  27
ENDBRANCH   2  19
TORSDOF 6
ENDMDL
MODEL      146
REMARK 921   NORMALIZED FREE ENERGY PREDICTED BY IDOCK:   24.85 KCAL/MOL
REMARK 922        TOTAL FREE ENERGY PREDICTED BY IDOCK:   33.27 KCAL/MOL
REMARK 923 INTER-LIGAND FREE ENERGY PREDICTED BY IDOCK:   30.81 KCAL/MOL
REMARK 924 INTRA-LIGAND FREE ENERGY PREDICTED BY IDOCK:    2.46 KCAL/MOL
REMARK 927      BINDING AFFINITY PREDICTED BY RF-SCORE:    0.00 PKD
ROOT
HETATM    1  C   UNL     1     -10.695   9.873  69.129  1.00  0.00    -0.247 C  
HETATM    2  C   UNL     1     -11.202   8.949  69.969  1.00  0.00    -0.120 C  
ENDROOT
BRANCH   1   3
HETATM    3  C   UNL     1     -10.952  11.253  69.387  1.00  0.00    -0.228 A  
HETATM    4  N   UNL     1     -11.929  12.002  68.902  1.00  0.00    -0.282 NA 
HETATM    5  N   UNL     1     -12.647  14.280  69.313  1.00  0.00    -0.019 N  
HETATM    6  O   UNL     1     -13.195  16.420  69.935  1.00  0.00     1.137 OA 
HETATM    7  C   UNL     1     -11.808  13.209  69.506  1.00  0.00    -0.322 A  
HETATM    8  C   UNL     1     -10.750  13.249  70.361  1.00  0.00     1.837 A  
HETATM    9  C   UNL     1     -12.427  15.458  70.026  1.00  0.00    -0.283 C  
HETATM   10  N   UNL     1     -10.184  11.999  70.281  1.00  0.00     2.253 NA 
HETATM   11  C   UNL     1      -9.011  11.539  70.984  1.00  0.00     8.147 C  
HETATM   12  N   UNL     1     -11.279  15.508  70.843  1.00  0.00    -0.348 N  
HETATM   13  C   UNL     1     -10.417  14.430  71.099  1.00  0.00     1.904 C  
HETATM   14  O   UNL     1      -9.470  14.494  71.876  1.00  0.00     3.990 OA 
BRANCH  12  15
HETATM   15  C   UNL     1     -10.964  16.790  71.471  1.00  0.00     0.997 C  
HETATM   16  C   UNL     1     -12.083  17.324  72.353  1.00  0.00     1.742 C  
ENDBRANCH  12  15
BRANCH   5  17
HETATM   17  C   UNL     1     -13.768  14.182  68.384  1.00  0.00     6.732 C  
HETATM   18  C   UNL     1     -13.324  14.174  66.930  1.00  0.00     2.952 C  
ENDBRANCH   5  17
ENDBRANCH   1   3
BRANCH   2  19
HETATM   19  C   UNL     1     -10.927   7.501  69.958  1.00  0.00    -0.252 A  
HETATM   20  C   UNL     1     -10.979   5.288  68.947  1.00  0.00     0.374 A  
HETATM   21  C   UNL     1     -10.292   4.748  70.038  1.00  0.00    -0.083 A  
HETATM   22  C   UNL     1      -9.949   5.580  71.119  1.00  0.00    -0.195 A  
HETATM   23  C   UNL     1     -10.280   6.942  71.075  1.00  0.00    -0.213 A  
HETATM   24  C   UNL     1     -11.293   6.654  68.907  1.00  0.00    -0.209 A  
BRANCH  22  25
HETATM   25  O   UNL     1      -9.284   4.970  72.154  1.00  0.00    -0.134 OA 
HETATM   26  C   UNL     1      -8.330   3.967  71.840  1.00  0.00    -0.095 C  
ENDBRANCH  22  25
BRANCH  21  27
HETATM   27  O   UNL     1      -9.911   3.433  70.153  1.00  0.00    -0.122 OA 
HETATM   28  C   UNL     1     -10.691   2.579  70.974  1.00  0.00     1.895 C  
ENDBRANCH  21  27
ENDBRANCH   2  19
TORSDOF 6
ENDMDL
