MODEL        1
REMARK 921   NORMALIZED FREE ENERGY PREDICTED BY IDOCK:   -0.87 KCAL/MOL
REMARK 922        TOTAL FREE ENERGY PREDICTED BY IDOCK:    0.17 KCAL/MOL
REMARK 923 INTER-LIGAND FREE ENERGY PREDICTED BY IDOCK:   -1.43 KCAL/MOL
REMARK 924 INTRA-LIGAND FREE ENERGY PREDICTED BY IDOCK:    1.60 KCAL/MOL
REMARK 927      BINDING AFFINITY PREDICTED BY RF-SCORE:    0.00 PKD
ROOT
HETATM    1  C   UNL     1     -11.143   3.236  63.774  1.00  0.00     0.131 C  
HETATM    2  C   UNL     1      -9.807   3.712  64.333  1.00  0.00    -0.185 C  
ENDROOT
BRANCH   2   3
HETATM    3  C   UNL     1      -9.717   3.600  65.863  1.00  0.00    -0.086 C  
HETATM    4  C   UNL     1      -8.348   3.057  66.280  1.00  0.00    -0.098 C  
BRANCH   3   5
HETATM    5  N   UNL     1      -9.981   4.854  66.547  1.00  0.00    -0.206 N  
HETATM    6  N   UNL     1     -10.896   4.993  67.559  1.00  0.00     0.205 NA 
HETATM    7  C   UNL     1     -10.880   6.264  67.809  1.00  0.00    -0.338 C  
HETATM    8  N   UNL     1     -10.073   7.014  67.027  1.00  0.00    -0.207 N  
HETATM    9  C   UNL     1      -9.471   6.107  66.171  1.00  0.00    -0.067 C  
HETATM   10  O   UNL     1      -8.664   6.294  65.273  1.00  0.00    -0.108 OA 
BRANCH   8  11
HETATM   11  C   UNL     1      -9.895   8.415  67.066  1.00  0.00    -0.230 A  
HETATM   12  C   UNL     1     -10.193   9.221  65.966  1.00  0.00    -0.156 A  
HETATM   13  C   UNL     1      -9.977  10.607  65.997  1.00  0.00    -0.295 A  
HETATM   14  C   UNL     1      -9.443  11.251  67.116  1.00  0.00    -0.170 A  
HETATM   15  C   UNL     1      -9.188  10.442  68.229  1.00  0.00    -0.149 A  
HETATM   16  C   UNL     1      -9.407   9.056  68.210  1.00  0.00    -0.145 A  
BRANCH  14  17
HETATM   17  N   UNL     1      -9.139  12.592  67.108  1.00  0.00    -0.197 NA 
HETATM   18  C   UNL     1      -7.894  13.132  67.687  1.00  0.00    -0.169 C  
HETATM   19  C   UNL     1      -7.227  14.121  66.705  1.00  0.00     1.182 C  
HETATM   20  N   UNL     1      -8.200  15.164  66.325  1.00  0.00     0.223 NA 
HETATM   21  C   UNL     1      -9.425  14.627  65.706  1.00  0.00    -0.145 C  
HETATM   22  C   UNL     1     -10.106  13.620  66.666  1.00  0.00    -0.277 C  
BRANCH  20  23
HETATM   23  C   UNL     1      -7.843  16.488  66.198  1.00  0.00    -0.099 A  
HETATM   24  C   UNL     1      -8.799  17.504  66.213  1.00  0.00    -0.216 A  
HETATM   25  C   UNL     1      -8.465  18.838  65.970  1.00  0.00    -0.062 A  
HETATM   26  C   UNL     1      -7.147  19.206  65.702  1.00  0.00    -0.232 A  
HETATM   27  C   UNL     1      -6.167  18.219  65.722  1.00  0.00    -0.288 A  
HETATM   28  C   UNL     1      -6.516  16.878  65.973  1.00  0.00     0.451 A  
BRANCH  26  29
HETATM   29  O   UNL     1      -6.740  20.489  65.402  1.00  0.00    -0.263 OA 
BRANCH  29  30
HETATM   30  C   UNL     1      -6.474  21.299  66.550  1.00  0.00    -0.209 C  
BRANCH  30  31
HETATM   31  C   UNL     1      -5.941  20.514  67.738  1.00  0.00    -0.246 C  
HETATM   32  C   UNL     1      -5.618  21.366  68.933  1.00  0.00     0.041 C  
HETATM   33  O   UNL     1      -5.821  20.490  70.040  1.00  0.00    -0.340 OA 
HETATM   34  C   UNL     1      -6.842  19.540  69.638  1.00  0.00    -0.247 C  
HETATM   35  O   UNL     1      -6.976  19.636  68.204  1.00  0.00    -0.265 OA 
BRANCH  34  36
HETATM   36  C   UNL     1      -6.397  18.114  69.968  1.00  0.00     0.046 A  
HETATM   37 CL   UNL     1      -5.158  18.919  72.307  1.00  0.00     0.385 Cl 
HETATM   38  C   UNL     1      -5.657  17.766  71.118  1.00  0.00     0.220 A  
HETATM   39  C   UNL     1      -6.774  17.058  69.106  1.00  0.00    -0.241 A  
HETATM   40 CL   UNL     1      -5.331  13.782  70.874  1.00  0.00    -0.138 Cl 
HETATM   41  C   UNL     1      -6.443  15.728  69.381  1.00  0.00    -0.165 A  
HETATM   42  C   UNL     1      -5.715  15.421  70.521  1.00  0.00    -0.099 A  
HETATM   43  C   UNL     1      -5.312  16.432  71.385  1.00  0.00     0.135 A  
ENDBRANCH  34  36
BRANCH  34  44
HETATM   44  C   UNL     1      -8.178  19.995  70.270  1.00  0.00     1.284 C  
BRANCH  44  45
HETATM   45  N   UNL     1      -9.350  19.560  69.553  1.00  0.00    -0.007 NA 
HETATM   46  C   UNL     1     -10.819  18.294  68.812  1.00  0.00     0.505 A  
HETATM   47  C   UNL     1      -9.999  20.206  68.543  1.00  0.00    -0.249 A  
HETATM   48  N   UNL     1      -9.848  18.320  69.728  1.00  0.00     0.461 NA 
HETATM   49  N   UNL     1     -10.945  19.430  68.067  1.00  0.00    -0.104 NA 
ENDBRANCH  44  45
ENDBRANCH  34  44
ENDBRANCH  30  31
ENDBRANCH  29  30
ENDBRANCH  26  29
ENDBRANCH  20  23
ENDBRANCH  14  17
ENDBRANCH   8  11
ENDBRANCH   3   5
ENDBRANCH   2   3
TORSDOF 11
ENDMDL
MODEL        2
REMARK 921   NORMALIZED FREE ENERGY PREDICTED BY IDOCK:   -0.77 KCAL/MOL
REMARK 922        TOTAL FREE ENERGY PREDICTED BY IDOCK:    0.33 KCAL/MOL
REMARK 923 INTER-LIGAND FREE ENERGY PREDICTED BY IDOCK:   -2.12 KCAL/MOL
REMARK 924 INTRA-LIGAND FREE ENERGY PREDICTED BY IDOCK:    2.45 KCAL/MOL
REMARK 927      BINDING AFFINITY PREDICTED BY RF-SCORE:    0.00 PKD
ROOT
HETATM    1  C   UNL     1     -10.691   2.552  63.846  1.00  0.00     0.026 C  
HETATM    2  C   UNL     1      -9.548   1.543  63.867  1.00  0.00    -0.129 C  
ENDROOT
BRANCH   2   3
HETATM    3  C   UNL     1      -8.563   1.769  65.025  1.00  0.00    -0.101 C  
HETATM    4  C   UNL     1      -7.126   1.833  64.500  1.00  0.00    -0.047 C  
BRANCH   3   5
HETATM    5  N   UNL     1      -8.858   2.958  65.806  1.00  0.00    -0.135 N  
HETATM    6  N   UNL     1      -9.178   2.934  67.139  1.00  0.00    -0.174 NA 
HETATM    7  C   UNL     1      -9.452   4.172  67.406  1.00  0.00    -0.187 C  
HETATM    8  N   UNL     1      -9.394   5.032  66.366  1.00  0.00    -0.137 N  
HETATM    9  C   UNL     1      -9.013   4.253  65.286  1.00  0.00    -0.137 C  
HETATM   10  O   UNL     1      -8.830   4.565  64.119  1.00  0.00    -0.141 OA 
BRANCH   8  11
HETATM   11  C   UNL     1      -9.675   6.417  66.376  1.00  0.00    -0.089 A  
HETATM   12  C   UNL     1      -9.076   7.291  65.467  1.00  0.00     0.173 A  
HETATM   13  C   UNL     1      -9.328   8.670  65.508  1.00  0.00    -0.105 A  
HETATM   14  C   UNL     1     -10.174   9.243  66.460  1.00  0.00    -0.246 A  
HETATM   15  C   UNL     1     -10.803   8.355  67.339  1.00  0.00    -0.091 A  
HETATM   16  C   UNL     1     -10.563   6.973  67.303  1.00  0.00    -0.395 A  
BRANCH  14  17
HETATM   17  N   UNL     1     -10.341  10.605  66.561  1.00  0.00    -0.240 NA 
HETATM   18  C   UNL     1      -9.610  11.429  67.542  1.00  0.00    -0.167 C  
HETATM   19  C   UNL     1      -9.016  12.681  66.860  1.00  0.00    -0.213 C  
HETATM   20  N   UNL     1     -10.090  13.413  66.161  1.00  0.00    -0.296 NA 
HETATM   21  C   UNL     1     -10.791  12.603  65.149  1.00  0.00    -0.290 C  
HETATM   22  C   UNL     1     -11.384  11.333  65.806  1.00  0.00     0.092 C  
BRANCH  20  23
HETATM   23  C   UNL     1     -10.164  14.788  66.169  1.00  0.00    -0.297 A  
HETATM   24  C   UNL     1     -10.344  15.500  67.356  1.00  0.00    -0.266 A  
HETATM   25  C   UNL     1     -10.536  16.884  67.366  1.00  0.00    -0.310 A  
HETATM   26  C   UNL     1     -10.553  17.611  66.176  1.00  0.00    -0.220 A  
HETATM   27  C   UNL     1     -10.334  16.932  64.983  1.00  0.00     0.303 A  
HETATM   28  C   UNL     1     -10.137  15.538  64.985  1.00  0.00    -0.163 A  
BRANCH  26  29
HETATM   29  O   UNL     1     -10.786  18.968  66.094  1.00  0.00    -0.344 OA 
BRANCH  29  30
HETATM   30  C   UNL     1      -9.638  19.735  65.720  1.00  0.00    -0.096 C  
BRANCH  30  31
HETATM   31  C   UNL     1      -8.319  19.065  66.073  1.00  0.00    -0.113 C  
HETATM   32  C   UNL     1      -7.118  19.942  65.857  1.00  0.00    -0.298 C  
HETATM   33  O   UNL     1      -6.177  19.472  66.822  1.00  0.00    -0.180 OA 
HETATM   34  C   UNL     1      -6.948  18.955  67.938  1.00  0.00    -0.229 C  
HETATM   35  O   UNL     1      -8.309  18.797  67.483  1.00  0.00    -0.262 OA 
BRANCH  34  36
HETATM   36  C   UNL     1      -6.432  17.572  68.342  1.00  0.00    -0.183 A  
HETATM   37 CL   UNL     1      -5.160  18.578  70.585  1.00  0.00    -0.234 Cl 
HETATM   38  C   UNL     1      -5.644  17.331  69.488  1.00  0.00    -0.201 A  
HETATM   39  C   UNL     1      -6.787  16.448  67.561  1.00  0.00    -0.180 A  
HETATM   40 CL   UNL     1      -5.150  13.357  69.485  1.00  0.00    -0.082 Cl 
HETATM   41  C   UNL     1      -6.390  15.154  67.909  1.00  0.00    -0.176 A  
HETATM   42  C   UNL     1      -5.615  14.951  69.041  1.00  0.00    -0.096 A  
HETATM   43  C   UNL     1      -5.233  16.032  69.827  1.00  0.00    -0.122 A  
ENDBRANCH  34  36
BRANCH  34  44
HETATM   44  C   UNL     1      -6.941  20.031  69.049  1.00  0.00    -0.239 C  
BRANCH  44  45
HETATM   45  N   UNL     1      -8.154  20.087  69.826  1.00  0.00     0.470 NA 
HETATM   46  C   UNL     1      -9.402  20.131  71.484  1.00  0.00     2.445 A  
HETATM   47  C   UNL     1      -9.426  19.824  69.409  1.00  0.00     0.046 A  
HETATM   48  N   UNL     1      -8.114  20.266  71.161  1.00  0.00     1.302 NA 
HETATM   49  N   UNL     1     -10.238  19.861  70.440  1.00  0.00     0.640 NA 
ENDBRANCH  44  45
ENDBRANCH  34  44
ENDBRANCH  30  31
ENDBRANCH  29  30
ENDBRANCH  26  29
ENDBRANCH  20  23
ENDBRANCH  14  17
ENDBRANCH   8  11
ENDBRANCH   3   5
ENDBRANCH   2   3
TORSDOF 11
ENDMDL
MODEL        3
REMARK 921   NORMALIZED FREE ENERGY PREDICTED BY IDOCK:   14.06 KCAL/MOL
REMARK 922        TOTAL FREE ENERGY PREDICTED BY IDOCK:   24.71 KCAL/MOL
REMARK 923 INTER-LIGAND FREE ENERGY PREDICTED BY IDOCK:   17.33 KCAL/MOL
REMARK 924 INTRA-LIGAND FREE ENERGY PREDICTED BY IDOCK:    7.38 KCAL/MOL
REMARK 927      BINDING AFFINITY PREDICTED BY RF-SCORE:    0.00 PKD
ROOT
HETATM    1  C   UNL     1     -11.700   2.998  68.846  1.00  0.00    13.707 C  
HETATM    2  C   UNL     1     -10.567   2.042  68.492  1.00  0.00     3.137 C  
ENDROOT
BRANCH   2   3
HETATM    3  C   UNL     1      -9.172   2.648  68.717  1.00  0.00    -0.166 C  
HETATM    4  C   UNL     1      -8.354   2.602  67.424  1.00  0.00    -0.094 C  
BRANCH   3   5
HETATM    5  N   UNL     1      -9.213   4.006  69.230  1.00  0.00    -0.137 N  
HETATM    6  N   UNL     1      -9.364   4.315  70.558  1.00  0.00    -0.130 NA 
HETATM    7  C   UNL     1      -9.442   5.609  70.560  1.00  0.00    -0.163 C  
HETATM    8  N   UNL     1      -9.405   6.209  69.350  1.00  0.00    -0.138 N  
HETATM    9  C   UNL     1      -9.264   5.169  68.446  1.00  0.00    -0.117 C  
HETATM   10  O   UNL     1      -9.190   5.195  67.226  1.00  0.00    -0.112 OA 
BRANCH   8  11
HETATM   11  C   UNL     1      -9.502   7.590  69.070  1.00  0.00    -0.145 A  
HETATM   12  C   UNL     1      -8.935   8.146  67.921  1.00  0.00    -0.133 A  
HETATM   13  C   UNL     1      -9.000   9.524  67.668  1.00  0.00    -0.124 A  
HETATM   14  C   UNL     1      -9.620  10.412  68.550  1.00  0.00    -0.158 A  
HETATM   15  C   UNL     1     -10.223   9.842  69.676  1.00  0.00    -0.261 A  
HETATM   16  C   UNL     1     -10.168   8.464  69.936  1.00  0.00    -0.201 A  
BRANCH  14  17
HETATM   17  N   UNL     1      -9.595  11.773  68.350  1.00  0.00    -0.195 NA 
HETATM   18  C   UNL     1      -8.408  12.484  67.839  1.00  0.00    -0.167 C  
HETATM   19  C   UNL     1      -8.806  13.454  66.705  1.00  0.00    -0.132 C  
HETATM   20  N   UNL     1      -9.871  14.357  67.185  1.00  0.00    -0.249 NA 
HETATM   21  C   UNL     1     -11.075  13.647  67.654  1.00  0.00    -0.273 C  
HETATM   22  C   UNL     1     -10.699  12.657  68.783  1.00  0.00    -0.207 C  
BRANCH  20  23
HETATM   23  C   UNL     1      -9.896  15.696  66.865  1.00  0.00    -0.238 A  
HETATM   24  C   UNL     1      -9.075  16.616  67.519  1.00  0.00    -0.204 A  
HETATM   25  C   UNL     1      -9.170  17.989  67.286  1.00  0.00    -0.255 A  
HETATM   26  C   UNL     1     -10.102  18.496  66.380  1.00  0.00    -0.405 A  
HETATM   27  C   UNL     1     -10.903  17.599  65.683  1.00  0.00     0.035 A  
HETATM   28  C   UNL     1     -10.794  16.215  65.923  1.00  0.00    -0.179 A  
BRANCH  26  29
HETATM   29  O   UNL     1     -10.297  19.838  66.129  1.00  0.00    -0.461 OA 
BRANCH  29  30
HETATM   30  C   UNL     1      -9.094  20.612  66.128  1.00  0.00     0.291 C  
BRANCH  30  31
HETATM   31  C   UNL     1      -7.841  19.787  66.382  1.00  0.00    -0.312 C  
HETATM   32  C   UNL     1      -6.563  20.557  66.204  1.00  0.00    -0.235 C  
HETATM   33  O   UNL     1      -5.653  19.915  67.096  1.00  0.00    -0.170 OA 
HETATM   34  C   UNL     1      -6.447  19.380  68.187  1.00  0.00    -0.232 C  
HETATM   35  O   UNL     1      -7.827  19.397  67.763  1.00  0.00    -0.267 OA 
BRANCH  34  36
HETATM   36  C   UNL     1      -6.063  17.923  68.456  1.00  0.00    -0.186 A  
HETATM   37 CL   UNL     1      -5.366  18.472  71.077  1.00  0.00    -0.265 Cl 
HETATM   38  C   UNL     1      -5.582  17.453  69.697  1.00  0.00    -0.213 A  
HETATM   39  C   UNL     1      -6.231  16.965  67.430  1.00  0.00    -0.186 A  
HETATM   40 CL   UNL     1      -5.155  13.512  69.121  1.00  0.00    -0.073 Cl 
HETATM   41  C   UNL     1      -5.948  15.612  67.631  1.00  0.00    -0.159 A  
HETATM   42  C   UNL     1      -5.477  15.182  68.863  1.00  0.00    -0.095 A  
HETATM   43  C   UNL     1      -5.284  16.095  69.893  1.00  0.00    -0.134 A  
ENDBRANCH  34  36
BRANCH  34  44
HETATM   44  C   UNL     1      -6.307  20.348  69.385  1.00  0.00    -0.243 C  
BRANCH  44  45
HETATM   45  N   UNL     1      -7.485  20.441  70.211  1.00  0.00     0.523 NA 
HETATM   46  C   UNL     1      -8.756  20.146  71.824  1.00  0.00     2.490 A  
HETATM   47  C   UNL     1      -8.741  20.812  69.835  1.00  0.00     2.376 A  
HETATM   48  N   UNL     1      -7.476  19.989  71.481  1.00  0.00     0.979 NA 
HETATM   49  N   UNL     1      -9.564  20.648  70.846  1.00  0.00     1.607 NA 
ENDBRANCH  44  45
ENDBRANCH  34  44
ENDBRANCH  30  31
ENDBRANCH  29  30
ENDBRANCH  26  29
ENDBRANCH  20  23
ENDBRANCH  14  17
ENDBRANCH   8  11
ENDBRANCH   3   5
ENDBRANCH   2   3
TORSDOF 11
ENDMDL
MODEL        4
REMARK 921   NORMALIZED FREE ENERGY PREDICTED BY IDOCK:   59.17 KCAL/MOL
REMARK 922        TOTAL FREE ENERGY PREDICTED BY IDOCK:   98.82 KCAL/MOL
REMARK 923 INTER-LIGAND FREE ENERGY PREDICTED BY IDOCK:   81.75 KCAL/MOL
REMARK 924 INTRA-LIGAND FREE ENERGY PREDICTED BY IDOCK:   17.07 KCAL/MOL
REMARK 927      BINDING AFFINITY PREDICTED BY RF-SCORE:    0.00 PKD
ROOT
HETATM    1  C   UNL     1     -12.793   2.612  68.873  1.00  0.00    26.993 C  
HETATM    2  C   UNL     1     -11.420   1.954  68.796  1.00  0.00     8.971 C  
ENDROOT
BRANCH   2   3
HETATM    3  C   UNL     1     -10.273   2.900  69.184  1.00  0.00     1.373 C  
HETATM    4  C   UNL     1      -9.170   2.866  68.122  1.00  0.00    -0.248 C  
BRANCH   3   5
HETATM    5  N   UNL     1     -10.707   4.269  69.403  1.00  0.00     1.285 N  
HETATM    6  N   UNL     1     -11.611   4.636  70.367  1.00  0.00     3.447 NA 
HETATM    7  C   UNL     1     -11.780   5.903  70.155  1.00  0.00     0.429 C  
HETATM    8  N   UNL     1     -11.111   6.426  69.105  1.00  0.00    -0.353 N  
HETATM    9  C   UNL     1     -10.398   5.361  68.578  1.00  0.00    -0.149 C  
HETATM   10  O   UNL     1      -9.646   5.321  67.615  1.00  0.00    -0.122 OA 
BRANCH   8  11
HETATM   11  C   UNL     1     -11.143   7.759  68.639  1.00  0.00     0.304 A  
HETATM   12  C   UNL     1     -10.128   8.277  67.832  1.00  0.00    -0.252 A  
HETATM   13  C   UNL     1     -10.145   9.613  67.406  1.00  0.00    -0.257 A  
HETATM   14  C   UNL     1     -11.163  10.497  67.772  1.00  0.00    -0.273 A  
HETATM   15  C   UNL     1     -12.198   9.958  68.545  1.00  0.00     1.837 A  
HETATM   16  C   UNL     1     -12.193   8.621  68.972  1.00  0.00     2.748 A  
BRANCH  14  17
HETATM   17  N   UNL     1     -11.126  11.830  67.437  1.00  0.00    -0.263 NA 
HETATM   18  C   UNL     1      -9.894  12.639  67.510  1.00  0.00    -0.203 C  
HETATM   19  C   UNL     1      -9.709  13.460  66.216  1.00  0.00    -0.272 C  
HETATM   20  N   UNL     1     -10.924  14.261  65.967  1.00  0.00    -0.307 NA 
HETATM   21  C   UNL     1     -12.148  13.448  65.849  1.00  0.00    -0.439 C  
HETATM   22  C   UNL     1     -12.349  12.604  67.130  1.00  0.00     0.364 C  
BRANCH  20  23
HETATM   23  C   UNL     1     -10.865  15.557  65.506  1.00  0.00    -0.361 A  
HETATM   24  C   UNL     1     -10.717  16.634  66.382  1.00  0.00    -0.123 A  
HETATM   25  C   UNL     1     -10.771  17.959  65.942  1.00  0.00    -0.116 A  
HETATM   26  C   UNL     1     -10.977  18.255  64.594  1.00  0.00     2.586 A  
HETATM   27  C   UNL     1     -11.086  17.200  63.694  1.00  0.00     4.796 A  
HETATM   28  C   UNL     1     -11.025  15.869  64.150  1.00  0.00     0.486 A  
BRANCH  26  29
HETATM   29  O   UNL     1     -11.094  19.530  64.084  1.00  0.00     1.904 OA 
BRANCH  29  30
HETATM   30  C   UNL     1     -10.127  20.453  64.594  1.00  0.00     2.166 C  
BRANCH  30  31
HETATM   31  C   UNL     1      -8.989  19.784  65.350  1.00  0.00     0.787 C  
HETATM   32  C   UNL     1      -8.386  20.646  66.422  1.00  0.00     0.174 C  
HETATM   33  O   UNL     1      -7.912  19.707  67.386  1.00  0.00    -0.263 OA 
HETATM   34  C   UNL     1      -8.778  18.546  67.296  1.00  0.00    -0.266 C  
HETATM   35  O   UNL     1      -9.519  18.656  66.063  1.00  0.00    -0.486 OA 
BRANCH  34  36
HETATM   36  C   UNL     1      -7.941  17.266  67.221  1.00  0.00    -0.207 A  
HETATM   37 CL   UNL     1      -8.086  17.199  64.459  1.00  0.00     6.302 Cl 
HETATM   38  C   UNL     1      -7.599  16.620  66.014  1.00  0.00     0.155 A  
HETATM   39  C   UNL     1      -7.434  16.703  68.415  1.00  0.00    -0.194 A  
HETATM   40 CL   UNL     1      -5.281  13.573  67.189  1.00  0.00     0.439 Cl 
HETATM   41  C   UNL     1      -6.622  15.567  68.406  1.00  0.00    -0.117 A  
HETATM   42  C   UNL     1      -6.304  14.955  67.203  1.00  0.00     0.526 A  
HETATM   43  C   UNL     1      -6.795  15.470  66.008  1.00  0.00     3.519 A  
ENDBRANCH  34  36
BRANCH  34  44
HETATM   44  C   UNL     1      -9.788  18.625  68.465  1.00  0.00    -0.386 C  
BRANCH  44  45
HETATM   45  N   UNL     1     -10.870  19.552  68.249  1.00  0.00    -0.036 NA 
HETATM   46  C   UNL     1     -12.755  20.258  67.741  1.00  0.00     5.128 A  
HETATM   47  C   UNL     1     -10.795  20.906  68.111  1.00  0.00     1.290 A  
HETATM   48  N   UNL     1     -12.118  19.112  67.994  1.00  0.00     2.610 NA 
HETATM   49  N   UNL     1     -11.980  21.380  67.804  1.00  0.00     6.827 NA 
ENDBRANCH  44  45
ENDBRANCH  34  44
ENDBRANCH  30  31
ENDBRANCH  29  30
ENDBRANCH  26  29
ENDBRANCH  20  23
ENDBRANCH  14  17
ENDBRANCH   8  11
ENDBRANCH   3   5
ENDBRANCH   2   3
TORSDOF 11
ENDMDL
MODEL        5
REMARK 921   NORMALIZED FREE ENERGY PREDICTED BY IDOCK:   88.74 KCAL/MOL
REMARK 922        TOTAL FREE ENERGY PREDICTED BY IDOCK:  147.41 KCAL/MOL
REMARK 923 INTER-LIGAND FREE ENERGY PREDICTED BY IDOCK:  122.72 KCAL/MOL
REMARK 924 INTRA-LIGAND FREE ENERGY PREDICTED BY IDOCK:   24.69 KCAL/MOL
REMARK 927      BINDING AFFINITY PREDICTED BY RF-SCORE:    0.00 PKD
ROOT
HETATM    1  C   UNL     1     -13.310   2.513  68.754  1.00  0.00    27.958 C  
HETATM    2  C   UNL     1     -12.134   1.809  68.086  1.00  0.00    14.899 C  
ENDROOT
BRANCH   2   3
HETATM    3  C   UNL     1     -10.872   2.683  68.007  1.00  0.00     5.446 C  
HETATM    4  C   UNL     1     -10.544   3.020  66.550  1.00  0.00     2.901 C  
BRANCH   3   5
HETATM    5  N   UNL     1     -10.970   3.904  68.788  1.00  0.00     3.203 N  
HETATM    6  N   UNL     1     -11.309   3.934  70.116  1.00  0.00     4.948 NA 
HETATM    7  C   UNL     1     -11.371   5.201  70.384  1.00  0.00     1.295 C  
HETATM    8  N   UNL     1     -11.150   6.039  69.348  1.00  0.00    -0.390 N  
HETATM    9  C   UNL     1     -10.892   5.207  68.271  1.00  0.00     0.398 C  
HETATM   10  O   UNL     1     -10.641   5.485  67.108  1.00  0.00    -0.248 OA 
BRANCH   8  11
HETATM   11  C   UNL     1     -11.189   7.451  69.359  1.00  0.00     0.061 A  
HETATM   12  C   UNL     1     -10.518   8.209  68.397  1.00  0.00    -0.205 A  
HETATM   13  C   UNL     1     -10.526   9.611  68.436  1.00  0.00    -0.258 A  
HETATM   14  C   UNL     1     -11.191  10.322  69.439  1.00  0.00    -0.239 A  
HETATM   15  C   UNL     1     -11.897   9.556  70.373  1.00  0.00    -0.181 A  
HETATM   16  C   UNL     1     -11.899   8.153  70.339  1.00  0.00     0.091 A  
BRANCH  14  17
HETATM   17  N   UNL     1     -11.115  11.692  69.532  1.00  0.00    -0.207 NA 
HETATM   18  C   UNL     1      -9.891  12.449  69.205  1.00  0.00     0.625 C  
HETATM   19  C   UNL     1     -10.226  13.651  68.296  1.00  0.00    -0.243 C  
HETATM   20  N   UNL     1     -11.272  14.473  68.937  1.00  0.00    -0.249 NA 
HETATM   21  C   UNL     1     -12.512  13.727  69.223  1.00  0.00     0.036 C  
HETATM   22  C   UNL     1     -12.199  12.507  70.122  1.00  0.00    -0.234 C  
BRANCH  20  23
HETATM   23  C   UNL     1     -11.243  15.849  68.907  1.00  0.00    -0.343 A  
HETATM   24  C   UNL     1     -10.408  16.577  69.756  1.00  0.00    -0.163 A  
HETATM   25  C   UNL     1     -10.451  17.972  69.818  1.00  0.00     0.752 A  
HETATM   26  C   UNL     1     -11.341  18.694  69.023  1.00  0.00     2.518 A  
HETATM   27  C   UNL     1     -12.155  17.996  68.138  1.00  0.00     3.290 A  
HETATM   28  C   UNL     1     -12.099  16.590  68.081  1.00  0.00     0.941 A  
BRANCH  26  29
HETATM   29  O   UNL     1     -11.484  20.065  69.059  1.00  0.00     1.954 OA 
BRANCH  29  30
HETATM   30  C   UNL     1     -10.245  20.780  69.073  1.00  0.00     0.630 C  
BRANCH  30  31
HETATM   31  C   UNL     1      -9.065  19.960  68.573  1.00  0.00    -0.162 C  
HETATM   32  C   UNL     1      -7.799  20.185  69.351  1.00  0.00     0.378 C  
HETATM   33  O   UNL     1      -7.105  18.945  69.234  1.00  0.00    -0.285 OA 
HETATM   34  C   UNL     1      -8.115  17.912  69.093  1.00  0.00     0.079 C  
HETATM   35  O   UNL     1      -9.360  18.570  68.776  1.00  0.00    -0.330 OA 
BRANCH  34  36
HETATM   36  C   UNL     1      -7.769  16.988  67.924  1.00  0.00    -0.180 A  
HETATM   37 CL   UNL     1      -7.034  19.113  66.312  1.00  0.00    -0.233 Cl 
HETATM   38  C   UNL     1      -7.291  17.442  66.677  1.00  0.00    -0.247 A  
HETATM   39  C   UNL     1      -7.887  15.589  68.093  1.00  0.00    -0.129 A  
HETATM   40 CL   UNL     1      -6.611  14.068  64.630  1.00  0.00    17.648 Cl 
HETATM   41  C   UNL     1      -7.536  14.692  67.081  1.00  0.00    -0.078 A  
HETATM   42  C   UNL     1      -7.069  15.171  65.866  1.00  0.00     4.741 A  
HETATM   43  C   UNL     1      -6.953  16.541  65.655  1.00  0.00     2.092 A  
ENDBRANCH  34  36
BRANCH  34  44
HETATM   44  C   UNL     1      -8.278  17.228  70.471  1.00  0.00     4.074 C  
BRANCH  44  45
HETATM   45  N   UNL     1      -9.015  18.006  71.434  1.00  0.00     8.304 NA 
HETATM   46  C   UNL     1     -10.612  18.686  72.574  1.00  0.00     3.656 A  
HETATM   47  C   UNL     1      -8.669  19.207  71.979  1.00  0.00     6.909 A  
HETATM   48  N   UNL     1     -10.270  17.663  71.787  1.00  0.00     4.353 NA 
HETATM   49  N   UNL     1      -9.659  19.652  72.718  1.00  0.00     3.141 NA 
ENDBRANCH  44  45
ENDBRANCH  34  44
ENDBRANCH  30  31
ENDBRANCH  29  30
ENDBRANCH  26  29
ENDBRANCH  20  23
ENDBRANCH  14  17
ENDBRANCH   8  11
ENDBRANCH   3   5
ENDBRANCH   2   3
TORSDOF 11
ENDMDL
