MODEL        1
REMARK 921   NORMALIZED FREE ENERGY PREDICTED BY IDOCK:   -7.05 KCAL/MOL
REMARK 922        TOTAL FREE ENERGY PREDICTED BY IDOCK:  -13.14 KCAL/MOL
REMARK 923 INTER-LIGAND FREE ENERGY PREDICTED BY IDOCK:  -11.17 KCAL/MOL
REMARK 924 INTRA-LIGAND FREE ENERGY PREDICTED BY IDOCK:   -1.96 KCAL/MOL
REMARK 927      BINDING AFFINITY PREDICTED BY RF-SCORE:    0.00 PKD
ROOT
HETATM    1  C   UNL     1     -13.331  15.887  73.073  1.00  0.00    -0.571 C  
HETATM    2  O   UNL     1     -14.040  15.040  72.173  1.00  0.00    -0.442 OA 
ENDROOT
BRANCH   2   3
HETATM    3  C   UNL     1     -13.341  14.027  71.568  1.00  0.00    -0.350 A  
HETATM    4  C   UNL     1     -12.462  14.132  70.456  1.00  0.00    -0.361 A  
HETATM    5  C   UNL     1     -13.564  12.763  72.180  1.00  0.00    -0.547 A  
HETATM    6  C   UNL     1     -11.882  12.976  69.933  1.00  0.00    -0.377 A  
HETATM    7  C   UNL     1     -12.944  11.654  71.635  1.00  0.00    -0.483 A  
HETATM    8  C   UNL     1     -12.202  11.775  70.503  1.00  0.00    -0.438 A  
HETATM    9  C   UNL     1     -11.977  10.295  70.320  1.00  0.00    -0.348 C  
HETATM   10  C   UNL     1     -12.615  10.185  71.776  1.00  0.00    -0.500 C  
BRANCH   4  11
HETATM   11  O   UNL     1     -12.155  15.357  69.927  1.00  0.00    -0.330 OA 
HETATM   12  C   UNL     1     -10.815  15.810  70.117  1.00  0.00    -0.351 C  
ENDBRANCH   4  11
BRANCH   9  13
HETATM   13  C   UNL     1     -10.525  10.122  69.852  1.00  0.00    -0.275 C  
BRANCH  13  14
HETATM   14  N   UNL     1     -10.174   8.876  69.167  1.00  0.00    -0.201 NA 
HETATM   15  C   UNL     1     -10.472   7.709  69.980  1.00  0.00    -0.229 C  
BRANCH  14  16
HETATM   16  C   UNL     1     -10.618   8.822  67.769  1.00  0.00    -0.191 C  
BRANCH  16  17
HETATM   17  C   UNL     1     -10.017   9.952  66.938  1.00  0.00    -0.268 C  
BRANCH  17  18
HETATM   18  C   UNL     1     -11.029  10.621  66.000  1.00  0.00     0.120 C  
BRANCH  18  19
HETATM   19  N   UNL     1     -10.815  12.071  66.008  1.00  0.00    -0.278 N  
HETATM   20  C   UNL     1      -9.437  12.542  66.089  1.00  0.00    -0.184 C  
HETATM   21  C   UNL     1      -9.201  13.412  67.311  1.00  0.00    -0.222 C  
HETATM   22  C   UNL     1      -9.518  14.834  66.944  1.00  0.00    -0.253 A  
HETATM   23  C   UNL     1      -8.483  15.778  66.976  1.00  0.00    -0.251 A  
HETATM   24  C   UNL     1      -8.699  17.101  66.593  1.00  0.00    -0.252 A  
HETATM   25  C   UNL     1      -9.978  17.492  66.162  1.00  0.00    -0.270 A  
HETATM   26  O   UNL     1     -12.839  12.559  65.064  1.00  0.00    -0.742 OA 
HETATM   27  C   UNL     1     -11.872  12.927  65.737  1.00  0.00    -0.419 C  
HETATM   28  C   UNL     1     -11.013  16.544  66.126  1.00  0.00     0.081 A  
HETATM   29  C   UNL     1     -11.953  14.234  66.521  1.00  0.00    -0.448 C  
HETATM   30  C   UNL     1     -10.794  15.205  66.501  1.00  0.00    -0.317 A  
BRANCH  24  31
HETATM   31  O   UNL     1      -7.705  18.049  66.575  1.00  0.00    -0.222 OA 
HETATM   32  C   UNL     1      -6.428  17.617  66.118  1.00  0.00    -0.249 C  
ENDBRANCH  24  31
BRANCH  25  33
HETATM   33  O   UNL     1     -10.121  18.811  65.808  1.00  0.00    -0.519 OA 
HETATM   34  C   UNL     1     -10.568  19.715  66.810  1.00  0.00    -0.486 C  
ENDBRANCH  25  33
ENDBRANCH  18  19
ENDBRANCH  17  18
ENDBRANCH  16  17
ENDBRANCH  14  16
ENDBRANCH  13  14
ENDBRANCH   9  13
ENDBRANCH   2   3
TORSDOF 10
ENDMDL
MODEL        2
REMARK 921   NORMALIZED FREE ENERGY PREDICTED BY IDOCK:   -6.85 KCAL/MOL
REMARK 922        TOTAL FREE ENERGY PREDICTED BY IDOCK:  -12.83 KCAL/MOL
REMARK 923 INTER-LIGAND FREE ENERGY PREDICTED BY IDOCK:  -10.45 KCAL/MOL
REMARK 924 INTRA-LIGAND FREE ENERGY PREDICTED BY IDOCK:   -2.38 KCAL/MOL
REMARK 927      BINDING AFFINITY PREDICTED BY RF-SCORE:    0.00 PKD
ROOT
HETATM    1  C   UNL     1      -9.305   9.742  64.973  1.00  0.00    -0.263 C  
HETATM    2  O   UNL     1     -10.449  10.281  65.630  1.00  0.00    -0.200 OA 
ENDROOT
BRANCH   2   3
HETATM    3  C   UNL     1     -10.468  11.631  65.868  1.00  0.00    -0.255 A  
HETATM    4  C   UNL     1     -11.471  12.561  65.478  1.00  0.00    -0.350 A  
HETATM    5  C   UNL     1      -9.331  12.078  66.597  1.00  0.00    -0.221 A  
HETATM    6  C   UNL     1     -11.291  13.916  65.755  1.00  0.00    -0.308 A  
HETATM    7  C   UNL     1      -9.215  13.429  66.864  1.00  0.00    -0.251 A  
HETATM    8  C   UNL     1     -10.136  14.302  66.377  1.00  0.00    -0.295 A  
HETATM    9  C   UNL     1      -9.400  15.544  66.814  1.00  0.00    -0.267 C  
HETATM   10  C   UNL     1      -8.473  14.518  67.606  1.00  0.00    -0.189 C  
BRANCH   4  11
HETATM   11  O   UNL     1     -12.620  12.128  64.872  1.00  0.00    -0.500 OA 
HETATM   12  C   UNL     1     -12.581  12.015  63.450  1.00  0.00    -0.469 C  
ENDBRANCH   4  11
BRANCH   9  13
HETATM   13  C   UNL     1     -10.459  16.530  67.326  1.00  0.00    -0.304 C  
BRANCH  13  14
HETATM   14  N   UNL     1     -10.178  17.246  68.572  1.00  0.00    -0.335 NA 
HETATM   15  C   UNL     1     -10.239  18.686  68.395  1.00  0.00    -0.371 C  
BRANCH  14  16
HETATM   16  C   UNL     1     -10.887  16.707  69.740  1.00  0.00    -0.237 C  
BRANCH  16  17
HETATM   17  C   UNL     1     -12.033  15.784  69.332  1.00  0.00    -0.321 C  
BRANCH  17  18
HETATM   18  C   UNL     1     -12.822  15.232  70.525  1.00  0.00    -0.373 C  
BRANCH  18  19
HETATM   19  N   UNL     1     -12.475  13.823  70.727  1.00  0.00    -0.360 N  
HETATM   20  C   UNL     1     -11.483  13.244  69.828  1.00  0.00    -0.158 C  
HETATM   21  C   UNL     1     -12.035  12.059  69.054  1.00  0.00    -0.321 C  
HETATM   22  C   UNL     1     -11.812  10.818  69.873  1.00  0.00    -0.413 A  
HETATM   23  C   UNL     1     -10.967   9.825  69.362  1.00  0.00    -0.241 A  
HETATM   24  C   UNL     1     -10.674   8.677  70.096  1.00  0.00    -0.234 A  
HETATM   25  C   UNL     1     -11.236   8.516  71.374  1.00  0.00    -0.266 A  
HETATM   26  O   UNL     1     -13.201  13.765  72.894  1.00  0.00    -0.522 OA 
HETATM   27  C   UNL     1     -12.924  13.155  71.857  1.00  0.00    -0.314 C  
HETATM   28  C   UNL     1     -12.079   9.515  71.886  1.00  0.00    -0.409 A  
HETATM   29  C   UNL     1     -13.339  11.695  71.708  1.00  0.00    -0.340 C  
HETATM   30  C   UNL     1     -12.366  10.681  71.152  1.00  0.00    -0.505 A  
BRANCH  24  31
HETATM   31  O   UNL     1      -9.823   7.696  69.648  1.00  0.00    -0.177 OA 
HETATM   32  C   UNL     1      -9.086   7.990  68.466  1.00  0.00    -0.136 C  
ENDBRANCH  24  31
BRANCH  25  33
HETATM   33  O   UNL     1     -10.912   7.358  72.037  1.00  0.00    -0.226 OA 
HETATM   34  C   UNL     1     -11.834   6.279  71.962  1.00  0.00    -0.318 C  
ENDBRANCH  25  33
ENDBRANCH  18  19
ENDBRANCH  17  18
ENDBRANCH  16  17
ENDBRANCH  14  16
ENDBRANCH  13  14
ENDBRANCH   9  13
ENDBRANCH   2   3
TORSDOF 10
ENDMDL
MODEL        3
REMARK 921   NORMALIZED FREE ENERGY PREDICTED BY IDOCK:   -6.67 KCAL/MOL
REMARK 922        TOTAL FREE ENERGY PREDICTED BY IDOCK:  -12.53 KCAL/MOL
REMARK 923 INTER-LIGAND FREE ENERGY PREDICTED BY IDOCK:  -10.33 KCAL/MOL
REMARK 924 INTRA-LIGAND FREE ENERGY PREDICTED BY IDOCK:   -2.19 KCAL/MOL
REMARK 927      BINDING AFFINITY PREDICTED BY RF-SCORE:    0.00 PKD
ROOT
HETATM    1  C   UNL     1     -13.586  15.835  72.917  1.00  0.00    -0.577 C  
HETATM    2  O   UNL     1     -13.655  15.429  71.554  1.00  0.00    -0.464 OA 
ENDROOT
BRANCH   2   3
HETATM    3  C   UNL     1     -13.143  14.199  71.229  1.00  0.00    -0.350 A  
HETATM    4  C   UNL     1     -12.233  13.894  70.180  1.00  0.00    -0.358 A  
HETATM    5  C   UNL     1     -13.612  13.164  72.085  1.00  0.00    -0.637 A  
HETATM    6  C   UNL     1     -11.867  12.567  69.958  1.00  0.00    -0.363 A  
HETATM    7  C   UNL     1     -13.197  11.870  71.833  1.00  0.00    -0.467 A  
HETATM    8  C   UNL     1     -12.419  11.601  70.752  1.00  0.00    -0.425 A  
HETATM    9  C   UNL     1     -12.469  10.102  70.909  1.00  0.00    -0.455 C  
HETATM   10  C   UNL     1     -13.151  10.436  72.310  1.00  0.00    -0.284 C  
BRANCH   4  11
HETATM   11  O   UNL     1     -11.690  14.895  69.418  1.00  0.00    -0.286 OA 
HETATM   12  C   UNL     1     -10.609  15.619  70.003  1.00  0.00    -0.332 C  
ENDBRANCH   4  11
BRANCH   9  13
HETATM   13  C   UNL     1     -11.065   9.574  70.585  1.00  0.00    -0.300 C  
BRANCH  13  14
HETATM   14  N   UNL     1     -10.785   8.165  70.868  1.00  0.00    -0.217 NA 
HETATM   15  C   UNL     1     -12.004   7.392  71.031  1.00  0.00    -0.306 C  
BRANCH  14  16
HETATM   16  C   UNL     1      -9.757   7.578  69.999  1.00  0.00    -0.172 C  
BRANCH  16  17
HETATM   17  C   UNL     1      -8.607   8.548  69.744  1.00  0.00    -0.131 C  
BRANCH  17  18
HETATM   18  C   UNL     1      -8.185   8.617  68.270  1.00  0.00    -0.122 C  
BRANCH  18  19
HETATM   19  N   UNL     1      -8.667   9.870  67.685  1.00  0.00    -0.122 N  
HETATM   20  C   UNL     1      -7.731  10.988  67.635  1.00  0.00    -0.112 C  
HETATM   21  C   UNL     1      -8.245  12.199  68.394  1.00  0.00    -0.145 C  
HETATM   22  C   UNL     1      -9.069  13.029  67.449  1.00  0.00    -0.201 A  
HETATM   23  C   UNL     1      -8.628  14.322  67.141  1.00  0.00    -0.234 A  
HETATM   24  C   UNL     1      -9.316  15.123  66.230  1.00  0.00    -0.313 A  
HETATM   25  C   UNL     1     -10.471  14.619  65.607  1.00  0.00    -0.342 A  
HETATM   26  O   UNL     1     -10.367   8.884  66.516  1.00  0.00    -0.276 OA 
HETATM   27  C   UNL     1      -9.887   9.901  67.025  1.00  0.00    -0.191 C  
HETATM   28  C   UNL     1     -10.908  13.321  65.915  1.00  0.00    -0.289 A  
HETATM   29  C   UNL     1     -10.756  11.145  67.186  1.00  0.00    -0.305 C  
HETATM   30  C   UNL     1     -10.209  12.507  66.825  1.00  0.00    -0.243 A  
BRANCH  24  31
HETATM   31  O   UNL     1      -8.898  16.382  65.871  1.00  0.00    -0.432 OA 
HETATM   32  C   UNL     1      -8.553  17.260  66.936  1.00  0.00    -0.240 C  
ENDBRANCH  24  31
BRANCH  25  33
HETATM   33  O   UNL     1     -11.102  15.464  64.728  1.00  0.00    -0.416 OA 
HETATM   34  C   UNL     1     -12.363  15.055  64.214  1.00  0.00    -0.226 C  
ENDBRANCH  25  33
ENDBRANCH  18  19
ENDBRANCH  17  18
ENDBRANCH  16  17
ENDBRANCH  14  16
ENDBRANCH  13  14
ENDBRANCH   9  13
ENDBRANCH   2   3
TORSDOF 10
ENDMDL
MODEL        4
REMARK 921   NORMALIZED FREE ENERGY PREDICTED BY IDOCK:   -6.50 KCAL/MOL
REMARK 922        TOTAL FREE ENERGY PREDICTED BY IDOCK:  -12.26 KCAL/MOL
REMARK 923 INTER-LIGAND FREE ENERGY PREDICTED BY IDOCK:  -10.37 KCAL/MOL
REMARK 924 INTRA-LIGAND FREE ENERGY PREDICTED BY IDOCK:   -1.89 KCAL/MOL
REMARK 927      BINDING AFFINITY PREDICTED BY RF-SCORE:    0.00 PKD
ROOT
HETATM    1  C   UNL     1     -11.032  16.285  69.902  1.00  0.00    -0.365 C  
HETATM    2  O   UNL     1     -12.291  15.943  70.475  1.00  0.00    -0.381 OA 
ENDROOT
BRANCH   2   3
HETATM    3  C   UNL     1     -12.486  14.638  70.848  1.00  0.00    -0.336 A  
HETATM    4  C   UNL     1     -13.025  14.164  72.075  1.00  0.00    -0.360 A  
HETATM    5  C   UNL     1     -12.092  13.713  69.842  1.00  0.00    -0.406 A  
HETATM    6  C   UNL     1     -13.093  12.790  72.307  1.00  0.00    -0.400 A  
HETATM    7  C   UNL     1     -12.203  12.363  70.116  1.00  0.00    -0.303 A  
HETATM    8  C   UNL     1     -12.615  11.947  71.343  1.00  0.00    -0.346 A  
HETATM    9  C   UNL     1     -12.357  10.482  71.091  1.00  0.00    -0.510 C  
HETATM   10  C   UNL     1     -12.133  10.949  69.584  1.00  0.00    -0.400 C  
BRANCH   4  11
HETATM   11  O   UNL     1     -13.508  15.044  73.007  1.00  0.00    -0.462 OA 
HETATM   12  C   UNL     1     -12.583  15.486  73.999  1.00  0.00    -0.625 C  
ENDBRANCH   4  11
BRANCH   9  13
HETATM   13  C   UNL     1     -13.518   9.711  71.733  1.00  0.00    -0.394 C  
BRANCH  13  14
HETATM   14  N   UNL     1     -13.250   8.357  72.221  1.00  0.00    -0.302 NA 
HETATM   15  C   UNL     1     -14.013   7.358  71.493  1.00  0.00    -0.396 C  
BRANCH  14  16
HETATM   16  C   UNL     1     -11.824   8.067  72.415  1.00  0.00    -0.372 C  
BRANCH  16  17
HETATM   17  C   UNL     1     -11.421   6.744  71.768  1.00  0.00    -0.320 C  
BRANCH  17  18
HETATM   18  C   UNL     1      -9.994   6.753  71.204  1.00  0.00    -0.181 C  
BRANCH  18  19
HETATM   19  N   UNL     1      -9.818   7.928  70.346  1.00  0.00    -0.183 N  
HETATM   20  C   UNL     1     -10.659   8.019  69.158  1.00  0.00    -0.169 C  
HETATM   21  C   UNL     1      -9.840   8.089  67.881  1.00  0.00    -0.204 C  
HETATM   22  C   UNL     1      -9.529   9.533  67.601  1.00  0.00    -0.153 A  
HETATM   23  C   UNL     1     -10.046  10.112  66.435  1.00  0.00    -0.300 A  
HETATM   24  C   UNL     1      -9.841  11.460  66.146  1.00  0.00    -0.222 A  
HETATM   25  C   UNL     1      -9.106  12.253  67.044  1.00  0.00    -0.201 A  
HETATM   26  O   UNL     1      -8.855   9.204  71.980  1.00  0.00    -0.331 OA 
HETATM   27  C   UNL     1      -9.036   8.988  70.778  1.00  0.00    -0.236 C  
HETATM   28  C   UNL     1      -8.593  11.671  68.214  1.00  0.00    -0.162 A  
HETATM   29  C   UNL     1      -8.174   9.708  69.746  1.00  0.00    -0.168 C  
HETATM   30  C   UNL     1      -8.808  10.313  68.515  1.00  0.00    -0.127 A  
BRANCH  24  31
HETATM   31  O   UNL     1     -10.361  12.077  65.033  1.00  0.00    -0.263 OA 
HETATM   32  C   UNL     1     -10.532  11.259  63.880  1.00  0.00    -0.391 C  
ENDBRANCH  24  31
BRANCH  25  33
HETATM   33  O   UNL     1      -8.936  13.569  66.692  1.00  0.00    -0.210 OA 
HETATM   34  C   UNL     1      -8.013  14.338  67.451  1.00  0.00    -0.192 C  
ENDBRANCH  25  33
ENDBRANCH  18  19
ENDBRANCH  17  18
ENDBRANCH  16  17
ENDBRANCH  14  16
ENDBRANCH  13  14
ENDBRANCH   9  13
ENDBRANCH   2   3
TORSDOF 10
ENDMDL
MODEL        5
REMARK 921   NORMALIZED FREE ENERGY PREDICTED BY IDOCK:   -6.46 KCAL/MOL
REMARK 922        TOTAL FREE ENERGY PREDICTED BY IDOCK:  -12.20 KCAL/MOL
REMARK 923 INTER-LIGAND FREE ENERGY PREDICTED BY IDOCK:  -11.06 KCAL/MOL
REMARK 924 INTRA-LIGAND FREE ENERGY PREDICTED BY IDOCK:   -1.14 KCAL/MOL
REMARK 927      BINDING AFFINITY PREDICTED BY RF-SCORE:    0.00 PKD
ROOT
HETATM    1  C   UNL     1     -10.960   6.338  73.086  1.00  0.00    -0.223 C  
HETATM    2  O   UNL     1     -11.144   7.733  73.303  1.00  0.00    -0.373 OA 
ENDROOT
BRANCH   2   3
HETATM    3  C   UNL     1     -10.974   8.572  72.232  1.00  0.00    -0.355 A  
HETATM    4  C   UNL     1     -11.963   9.370  71.597  1.00  0.00    -0.393 A  
HETATM    5  C   UNL     1      -9.631   8.602  71.765  1.00  0.00    -0.360 A  
HETATM    6  C   UNL     1     -11.618  10.121  70.473  1.00  0.00    -0.411 A  
HETATM    7  C   UNL     1      -9.339   9.382  70.662  1.00  0.00    -0.314 A  
HETATM    8  C   UNL     1     -10.333  10.041  70.011  1.00  0.00    -0.323 A  
HETATM    9  C   UNL     1      -9.468  10.515  68.870  1.00  0.00    -0.199 C  
HETATM   10  C   UNL     1      -8.270   9.970  69.769  1.00  0.00    -0.191 C  
BRANCH   4  11
HETATM   11  O   UNL     1     -13.235   9.434  72.103  1.00  0.00    -0.403 OA 
HETATM   12  C   UNL     1     -14.173   8.498  71.575  1.00  0.00    -0.374 C  
ENDBRANCH   4  11
BRANCH   9  13
HETATM   13  C   UNL     1      -9.901  11.952  68.551  1.00  0.00    -0.183 C  
BRANCH  13  14
HETATM   14  N   UNL     1     -10.698  12.172  67.343  1.00  0.00    -0.228 NA 
HETATM   15  C   UNL     1     -10.625  11.042  66.432  1.00  0.00    -0.251 C  
BRANCH  14  16
HETATM   16  C   UNL     1     -12.041  12.705  67.606  1.00  0.00    -0.103 C  
BRANCH  16  17
HETATM   17  C   UNL     1     -12.129  14.198  67.301  1.00  0.00    -0.407 C  
BRANCH  17  18
HETATM   18  C   UNL     1     -11.381  14.602  66.024  1.00  0.00    -0.344 C  
BRANCH  18  19
HETATM   19  N   UNL     1     -10.555  15.781  66.298  1.00  0.00    -0.311 N  
HETATM   20  C   UNL     1      -9.445  15.617  67.229  1.00  0.00    -0.216 C  
HETATM   21  C   UNL     1      -9.563  16.542  68.428  1.00  0.00    -0.233 C  
HETATM   22  C   UNL     1      -8.897  17.845  68.083  1.00  0.00    -0.265 A  
HETATM   23  C   UNL     1      -7.769  18.233  68.817  1.00  0.00    -0.286 A  
HETATM   24  C   UNL     1      -7.074  19.402  68.510  1.00  0.00    -0.315 A  
HETATM   25  C   UNL     1      -7.512  20.203  67.441  1.00  0.00    -0.290 A  
HETATM   26  O   UNL     1     -11.163  16.876  64.386  1.00  0.00    -1.159 OA 
HETATM   27  C   UNL     1     -10.713  16.928  65.534  1.00  0.00    -0.163 C  
HETATM   28  C   UNL     1      -8.641  19.809  66.704  1.00  0.00    -0.380 A  
HETATM   29  C   UNL     1     -10.592  18.277  66.236  1.00  0.00    -0.320 C  
HETATM   30  C   UNL     1      -9.337  18.624  67.004  1.00  0.00    -0.301 A  
BRANCH  24  31
HETATM   31  O   UNL     1      -5.942  19.800  69.179  1.00  0.00    -0.240 OA 
HETATM   32  C   UNL     1      -6.105  20.130  70.554  1.00  0.00    -0.344 C  
ENDBRANCH  24  31
BRANCH  25  33
HETATM   33  O   UNL     1      -6.786  21.342  67.200  1.00  0.00    -0.537 OA 
HETATM   34  C   UNL     1      -5.789  21.285  66.189  1.00  0.00    -0.262 C  
ENDBRANCH  25  33
ENDBRANCH  18  19
ENDBRANCH  17  18
ENDBRANCH  16  17
ENDBRANCH  14  16
ENDBRANCH  13  14
ENDBRANCH   9  13
ENDBRANCH   2   3
TORSDOF 10
ENDMDL
MODEL        6
REMARK 921   NORMALIZED FREE ENERGY PREDICTED BY IDOCK:   -6.44 KCAL/MOL
REMARK 922        TOTAL FREE ENERGY PREDICTED BY IDOCK:  -12.17 KCAL/MOL
REMARK 923 INTER-LIGAND FREE ENERGY PREDICTED BY IDOCK:  -10.33 KCAL/MOL
REMARK 924 INTRA-LIGAND FREE ENERGY PREDICTED BY IDOCK:   -1.85 KCAL/MOL
REMARK 927      BINDING AFFINITY PREDICTED BY RF-SCORE:    0.00 PKD
ROOT
HETATM    1  C   UNL     1     -12.075  15.110  71.043  1.00  0.00    -0.333 C  
HETATM    2  O   UNL     1     -10.813  15.306  70.413  1.00  0.00    -0.286 OA 
ENDROOT
BRANCH   2   3
HETATM    3  C   UNL     1     -10.707  14.982  69.085  1.00  0.00    -0.249 A  
HETATM    4  C   UNL     1      -9.516  14.878  68.316  1.00  0.00    -0.210 A  
HETATM    5  C   UNL     1     -11.968  14.726  68.479  1.00  0.00    -0.284 A  
HETATM    6  C   UNL     1      -9.605  14.595  66.953  1.00  0.00    -0.253 A  
HETATM    7  C   UNL     1     -11.996  14.426  67.130  1.00  0.00    -0.419 A  
HETATM    8  C   UNL     1     -10.848  14.449  66.402  1.00  0.00    -0.314 A  
HETATM    9  C   UNL     1     -11.521  14.245  65.068  1.00  0.00    -0.364 C  
HETATM   10  C   UNL     1     -12.817  13.958  65.950  1.00  0.00    -0.387 C  
BRANCH   4  11
HETATM   11  O   UNL     1      -8.290  15.015  68.911  1.00  0.00    -0.163 OA 
HETATM   12  C   UNL     1      -7.726  16.326  68.901  1.00  0.00    -0.219 C  
ENDBRANCH   4  11
BRANCH   9  13
HETATM   13  C   UNL     1     -10.631  13.288  64.263  1.00  0.00    -0.384 C  
BRANCH  13  14
HETATM   14  N   UNL     1     -11.103  11.916  64.073  1.00  0.00    -0.360 NA 
HETATM   15  C   UNL     1     -12.340  11.868  63.313  1.00  0.00    -0.391 C  
BRANCH  14  16
HETATM   16  C   UNL     1     -10.052  10.979  63.657  1.00  0.00    -0.371 C  
BRANCH  16  17
HETATM   17  C   UNL     1      -9.704   9.988  64.765  1.00  0.00    -0.363 C  
BRANCH  17  18
HETATM   18  C   UNL     1      -8.812  10.588  65.859  1.00  0.00    -0.165 C  
BRANCH  18  19
HETATM   19  N   UNL     1      -9.289  10.146  67.172  1.00  0.00    -0.152 N  
HETATM   20  C   UNL     1     -10.713  10.296  67.450  1.00  0.00    -0.281 C  
HETATM   21  C   UNL     1     -10.969  11.178  68.660  1.00  0.00    -0.268 C  
HETATM   22  C   UNL     1     -10.965  10.307  69.885  1.00  0.00    -0.358 A  
HETATM   23  C   UNL     1     -12.147  10.196  70.628  1.00  0.00    -0.411 A  
HETATM   24  C   UNL     1     -12.224   9.361  71.743  1.00  0.00    -0.390 A  
HETATM   25  C   UNL     1     -11.096   8.614  72.122  1.00  0.00    -0.364 A  
HETATM   26  O   UNL     1      -7.508   8.765  67.558  1.00  0.00    -0.088 OA 
HETATM   27  C   UNL     1      -8.446   9.429  68.008  1.00  0.00    -0.120 C  
HETATM   28  C   UNL     1      -9.914   8.723  71.372  1.00  0.00    -0.354 A  
HETATM   29  C   UNL     1      -8.523   9.704  69.507  1.00  0.00    -0.162 C  
HETATM   30  C   UNL     1      -9.837   9.556  70.240  1.00  0.00    -0.313 A  
BRANCH  24  31
HETATM   31  O   UNL     1     -13.373   9.195  72.478  1.00  0.00    -0.458 OA 
HETATM   32  C   UNL     1     -14.375   8.361  71.906  1.00  0.00    -0.473 C  
ENDBRANCH  24  31
BRANCH  25  33
HETATM   33  O   UNL     1     -11.241   7.820  73.233  1.00  0.00    -0.350 OA 
HETATM   34  C   UNL     1     -10.755   6.486  73.154  1.00  0.00    -0.269 C  
ENDBRANCH  25  33
ENDBRANCH  18  19
ENDBRANCH  17  18
ENDBRANCH  16  17
ENDBRANCH  14  16
ENDBRANCH  13  14
ENDBRANCH   9  13
ENDBRANCH   2   3
TORSDOF 10
ENDMDL
MODEL        7
REMARK 921   NORMALIZED FREE ENERGY PREDICTED BY IDOCK:   -6.39 KCAL/MOL
REMARK 922        TOTAL FREE ENERGY PREDICTED BY IDOCK:  -12.09 KCAL/MOL
REMARK 923 INTER-LIGAND FREE ENERGY PREDICTED BY IDOCK:  -10.39 KCAL/MOL
REMARK 924 INTRA-LIGAND FREE ENERGY PREDICTED BY IDOCK:   -1.71 KCAL/MOL
REMARK 927      BINDING AFFINITY PREDICTED BY RF-SCORE:    0.00 PKD
ROOT
HETATM    1  C   UNL     1     -12.341  16.406  73.321  1.00  0.00    -0.452 C  
HETATM    2  O   UNL     1     -11.607  15.276  72.861  1.00  0.00    -0.436 OA 
ENDROOT
BRANCH   2   3
HETATM    3  C   UNL     1     -11.693  14.959  71.530  1.00  0.00    -0.335 A  
HETATM    4  C   UNL     1     -12.337  13.831  70.952  1.00  0.00    -0.380 A  
HETATM    5  C   UNL     1     -11.053  15.915  70.694  1.00  0.00    -0.368 A  
HETATM    6  C   UNL     1     -12.270  13.638  69.572  1.00  0.00    -0.316 A  
HETATM    7  C   UNL     1     -11.037  15.686  69.331  1.00  0.00    -0.303 A  
HETATM    8  C   UNL     1     -11.563  14.540  68.826  1.00  0.00    -0.343 A  
HETATM    9  C   UNL     1     -11.097  14.779  67.412  1.00  0.00    -0.327 C  
HETATM   10  C   UNL     1     -10.722  16.229  67.956  1.00  0.00    -0.331 C  
BRANCH   4  11
HETATM   11  O   UNL     1     -13.050  12.962  71.735  1.00  0.00    -0.399 OA 
HETATM   12  C   UNL     1     -14.267  13.461  72.288  1.00  0.00    -0.309 C  
ENDBRANCH   4  11
BRANCH   9  13
HETATM   13  C   UNL     1     -12.235  14.326  66.487  1.00  0.00    -0.391 C  
BRANCH  13  14
HETATM   14  N   UNL     1     -11.940  14.192  65.059  1.00  0.00    -0.388 NA 
HETATM   15  C   UNL     1     -12.055  15.462  64.362  1.00  0.00    -0.196 C  
BRANCH  14  16
HETATM   16  C   UNL     1     -10.736  13.403  64.772  1.00  0.00    -0.390 C  
BRANCH  16  17
HETATM   17  C   UNL     1     -10.996  11.904  64.901  1.00  0.00    -0.367 C  
BRANCH  17  18
HETATM   18  C   UNL     1      -9.743  11.100  65.271  1.00  0.00    -0.241 C  
BRANCH  18  19
HETATM   19  N   UNL     1     -10.005  10.323  66.485  1.00  0.00    -0.215 N  
HETATM   20  C   UNL     1     -10.978  10.864  67.427  1.00  0.00    -0.293 C  
HETATM   21  C   UNL     1     -10.373  11.104  68.799  1.00  0.00    -0.222 C  
HETATM   22  C   UNL     1     -10.511   9.839  69.600  1.00  0.00    -0.263 A  
HETATM   23  C   UNL     1     -11.307   9.862  70.752  1.00  0.00    -0.430 A  
HETATM   24  C   UNL     1     -11.520   8.709  71.507  1.00  0.00    -0.295 A  
HETATM   25  C   UNL     1     -10.928   7.501  71.100  1.00  0.00    -0.246 A  
HETATM   26  O   UNL     1      -9.238   8.355  65.610  1.00  0.00    -0.154 OA 
HETATM   27  C   UNL     1      -9.499   9.037  66.605  1.00  0.00    -0.194 C  
HETATM   28  C   UNL     1     -10.134   7.480  69.943  1.00  0.00    -0.193 A  
HETATM   29  C   UNL     1      -9.003   8.590  67.977  1.00  0.00    -0.141 C  
HETATM   30  C   UNL     1      -9.927   8.639  69.172  1.00  0.00    -0.193 A  
BRANCH  24  31
HETATM   31  O   UNL     1     -12.322   8.680  72.622  1.00  0.00    -0.372 OA 
HETATM   32  C   UNL     1     -13.637   9.204  72.469  1.00  0.00    -0.436 C  
ENDBRANCH  24  31
BRANCH  25  33
HETATM   33  O   UNL     1     -11.173   6.409  71.895  1.00  0.00    -0.253 OA 
HETATM   34  C   UNL     1     -10.372   5.253  71.688  1.00  0.00    -0.216 C  
ENDBRANCH  25  33
ENDBRANCH  18  19
ENDBRANCH  17  18
ENDBRANCH  16  17
ENDBRANCH  14  16
ENDBRANCH  13  14
ENDBRANCH   9  13
ENDBRANCH   2   3
TORSDOF 10
ENDMDL
MODEL        8
REMARK 921   NORMALIZED FREE ENERGY PREDICTED BY IDOCK:   -6.38 KCAL/MOL
REMARK 922        TOTAL FREE ENERGY PREDICTED BY IDOCK:  -12.07 KCAL/MOL
REMARK 923 INTER-LIGAND FREE ENERGY PREDICTED BY IDOCK:  -11.23 KCAL/MOL
REMARK 924 INTRA-LIGAND FREE ENERGY PREDICTED BY IDOCK:   -0.84 KCAL/MOL
REMARK 927      BINDING AFFINITY PREDICTED BY RF-SCORE:    0.00 PKD
ROOT
HETATM    1  C   UNL     1     -10.693   5.401  73.501  1.00  0.00    -0.287 C  
HETATM    2  O   UNL     1     -11.768   5.786  72.649  1.00  0.00    -0.293 OA 
ENDROOT
BRANCH   2   3
HETATM    3  C   UNL     1     -11.580   6.879  71.843  1.00  0.00    -0.286 A  
HETATM    4  C   UNL     1     -10.834   6.942  70.635  1.00  0.00    -0.245 A  
HETATM    5  C   UNL     1     -12.243   8.040  72.328  1.00  0.00    -0.366 A  
HETATM    6  C   UNL     1     -10.701   8.164  69.976  1.00  0.00    -0.243 A  
HETATM    7  C   UNL     1     -12.097   9.220  71.623  1.00  0.00    -0.451 A  
HETATM    8  C   UNL     1     -11.282   9.268  70.536  1.00  0.00    -0.315 A  
HETATM    9  C   UNL     1     -11.388  10.760  70.344  1.00  0.00    -0.342 C  
HETATM   10  C   UNL     1     -12.539  10.654  71.442  1.00  0.00    -0.526 C  
BRANCH   4  11
HETATM   11  O   UNL     1     -10.281   5.808  70.100  1.00  0.00    -0.200 OA 
HETATM   12  C   UNL     1      -8.856   5.762  70.050  1.00  0.00    -0.135 C  
ENDBRANCH   4  11
BRANCH   9  13
HETATM   13  C   UNL     1     -11.474  11.008  68.832  1.00  0.00    -0.296 C  
BRANCH  13  14
HETATM   14  N   UNL     1     -11.965  12.312  68.381  1.00  0.00    -0.336 NA 
HETATM   15  C   UNL     1     -11.555  13.383  69.273  1.00  0.00    -0.310 C  
BRANCH  14  16
HETATM   16  C   UNL     1     -11.772  12.556  66.946  1.00  0.00    -0.377 C  
BRANCH  16  17
HETATM   17  C   UNL     1     -12.047  14.010  66.576  1.00  0.00    -0.488 C  
BRANCH  17  18
HETATM   18  C   UNL     1     -11.195  14.511  65.403  1.00  0.00    -0.342 C  
BRANCH  18  19
HETATM   19  N   UNL     1     -10.422  15.681  65.828  1.00  0.00    -0.343 N  
HETATM   20  C   UNL     1      -9.266  15.443  66.684  1.00  0.00    -0.275 C  
HETATM   21  C   UNL     1      -9.382  16.165  68.016  1.00  0.00    -0.203 C  
HETATM   22  C   UNL     1      -8.802  17.543  67.854  1.00  0.00    -0.247 A  
HETATM   23  C   UNL     1      -7.666  17.879  68.600  1.00  0.00    -0.293 A  
HETATM   24  C   UNL     1      -7.047  19.120  68.455  1.00  0.00    -0.279 A  
HETATM   25  C   UNL     1      -7.572  20.048  67.538  1.00  0.00    -0.292 A  
HETATM   26  O   UNL     1     -11.167  17.018  64.129  1.00  0.00    -1.130 OA 
HETATM   27  C   UNL     1     -10.673  16.920  65.256  1.00  0.00    -0.134 C  
HETATM   28  C   UNL     1      -8.709  19.706  66.788  1.00  0.00    -0.381 A  
HETATM   29  C   UNL     1     -10.594  18.150  66.154  1.00  0.00    -0.289 C  
HETATM   30  C   UNL     1      -9.328  18.449  66.924  1.00  0.00    -0.290 A  
BRANCH  24  31
HETATM   31  O   UNL     1      -5.911  19.478  69.140  1.00  0.00    -0.235 OA 
HETATM   32  C   UNL     1      -5.129  18.411  69.666  1.00  0.00    -0.187 C  
ENDBRANCH  24  31
BRANCH  25  33
HETATM   33  O   UNL     1      -6.918  21.252  67.453  1.00  0.00    -0.509 OA 
HETATM   34  C   UNL     1      -5.890  21.373  66.479  1.00  0.00    -0.304 C  
ENDBRANCH  25  33
ENDBRANCH  18  19
ENDBRANCH  17  18
ENDBRANCH  16  17
ENDBRANCH  14  16
ENDBRANCH  13  14
ENDBRANCH   9  13
ENDBRANCH   2   3
TORSDOF 10
ENDMDL
MODEL        9
REMARK 921   NORMALIZED FREE ENERGY PREDICTED BY IDOCK:   -6.30 KCAL/MOL
REMARK 922        TOTAL FREE ENERGY PREDICTED BY IDOCK:  -11.94 KCAL/MOL
REMARK 923 INTER-LIGAND FREE ENERGY PREDICTED BY IDOCK:  -10.26 KCAL/MOL
REMARK 924 INTRA-LIGAND FREE ENERGY PREDICTED BY IDOCK:   -1.69 KCAL/MOL
REMARK 927      BINDING AFFINITY PREDICTED BY RF-SCORE:    0.00 PKD
ROOT
HETATM    1  C   UNL     1     -10.671   6.038  71.928  1.00  0.00    -0.234 C  
HETATM    2  O   UNL     1     -11.628   6.822  71.222  1.00  0.00    -0.285 OA 
ENDROOT
BRANCH   2   3
HETATM    3  C   UNL     1     -11.180   7.579  70.170  1.00  0.00    -0.196 A  
HETATM    4  C   UNL     1     -11.052   8.994  70.118  1.00  0.00    -0.207 A  
HETATM    5  C   UNL     1     -10.812   6.792  69.044  1.00  0.00    -0.290 A  
HETATM    6  C   UNL     1     -10.634   9.599  68.934  1.00  0.00    -0.239 A  
HETATM    7  C   UNL     1     -10.381   7.443  67.903  1.00  0.00    -0.258 A  
HETATM    8  C   UNL     1     -10.381   8.802  67.852  1.00  0.00    -0.281 A  
HETATM    9  C   UNL     1     -10.019   8.890  66.391  1.00  0.00    -0.354 C  
HETATM   10  C   UNL     1      -9.764   7.323  66.528  1.00  0.00    -0.207 C  
BRANCH   4  11
HETATM   11  O   UNL     1     -11.300   9.754  71.231  1.00  0.00    -0.361 OA 
HETATM   12  C   UNL     1     -12.644  10.200  71.405  1.00  0.00    -0.422 C  
ENDBRANCH   4  11
BRANCH   9  13
HETATM   13  C   UNL     1      -9.028  10.052  66.249  1.00  0.00    -0.148 C  
BRANCH  13  14
HETATM   14  N   UNL     1      -8.709  10.515  64.897  1.00  0.00    -0.180 NA 
HETATM   15  C   UNL     1      -7.507   9.886  64.378  1.00  0.00    -0.137 C  
BRANCH  14  16
HETATM   16  C   UNL     1      -9.865  10.546  63.992  1.00  0.00    -0.324 C  
BRANCH  16  17
HETATM   17  C   UNL     1     -10.049  11.921  63.354  1.00  0.00    -0.464 C  
BRANCH  17  18
HETATM   18  C   UNL     1     -11.414  12.553  63.658  1.00  0.00    -0.493 C  
BRANCH  18  19
HETATM   19  N   UNL     1     -11.324  13.333  64.894  1.00  0.00    -0.307 N  
HETATM   20  C   UNL     1     -11.190  14.780  64.763  1.00  0.00    -0.385 C  
HETATM   21  C   UNL     1      -9.919  15.298  65.412  1.00  0.00    -0.364 C  
HETATM   22  C   UNL     1     -10.216  15.597  66.855  1.00  0.00    -0.281 A  
HETATM   23  C   UNL     1     -10.112  16.922  67.297  1.00  0.00    -0.286 A  
HETATM   24  C   UNL     1     -10.428  17.274  68.608  1.00  0.00    -0.356 A  
HETATM   25  C   UNL     1     -10.864  16.280  69.502  1.00  0.00    -0.342 A  
HETATM   26  O   UNL     1     -12.281  11.718  66.199  1.00  0.00    -0.336 OA 
HETATM   27  C   UNL     1     -11.570  12.724  66.116  1.00  0.00    -0.379 C  
HETATM   28  C   UNL     1     -10.971  14.953  69.055  1.00  0.00    -0.251 A  
HETATM   29  C   UNL     1     -10.720  13.146  67.310  1.00  0.00    -0.262 C  
HETATM   30  C   UNL     1     -10.664  14.597  67.728  1.00  0.00    -0.265 A  
BRANCH  24  31
HETATM   31  O   UNL     1     -10.375  18.566  69.073  1.00  0.00    -0.283 OA 
HETATM   32  C   UNL     1     -10.085  19.572  68.109  1.00  0.00    -0.429 C  
ENDBRANCH  24  31
BRANCH  25  33
HETATM   33  O   UNL     1     -11.149  16.696  70.778  1.00  0.00    -0.194 OA 
HETATM   34  C   UNL     1     -11.617  15.718  71.698  1.00  0.00    -0.457 C  
ENDBRANCH  25  33
ENDBRANCH  18  19
ENDBRANCH  17  18
ENDBRANCH  16  17
ENDBRANCH  14  16
ENDBRANCH  13  14
ENDBRANCH   9  13
ENDBRANCH   2   3
TORSDOF 10
ENDMDL
MODEL       10
REMARK 921   NORMALIZED FREE ENERGY PREDICTED BY IDOCK:   -6.29 KCAL/MOL
REMARK 922        TOTAL FREE ENERGY PREDICTED BY IDOCK:  -11.93 KCAL/MOL
REMARK 923 INTER-LIGAND FREE ENERGY PREDICTED BY IDOCK:   -9.75 KCAL/MOL
REMARK 924 INTRA-LIGAND FREE ENERGY PREDICTED BY IDOCK:   -2.18 KCAL/MOL
REMARK 927      BINDING AFFINITY PREDICTED BY RF-SCORE:    0.00 PKD
ROOT
HETATM    1  C   UNL     1     -12.142  15.763  71.785  1.00  0.00    -0.464 C  
HETATM    2  O   UNL     1     -11.553  16.422  70.668  1.00  0.00    -0.300 OA 
ENDROOT
BRANCH   2   3
HETATM    3  C   UNL     1     -11.451  15.718  69.495  1.00  0.00    -0.353 A  
HETATM    4  C   UNL     1     -11.073  16.219  68.220  1.00  0.00    -0.346 A  
HETATM    5  C   UNL     1     -11.765  14.340  69.652  1.00  0.00    -0.362 A  
HETATM    6  C   UNL     1     -11.084  15.363  67.119  1.00  0.00    -0.291 A  
HETATM    7  C   UNL     1     -11.737  13.532  68.531  1.00  0.00    -0.392 A  
HETATM    8  C   UNL     1     -11.483  14.068  67.309  1.00  0.00    -0.372 A  
HETATM    9  C   UNL     1     -11.766  12.805  66.536  1.00  0.00    -0.463 C  
HETATM   10  C   UNL     1     -11.802  12.126  67.977  1.00  0.00    -0.351 C  
BRANCH   4  11
HETATM   11  O   UNL     1     -10.664  17.519  68.077  1.00  0.00    -0.387 OA 
HETATM   12  C   UNL     1      -9.787  17.789  66.985  1.00  0.00    -0.309 C  
ENDBRANCH   4  11
BRANCH   9  13
HETATM   13  C   UNL     1     -10.715  12.722  65.421  1.00  0.00    -0.284 C  
BRANCH  13  14
HETATM   14  N   UNL     1     -11.074  11.999  64.199  1.00  0.00    -0.339 NA 
HETATM   15  C   UNL     1     -12.262  12.552  63.572  1.00  0.00    -0.558 C  
BRANCH  14  16
HETATM   16  C   UNL     1      -9.936  11.736  63.309  1.00  0.00    -0.410 C  
BRANCH  16  17
HETATM   17  C   UNL     1      -9.447  10.295  63.424  1.00  0.00    -0.340 C  
BRANCH  17  18
HETATM   18  C   UNL     1      -8.072  10.172  64.094  1.00  0.00    -0.158 C  
BRANCH  18  19
HETATM   19  N   UNL     1      -8.251   9.914  65.525  1.00  0.00    -0.131 N  
HETATM   20  C   UNL     1      -9.005   8.724  65.901  1.00  0.00    -0.195 C  
HETATM   21  C   UNL     1     -10.231   9.063  66.733  1.00  0.00    -0.341 C  
HETATM   22  C   UNL     1      -9.823   9.090  68.179  1.00  0.00    -0.191 A  
HETATM   23  C   UNL     1     -10.393   8.152  69.050  1.00  0.00    -0.229 A  
HETATM   24  C   UNL     1     -10.016   8.088  70.391  1.00  0.00    -0.188 A  
HETATM   25  C   UNL     1      -9.042   8.979  70.875  1.00  0.00    -0.250 A  
HETATM   26  O   UNL     1      -6.474  11.203  66.165  1.00  0.00    -0.118 OA 
HETATM   27  C   UNL     1      -7.545  10.663  66.456  1.00  0.00    -0.134 C  
HETATM   28  C   UNL     1      -8.469   9.914  69.999  1.00  0.00    -0.191 A  
HETATM   29  C   UNL     1      -8.254  11.045  67.752  1.00  0.00    -0.117 C  
HETATM   30  C   UNL     1      -8.839   9.973  68.642  1.00  0.00    -0.132 A  
BRANCH  24  31
HETATM   31  O   UNL     1     -10.523   7.162  71.270  1.00  0.00    -0.206 OA 
HETATM   32  C   UNL     1     -11.867   6.750  71.049  1.00  0.00    -0.376 C  
ENDBRANCH  24  31
BRANCH  25  33
HETATM   33  O   UNL     1      -8.726   8.865  72.206  1.00  0.00    -0.395 OA 
HETATM   34  C   UNL     1      -7.432   8.375  72.534  1.00  0.00    -0.077 C  
ENDBRANCH  25  33
ENDBRANCH  18  19
ENDBRANCH  17  18
ENDBRANCH  16  17
ENDBRANCH  14  16
ENDBRANCH  13  14
ENDBRANCH   9  13
ENDBRANCH   2   3
TORSDOF 10
ENDMDL
MODEL       11
REMARK 921   NORMALIZED FREE ENERGY PREDICTED BY IDOCK:   -6.27 KCAL/MOL
REMARK 922        TOTAL FREE ENERGY PREDICTED BY IDOCK:  -11.89 KCAL/MOL
REMARK 923 INTER-LIGAND FREE ENERGY PREDICTED BY IDOCK:  -10.01 KCAL/MOL
REMARK 924 INTRA-LIGAND FREE ENERGY PREDICTED BY IDOCK:   -1.88 KCAL/MOL
REMARK 927      BINDING AFFINITY PREDICTED BY RF-SCORE:    0.00 PKD
ROOT
HETATM    1  C   UNL     1     -13.246  16.166  73.258  1.00  0.00    -0.464 C  
HETATM    2  O   UNL     1     -12.025  15.568  72.834  1.00  0.00    -0.404 OA 
ENDROOT
BRANCH   2   3
HETATM    3  C   UNL     1     -11.980  15.042  71.568  1.00  0.00    -0.357 A  
HETATM    4  C   UNL     1     -12.438  13.763  71.150  1.00  0.00    -0.370 A  
HETATM    5  C   UNL     1     -11.407  15.936  70.622  1.00  0.00    -0.421 A  
HETATM    6  C   UNL     1     -12.253  13.371  69.824  1.00  0.00    -0.307 A  
HETATM    7  C   UNL     1     -11.270  15.504  69.316  1.00  0.00    -0.312 A  
HETATM    8  C   UNL     1     -11.613  14.233  68.977  1.00  0.00    -0.342 A  
HETATM    9  C   UNL     1     -11.085  14.313  67.567  1.00  0.00    -0.309 C  
HETATM   10  C   UNL     1     -10.930  15.866  67.887  1.00  0.00    -0.327 C  
BRANCH   4  11
HETATM   11  O   UNL     1     -13.089  12.937  72.028  1.00  0.00    -0.406 OA 
HETATM   12  C   UNL     1     -13.130  11.553  71.682  1.00  0.00    -0.373 C  
ENDBRANCH   4  11
BRANCH   9  13
HETATM   13  C   UNL     1     -12.091  13.575  66.674  1.00  0.00    -0.396 C  
BRANCH  13  14
HETATM   14  N   UNL     1     -11.761  13.425  65.255  1.00  0.00    -0.312 NA 
HETATM   15  C   UNL     1     -12.209  14.564  64.472  1.00  0.00    -0.465 C  
BRANCH  14  16
HETATM   16  C   UNL     1     -10.387  12.971  65.009  1.00  0.00    -0.318 C  
BRANCH  16  17
HETATM   17  C   UNL     1     -10.281  11.449  65.026  1.00  0.00    -0.333 C  
BRANCH  17  18
HETATM   18  C   UNL     1      -8.961  10.938  65.619  1.00  0.00    -0.194 C  
BRANCH  18  19
HETATM   19  N   UNL     1      -9.223  10.309  66.916  1.00  0.00    -0.149 N  
HETATM   20  C   UNL     1      -9.218   8.851  66.964  1.00  0.00    -0.137 C  
HETATM   21  C   UNL     1     -10.546   8.290  67.443  1.00  0.00    -0.324 C  
HETATM   22  C   UNL     1     -10.504   8.200  68.943  1.00  0.00    -0.202 A  
HETATM   23  C   UNL     1     -10.588   6.935  69.538  1.00  0.00    -0.261 A  
HETATM   24  C   UNL     1     -10.498   6.779  70.921  1.00  0.00    -0.213 A  
HETATM   25  C   UNL     1     -10.317   7.913  71.731  1.00  0.00    -0.209 A  
HETATM   26  O   UNL     1      -8.655  12.158  68.134  1.00  0.00    -0.165 OA 
HETATM   27  C   UNL     1      -9.259  11.084  68.066  1.00  0.00    -0.159 C  
HETATM   28  C   UNL     1     -10.229   9.180  71.132  1.00  0.00    -0.384 A  
HETATM   29  C   UNL     1     -10.284  10.727  69.137  1.00  0.00    -0.229 C  
HETATM   30  C   UNL     1     -10.307   9.339  69.735  1.00  0.00    -0.232 A  
BRANCH  24  31
HETATM   31  O   UNL     1     -10.539   5.554  71.542  1.00  0.00    -0.233 OA 
HETATM   32  C   UNL     1      -9.418   4.702  71.332  1.00  0.00    -0.157 C  
ENDBRANCH  24  31
BRANCH  25  33
HETATM   33  O   UNL     1     -10.246   7.686  73.083  1.00  0.00    -0.286 OA 
HETATM   34  C   UNL     1      -9.004   7.937  73.727  1.00  0.00    -0.261 C  
ENDBRANCH  25  33
ENDBRANCH  18  19
ENDBRANCH  17  18
ENDBRANCH  16  17
ENDBRANCH  14  16
ENDBRANCH  13  14
ENDBRANCH   9  13
ENDBRANCH   2   3
TORSDOF 10
ENDMDL
MODEL       12
REMARK 921   NORMALIZED FREE ENERGY PREDICTED BY IDOCK:   -6.18 KCAL/MOL
REMARK 922        TOTAL FREE ENERGY PREDICTED BY IDOCK:  -11.75 KCAL/MOL
REMARK 923 INTER-LIGAND FREE ENERGY PREDICTED BY IDOCK:  -10.20 KCAL/MOL
REMARK 924 INTRA-LIGAND FREE ENERGY PREDICTED BY IDOCK:   -1.55 KCAL/MOL
REMARK 927      BINDING AFFINITY PREDICTED BY RF-SCORE:    0.00 PKD
ROOT
HETATM    1  C   UNL     1     -14.322   8.408  72.340  1.00  0.00    -0.284 C  
HETATM    2  O   UNL     1     -13.011   8.950  72.466  1.00  0.00    -0.418 OA 
ENDROOT
BRANCH   2   3
HETATM    3  C   UNL     1     -12.270   9.096  71.321  1.00  0.00    -0.327 A  
HETATM    4  C   UNL     1     -11.402   8.138  70.728  1.00  0.00    -0.270 A  
HETATM    5  C   UNL     1     -12.447  10.367  70.709  1.00  0.00    -0.461 A  
HETATM    6  C   UNL     1     -10.677   8.487  69.589  1.00  0.00    -0.200 A  
HETATM    7  C   UNL     1     -11.722  10.651  69.567  1.00  0.00    -0.356 A  
HETATM    8  C   UNL     1     -10.816   9.754  69.095  1.00  0.00    -0.231 A  
HETATM    9  C   UNL     1     -10.258  10.662  68.028  1.00  0.00    -0.202 C  
HETATM   10  C   UNL     1     -11.491  11.597  68.411  1.00  0.00    -0.360 C  
BRANCH   4  11
HETATM   11  O   UNL     1     -11.305   6.874  71.246  1.00  0.00    -0.256 OA 
HETATM   12  C   UNL     1     -10.926   5.845  70.334  1.00  0.00    -0.306 C  
ENDBRANCH   4  11
BRANCH   9  13
HETATM   13  C   UNL     1     -10.016   9.793  66.787  1.00  0.00    -0.218 C  
BRANCH  13  14
HETATM   14  N   UNL     1      -9.245  10.375  65.686  1.00  0.00    -0.172 NA 
HETATM   15  C   UNL     1      -7.838  10.022  65.765  1.00  0.00    -0.128 C  
BRANCH  14  16
HETATM   16  C   UNL     1      -9.878  10.220  64.371  1.00  0.00    -0.305 C  
BRANCH  16  17
HETATM   17  C   UNL     1     -10.262  11.567  63.764  1.00  0.00    -0.429 C  
BRANCH  17  18
HETATM   18  C   UNL     1     -11.556  12.149  64.346  1.00  0.00    -0.350 C  
BRANCH  18  19
HETATM   19  N   UNL     1     -11.236  13.319  65.168  1.00  0.00    -0.297 N  
HETATM   20  C   UNL     1      -9.870  13.825  65.106  1.00  0.00    -0.093 C  
HETATM   21  C   UNL     1      -9.193  13.814  66.465  1.00  0.00    -0.210 C  
HETATM   22  C   UNL     1      -9.495  15.117  67.151  1.00  0.00    -0.224 A  
HETATM   23  C   UNL     1      -8.431  15.981  67.441  1.00  0.00    -0.187 A  
HETATM   24  C   UNL     1      -8.651  17.228  68.025  1.00  0.00    -0.234 A  
HETATM   25  C   UNL     1      -9.966  17.626  68.323  1.00  0.00    -0.339 A  
HETATM   26  O   UNL     1     -13.409  14.002  65.368  1.00  0.00    -0.721 OA 
HETATM   27  C   UNL     1     -12.253  14.018  65.801  1.00  0.00    -0.453 C  
HETATM   28  C   UNL     1     -11.031  16.760  68.028  1.00  0.00    -0.296 A  
HETATM   29  C   UNL     1     -11.979  14.573  67.196  1.00  0.00    -0.373 C  
HETATM   30  C   UNL     1     -10.813  15.506  67.427  1.00  0.00    -0.312 A  
BRANCH  24  31
HETATM   31  O   UNL     1      -7.641  18.120  68.293  1.00  0.00    -0.255 OA 
HETATM   32  C   UNL     1      -6.670  18.301  67.268  1.00  0.00    -0.195 C  
ENDBRANCH  24  31
BRANCH  25  33
HETATM   33  O   UNL     1     -10.107  18.861  68.905  1.00  0.00    -0.391 OA 
HETATM   34  C   UNL     1     -10.479  19.945  68.063  1.00  0.00    -0.350 C  
ENDBRANCH  25  33
ENDBRANCH  18  19
ENDBRANCH  17  18
ENDBRANCH  16  17
ENDBRANCH  14  16
ENDBRANCH  13  14
ENDBRANCH   9  13
ENDBRANCH   2   3
TORSDOF 10
ENDMDL
MODEL       13
REMARK 921   NORMALIZED FREE ENERGY PREDICTED BY IDOCK:   -6.17 KCAL/MOL
REMARK 922        TOTAL FREE ENERGY PREDICTED BY IDOCK:  -11.74 KCAL/MOL
REMARK 923 INTER-LIGAND FREE ENERGY PREDICTED BY IDOCK:  -10.57 KCAL/MOL
REMARK 924 INTRA-LIGAND FREE ENERGY PREDICTED BY IDOCK:   -1.17 KCAL/MOL
REMARK 927      BINDING AFFINITY PREDICTED BY RF-SCORE:    0.00 PKD
ROOT
HETATM    1  C   UNL     1     -11.261   8.079  72.241  1.00  0.00    -0.341 C  
HETATM    2  O   UNL     1     -11.676   9.390  71.870  1.00  0.00    -0.374 OA 
ENDROOT
BRANCH   2   3
HETATM    3  C   UNL     1     -11.396   9.810  70.595  1.00  0.00    -0.330 A  
HETATM    4  C   UNL     1     -11.717  11.065  70.011  1.00  0.00    -0.355 A  
HETATM    5  C   UNL     1     -10.698   8.831  69.835  1.00  0.00    -0.228 A  
HETATM    6  C   UNL     1     -11.405  11.294  68.671  1.00  0.00    -0.336 A  
HETATM    7  C   UNL     1     -10.393   9.120  68.519  1.00  0.00    -0.236 A  
HETATM    8  C   UNL     1     -10.816  10.285  67.961  1.00  0.00    -0.325 A  
HETATM    9  C   UNL     1     -10.370   9.944  66.561  1.00  0.00    -0.259 C  
HETATM   10  C   UNL     1      -9.647   8.712  67.268  1.00  0.00    -0.216 C  
BRANCH   4  11
HETATM   11  O   UNL     1     -12.291  12.055  70.763  1.00  0.00    -0.375 OA 
HETATM   12  C   UNL     1     -12.159  13.385  70.265  1.00  0.00    -0.349 C  
ENDBRANCH   4  11
BRANCH   9  13
HETATM   13  C   UNL     1      -9.786  11.228  65.956  1.00  0.00    -0.229 C  
BRANCH  13  14
HETATM   14  N   UNL     1     -10.124  11.542  64.566  1.00  0.00    -0.262 NA 
HETATM   15  C   UNL     1      -9.625  10.533  63.647  1.00  0.00    -0.320 C  
BRANCH  14  16
HETATM   16  C   UNL     1     -11.518  11.960  64.374  1.00  0.00    -0.320 C  
BRANCH  16  17
HETATM   17  C   UNL     1     -11.628  13.455  64.089  1.00  0.00    -0.440 C  
BRANCH  17  18
HETATM   18  C   UNL     1     -12.181  14.260  65.273  1.00  0.00    -0.414 C  
BRANCH  18  19
HETATM   19  N   UNL     1     -11.156  15.191  65.749  1.00  0.00    -0.344 N  
HETATM   20  C   UNL     1     -10.203  14.690  66.733  1.00  0.00    -0.268 C  
HETATM   21  C   UNL     1     -10.241  15.490  68.024  1.00  0.00    -0.229 C  
HETATM   22  C   UNL     1      -9.283  16.641  67.890  1.00  0.00    -0.219 A  
HETATM   23  C   UNL     1      -8.177  16.690  68.748  1.00  0.00    -0.249 A  
HETATM   24  C   UNL     1      -7.221  17.700  68.639  1.00  0.00    -0.255 A  
HETATM   25  C   UNL     1      -7.371  18.684  67.646  1.00  0.00    -0.224 A  
HETATM   26  O   UNL     1     -11.323  16.585  63.944  1.00  0.00    -1.057 OA 
HETATM   27  C   UNL     1     -10.989  16.417  65.120  1.00  0.00    -0.232 C  
HETATM   28  C   UNL     1      -8.479  18.629  66.784  1.00  0.00    -0.292 A  
HETATM   29  C   UNL     1     -10.654  17.625  65.989  1.00  0.00    -0.220 C  
HETATM   30  C   UNL     1      -9.438  17.604  66.885  1.00  0.00    -0.278 A  
BRANCH  24  31
HETATM   31  O   UNL     1      -6.104  17.766  69.435  1.00  0.00    -0.220 OA 
HETATM   32  C   UNL     1      -5.684  16.546  70.036  1.00  0.00    -0.206 C  
ENDBRANCH  24  31
BRANCH  25  33
HETATM   33  O   UNL     1      -6.399  19.652  67.601  1.00  0.00    -0.204 OA 
HETATM   34  C   UNL     1      -6.800  20.970  67.255  1.00  0.00    -0.369 C  
ENDBRANCH  25  33
ENDBRANCH  18  19
ENDBRANCH  17  18
ENDBRANCH  16  17
ENDBRANCH  14  16
ENDBRANCH  13  14
ENDBRANCH   9  13
ENDBRANCH   2   3
TORSDOF 10
ENDMDL
MODEL       14
REMARK 921   NORMALIZED FREE ENERGY PREDICTED BY IDOCK:   -6.15 KCAL/MOL
REMARK 922        TOTAL FREE ENERGY PREDICTED BY IDOCK:  -11.71 KCAL/MOL
REMARK 923 INTER-LIGAND FREE ENERGY PREDICTED BY IDOCK:  -10.37 KCAL/MOL
REMARK 924 INTRA-LIGAND FREE ENERGY PREDICTED BY IDOCK:   -1.34 KCAL/MOL
REMARK 927      BINDING AFFINITY PREDICTED BY RF-SCORE:    0.00 PKD
ROOT
HETATM    1  C   UNL     1     -12.407  15.805  74.296  1.00  0.00    -0.649 C  
HETATM    2  O   UNL     1     -12.828  14.685  73.522  1.00  0.00    -0.505 OA 
ENDROOT
BRANCH   2   3
HETATM    3  C   UNL     1     -12.455  14.647  72.203  1.00  0.00    -0.316 A  
HETATM    4  C   UNL     1     -12.722  13.616  71.261  1.00  0.00    -0.361 A  
HETATM    5  C   UNL     1     -11.732  15.804  71.802  1.00  0.00    -0.562 A  
HETATM    6  C   UNL     1     -12.208  13.721  69.969  1.00  0.00    -0.407 A  
HETATM    7  C   UNL     1     -11.266  15.866  70.502  1.00  0.00    -0.395 A  
HETATM    8  C   UNL     1     -11.442  14.811  69.663  1.00  0.00    -0.327 A  
HETATM    9  C   UNL     1     -10.603  15.376  68.545  1.00  0.00    -0.240 C  
HETATM   10  C   UNL     1     -10.624  16.707  69.422  1.00  0.00    -0.333 C  
BRANCH   4  11
HETATM   11  O   UNL     1     -13.509  12.549  71.605  1.00  0.00    -0.285 OA 
HETATM   12  C   UNL     1     -13.007  11.258  71.263  1.00  0.00    -0.327 C  
ENDBRANCH   4  11
BRANCH   9  13
HETATM   13  C   UNL     1     -11.324  15.036  67.233  1.00  0.00    -0.332 C  
BRANCH  13  14
HETATM   14  N   UNL     1     -10.785  15.597  65.993  1.00  0.00    -0.324 NA 
HETATM   15  C   UNL     1      -9.986  16.785  66.239  1.00  0.00    -0.320 C  
BRANCH  14  16
HETATM   16  C   UNL     1     -10.197  14.596  65.095  1.00  0.00    -0.382 C  
BRANCH  16  17
HETATM   17  C   UNL     1     -11.261  13.689  64.481  1.00  0.00    -0.395 C  
BRANCH  17  18
HETATM   18  C   UNL     1     -10.678  12.447  63.796  1.00  0.00    -0.451 C  
BRANCH  18  19
HETATM   19  N   UNL     1     -10.498  11.384  64.788  1.00  0.00    -0.291 N  
HETATM   20  C   UNL     1     -11.285  11.473  66.013  1.00  0.00    -0.178 C  
HETATM   21  C   UNL     1     -10.410  11.535  67.252  1.00  0.00    -0.236 C  
HETATM   22  C   UNL     1     -10.130  10.128  67.701  1.00  0.00    -0.231 A  
HETATM   23  C   UNL     1     -10.610   9.719  68.952  1.00  0.00    -0.240 A  
HETATM   24  C   UNL     1     -10.432   8.412  69.402  1.00  0.00    -0.217 A  
HETATM   25  C   UNL     1      -9.763   7.487  68.582  1.00  0.00    -0.154 A  
HETATM   26  O   UNL     1      -9.649   9.879  63.291  1.00  0.00    -0.204 OA 
HETATM   27  C   UNL     1      -9.768  10.250  64.462  1.00  0.00    -0.329 C  
HETATM   28  C   UNL     1      -9.287   7.898  67.327  1.00  0.00    -0.180 A  
HETATM   29  C   UNL     1      -8.881   9.637  65.541  1.00  0.00    -0.204 C  
HETATM   30  C   UNL     1      -9.476   9.214  66.865  1.00  0.00    -0.222 A  
BRANCH  24  31
HETATM   31  O   UNL     1     -10.918   7.959  70.605  1.00  0.00    -0.238 OA 
HETATM   32  C   UNL     1     -10.316   8.504  71.774  1.00  0.00    -0.284 C  
ENDBRANCH  24  31
BRANCH  25  33
HETATM   33  O   UNL     1      -9.617   6.220  69.091  1.00  0.00    -0.135 OA 
HETATM   34  C   UNL     1      -8.295   5.762  69.340  1.00  0.00    -0.112 C  
ENDBRANCH  25  33
ENDBRANCH  18  19
ENDBRANCH  17  18
ENDBRANCH  16  17
ENDBRANCH  14  16
ENDBRANCH  13  14
ENDBRANCH   9  13
ENDBRANCH   2   3
TORSDOF 10
ENDMDL
MODEL       15
REMARK 921   NORMALIZED FREE ENERGY PREDICTED BY IDOCK:   -6.11 KCAL/MOL
REMARK 922        TOTAL FREE ENERGY PREDICTED BY IDOCK:  -11.65 KCAL/MOL
REMARK 923 INTER-LIGAND FREE ENERGY PREDICTED BY IDOCK:   -9.27 KCAL/MOL
REMARK 924 INTRA-LIGAND FREE ENERGY PREDICTED BY IDOCK:   -2.38 KCAL/MOL
REMARK 927      BINDING AFFINITY PREDICTED BY RF-SCORE:    0.00 PKD
ROOT
HETATM    1  C   UNL     1      -7.021  10.312  70.063  1.00  0.00    -0.151 C  
HETATM    2  O   UNL     1      -6.060  11.131  70.722  1.00  0.00    -0.336 OA 
ENDROOT
BRANCH   2   3
HETATM    3  C   UNL     1      -6.035  12.465  70.403  1.00  0.00    -0.095 A  
HETATM    4  C   UNL     1      -5.661  13.546  71.246  1.00  0.00    -0.197 A  
HETATM    5  C   UNL     1      -6.431  12.717  69.060  1.00  0.00    -0.097 A  
HETATM    6  C   UNL     1      -5.756  14.852  70.766  1.00  0.00    -0.120 A  
HETATM    7  C   UNL     1      -6.485  14.029  68.630  1.00  0.00    -0.091 A  
HETATM    8  C   UNL     1      -6.230  15.043  69.498  1.00  0.00    -0.124 A  
HETATM    9  C   UNL     1      -6.615  16.147  68.546  1.00  0.00    -0.122 C  
HETATM   10  C   UNL     1      -6.654  14.977  67.464  1.00  0.00    -0.153 C  
BRANCH   4  11
HETATM   11  O   UNL     1      -5.174  13.308  72.505  1.00  0.00    -0.347 OA 
HETATM   12  C   UNL     1      -5.484  14.287  73.497  1.00  0.00    -0.250 C  
ENDBRANCH   4  11
BRANCH   9  13
HETATM   13  C   UNL     1      -5.602  17.282  68.750  1.00  0.00    -0.153 C  
BRANCH  13  14
HETATM   14  N   UNL     1      -6.112  18.654  68.780  1.00  0.00    -0.211 NA 
HETATM   15  C   UNL     1      -5.739  19.397  67.589  1.00  0.00    -0.191 C  
BRANCH  14  16
HETATM   16  C   UNL     1      -7.518  18.756  69.192  1.00  0.00    -0.172 C  
BRANCH  16  17
HETATM   17  C   UNL     1      -8.355  19.518  68.168  1.00  0.00    -0.359 C  
BRANCH  17  18
HETATM   18  C   UNL     1      -9.865  19.313  68.345  1.00  0.00    -0.414 C  
BRANCH  18  19
HETATM   19  N   UNL     1     -10.234  17.979  67.864  1.00  0.00    -0.358 N  
HETATM   20  C   UNL     1     -10.826  17.061  68.831  1.00  0.00    -0.228 C  
HETATM   21  C   UNL     1     -10.011  15.789  68.986  1.00  0.00    -0.234 C  
HETATM   22  C   UNL     1     -10.488  14.797  67.962  1.00  0.00    -0.246 A  
HETATM   23  C   UNL     1     -11.075  13.607  68.409  1.00  0.00    -0.289 A  
HETATM   24  C   UNL     1     -11.588  12.672  67.512  1.00  0.00    -0.359 A  
HETATM   25  C   UNL     1     -11.519  12.932  66.132  1.00  0.00    -0.348 A  
HETATM   26  O   UNL     1     -10.332  18.598  65.666  1.00  0.00    -0.572 OA 
HETATM   27  C   UNL     1     -10.207  17.702  66.505  1.00  0.00    -0.355 C  
HETATM   28  C   UNL     1     -10.935  14.129  65.686  1.00  0.00    -0.308 A  
HETATM   29  C   UNL     1      -9.737  16.318  66.067  1.00  0.00    -0.370 C  
HETATM   30  C   UNL     1     -10.427  15.080  66.591  1.00  0.00    -0.284 A  
BRANCH  24  31
HETATM   31  O   UNL     1     -12.204  11.509  67.908  1.00  0.00    -0.586 OA 
HETATM   32  C   UNL     1     -11.829  10.999  69.183  1.00  0.00    -0.337 C  
ENDBRANCH  24  31
BRANCH  25  33
HETATM   33  O   UNL     1     -12.036  11.965  65.306  1.00  0.00    -0.351 OA 
HETATM   34  C   UNL     1     -12.523  12.377  64.036  1.00  0.00    -0.459 C  
ENDBRANCH  25  33
ENDBRANCH  18  19
ENDBRANCH  17  18
ENDBRANCH  16  17
ENDBRANCH  14  16
ENDBRANCH  13  14
ENDBRANCH   9  13
ENDBRANCH   2   3
TORSDOF 10
ENDMDL
MODEL       16
REMARK 921   NORMALIZED FREE ENERGY PREDICTED BY IDOCK:   -6.07 KCAL/MOL
REMARK 922        TOTAL FREE ENERGY PREDICTED BY IDOCK:  -11.58 KCAL/MOL
REMARK 923 INTER-LIGAND FREE ENERGY PREDICTED BY IDOCK:   -9.06 KCAL/MOL
REMARK 924 INTRA-LIGAND FREE ENERGY PREDICTED BY IDOCK:   -2.52 KCAL/MOL
REMARK 927      BINDING AFFINITY PREDICTED BY RF-SCORE:    0.00 PKD
ROOT
HETATM    1  C   UNL     1     -14.114   7.265  71.578  1.00  0.00    -0.378 C  
HETATM    2  O   UNL     1     -12.828   7.810  71.860  1.00  0.00    -0.313 OA 
ENDROOT
BRANCH   2   3
HETATM    3  C   UNL     1     -12.571   9.088  71.435  1.00  0.00    -0.311 A  
HETATM    4  C   UNL     1     -11.650   9.493  70.431  1.00  0.00    -0.212 A  
HETATM    5  C   UNL     1     -13.357  10.061  72.112  1.00  0.00    -0.469 A  
HETATM    6  C   UNL     1     -11.476  10.853  70.172  1.00  0.00    -0.405 A  
HETATM    7  C   UNL     1     -13.160  11.393  71.799  1.00  0.00    -0.523 A  
HETATM    8  C   UNL     1     -12.189  11.750  70.917  1.00  0.00    -0.378 A  
HETATM    9  C   UNL     1     -12.336  13.235  71.136  1.00  0.00    -0.323 C  
HETATM   10  C   UNL     1     -13.636  12.819  71.958  1.00  0.00    -0.460 C  
BRANCH   4  11
HETATM   11  O   UNL     1     -10.968   8.559  69.696  1.00  0.00    -0.197 OA 
HETATM   12  C   UNL     1      -9.757   8.068  70.268  1.00  0.00    -0.175 C  
ENDBRANCH   4  11
BRANCH   9  13
HETATM   13  C   UNL     1     -12.198  13.903  69.761  1.00  0.00    -0.332 C  
BRANCH  13  14
HETATM   14  N   UNL     1     -12.078  15.361  69.721  1.00  0.00    -0.350 NA 
HETATM   15  C   UNL     1     -11.540  15.895  70.960  1.00  0.00    -0.424 C  
BRANCH  14  16
HETATM   16  C   UNL     1     -11.480  15.874  68.482  1.00  0.00    -0.377 C  
BRANCH  16  17
HETATM   17  C   UNL     1     -11.741  14.945  67.299  1.00  0.00    -0.308 C  
BRANCH  17  18
HETATM   18  C   UNL     1     -10.537  14.809  66.357  1.00  0.00    -0.300 C  
BRANCH  18  19
HETATM   19  N   UNL     1      -9.970  13.464  66.485  1.00  0.00    -0.279 N  
HETATM   20  C   UNL     1     -10.590  12.400  65.703  1.00  0.00    -0.265 C  
HETATM   21  C   UNL     1     -11.117  11.278  66.581  1.00  0.00    -0.299 C  
HETATM   22  C   UNL     1     -10.008  10.286  66.792  1.00  0.00    -0.261 A  
HETATM   23  C   UNL     1     -10.171   8.987  66.293  1.00  0.00    -0.237 A  
HETATM   24  C   UNL     1      -9.158   8.036  66.406  1.00  0.00    -0.183 A  
HETATM   25  C   UNL     1      -7.948   8.391  67.028  1.00  0.00    -0.100 A  
HETATM   26  O   UNL     1      -7.946  14.194  67.257  1.00  0.00    -0.184 OA 
HETATM   27  C   UNL     1      -8.771  13.281  67.158  1.00  0.00    -0.212 C  
HETATM   28  C   UNL     1      -7.785   9.695  67.523  1.00  0.00    -0.095 A  
HETATM   29  C   UNL     1      -8.615  12.028  68.014  1.00  0.00    -0.170 C  
HETATM   30  C   UNL     1      -8.802  10.660  67.400  1.00  0.00    -0.132 A  
BRANCH  24  31
HETATM   31  O   UNL     1      -9.263   6.764  65.900  1.00  0.00    -0.091 OA 
HETATM   32  C   UNL     1     -10.067   5.853  66.641  1.00  0.00    -0.183 C  
ENDBRANCH  24  31
BRANCH  25  33
HETATM   33  O   UNL     1      -6.998   7.403  67.112  1.00  0.00    -0.077 OA 
HETATM   34  C   UNL     1      -6.654   6.931  68.408  1.00  0.00    -0.062 C  
ENDBRANCH  25  33
ENDBRANCH  18  19
ENDBRANCH  17  18
ENDBRANCH  16  17
ENDBRANCH  14  16
ENDBRANCH  13  14
ENDBRANCH   9  13
ENDBRANCH   2   3
TORSDOF 10
ENDMDL
MODEL       17
REMARK 921   NORMALIZED FREE ENERGY PREDICTED BY IDOCK:   -5.99 KCAL/MOL
REMARK 922        TOTAL FREE ENERGY PREDICTED BY IDOCK:  -11.46 KCAL/MOL
REMARK 923 INTER-LIGAND FREE ENERGY PREDICTED BY IDOCK:  -10.12 KCAL/MOL
REMARK 924 INTRA-LIGAND FREE ENERGY PREDICTED BY IDOCK:   -1.35 KCAL/MOL
REMARK 927      BINDING AFFINITY PREDICTED BY RF-SCORE:    0.00 PKD
ROOT
HETATM    1  C   UNL     1      -9.989   4.315  66.450  1.00  0.00    -0.203 C  
HETATM    2  O   UNL     1     -10.637   5.576  66.316  1.00  0.00    -0.233 OA 
ENDROOT
BRANCH   2   3
HETATM    3  C   UNL     1     -10.648   6.405  67.408  1.00  0.00    -0.295 A  
HETATM    4  C   UNL     1     -10.393   7.803  67.432  1.00  0.00    -0.284 A  
HETATM    5  C   UNL     1     -10.968   5.722  68.614  1.00  0.00    -0.198 A  
HETATM    6  C   UNL     1     -10.388   8.477  68.653  1.00  0.00    -0.224 A  
HETATM    7  C   UNL     1     -10.972   6.443  69.793  1.00  0.00    -0.417 A  
HETATM    8  C   UNL     1     -10.611   7.754  69.792  1.00  0.00    -0.241 A  
HETATM    9  C   UNL     1     -10.629   7.908  71.292  1.00  0.00    -0.241 C  
HETATM   10  C   UNL     1     -11.303   6.464  71.268  1.00  0.00    -0.361 C  
BRANCH   4  11
HETATM   11  O   UNL     1     -10.191   8.492  66.265  1.00  0.00    -0.237 OA 
HETATM   12  C   UNL     1      -8.856   8.502  65.760  1.00  0.00    -0.190 C  
ENDBRANCH   4  11
BRANCH   9  13
HETATM   13  C   UNL     1     -11.236   9.286  71.589  1.00  0.00    -0.379 C  
BRANCH  13  14
HETATM   14  N   UNL     1     -12.661   9.478  71.310  1.00  0.00    -0.329 NA 
HETATM   15  C   UNL     1     -13.497   8.951  72.374  1.00  0.00    -0.450 C  
BRANCH  14  16
HETATM   16  C   UNL     1     -12.996  10.825  70.831  1.00  0.00    -0.296 C  
BRANCH  16  17
HETATM   17  C   UNL     1     -11.800  11.508  70.173  1.00  0.00    -0.440 C  
BRANCH  17  18
HETATM   18  C   UNL     1     -11.905  11.574  68.644  1.00  0.00    -0.318 C  
BRANCH  18  19
HETATM   19  N   UNL     1     -11.261  12.800  68.165  1.00  0.00    -0.253 N  
HETATM   20  C   UNL     1     -11.328  13.972  69.031  1.00  0.00    -0.281 C  
HETATM   21  C   UNL     1     -12.013  15.146  68.354  1.00  0.00    -0.216 C  
HETATM   22  C   UNL     1     -10.971  15.931  67.608  1.00  0.00    -0.298 A  
HETATM   23  C   UNL     1     -10.719  17.250  68.006  1.00  0.00    -0.367 A  
HETATM   24  C   UNL     1      -9.726  18.013  67.392  1.00  0.00    -0.296 A  
HETATM   25  C   UNL     1      -8.963  17.445  66.357  1.00  0.00    -0.246 A  
HETATM   26  O   UNL     1      -9.888  11.721  66.689  1.00  0.00    -0.196 OA 
HETATM   27  C   UNL     1     -10.451  12.762  67.039  1.00  0.00    -0.237 C  
HETATM   28  C   UNL     1      -9.215  16.121  65.963  1.00  0.00    -0.363 A  
HETATM   29  C   UNL     1     -10.500  13.950  66.084  1.00  0.00    -0.297 C  
HETATM   30  C   UNL     1     -10.208  15.345  66.589  1.00  0.00    -0.281 A  
BRANCH  24  31
HETATM   31  O   UNL     1      -9.421  19.296  67.774  1.00  0.00    -0.302 OA 
HETATM   32  C   UNL     1      -9.967  19.733  69.014  1.00  0.00    -0.355 C  
ENDBRANCH  24  31
BRANCH  25  33
HETATM   33  O   UNL     1      -8.010  18.255  65.792  1.00  0.00    -0.513 OA 
HETATM   34  C   UNL     1      -6.647  17.929  66.028  1.00  0.00    -0.281 C  
ENDBRANCH  25  33
ENDBRANCH  18  19
ENDBRANCH  17  18
ENDBRANCH  16  17
ENDBRANCH  14  16
ENDBRANCH  13  14
ENDBRANCH   9  13
ENDBRANCH   2   3
TORSDOF 10
ENDMDL
MODEL       18
REMARK 921   NORMALIZED FREE ENERGY PREDICTED BY IDOCK:   -5.96 KCAL/MOL
REMARK 922        TOTAL FREE ENERGY PREDICTED BY IDOCK:  -11.40 KCAL/MOL
REMARK 923 INTER-LIGAND FREE ENERGY PREDICTED BY IDOCK:   -9.79 KCAL/MOL
REMARK 924 INTRA-LIGAND FREE ENERGY PREDICTED BY IDOCK:   -1.62 KCAL/MOL
REMARK 927      BINDING AFFINITY PREDICTED BY RF-SCORE:    0.00 PKD
ROOT
HETATM    1  C   UNL     1     -11.416  16.072  69.240  1.00  0.00    -0.350 C  
HETATM    2  O   UNL     1     -12.499  15.825  70.132  1.00  0.00    -0.370 OA 
ENDROOT
BRANCH   2   3
HETATM    3  C   UNL     1     -12.662  14.545  70.596  1.00  0.00    -0.360 A  
HETATM    4  C   UNL     1     -13.305  14.139  71.797  1.00  0.00    -0.380 A  
HETATM    5  C   UNL     1     -12.109  13.568  69.722  1.00  0.00    -0.381 A  
HETATM    6  C   UNL     1     -13.322  12.787  72.140  1.00  0.00    -0.593 A  
HETATM    7  C   UNL     1     -12.175  12.241  70.100  1.00  0.00    -0.302 A  
HETATM    8  C   UNL     1     -12.695  11.900  71.309  1.00  0.00    -0.401 A  
HETATM    9  C   UNL     1     -12.330  10.440  71.216  1.00  0.00    -0.507 C  
HETATM   10  C   UNL     1     -11.968  10.796  69.705  1.00  0.00    -0.385 C  
BRANCH   4  11
HETATM   11  O   UNL     1     -13.935  15.059  72.592  1.00  0.00    -0.464 OA 
HETATM   12  C   UNL     1     -13.092  15.894  73.383  1.00  0.00    -0.587 C  
ENDBRANCH   4  11
BRANCH   9  13
HETATM   13  C   UNL     1     -13.510   9.650  71.797  1.00  0.00    -0.394 C  
BRANCH  13  14
HETATM   14  N   UNL     1     -13.306   8.228  72.080  1.00  0.00    -0.329 NA 
HETATM   15  C   UNL     1     -14.351   7.404  71.496  1.00  0.00    -0.440 C  
BRANCH  14  16
HETATM   16  C   UNL     1     -11.927   7.772  71.865  1.00  0.00    -0.301 C  
BRANCH  16  17
HETATM   17  C   UNL     1     -11.876   6.488  71.040  1.00  0.00    -0.390 C  
BRANCH  17  18
HETATM   18  C   UNL     1     -10.447   6.024  70.726  1.00  0.00    -0.239 C  
BRANCH  18  19
HETATM   19  N   UNL     1      -9.900   6.838  69.638  1.00  0.00    -0.164 N  
HETATM   20  C   UNL     1      -8.676   7.583  69.911  1.00  0.00    -0.140 C  
HETATM   21  C   UNL     1      -8.863   9.078  69.721  1.00  0.00    -0.155 C  
HETATM   22  C   UNL     1      -8.576   9.408  68.282  1.00  0.00    -0.120 A  
HETATM   23  C   UNL     1      -7.491  10.245  67.994  1.00  0.00    -0.087 A  
HETATM   24  C   UNL     1      -7.138  10.544  66.678  1.00  0.00    -0.118 A  
HETATM   25  C   UNL     1      -7.884   9.990  65.623  1.00  0.00    -0.138 A  
HETATM   26  O   UNL     1     -10.983   5.685  67.987  1.00  0.00    -0.172 OA 
HETATM   27  C   UNL     1     -10.421   6.720  68.357  1.00  0.00    -0.205 C  
HETATM   28  C   UNL     1      -8.968   9.147  65.915  1.00  0.00    -0.231 A  
HETATM   29  C   UNL     1     -10.539   7.985  67.514  1.00  0.00    -0.302 C  
HETATM   30  C   UNL     1      -9.319   8.835  67.242  1.00  0.00    -0.181 A  
BRANCH  24  31
HETATM   31  O   UNL     1      -6.061  11.331  66.350  1.00  0.00    -0.140 OA 
HETATM   32  C   UNL     1      -5.682  12.315  67.306  1.00  0.00    -0.131 C  
ENDBRANCH  24  31
BRANCH  25  33
HETATM   33  O   UNL     1      -7.486  10.334  64.355  1.00  0.00    -0.143 OA 
HETATM   34  C   UNL     1      -8.474  10.327  63.333  1.00  0.00    -0.185 C  
ENDBRANCH  25  33
ENDBRANCH  18  19
ENDBRANCH  17  18
ENDBRANCH  16  17
ENDBRANCH  14  16
ENDBRANCH  13  14
ENDBRANCH   9  13
ENDBRANCH   2   3
TORSDOF 10
ENDMDL
MODEL       19
REMARK 921   NORMALIZED FREE ENERGY PREDICTED BY IDOCK:   -5.96 KCAL/MOL
REMARK 922        TOTAL FREE ENERGY PREDICTED BY IDOCK:  -11.40 KCAL/MOL
REMARK 923 INTER-LIGAND FREE ENERGY PREDICTED BY IDOCK:  -10.08 KCAL/MOL
REMARK 924 INTRA-LIGAND FREE ENERGY PREDICTED BY IDOCK:   -1.32 KCAL/MOL
REMARK 927      BINDING AFFINITY PREDICTED BY RF-SCORE:    0.00 PKD
ROOT
HETATM    1  C   UNL     1     -13.035  15.969  73.488  1.00  0.00    -0.586 C  
HETATM    2  O   UNL     1     -11.900  15.281  72.969  1.00  0.00    -0.421 OA 
ENDROOT
BRANCH   2   3
HETATM    3  C   UNL     1     -11.930  14.911  71.648  1.00  0.00    -0.363 A  
HETATM    4  C   UNL     1     -12.503  13.733  71.096  1.00  0.00    -0.370 A  
HETATM    5  C   UNL     1     -11.306  15.864  70.796  1.00  0.00    -0.424 A  
HETATM    6  C   UNL     1     -12.383  13.492  69.728  1.00  0.00    -0.249 A  
HETATM    7  C   UNL     1     -11.236  15.585  69.445  1.00  0.00    -0.302 A  
HETATM    8  C   UNL     1     -11.694  14.396  68.969  1.00  0.00    -0.345 A  
HETATM    9  C   UNL     1     -11.194  14.604  67.561  1.00  0.00    -0.343 C  
HETATM   10  C   UNL     1     -10.902  16.089  68.059  1.00  0.00    -0.335 C  
BRANCH   4  11
HETATM   11  O   UNL     1     -13.201  12.862  71.891  1.00  0.00    -0.437 OA 
HETATM   12  C   UNL     1     -12.967  11.473  71.662  1.00  0.00    -0.394 C  
ENDBRANCH   4  11
BRANCH   9  13
HETATM   13  C   UNL     1     -12.279  14.063  66.620  1.00  0.00    -0.428 C  
BRANCH  13  14
HETATM   14  N   UNL     1     -12.121  12.701  66.108  1.00  0.00    -0.579 NA 
HETATM   15  C   UNL     1     -12.353  12.630  64.676  1.00  0.00    -0.476 C  
BRANCH  14  16
HETATM   16  C   UNL     1     -10.921  12.016  66.604  1.00  0.00    -0.287 C  
BRANCH  16  17
HETATM   17  C   UNL     1     -11.273  10.801  67.459  1.00  0.00    -0.346 C  
BRANCH  17  18
HETATM   18  C   UNL     1     -10.331  10.605  68.653  1.00  0.00    -0.186 C  
BRANCH  18  19
HETATM   19  N   UNL     1     -10.153   9.173  68.902  1.00  0.00    -0.191 N  
HETATM   20  C   UNL     1      -9.624   8.365  67.809  1.00  0.00    -0.156 C  
HETATM   21  C   UNL     1     -10.578   7.254  67.405  1.00  0.00    -0.370 C  
HETATM   22  C   UNL     1     -10.280   6.049  68.252  1.00  0.00    -0.218 A  
HETATM   23  C   UNL     1      -9.818   4.887  67.620  1.00  0.00    -0.205 A  
HETATM   24  C   UNL     1      -9.472   3.754  68.355  1.00  0.00    -0.148 A  
HETATM   25  C   UNL     1      -9.584   3.781  69.756  1.00  0.00    -0.183 A  
HETATM   26  O   UNL     1     -10.102   9.388  71.178  1.00  0.00    -0.296 OA 
HETATM   27  C   UNL     1     -10.288   8.673  70.189  1.00  0.00    -0.207 C  
HETATM   28  C   UNL     1     -10.044   4.948  70.387  1.00  0.00    -0.316 A  
HETATM   29  C   UNL     1     -10.945   7.307  70.360  1.00  0.00    -0.273 C  
HETATM   30  C   UNL     1     -10.383   6.098  69.648  1.00  0.00    -0.277 A  
BRANCH  24  31
HETATM   31  O   UNL     1      -8.981   2.607  67.779  1.00  0.00    -0.127 OA 
HETATM   32  C   UNL     1      -7.673   2.690  67.223  1.00  0.00    -0.069 C  
ENDBRANCH  24  31
BRANCH  25  33
HETATM   33  O   UNL     1      -9.235   2.628  70.414  1.00  0.00    -0.106 OA 
HETATM   34  C   UNL     1      -8.308   2.740  71.486  1.00  0.00    -0.063 C  
ENDBRANCH  25  33
ENDBRANCH  18  19
ENDBRANCH  17  18
ENDBRANCH  16  17
ENDBRANCH  14  16
ENDBRANCH  13  14
ENDBRANCH   9  13
ENDBRANCH   2   3
TORSDOF 10
ENDMDL
MODEL       20
REMARK 921   NORMALIZED FREE ENERGY PREDICTED BY IDOCK:   -5.93 KCAL/MOL
REMARK 922        TOTAL FREE ENERGY PREDICTED BY IDOCK:  -11.36 KCAL/MOL
REMARK 923 INTER-LIGAND FREE ENERGY PREDICTED BY IDOCK:   -8.96 KCAL/MOL
REMARK 924 INTRA-LIGAND FREE ENERGY PREDICTED BY IDOCK:   -2.40 KCAL/MOL
REMARK 927      BINDING AFFINITY PREDICTED BY RF-SCORE:    0.00 PKD
ROOT
HETATM    1  C   UNL     1     -11.670  15.600  64.372  1.00  0.00    -0.218 C  
HETATM    2  O   UNL     1     -12.512  14.463  64.533  1.00  0.00    -0.608 OA 
ENDROOT
BRANCH   2   3
HETATM    3  C   UNL     1     -12.046  13.429  65.303  1.00  0.00    -0.413 A  
HETATM    4  C   UNL     1     -11.411  12.239  64.854  1.00  0.00    -0.325 A  
HETATM    5  C   UNL     1     -12.246  13.645  66.694  1.00  0.00    -0.437 A  
HETATM    6  C   UNL     1     -11.055  11.261  65.784  1.00  0.00    -0.153 A  
HETATM    7  C   UNL     1     -11.853  12.653  67.573  1.00  0.00    -0.396 A  
HETATM    8  C   UNL     1     -11.354  11.481  67.100  1.00  0.00    -0.354 A  
HETATM    9  C   UNL     1     -11.302  10.795  68.442  1.00  0.00    -0.367 C  
HETATM   10  C   UNL     1     -11.631  12.247  69.013  1.00  0.00    -0.368 C  
BRANCH   4  11
HETATM   11  O   UNL     1     -11.114  12.067  63.528  1.00  0.00    -0.409 OA 
HETATM   12  C   UNL     1      -9.955  11.289  63.235  1.00  0.00    -0.393 C  
ENDBRANCH   4  11
BRANCH   9  13
HETATM   13  C   UNL     1     -10.001   9.983  68.476  1.00  0.00    -0.162 C  
BRANCH  13  14
HETATM   14  N   UNL     1      -9.248   9.953  69.731  1.00  0.00    -0.226 NA 
HETATM   15  C   UNL     1      -9.976   9.265  70.784  1.00  0.00    -0.290 C  
BRANCH  14  16
HETATM   16  C   UNL     1      -7.837   9.579  69.569  1.00  0.00    -0.103 C  
BRANCH  16  17
HETATM   17  C   UNL     1      -6.900  10.729  69.929  1.00  0.00    -0.146 C  
BRANCH  17  18
HETATM   18  C   UNL     1      -6.060  11.222  68.744  1.00  0.00    -0.044 C  
BRANCH  18  19
HETATM   19  N   UNL     1      -6.558  12.527  68.305  1.00  0.00    -0.066 N  
HETATM   20  C   UNL     1      -5.867  13.709  68.807  1.00  0.00    -0.083 C  
HETATM   21  C   UNL     1      -6.796  14.628  69.583  1.00  0.00    -0.163 C  
HETATM   22  C   UNL     1      -7.430  15.584  68.611  1.00  0.00    -0.131 A  
HETATM   23  C   UNL     1      -7.155  16.951  68.746  1.00  0.00    -0.216 A  
HETATM   24  C   UNL     1      -7.667  17.883  67.844  1.00  0.00    -0.224 A  
HETATM   25  C   UNL     1      -8.469  17.440  66.777  1.00  0.00    -0.254 A  
HETATM   26  O   UNL     1      -7.618  11.705  66.454  1.00  0.00    -0.056 OA 
HETATM   27  C   UNL     1      -7.506  12.602  67.294  1.00  0.00    -0.109 C  
HETATM   28  C   UNL     1      -8.738  16.069  66.643  1.00  0.00    -0.309 A  
HETATM   29  C   UNL     1      -8.591  13.668  67.408  1.00  0.00    -0.212 C  
HETATM   30  C   UNL     1      -8.213  15.125  67.545  1.00  0.00    -0.196 A  
BRANCH  24  31
HETATM   31  O   UNL     1      -7.393  19.227  67.917  1.00  0.00    -0.246 OA 
HETATM   32  C   UNL     1      -6.753  19.678  69.106  1.00  0.00    -0.348 C  
ENDBRANCH  24  31
BRANCH  25  33
HETATM   33  O   UNL     1      -8.945  18.413  65.933  1.00  0.00    -0.484 OA 
HETATM   34  C   UNL     1     -10.299  18.815  66.092  1.00  0.00    -0.448 C  
ENDBRANCH  25  33
ENDBRANCH  18  19
ENDBRANCH  17  18
ENDBRANCH  16  17
ENDBRANCH  14  16
ENDBRANCH  13  14
ENDBRANCH   9  13
ENDBRANCH   2   3
TORSDOF 10
ENDMDL
MODEL       21
REMARK 921   NORMALIZED FREE ENERGY PREDICTED BY IDOCK:   -5.92 KCAL/MOL
REMARK 922        TOTAL FREE ENERGY PREDICTED BY IDOCK:  -11.34 KCAL/MOL
REMARK 923 INTER-LIGAND FREE ENERGY PREDICTED BY IDOCK:  -10.06 KCAL/MOL
REMARK 924 INTRA-LIGAND FREE ENERGY PREDICTED BY IDOCK:   -1.28 KCAL/MOL
REMARK 927      BINDING AFFINITY PREDICTED BY RF-SCORE:    0.00 PKD
ROOT
HETATM    1  C   UNL     1     -14.084   8.882  72.254  1.00  0.00    -0.442 C  
HETATM    2  O   UNL     1     -12.782   9.328  71.888  1.00  0.00    -0.340 OA 
ENDROOT
BRANCH   2   3
HETATM    3  C   UNL     1     -12.657  10.611  71.421  1.00  0.00    -0.421 A  
HETATM    4  C   UNL     1     -11.907  11.049  70.295  1.00  0.00    -0.367 A  
HETATM    5  C   UNL     1     -13.392  11.552  72.193  1.00  0.00    -0.284 A  
HETATM    6  C   UNL     1     -11.845  12.411  70.003  1.00  0.00    -0.363 A  
HETATM    7  C   UNL     1     -13.314  12.887  71.845  1.00  0.00    -0.530 A  
HETATM    8  C   UNL     1     -12.497  13.281  70.832  1.00  0.00    -0.424 A  
HETATM    9  C   UNL     1     -12.693  14.760  71.058  1.00  0.00    -0.411 C  
HETATM   10  C   UNL     1     -13.842  14.288  72.057  1.00  0.00    -0.564 C  
BRANCH   4  11
HETATM   11  O   UNL     1     -11.283  10.141  69.480  1.00  0.00    -0.238 OA 
HETATM   12  C   UNL     1      -9.943   9.798  69.827  1.00  0.00    -0.236 C  
ENDBRANCH   4  11
BRANCH   9  13
HETATM   13  C   UNL     1     -12.784  15.412  69.672  1.00  0.00     0.083 C  
BRANCH  13  14
HETATM   14  N   UNL     1     -11.540  15.879  69.055  1.00  0.00    -0.390 NA 
HETATM   15  C   UNL     1     -10.434  15.874  69.997  1.00  0.00    -0.291 C  
BRANCH  14  16
HETATM   16  C   UNL     1     -11.272  15.287  67.739  1.00  0.00    -0.326 C  
BRANCH  16  17
HETATM   17  C   UNL     1     -12.301  14.220  67.375  1.00  0.00    -0.110 C  
BRANCH  17  18
HETATM   18  C   UNL     1     -12.471  14.030  65.862  1.00  0.00    -0.481 C  
BRANCH  18  19
HETATM   19  N   UNL     1     -11.681  12.876  65.426  1.00  0.00    -0.354 N  
HETATM   20  C   UNL     1     -11.238  11.942  66.455  1.00  0.00    -0.331 C  
HETATM   21  C   UNL     1      -9.725  11.816  66.500  1.00  0.00    -0.224 C  
HETATM   22  C   UNL     1      -9.316  10.734  65.540  1.00  0.00    -0.242 A  
HETATM   23  C   UNL     1      -8.696   9.588  66.052  1.00  0.00    -0.166 A  
HETATM   24  C   UNL     1      -8.343   8.524  65.222  1.00  0.00    -0.159 A  
HETATM   25  C   UNL     1      -8.618   8.605  63.846  1.00  0.00     0.002 A  
HETATM   26  O   UNL     1     -12.407  12.966  63.260  1.00  0.00    -0.652 OA 
HETATM   27  C   UNL     1     -11.556  12.595  64.073  1.00  0.00    -0.418 C  
HETATM   28  C   UNL     1      -9.244   9.754  63.336  1.00  0.00    -0.217 A  
HETATM   29  C   UNL     1     -10.213  12.073  63.572  1.00  0.00    -0.477 C  
HETATM   30  C   UNL     1      -9.612  10.823  64.173  1.00  0.00    -0.333 A  
BRANCH  24  31
HETATM   31  O   UNL     1      -7.767   7.367  65.688  1.00  0.00    -0.093 OA 
HETATM   32  C   UNL     1      -7.363   7.367  67.053  1.00  0.00    -0.097 C  
ENDBRANCH  24  31
BRANCH  25  33
HETATM   33  O   UNL     1      -8.236   7.526  63.088  1.00  0.00    -0.085 OA 
HETATM   34  C   UNL     1      -6.986   7.606  62.415  1.00  0.00    -0.076 C  
ENDBRANCH  25  33
ENDBRANCH  18  19
ENDBRANCH  17  18
ENDBRANCH  16  17
ENDBRANCH  14  16
ENDBRANCH  13  14
ENDBRANCH   9  13
ENDBRANCH   2   3
TORSDOF 10
ENDMDL
MODEL       22
REMARK 921   NORMALIZED FREE ENERGY PREDICTED BY IDOCK:   -5.92 KCAL/MOL
REMARK 922        TOTAL FREE ENERGY PREDICTED BY IDOCK:  -11.34 KCAL/MOL
REMARK 923 INTER-LIGAND FREE ENERGY PREDICTED BY IDOCK:  -10.15 KCAL/MOL
REMARK 924 INTRA-LIGAND FREE ENERGY PREDICTED BY IDOCK:   -1.19 KCAL/MOL
REMARK 927      BINDING AFFINITY PREDICTED BY RF-SCORE:    0.00 PKD
ROOT
HETATM    1  C   UNL     1     -13.450  15.591  72.930  1.00  0.00    -0.548 C  
HETATM    2  O   UNL     1     -13.452  15.227  71.552  1.00  0.00    -0.416 OA 
ENDROOT
BRANCH   2   3
HETATM    3  C   UNL     1     -13.041  13.959  71.228  1.00  0.00    -0.315 A  
HETATM    4  C   UNL     1     -12.166  13.580  70.175  1.00  0.00    -0.330 A  
HETATM    5  C   UNL     1     -13.586  12.968  72.090  1.00  0.00    -0.618 A  
HETATM    6  C   UNL     1     -11.907  12.227  69.955  1.00  0.00    -0.383 A  
HETATM    7  C   UNL     1     -13.277  11.644  71.841  1.00  0.00    -0.475 A  
HETATM    8  C   UNL     1     -12.529  11.310  70.756  1.00  0.00    -0.471 A  
HETATM    9  C   UNL     1     -12.698   9.820  70.918  1.00  0.00    -0.329 C  
HETATM   10  C   UNL     1     -13.342  10.212  72.322  1.00  0.00    -0.337 C  
BRANCH   4  11
HETATM   11  O   UNL     1     -11.550  14.533  69.406  1.00  0.00    -0.268 OA 
HETATM   12  C   UNL     1     -10.549  15.317  70.054  1.00  0.00    -0.270 C  
ENDBRANCH   4  11
BRANCH   9  13
HETATM   13  C   UNL     1     -11.342   9.182  70.587  1.00  0.00    -0.273 C  
BRANCH  13  14
HETATM   14  N   UNL     1     -11.166   7.761  70.891  1.00  0.00    -0.267 NA 
HETATM   15  C   UNL     1     -12.437   7.092  71.113  1.00  0.00    -0.359 C  
BRANCH  14  16
HETATM   16  C   UNL     1     -10.221   7.075  70.000  1.00  0.00    -0.194 C  
BRANCH  16  17
HETATM   17  C   UNL     1      -8.777   7.481  70.284  1.00  0.00    -0.145 C  
BRANCH  17  18
HETATM   18  C   UNL     1      -7.994   7.862  69.021  1.00  0.00    -0.122 C  
BRANCH  18  19
HETATM   19  N   UNL     1      -8.573   9.074  68.437  1.00  0.00    -0.129 N  
HETATM   20  C   UNL     1      -9.688   8.903  67.513  1.00  0.00    -0.170 C  
HETATM   21  C   UNL     1      -9.386   9.476  66.139  1.00  0.00    -0.254 C  
HETATM   22  C   UNL     1      -9.787  10.924  66.135  1.00  0.00    -0.268 A  
HETATM   23  C   UNL     1     -10.814  11.329  65.273  1.00  0.00    -0.261 A  
HETATM   24  C   UNL     1     -11.271  12.647  65.262  1.00  0.00    -0.300 A  
HETATM   25  C   UNL     1     -10.691  13.583  66.135  1.00  0.00    -0.289 A  
HETATM   26  O   UNL     1      -7.775  10.462  70.069  1.00  0.00    -0.136 OA 
HETATM   27  C   UNL     1      -8.199  10.320  68.919  1.00  0.00    -0.130 C  
HETATM   28  C   UNL     1      -9.665  13.174  67.001  1.00  0.00    -0.241 A  
HETATM   29  C   UNL     1      -8.052  11.460  67.915  1.00  0.00    -0.126 C  
HETATM   30  C   UNL     1      -9.210  11.842  67.023  1.00  0.00    -0.187 A  
BRANCH  24  31
HETATM   31  O   UNL     1     -12.299  13.078  64.459  1.00  0.00    -0.423 OA 
HETATM   32  C   UNL     1     -12.725  12.180  63.440  1.00  0.00    -0.381 C  
ENDBRANCH  24  31
BRANCH  25  33
HETATM   33  O   UNL     1     -11.184  14.863  66.064  1.00  0.00    -0.337 OA 
HETATM   34  C   UNL     1     -10.497  15.785  65.229  1.00  0.00    -0.401 C  
ENDBRANCH  25  33
ENDBRANCH  18  19
ENDBRANCH  17  18
ENDBRANCH  16  17
ENDBRANCH  14  16
ENDBRANCH  13  14
ENDBRANCH   9  13
ENDBRANCH   2   3
TORSDOF 10
ENDMDL
MODEL       23
REMARK 921   NORMALIZED FREE ENERGY PREDICTED BY IDOCK:   -5.91 KCAL/MOL
REMARK 922        TOTAL FREE ENERGY PREDICTED BY IDOCK:  -11.33 KCAL/MOL
REMARK 923 INTER-LIGAND FREE ENERGY PREDICTED BY IDOCK:   -9.67 KCAL/MOL
REMARK 924 INTRA-LIGAND FREE ENERGY PREDICTED BY IDOCK:   -1.66 KCAL/MOL
REMARK 927      BINDING AFFINITY PREDICTED BY RF-SCORE:    0.00 PKD
ROOT
HETATM    1  C   UNL     1     -13.945   9.459  71.509  1.00  0.00    -0.158 C  
HETATM    2  O   UNL     1     -13.166  10.451  72.170  1.00  0.00    -0.452 OA 
ENDROOT
BRANCH   2   3
HETATM    3  C   UNL     1     -12.787  11.551  71.444  1.00  0.00    -0.384 A  
HETATM    4  C   UNL     1     -11.986  11.575  70.269  1.00  0.00    -0.368 A  
HETATM    5  C   UNL     1     -13.296  12.766  71.980  1.00  0.00    -0.565 A  
HETATM    6  C   UNL     1     -11.649  12.801  69.696  1.00  0.00    -0.322 A  
HETATM    7  C   UNL     1     -12.950  13.951  71.358  1.00  0.00    -0.430 A  
HETATM    8  C   UNL     1     -12.089  13.943  70.306  1.00  0.00    -0.423 A  
HETATM    9  C   UNL     1     -11.970  15.443  70.207  1.00  0.00    -0.386 C  
HETATM   10  C   UNL     1     -13.171  15.443  71.255  1.00  0.00    -0.585 C  
BRANCH   4  11
HETATM   11  O   UNL     1     -11.581  10.405  69.682  1.00  0.00    -0.248 OA 
HETATM   12  C   UNL     1     -10.362   9.844  70.167  1.00  0.00    -0.282 C  
ENDBRANCH   4  11
BRANCH   9  13
HETATM   13  C   UNL     1     -11.951  15.790  68.712  1.00  0.00    -0.210 C  
BRANCH  13  14
HETATM   14  N   UNL     1     -10.691  16.262  68.137  1.00  0.00    -0.309 NA 
HETATM   15  C   UNL     1     -10.382  17.621  68.549  1.00  0.00    -0.370 C  
BRANCH  14  16
HETATM   16  C   UNL     1      -9.593  15.291  68.235  1.00  0.00    -0.206 C  
BRANCH  16  17
HETATM   17  C   UNL     1      -9.024  14.938  66.863  1.00  0.00    -0.277 C  
BRANCH  17  18
HETATM   18  C   UNL     1     -10.008  14.160  65.979  1.00  0.00    -0.322 C  
BRANCH  18  19
HETATM   19  N   UNL     1      -9.956  12.739  66.330  1.00  0.00    -0.260 N  
HETATM   20  C   UNL     1      -8.819  12.287  67.124  1.00  0.00    -0.194 C  
HETATM   21  C   UNL     1      -8.016  11.212  66.413  1.00  0.00    -0.147 C  
HETATM   22  C   UNL     1      -8.610   9.875  66.761  1.00  0.00    -0.133 A  
HETATM   23  C   UNL     1      -7.824   8.962  67.475  1.00  0.00    -0.101 A  
HETATM   24  C   UNL     1      -8.334   7.729  67.877  1.00  0.00    -0.123 A  
HETATM   25  C   UNL     1      -9.664   7.399  67.562  1.00  0.00    -0.148 A  
HETATM   26  O   UNL     1     -12.195  12.393  66.021  1.00  0.00    -0.636 OA 
HETATM   27  C   UNL     1     -11.054  11.926  66.087  1.00  0.00    -0.326 C  
HETATM   28  C   UNL     1     -10.451   8.318  66.849  1.00  0.00    -0.365 A  
HETATM   29  C   UNL     1     -10.797  10.497  65.622  1.00  0.00     0.054 C  
HETATM   30  C   UNL     1      -9.941   9.569  66.453  1.00  0.00    -0.339 A  
BRANCH  24  31
HETATM   31  O   UNL     1      -7.611   6.819  68.610  1.00  0.00    -0.100 OA 
HETATM   32  C   UNL     1      -6.934   7.326  69.755  1.00  0.00    -0.057 C  
ENDBRANCH  24  31
BRANCH  25  33
HETATM   33  O   UNL     1     -10.098   6.165  67.981  1.00  0.00    -0.133 OA 
HETATM   34  C   UNL     1     -11.017   6.125  69.064  1.00  0.00    -0.367 C  
ENDBRANCH  25  33
ENDBRANCH  18  19
ENDBRANCH  17  18
ENDBRANCH  16  17
ENDBRANCH  14  16
ENDBRANCH  13  14
ENDBRANCH   9  13
ENDBRANCH   2   3
TORSDOF 10
ENDMDL
MODEL       24
REMARK 921   NORMALIZED FREE ENERGY PREDICTED BY IDOCK:   -5.89 KCAL/MOL
REMARK 922        TOTAL FREE ENERGY PREDICTED BY IDOCK:  -11.30 KCAL/MOL
REMARK 923 INTER-LIGAND FREE ENERGY PREDICTED BY IDOCK:   -9.35 KCAL/MOL
REMARK 924 INTRA-LIGAND FREE ENERGY PREDICTED BY IDOCK:   -1.95 KCAL/MOL
REMARK 927      BINDING AFFINITY PREDICTED BY RF-SCORE:    0.00 PKD
ROOT
HETATM    1  C   UNL     1      -5.776  15.369  70.589  1.00  0.00    -0.061 C  
HETATM    2  O   UNL     1      -6.769  14.417  70.218  1.00  0.00    -0.128 OA 
ENDROOT
BRANCH   2   3
HETATM    3  C   UNL     1      -7.544  14.701  69.123  1.00  0.00    -0.126 A  
HETATM    4  C   UNL     1      -7.223  14.472  67.757  1.00  0.00    -0.177 A  
HETATM    5  C   UNL     1      -8.797  15.278  69.471  1.00  0.00    -0.181 A  
HETATM    6  C   UNL     1      -8.116  14.884  66.767  1.00  0.00    -0.008 A  
HETATM    7  C   UNL     1      -9.653  15.646  68.450  1.00  0.00    -0.199 A  
HETATM    8  C   UNL     1      -9.264  15.517  67.154  1.00  0.00    -0.228 A  
HETATM    9  C   UNL     1     -10.467  16.218  66.573  1.00  0.00    -0.290 C  
HETATM   10  C   UNL     1     -11.032  16.127  68.061  1.00  0.00    -0.338 C  
BRANCH   4  11
HETATM   11  O   UNL     1      -6.069  13.818  67.415  1.00  0.00    -0.344 OA 
HETATM   12  C   UNL     1      -6.165  12.403  67.264  1.00  0.00    -0.144 C  
ENDBRANCH   4  11
BRANCH   9  13
HETATM   13  C   UNL     1     -10.863  15.445  65.308  1.00  0.00    -0.409 C  
BRANCH  13  14
HETATM   14  N   UNL     1     -11.228  14.035  65.456  1.00  0.00    -0.306 NA 
HETATM   15  C   UNL     1     -12.668  13.854  65.532  1.00  0.00    -0.499 C  
BRANCH  14  16
HETATM   16  C   UNL     1     -10.510  13.137  64.544  1.00  0.00    -0.405 C  
BRANCH  16  17
HETATM   17  C   UNL     1     -10.611  11.680  64.987  1.00  0.00    -0.342 C  
BRANCH  17  18
HETATM   18  C   UNL     1      -9.345  11.168  65.687  1.00  0.00    -0.219 C  
BRANCH  18  19
HETATM   19  N   UNL     1      -9.701  10.628  67.002  1.00  0.00    -0.173 N  
HETATM   20  C   UNL     1     -11.101  10.716  67.403  1.00  0.00    -0.272 C  
HETATM   21  C   UNL     1     -11.279  11.510  68.686  1.00  0.00    -0.307 C  
HETATM   22  C   UNL     1     -11.152  10.561  69.846  1.00  0.00    -0.371 A  
HETATM   23  C   UNL     1     -12.265  10.367  70.673  1.00  0.00    -0.441 A  
HETATM   24  C   UNL     1     -12.230   9.459  71.731  1.00  0.00    -0.390 A  
HETATM   25  C   UNL     1     -11.055   8.724  71.967  1.00  0.00    -0.371 A  
HETATM   26  O   UNL     1      -7.861   9.280  67.149  1.00  0.00    -0.098 OA 
HETATM   27  C   UNL     1      -8.775   9.884  67.718  1.00  0.00    -0.129 C  
HETATM   28  C   UNL     1      -9.942   8.918  71.134  1.00  0.00    -0.342 A  
HETATM   29  C   UNL     1      -8.735  10.059  69.233  1.00  0.00    -0.182 C  
HETATM   30  C   UNL     1      -9.979   9.824  70.058  1.00  0.00    -0.299 A  
BRANCH  24  31
HETATM   31  O   UNL     1     -13.309   9.211  72.544  1.00  0.00    -0.458 OA 
HETATM   32  C   UNL     1     -14.360   8.434  71.979  1.00  0.00    -0.464 C  
ENDBRANCH  24  31
BRANCH  25  33
HETATM   33  O   UNL     1     -11.088   7.855  73.030  1.00  0.00    -0.402 OA 
HETATM   34  C   UNL     1     -10.904   6.473  72.755  1.00  0.00    -0.249 C  
ENDBRANCH  25  33
ENDBRANCH  18  19
ENDBRANCH  17  18
ENDBRANCH  16  17
ENDBRANCH  14  16
ENDBRANCH  13  14
ENDBRANCH   9  13
ENDBRANCH   2   3
TORSDOF 10
ENDMDL
MODEL       25
REMARK 921   NORMALIZED FREE ENERGY PREDICTED BY IDOCK:   -5.86 KCAL/MOL
REMARK 922        TOTAL FREE ENERGY PREDICTED BY IDOCK:  -11.25 KCAL/MOL
REMARK 923 INTER-LIGAND FREE ENERGY PREDICTED BY IDOCK:   -9.74 KCAL/MOL
REMARK 924 INTRA-LIGAND FREE ENERGY PREDICTED BY IDOCK:   -1.50 KCAL/MOL
REMARK 927      BINDING AFFINITY PREDICTED BY RF-SCORE:    0.00 PKD
ROOT
HETATM    1  C   UNL     1     -11.607   5.808  72.483  1.00  0.00    -0.267 C  
HETATM    2  O   UNL     1     -12.201   6.853  71.720  1.00  0.00    -0.326 OA 
ENDROOT
BRANCH   2   3
HETATM    3  C   UNL     1     -11.532   7.286  70.604  1.00  0.00    -0.293 A  
HETATM    4  C   UNL     1     -11.006   8.585  70.365  1.00  0.00    -0.238 A  
HETATM    5  C   UNL     1     -11.379   6.267  69.625  1.00  0.00    -0.492 A  
HETATM    6  C   UNL     1     -10.405   8.863  69.137  1.00  0.00    -0.230 A  
HETATM    7  C   UNL     1     -10.755   6.591  68.435  1.00  0.00    -0.339 A  
HETATM    8  C   UNL     1     -10.366   7.872  68.196  1.00  0.00    -0.249 A  
HETATM    9  C   UNL     1      -9.962   7.633  66.763  1.00  0.00    -0.317 C  
HETATM   10  C   UNL     1     -10.168   6.097  67.132  1.00  0.00    -0.246 C  
BRANCH   4  11
HETATM   11  O   UNL     1     -11.051   9.544  71.342  1.00  0.00    -0.351 OA 
HETATM   12  C   UNL     1     -12.179  10.416  71.320  1.00  0.00    -0.389 C  
ENDBRANCH   4  11
BRANCH   9  13
HETATM   13  C   UNL     1      -8.677   8.437  66.524  1.00  0.00    -0.134 C  
BRANCH  13  14
HETATM   14  N   UNL     1      -8.814   9.831  66.098  1.00  0.00    -0.138 NA 
HETATM   15  C   UNL     1      -7.522  10.478  65.938  1.00  0.00    -0.147 C  
BRANCH  14  16
HETATM   16  C   UNL     1      -9.775  10.026  65.006  1.00  0.00    -0.317 C  
BRANCH  16  17
HETATM   17  C   UNL     1     -11.021  10.774  65.473  1.00  0.00     0.043 C  
BRANCH  17  18
HETATM   18  C   UNL     1     -11.320  12.032  64.647  1.00  0.00    -0.318 C  
BRANCH  18  19
HETATM   19  N   UNL     1     -11.043  13.222  65.455  1.00  0.00    -0.281 N  
HETATM   20  C   UNL     1      -9.663  13.690  65.503  1.00  0.00    -0.059 C  
HETATM   21  C   UNL     1      -9.115  13.711  66.919  1.00  0.00    -0.249 C  
HETATM   22  C   UNL     1      -9.442  15.046  67.529  1.00  0.00    -0.203 A  
HETATM   23  C   UNL     1      -8.384  15.891  67.888  1.00  0.00    -0.158 A  
HETATM   24  C   UNL     1      -8.620  17.164  68.406  1.00  0.00    -0.246 A  
HETATM   25  C   UNL     1      -9.945  17.607  68.567  1.00  0.00    -0.368 A  
HETATM   26  O   UNL     1     -13.204  13.968  65.427  1.00  0.00    -0.761 OA 
HETATM   27  C   UNL     1     -12.094  13.970  65.966  1.00  0.00    -0.439 C  
HETATM   28  C   UNL     1     -11.003  16.759  68.202  1.00  0.00    -0.309 A  
HETATM   29  C   UNL     1     -11.934  14.568  67.360  1.00  0.00    -0.367 C  
HETATM   30  C   UNL     1     -10.767  15.478  67.668  1.00  0.00    -0.302 A  
BRANCH  24  31
HETATM   31  O   UNL     1      -7.614  18.039  68.737  1.00  0.00    -0.289 OA 
HETATM   32  C   UNL     1      -6.869  18.584  67.653  1.00  0.00    -0.204 C  
ENDBRANCH  24  31
BRANCH  25  33
HETATM   33  O   UNL     1     -10.103  18.866  69.090  1.00  0.00    -0.365 OA 
HETATM   34  C   UNL     1     -10.395  19.922  68.185  1.00  0.00    -0.397 C  
ENDBRANCH  25  33
ENDBRANCH  18  19
ENDBRANCH  17  18
ENDBRANCH  16  17
ENDBRANCH  14  16
ENDBRANCH  13  14
ENDBRANCH   9  13
ENDBRANCH   2   3
TORSDOF 10
ENDMDL
MODEL       26
REMARK 921   NORMALIZED FREE ENERGY PREDICTED BY IDOCK:   -5.85 KCAL/MOL
REMARK 922        TOTAL FREE ENERGY PREDICTED BY IDOCK:  -11.23 KCAL/MOL
REMARK 923 INTER-LIGAND FREE ENERGY PREDICTED BY IDOCK:   -9.93 KCAL/MOL
REMARK 924 INTRA-LIGAND FREE ENERGY PREDICTED BY IDOCK:   -1.30 KCAL/MOL
REMARK 927      BINDING AFFINITY PREDICTED BY RF-SCORE:    0.00 PKD
ROOT
HETATM    1  C   UNL     1     -11.999  15.386  72.250  1.00  0.00    -0.438 C  
HETATM    2  O   UNL     1     -11.453  16.182  71.203  1.00  0.00    -0.413 OA 
ENDROOT
BRANCH   2   3
HETATM    3  C   UNL     1     -11.398  15.632  69.948  1.00  0.00    -0.337 A  
HETATM    4  C   UNL     1     -10.969  16.263  68.748  1.00  0.00    -0.343 A  
HETATM    5  C   UNL     1     -11.824  14.275  69.923  1.00  0.00    -0.382 A  
HETATM    6  C   UNL     1     -11.040  15.562  67.544  1.00  0.00    -0.305 A  
HETATM    7  C   UNL     1     -11.852  13.621  68.705  1.00  0.00    -0.395 A  
HETATM    8  C   UNL     1     -11.544  14.291  67.563  1.00  0.00    -0.390 A  
HETATM    9  C   UNL     1     -11.922  13.168  66.631  1.00  0.00    -0.451 C  
HETATM   10  C   UNL     1     -12.025  12.311  67.971  1.00  0.00    -0.251 C  
BRANCH   4  11
HETATM   11  O   UNL     1     -10.455  17.533  68.777  1.00  0.00    -0.355 OA 
HETATM   12  C   UNL     1     -10.717  18.347  67.635  1.00  0.00    -0.357 C  
ENDBRANCH   4  11
BRANCH   9  13
HETATM   13  C   UNL     1     -10.872  13.146  65.513  1.00  0.00    -0.283 C  
BRANCH  13  14
HETATM   14  N   UNL     1     -11.055  12.185  64.424  1.00  0.00    -0.315 NA 
HETATM   15  C   UNL     1     -11.868  12.731  63.350  1.00  0.00    -0.518 C  
BRANCH  14  16
HETATM   16  C   UNL     1      -9.819  11.505  64.017  1.00  0.00    -0.274 C  
BRANCH  16  17
HETATM   17  C   UNL     1      -9.560  10.253  64.851  1.00  0.00    -0.365 C  
BRANCH  17  18
HETATM   18  C   UNL     1      -8.430  10.426  65.873  1.00  0.00    -0.156 C  
BRANCH  18  19
HETATM   19  N   UNL     1      -8.841   9.847  67.155  1.00  0.00    -0.138 N  
HETATM   20  C   UNL     1      -9.040   8.403  67.203  1.00  0.00    -0.138 C  
HETATM   21  C   UNL     1     -10.455   8.034  67.613  1.00  0.00    -0.301 C  
HETATM   22  C   UNL     1     -10.501   7.949  69.114  1.00  0.00    -0.218 A  
HETATM   23  C   UNL     1     -10.788   6.711  69.702  1.00  0.00    -0.336 A  
HETATM   24  C   UNL     1     -10.791   6.553  71.088  1.00  0.00    -0.249 A  
HETATM   25  C   UNL     1     -10.495   7.656  71.907  1.00  0.00    -0.215 A  
HETATM   26  O   UNL     1      -8.085  11.609  68.401  1.00  0.00    -0.141 OA 
HETATM   27  C   UNL     1      -8.827  10.627  68.302  1.00  0.00    -0.139 C  
HETATM   28  C   UNL     1     -10.203   8.895  71.314  1.00  0.00    -0.361 A  
HETATM   29  C   UNL     1      -9.944  10.422  69.320  1.00  0.00    -0.246 C  
HETATM   30  C   UNL     1     -10.188   9.054  69.915  1.00  0.00    -0.214 A  
BRANCH  24  31
HETATM   31  O   UNL     1     -11.031   5.349  71.705  1.00  0.00    -0.213 OA 
HETATM   32  C   UNL     1     -10.084   4.315  71.464  1.00  0.00    -0.135 C  
ENDBRANCH  24  31
BRANCH  25  33
HETATM   33  O   UNL     1     -10.524   7.430  73.261  1.00  0.00    -0.310 OA 
HETATM   34  C   UNL     1      -9.278   7.295  73.931  1.00  0.00    -0.247 C  
ENDBRANCH  25  33
ENDBRANCH  18  19
ENDBRANCH  17  18
ENDBRANCH  16  17
ENDBRANCH  14  16
ENDBRANCH  13  14
ENDBRANCH   9  13
ENDBRANCH   2   3
TORSDOF 10
ENDMDL
MODEL       27
REMARK 921   NORMALIZED FREE ENERGY PREDICTED BY IDOCK:   -5.83 KCAL/MOL
REMARK 922        TOTAL FREE ENERGY PREDICTED BY IDOCK:  -11.20 KCAL/MOL
REMARK 923 INTER-LIGAND FREE ENERGY PREDICTED BY IDOCK:   -9.83 KCAL/MOL
REMARK 924 INTRA-LIGAND FREE ENERGY PREDICTED BY IDOCK:   -1.38 KCAL/MOL
REMARK 927      BINDING AFFINITY PREDICTED BY RF-SCORE:    0.00 PKD
ROOT
HETATM    1  C   UNL     1     -10.801   4.450  74.010  1.00  0.00    -0.247 C  
HETATM    2  O   UNL     1     -10.766   5.837  73.687  1.00  0.00    -0.262 OA 
ENDROOT
BRANCH   2   3
HETATM    3  C   UNL     1     -10.895   6.187  72.368  1.00  0.00    -0.243 A  
HETATM    4  C   UNL     1     -11.518   7.352  71.842  1.00  0.00    -0.266 A  
HETATM    5  C   UNL     1     -10.310   5.236  71.487  1.00  0.00    -0.287 A  
HETATM    6  C   UNL     1     -11.611   7.512  70.460  1.00  0.00    -0.224 A  
HETATM    7  C   UNL     1     -10.411   5.457  70.126  1.00  0.00    -0.361 A  
HETATM    8  C   UNL     1     -11.113   6.522  69.658  1.00  0.00    -0.435 A  
HETATM    9  C   UNL     1     -11.021   6.128  68.205  1.00  0.00    -0.397 C  
HETATM   10  C   UNL     1      -9.985   5.039  68.737  1.00  0.00    -0.225 C  
BRANCH   4  11
HETATM   11  O   UNL     1     -11.988   8.327  72.682  1.00  0.00    -0.399 OA 
HETATM   12  C   UNL     1     -13.326   8.766  72.452  1.00  0.00    -0.399 C  
ENDBRANCH   4  11
BRANCH   9  13
HETATM   13  C   UNL     1     -10.789   7.418  67.408  1.00  0.00    -0.229 C  
BRANCH  13  14
HETATM   14  N   UNL     1      -9.499   8.092  67.562  1.00  0.00    -0.149 NA 
HETATM   15  C   UNL     1      -8.621   7.846  66.430  1.00  0.00    -0.147 C  
BRANCH  14  16
HETATM   16  C   UNL     1      -9.606   9.488  68.005  1.00  0.00    -0.137 C  
BRANCH  16  17
HETATM   17  C   UNL     1     -10.873  10.155  67.477  1.00  0.00    -0.349 C  
BRANCH  17  18
HETATM   18  C   UNL     1     -10.628  11.036  66.245  1.00  0.00    -0.237 C  
BRANCH  18  19
HETATM   19  N   UNL     1     -10.522  12.436  66.662  1.00  0.00    -0.228 N  
HETATM   20  C   UNL     1      -9.180  12.978  66.845  1.00  0.00    -0.236 C  
HETATM   21  C   UNL     1      -8.955  13.484  68.260  1.00  0.00    -0.180 C  
HETATM   22  C   UNL     1      -9.393  14.920  68.320  1.00  0.00    -0.195 A  
HETATM   23  C   UNL     1      -8.430  15.899  68.599  1.00  0.00    -0.200 A  
HETATM   24  C   UNL     1      -8.760  17.254  68.614  1.00  0.00    -0.268 A  
HETATM   25  C   UNL     1     -10.082  17.643  68.339  1.00  0.00    -0.368 A  
HETATM   26  O   UNL     1     -12.616  13.001  65.940  1.00  0.00    -0.480 OA 
HETATM   27  C   UNL     1     -11.650  13.243  66.669  1.00  0.00    -0.365 C  
HETATM   28  C   UNL     1     -11.044  16.660  68.056  1.00  0.00    -0.255 A  
HETATM   29  C   UNL     1     -11.792  14.263  67.794  1.00  0.00    -0.414 C  
HETATM   30  C   UNL     1     -10.711  15.293  68.028  1.00  0.00    -0.268 A  
BRANCH  24  31
HETATM   31  O   UNL     1      -7.841  18.248  68.847  1.00  0.00    -0.281 OA 
HETATM   32  C   UNL     1      -6.540  17.826  69.242  1.00  0.00    -0.239 C  
ENDBRANCH  24  31
BRANCH  25  33
HETATM   33  O   UNL     1     -10.338  18.991  68.380  1.00  0.00    -0.374 OA 
HETATM   34  C   UNL     1     -10.585  19.650  67.145  1.00  0.00    -0.487 C  
ENDBRANCH  25  33
ENDBRANCH  18  19
ENDBRANCH  17  18
ENDBRANCH  16  17
ENDBRANCH  14  16
ENDBRANCH  13  14
ENDBRANCH   9  13
ENDBRANCH   2   3
TORSDOF 10
ENDMDL
MODEL       28
REMARK 921   NORMALIZED FREE ENERGY PREDICTED BY IDOCK:   -5.80 KCAL/MOL
REMARK 922        TOTAL FREE ENERGY PREDICTED BY IDOCK:  -11.16 KCAL/MOL
REMARK 923 INTER-LIGAND FREE ENERGY PREDICTED BY IDOCK:   -9.84 KCAL/MOL
REMARK 924 INTRA-LIGAND FREE ENERGY PREDICTED BY IDOCK:   -1.32 KCAL/MOL
REMARK 927      BINDING AFFINITY PREDICTED BY RF-SCORE:    0.00 PKD
ROOT
HETATM    1  C   UNL     1      -8.924   2.894  66.560  1.00  0.00    -0.152 C  
HETATM    2  O   UNL     1      -9.716   4.077  66.588  1.00  0.00    -0.205 OA 
ENDROOT
BRANCH   2   3
HETATM    3  C   UNL     1     -10.006   4.620  67.814  1.00  0.00    -0.092 A  
HETATM    4  C   UNL     1     -10.651   5.859  68.077  1.00  0.00    -0.252 A  
HETATM    5  C   UNL     1      -9.594   3.791  68.893  1.00  0.00    -0.183 A  
HETATM    6  C   UNL     1     -10.808   6.281  69.397  1.00  0.00    -0.404 A  
HETATM    7  C   UNL     1      -9.796   4.248  70.182  1.00  0.00    -0.271 A  
HETATM    8  C   UNL     1     -10.311   5.488  70.394  1.00  0.00    -0.346 A  
HETATM    9  C   UNL     1     -10.115   5.471  71.889  1.00  0.00    -0.239 C  
HETATM   10  C   UNL     1      -9.765   3.933  71.661  1.00  0.00    -0.240 C  
BRANCH   4  11
HETATM   11  O   UNL     1     -11.149   6.615  67.048  1.00  0.00    -0.403 OA 
HETATM   12  C   UNL     1     -10.528   7.883  66.838  1.00  0.00    -0.318 C  
ENDBRANCH   4  11
BRANCH   9  13
HETATM   13  C   UNL     1     -11.357   6.129  72.507  1.00  0.00    -0.286 C  
BRANCH  13  14
HETATM   14  N   UNL     1     -11.252   7.529  72.921  1.00  0.00    -0.356 NA 
HETATM   15  C   UNL     1      -9.871   7.981  72.956  1.00  0.00    -0.282 C  
BRANCH  14  16
HETATM   16  C   UNL     1     -12.207   8.420  72.251  1.00  0.00    -0.387 C  
BRANCH  16  17
HETATM   17  C   UNL     1     -11.540   9.702  71.760  1.00  0.00    -0.309 C  
BRANCH  17  18
HETATM   18  C   UNL     1     -12.508  10.887  71.648  1.00  0.00    -0.242 C  
BRANCH  18  19
HETATM   19  N   UNL     1     -12.230  11.627  70.415  1.00  0.00    -0.358 N  
HETATM   20  C   UNL     1     -12.123  10.855  69.182  1.00  0.00    -0.221 C  
HETATM   21  C   UNL     1     -10.768  11.023  68.517  1.00  0.00    -0.236 C  
HETATM   22  C   UNL     1     -10.839  12.212  67.601  1.00  0.00    -0.272 A  
HETATM   23  C   UNL     1     -10.672  12.005  66.226  1.00  0.00    -0.302 A  
HETATM   24  C   UNL     1     -10.782  13.058  65.318  1.00  0.00    -0.299 A  
HETATM   25  C   UNL     1     -11.070  14.349  65.793  1.00  0.00    -0.316 A  
HETATM   26  O   UNL     1     -12.967  13.630  71.234  1.00  0.00    -0.341 OA 
HETATM   27  C   UNL     1     -12.281  13.013  70.414  1.00  0.00    -0.310 C  
HETATM   28  C   UNL     1     -11.241  14.553  67.171  1.00  0.00    -0.341 A  
HETATM   29  C   UNL     1     -11.257  13.766  69.570  1.00  0.00    -0.221 C  
HETATM   30  C   UNL     1     -11.142  13.490  68.089  1.00  0.00    -0.283 A  
BRANCH  24  31
HETATM   31  O   UNL     1     -10.662  12.893  63.959  1.00  0.00    -0.393 OA 
HETATM   32  C   UNL     1     -11.439  11.852  63.378  1.00  0.00    -0.376 C  
ENDBRANCH  24  31
BRANCH  25  33
HETATM   33  O   UNL     1     -11.155  15.338  64.845  1.00  0.00    -0.400 OA 
HETATM   34  C   UNL     1     -10.775  16.652  65.230  1.00  0.00    -0.204 C  
ENDBRANCH  25  33
ENDBRANCH  18  19
ENDBRANCH  17  18
ENDBRANCH  16  17
ENDBRANCH  14  16
ENDBRANCH  13  14
ENDBRANCH   9  13
ENDBRANCH   2   3
TORSDOF 10
ENDMDL
MODEL       29
REMARK 921   NORMALIZED FREE ENERGY PREDICTED BY IDOCK:   -5.80 KCAL/MOL
REMARK 922        TOTAL FREE ENERGY PREDICTED BY IDOCK:  -11.15 KCAL/MOL
REMARK 923 INTER-LIGAND FREE ENERGY PREDICTED BY IDOCK:   -9.06 KCAL/MOL
REMARK 924 INTRA-LIGAND FREE ENERGY PREDICTED BY IDOCK:   -2.09 KCAL/MOL
REMARK 927      BINDING AFFINITY PREDICTED BY RF-SCORE:    0.00 PKD
ROOT
HETATM    1  C   UNL     1     -12.174  12.278  63.548  1.00  0.00    -0.568 C  
HETATM    2  O   UNL     1     -12.718  12.347  64.862  1.00  0.00    -0.620 OA 
ENDROOT
BRANCH   2   3
HETATM    3  C   UNL     1     -12.091  13.164  65.768  1.00  0.00    -0.447 A  
HETATM    4  C   UNL     1     -11.865  12.907  67.148  1.00  0.00    -0.362 A  
HETATM    5  C   UNL     1     -11.636  14.381  65.189  1.00  0.00    -0.361 A  
HETATM    6  C   UNL     1     -11.261  13.887  67.935  1.00  0.00    -0.302 A  
HETATM    7  C   UNL     1     -11.023  15.307  66.011  1.00  0.00    -0.317 A  
HETATM    8  C   UNL     1     -10.926  15.075  67.347  1.00  0.00    -0.315 A  
HETATM    9  C   UNL     1     -10.377  16.438  67.690  1.00  0.00    -0.284 C  
HETATM   10  C   UNL     1     -10.246  16.601  66.110  1.00  0.00    -0.360 C  
BRANCH   4  11
HETATM   11  O   UNL     1     -12.200  11.696  67.693  1.00  0.00    -0.544 OA 
HETATM   12  C   UNL     1     -12.077  11.585  69.110  1.00  0.00    -0.263 C  
ENDBRANCH   4  11
BRANCH   9  13
HETATM   13  C   UNL     1      -9.301  16.226  68.762  1.00  0.00    -0.235 C  
BRANCH  13  14
HETATM   14  N   UNL     1      -7.951  15.876  68.315  1.00  0.00    -0.136 NA 
HETATM   15  C   UNL     1      -7.000  16.943  68.577  1.00  0.00    -0.186 C  
BRANCH  14  16
HETATM   16  C   UNL     1      -7.529  14.524  68.700  1.00  0.00    -0.128 C  
BRANCH  16  17
HETATM   17  C   UNL     1      -7.417  13.598  67.492  1.00  0.00    -0.181 C  
BRANCH  17  18
HETATM   18  C   UNL     1      -6.512  12.384  67.739  1.00  0.00    -0.115 C  
BRANCH  18  19
HETATM   19  N   UNL     1      -7.342  11.199  67.970  1.00  0.00    -0.086 N  
HETATM   20  C   UNL     1      -7.701  10.397  66.806  1.00  0.00    -0.114 C  
HETATM   21  C   UNL     1      -9.206  10.299  66.622  1.00  0.00    -0.179 C  
HETATM   22  C   UNL     1      -9.699   9.119  67.412  1.00  0.00    -0.211 A  
HETATM   23  C   UNL     1     -10.279   8.049  66.719  1.00  0.00    -0.367 A  
HETATM   24  C   UNL     1     -10.706   6.902  67.387  1.00  0.00    -0.326 A  
HETATM   25  C   UNL     1     -10.547   6.818  68.782  1.00  0.00    -0.226 A  
HETATM   26  O   UNL     1      -6.799  11.027  70.185  1.00  0.00    -0.172 OA 
HETATM   27  C   UNL     1      -7.581  10.765  69.266  1.00  0.00    -0.129 C  
HETATM   28  C   UNL     1      -9.961   7.891  69.473  1.00  0.00    -0.189 A  
HETATM   29  C   UNL     1      -8.964  10.208  69.589  1.00  0.00    -0.190 C  
HETATM   30  C   UNL     1      -9.518   9.045  68.799  1.00  0.00    -0.148 A  
BRANCH  24  31
HETATM   31  O   UNL     1     -11.246   5.815  66.744  1.00  0.00    -0.127 OA 
HETATM   32  C   UNL     1     -10.325   4.932  66.113  1.00  0.00    -0.292 C  
ENDBRANCH  24  31
BRANCH  25  33
HETATM   33  O   UNL     1     -10.997   5.665  69.375  1.00  0.00    -0.320 OA 
HETATM   34  C   UNL     1     -10.085   4.950  70.198  1.00  0.00    -0.261 C  
ENDBRANCH  25  33
ENDBRANCH  18  19
ENDBRANCH  17  18
ENDBRANCH  16  17
ENDBRANCH  14  16
ENDBRANCH  13  14
ENDBRANCH   9  13
ENDBRANCH   2   3
TORSDOF 10
ENDMDL
MODEL       30
REMARK 921   NORMALIZED FREE ENERGY PREDICTED BY IDOCK:   -5.77 KCAL/MOL
REMARK 922        TOTAL FREE ENERGY PREDICTED BY IDOCK:  -11.11 KCAL/MOL
REMARK 923 INTER-LIGAND FREE ENERGY PREDICTED BY IDOCK:   -9.86 KCAL/MOL
REMARK 924 INTRA-LIGAND FREE ENERGY PREDICTED BY IDOCK:   -1.26 KCAL/MOL
REMARK 927      BINDING AFFINITY PREDICTED BY RF-SCORE:    0.00 PKD
ROOT
HETATM    1  C   UNL     1     -10.138   4.344  66.243  1.00  0.00    -0.225 C  
HETATM    2  O   UNL     1     -10.595   5.687  66.112  1.00  0.00    -0.140 OA 
ENDROOT
BRANCH   2   3
HETATM    3  C   UNL     1     -10.556   6.484  67.228  1.00  0.00    -0.315 A  
HETATM    4  C   UNL     1     -10.116   7.833  67.307  1.00  0.00    -0.238 A  
HETATM    5  C   UNL     1     -11.031   5.822  68.394  1.00  0.00    -0.159 A  
HETATM    6  C   UNL     1     -10.089   8.471  68.548  1.00  0.00    -0.214 A  
HETATM    7  C   UNL     1     -11.004   6.510  69.592  1.00  0.00    -0.394 A  
HETATM    8  C   UNL     1     -10.470   7.759  69.651  1.00  0.00    -0.229 A  
HETATM    9  C   UNL     1     -10.551   7.879  71.152  1.00  0.00    -0.238 C  
HETATM   10  C   UNL     1     -11.411   6.541  71.048  1.00  0.00    -0.378 C  
BRANCH   4  11
HETATM   11  O   UNL     1      -9.759   8.515  66.174  1.00  0.00    -0.241 OA 
HETATM   12  C   UNL     1      -9.877   9.936  66.228  1.00  0.00    -0.245 C  
ENDBRANCH   4  11
BRANCH   9  13
HETATM   13  C   UNL     1     -10.983   9.320  71.459  1.00  0.00    -0.375 C  
BRANCH  13  14
HETATM   14  N   UNL     1     -12.357   9.704  71.132  1.00  0.00    -0.323 NA 
HETATM   15  C   UNL     1     -13.300   9.254  72.141  1.00  0.00    -0.468 C  
BRANCH  14  16
HETATM   16  C   UNL     1     -12.495  11.098  70.693  1.00  0.00    -0.356 C  
BRANCH  16  17
HETATM   17  C   UNL     1     -11.384  11.503  69.728  1.00  0.00    -0.303 C  
BRANCH  17  18
HETATM   18  C   UNL     1     -11.905  12.139  68.433  1.00  0.00    -0.303 C  
BRANCH  18  19
HETATM   19  N   UNL     1     -11.279  13.450  68.250  1.00  0.00    -0.263 N  
HETATM   20  C   UNL     1     -10.577  13.686  66.993  1.00  0.00    -0.274 C  
HETATM   21  C   UNL     1      -9.112  14.024  67.211  1.00  0.00    -0.224 C  
HETATM   22  C   UNL     1      -8.997  15.512  67.392  1.00  0.00    -0.203 A  
HETATM   23  C   UNL     1      -8.270  16.244  66.444  1.00  0.00    -0.354 A  
HETATM   24  C   UNL     1      -8.172  17.633  66.524  1.00  0.00    -0.273 A  
HETATM   25  C   UNL     1      -8.818  18.309  67.573  1.00  0.00    -0.253 A  
HETATM   26  O   UNL     1     -12.577  14.493  69.816  1.00  0.00    -0.266 OA 
HETATM   27  C   UNL     1     -11.537  14.472  69.152  1.00  0.00    -0.298 C  
HETATM   28  C   UNL     1      -9.549  17.573  68.520  1.00  0.00    -0.305 A  
HETATM   29  C   UNL     1     -10.392  15.411  69.516  1.00  0.00    -0.269 C  
HETATM   30  C   UNL     1      -9.660  16.172  68.434  1.00  0.00    -0.209 A  
BRANCH  24  31
HETATM   31  O   UNL     1      -7.501  18.393  65.597  1.00  0.00    -0.521 OA 
HETATM   32  C   UNL     1      -6.082  18.282  65.596  1.00  0.00    -0.241 C  
ENDBRANCH  24  31
BRANCH  25  33
HETATM   33  O   UNL     1      -8.672  19.674  67.595  1.00  0.00    -0.305 OA 
HETATM   34  C   UNL     1      -9.822  20.462  67.318  1.00  0.00    -0.456 C  
ENDBRANCH  25  33
ENDBRANCH  18  19
ENDBRANCH  17  18
ENDBRANCH  16  17
ENDBRANCH  14  16
ENDBRANCH  13  14
ENDBRANCH   9  13
ENDBRANCH   2   3
TORSDOF 10
ENDMDL
MODEL       31
REMARK 921   NORMALIZED FREE ENERGY PREDICTED BY IDOCK:   -5.77 KCAL/MOL
REMARK 922        TOTAL FREE ENERGY PREDICTED BY IDOCK:  -11.11 KCAL/MOL
REMARK 923 INTER-LIGAND FREE ENERGY PREDICTED BY IDOCK:   -9.92 KCAL/MOL
REMARK 924 INTRA-LIGAND FREE ENERGY PREDICTED BY IDOCK:   -1.19 KCAL/MOL
REMARK 927      BINDING AFFINITY PREDICTED BY RF-SCORE:    0.00 PKD
ROOT
HETATM    1  C   UNL     1      -9.954   6.608  74.145  1.00  0.00    -0.335 C  
HETATM    2  O   UNL     1     -10.957   7.544  73.761  1.00  0.00    -0.266 OA 
ENDROOT
BRANCH   2   3
HETATM    3  C   UNL     1     -10.807   8.178  72.554  1.00  0.00    -0.361 A  
HETATM    4  C   UNL     1     -11.837   8.634  71.687  1.00  0.00    -0.323 A  
HETATM    5  C   UNL     1      -9.444   8.375  72.201  1.00  0.00    -0.360 A  
HETATM    6  C   UNL     1     -11.495   9.207  70.462  1.00  0.00    -0.271 A  
HETATM    7  C   UNL     1      -9.162   8.970  70.986  1.00  0.00    -0.331 A  
HETATM    8  C   UNL     1     -10.170   9.288  70.132  1.00  0.00    -0.251 A  
HETATM    9  C   UNL     1      -9.270   9.691  68.991  1.00  0.00    -0.156 C  
HETATM   10  C   UNL     1      -8.112   9.570  70.079  1.00  0.00    -0.176 C  
BRANCH   4  11
HETATM   11  O   UNL     1     -13.151   8.548  72.064  1.00  0.00    -0.338 OA 
HETATM   12  C   UNL     1     -13.913   7.499  71.468  1.00  0.00    -0.410 C  
ENDBRANCH   4  11
BRANCH   9  13
HETATM   13  C   UNL     1      -9.902  10.930  68.343  1.00  0.00    -0.177 C  
BRANCH  13  14
HETATM   14  N   UNL     1      -9.870  11.027  66.883  1.00  0.00    -0.188 NA 
HETATM   15  C   UNL     1      -9.726   9.724  66.256  1.00  0.00    -0.234 C  
BRANCH  14  16
HETATM   16  C   UNL     1     -10.906  11.904  66.322  1.00  0.00    -0.282 C  
BRANCH  16  17
HETATM   17  C   UNL     1     -11.575  12.752  67.400  1.00  0.00    -0.415 C  
BRANCH  17  18
HETATM   18  C   UNL     1     -12.138  14.077  66.869  1.00  0.00    -0.430 C  
BRANCH  18  19
HETATM   19  N   UNL     1     -11.171  15.150  67.116  1.00  0.00    -0.336 N  
HETATM   20  C   UNL     1     -10.458  15.685  65.962  1.00  0.00    -0.331 C  
HETATM   21  C   UNL     1      -8.953  15.530  66.098  1.00  0.00    -0.329 C  
HETATM   22  C   UNL     1      -8.419  16.739  66.813  1.00  0.00    -0.268 A  
HETATM   23  C   UNL     1      -7.535  17.583  66.127  1.00  0.00    -0.334 A  
HETATM   24  C   UNL     1      -7.048  18.750  66.714  1.00  0.00    -0.213 A  
HETATM   25  C   UNL     1      -7.456  19.087  68.017  1.00  0.00    -0.260 A  
HETATM   26  O   UNL     1     -12.090  15.765  69.117  1.00  0.00    -0.353 OA 
HETATM   27  C   UNL     1     -11.113  15.753  68.364  1.00  0.00    -0.341 C  
HETATM   28  C   UNL     1      -8.345  18.242  68.700  1.00  0.00    -0.305 A  
HETATM   29  C   UNL     1      -9.741  16.148  68.903  1.00  0.00    -0.242 C  
HETATM   30  C   UNL     1      -8.847  17.069  68.105  1.00  0.00    -0.227 A  
BRANCH  24  31
HETATM   31  O   UNL     1      -6.210  19.624  66.065  1.00  0.00    -0.177 OA 
HETATM   32  C   UNL     1      -5.713  19.200  64.800  1.00  0.00    -0.260 C  
ENDBRANCH  24  31
BRANCH  25  33
HETATM   33  O   UNL     1      -6.931  20.244  68.535  1.00  0.00    -0.282 OA 
HETATM   34  C   UNL     1      -6.041  20.126  69.637  1.00  0.00    -0.354 C  
ENDBRANCH  25  33
ENDBRANCH  18  19
ENDBRANCH  17  18
ENDBRANCH  16  17
ENDBRANCH  14  16
ENDBRANCH  13  14
ENDBRANCH   9  13
ENDBRANCH   2   3
TORSDOF 10
ENDMDL
MODEL       32
REMARK 921   NORMALIZED FREE ENERGY PREDICTED BY IDOCK:   -5.77 KCAL/MOL
REMARK 922        TOTAL FREE ENERGY PREDICTED BY IDOCK:  -11.10 KCAL/MOL
REMARK 923 INTER-LIGAND FREE ENERGY PREDICTED BY IDOCK:   -9.65 KCAL/MOL
REMARK 924 INTRA-LIGAND FREE ENERGY PREDICTED BY IDOCK:   -1.45 KCAL/MOL
REMARK 927      BINDING AFFINITY PREDICTED BY RF-SCORE:    0.00 PKD
ROOT
HETATM    1  C   UNL     1     -13.240  10.774  71.822  1.00  0.00    -0.418 C  
HETATM    2  O   UNL     1     -12.799   9.596  72.490  1.00  0.00    -0.302 OA 
ENDROOT
BRANCH   2   3
HETATM    3  C   UNL     1     -11.886   8.802  71.845  1.00  0.00    -0.367 A  
HETATM    4  C   UNL     1     -12.012   7.421  71.534  1.00  0.00    -0.307 A  
HETATM    5  C   UNL     1     -10.711   9.510  71.469  1.00  0.00    -0.269 A  
HETATM    6  C   UNL     1     -10.947   6.758  70.924  1.00  0.00    -0.303 A  
HETATM    7  C   UNL     1      -9.696   8.809  70.846  1.00  0.00    -0.277 A  
HETATM    8  C   UNL     1      -9.805   7.466  70.667  1.00  0.00    -0.179 A  
HETATM    9  C   UNL     1      -8.401   7.275  70.152  1.00  0.00    -0.137 C  
HETATM   10  C   UNL     1      -8.374   8.868  70.114  1.00  0.00    -0.142 C  
BRANCH   4  11
HETATM   11  O   UNL     1     -13.181   6.755  71.793  1.00  0.00    -0.316 OA 
HETATM   12  C   UNL     1     -14.387   7.448  71.475  1.00  0.00    -0.440 C  
ENDBRANCH   4  11
BRANCH   9  13
HETATM   13  C   UNL     1      -8.482   6.253  69.010  1.00  0.00    -0.120 C  
BRANCH  13  14
HETATM   14  N   UNL     1      -8.638   6.764  67.647  1.00  0.00    -0.121 NA 
HETATM   15  C   UNL     1      -7.667   6.182  66.736  1.00  0.00    -0.103 C  
BRANCH  14  16
HETATM   16  C   UNL     1     -10.029   6.791  67.179  1.00  0.00    -0.167 C  
BRANCH  16  17
HETATM   17  C   UNL     1     -10.633   8.190  67.277  1.00  0.00    -0.344 C  
BRANCH  17  18
HETATM   18  C   UNL     1     -10.125   9.149  66.194  1.00  0.00    -0.208 C  
BRANCH  18  19
HETATM   19  N   UNL     1     -10.369  10.531  66.615  1.00  0.00    -0.236 N  
HETATM   20  C   UNL     1     -10.563  10.770  68.041  1.00  0.00    -0.207 C  
HETATM   21  C   UNL     1     -11.914  11.398  68.337  1.00  0.00    -0.270 C  
HETATM   22  C   UNL     1     -11.767  12.892  68.249  1.00  0.00    -0.390 A  
HETATM   23  C   UNL     1     -11.978  13.651  69.407  1.00  0.00    -0.394 A  
HETATM   24  C   UNL     1     -11.803  15.035  69.405  1.00  0.00    -0.329 A  
HETATM   25  C   UNL     1     -11.403  15.676  68.221  1.00  0.00    -0.356 A  
HETATM   26  O   UNL     1      -9.455  11.459  64.736  1.00  0.00    -0.216 OA 
HETATM   27  C   UNL     1     -10.206  11.569  65.710  1.00  0.00    -0.249 C  
HETATM   28  C   UNL     1     -11.187  14.912  67.063  1.00  0.00    -0.344 A  
HETATM   29  C   UNL     1     -11.184  12.738  65.779  1.00  0.00    -0.341 C  
HETATM   30  C   UNL     1     -11.351  13.514  67.065  1.00  0.00    -0.348 A  
BRANCH  24  31
HETATM   31  O   UNL     1     -11.965  15.813  70.526  1.00  0.00    -0.344 OA 
HETATM   32  C   UNL     1     -13.074  15.497  71.360  1.00  0.00    -0.507 C  
ENDBRANCH  24  31
BRANCH  25  33
HETATM   33  O   UNL     1     -11.258  17.040  68.289  1.00  0.00    -0.267 OA 
HETATM   34  C   UNL     1     -10.080  17.604  67.729  1.00  0.00    -0.338 C  
ENDBRANCH  25  33
ENDBRANCH  18  19
ENDBRANCH  17  18
ENDBRANCH  16  17
ENDBRANCH  14  16
ENDBRANCH  13  14
ENDBRANCH   9  13
ENDBRANCH   2   3
TORSDOF 10
ENDMDL
MODEL       33
REMARK 921   NORMALIZED FREE ENERGY PREDICTED BY IDOCK:   -5.75 KCAL/MOL
REMARK 922        TOTAL FREE ENERGY PREDICTED BY IDOCK:  -11.08 KCAL/MOL
REMARK 923 INTER-LIGAND FREE ENERGY PREDICTED BY IDOCK:  -10.26 KCAL/MOL
REMARK 924 INTRA-LIGAND FREE ENERGY PREDICTED BY IDOCK:   -0.82 KCAL/MOL
REMARK 927      BINDING AFFINITY PREDICTED BY RF-SCORE:    0.00 PKD
ROOT
HETATM    1  C   UNL     1     -10.381  19.590  66.733  1.00  0.00    -0.462 C  
HETATM    2  O   UNL     1     -10.027  18.658  67.751  1.00  0.00    -0.317 OA 
ENDROOT
BRANCH   2   3
HETATM    3  C   UNL     1     -10.369  17.344  67.558  1.00  0.00    -0.351 A  
HETATM    4  C   UNL     1     -10.825  16.420  68.537  1.00  0.00    -0.339 A  
HETATM    5  C   UNL     1     -10.237  16.935  66.203  1.00  0.00    -0.352 A  
HETATM    6  C   UNL     1     -11.068  15.098  68.168  1.00  0.00    -0.306 A  
HETATM    7  C   UNL     1     -10.515  15.618  65.888  1.00  0.00    -0.358 A  
HETATM    8  C   UNL     1     -10.837  14.735  66.870  1.00  0.00    -0.316 A  
HETATM    9  C   UNL     1     -10.831  13.519  65.977  1.00  0.00    -0.282 C  
HETATM   10  C   UNL     1     -10.717  14.587  64.800  1.00  0.00    -0.414 C  
BRANCH   4  11
HETATM   11  O   UNL     1     -11.060  16.831  69.823  1.00  0.00    -0.243 OA 
HETATM   12  C   UNL     1     -11.558  15.840  70.721  1.00  0.00    -0.398 C  
ENDBRANCH   4  11
BRANCH   9  13
HETATM   13  C   UNL     1     -12.010  12.641  66.415  1.00  0.00    -0.357 C  
BRANCH  13  14
HETATM   14  N   UNL     1     -11.729  11.518  67.312  1.00  0.00    -0.603 NA 
HETATM   15  C   UNL     1     -10.511  10.819  66.938  1.00  0.00    -0.252 C  
BRANCH  14  16
HETATM   16  C   UNL     1     -11.876  11.843  68.736  1.00  0.00    -0.313 C  
BRANCH  16  17
HETATM   17  C   UNL     1     -11.234  10.785  69.629  1.00  0.00    -0.355 C  
BRANCH  17  18
HETATM   18  C   UNL     1     -11.953  10.607  70.972  1.00  0.00    -0.339 C  
BRANCH  18  19
HETATM   19  N   UNL     1     -11.694   9.260  71.487  1.00  0.00    -0.353 N  
HETATM   20  C   UNL     1     -10.302   8.891  71.721  1.00  0.00    -0.356 C  
HETATM   21  C   UNL     1      -9.887   7.678  70.906  1.00  0.00    -0.179 C  
HETATM   22  C   UNL     1     -10.202   6.445  71.706  1.00  0.00    -0.222 A  
HETATM   23  C   UNL     1      -9.141   5.625  72.111  1.00  0.00    -0.147 A  
HETATM   24  C   UNL     1      -9.361   4.498  72.903  1.00  0.00    -0.126 A  
HETATM   25  C   UNL     1     -10.671   4.183  73.304  1.00  0.00    -0.210 A  
HETATM   26  O   UNL     1     -13.803   8.974  72.321  1.00  0.00    -0.445 OA 
HETATM   27  C   UNL     1     -12.748   8.471  71.924  1.00  0.00    -0.360 C  
HETATM   28  C   UNL     1     -11.731   5.010  72.900  1.00  0.00    -0.200 A  
HETATM   29  C   UNL     1     -12.688   6.974  71.635  1.00  0.00    -0.417 C  
HETATM   30  C   UNL     1     -11.511   6.155  72.111  1.00  0.00    -0.361 A  
BRANCH  24  31
HETATM   31  O   UNL     1      -8.347   3.687  73.352  1.00  0.00    -0.082 OA 
HETATM   32  C   UNL     1      -7.450   3.189  72.364  1.00  0.00    -0.056 C  
ENDBRANCH  24  31
BRANCH  25  33
HETATM   33  O   UNL     1     -10.814   3.056  74.074  1.00  0.00    -0.186 OA 
HETATM   34  C   UNL     1     -11.440   1.928  73.477  1.00  0.00    -0.207 C  
ENDBRANCH  25  33
ENDBRANCH  18  19
ENDBRANCH  17  18
ENDBRANCH  16  17
ENDBRANCH  14  16
ENDBRANCH  13  14
ENDBRANCH   9  13
ENDBRANCH   2   3
TORSDOF 10
ENDMDL
MODEL       34
REMARK 921   NORMALIZED FREE ENERGY PREDICTED BY IDOCK:   -5.72 KCAL/MOL
REMARK 922        TOTAL FREE ENERGY PREDICTED BY IDOCK:  -11.03 KCAL/MOL
REMARK 923 INTER-LIGAND FREE ENERGY PREDICTED BY IDOCK:   -9.52 KCAL/MOL
REMARK 924 INTRA-LIGAND FREE ENERGY PREDICTED BY IDOCK:   -1.51 KCAL/MOL
REMARK 927      BINDING AFFINITY PREDICTED BY RF-SCORE:    0.00 PKD
ROOT
HETATM    1  C   UNL     1      -9.800   6.115  73.993  1.00  0.00    -0.223 C  
HETATM    2  O   UNL     1     -11.002   6.279  73.246  1.00  0.00    -0.254 OA 
ENDROOT
BRANCH   2   3
HETATM    3  C   UNL     1     -10.931   6.124  71.885  1.00  0.00    -0.263 A  
HETATM    4  C   UNL     1     -11.698   6.803  70.900  1.00  0.00    -0.372 A  
HETATM    5  C   UNL     1      -9.955   5.169  71.490  1.00  0.00    -0.248 A  
HETATM    6  C   UNL     1     -11.533   6.470  69.556  1.00  0.00    -0.384 A  
HETATM    7  C   UNL     1      -9.816   4.894  70.143  1.00  0.00    -0.309 A  
HETATM    8  C   UNL     1     -10.646   5.479  69.239  1.00  0.00    -0.325 A  
HETATM    9  C   UNL     1     -10.153   4.684  68.056  1.00  0.00    -0.077 C  
HETATM   10  C   UNL     1      -9.015   4.202  69.063  1.00  0.00    -0.163 C  
BRANCH   4  11
HETATM   11  O   UNL     1     -12.564   7.802  71.261  1.00  0.00    -0.311 OA 
HETATM   12  C   UNL     1     -13.904   7.405  71.546  1.00  0.00    -0.374 C  
ENDBRANCH   4  11
BRANCH   9  13
HETATM   13  C   UNL     1     -10.086   5.651  66.867  1.00  0.00    -0.193 C  
BRANCH  13  14
HETATM   14  N   UNL     1      -8.913   5.579  65.994  1.00  0.00    -0.149 NA 
HETATM   15  C   UNL     1      -9.101   4.627  64.912  1.00  0.00    -0.154 C  
BRANCH  14  16
HETATM   16  C   UNL     1      -8.373   6.891  65.615  1.00  0.00    -0.146 C  
BRANCH  16  17
HETATM   17  C   UNL     1      -9.056   8.026  66.372  1.00  0.00    -0.226 C  
BRANCH  17  18
HETATM   18  C   UNL     1      -9.471   9.195  65.470  1.00  0.00    -0.206 C  
BRANCH  18  19
HETATM   19  N   UNL     1     -10.019  10.275  66.295  1.00  0.00    -0.224 N  
HETATM   20  C   UNL     1     -10.043  10.067  67.738  1.00  0.00    -0.183 C  
HETATM   21  C   UNL     1     -11.450  10.144  68.304  1.00  0.00    -0.074 C  
HETATM   22  C   UNL     1     -11.740  11.578  68.647  1.00  0.00    -0.389 A  
HETATM   23  C   UNL     1     -11.968  11.910  69.989  1.00  0.00    -0.409 A  
HETATM   24  C   UNL     1     -12.187  13.230  70.380  1.00  0.00    -0.332 A  
HETATM   25  C   UNL     1     -12.174  14.247  69.410  1.00  0.00    -0.278 A  
HETATM   26  O   UNL     1      -9.711  11.891  64.708  1.00  0.00    -0.214 OA 
HETATM   27  C   UNL     1     -10.297  11.508  65.724  1.00  0.00    -0.248 C  
HETATM   28  C   UNL     1     -11.941  13.912  68.066  1.00  0.00    -0.390 A  
HETATM   29  C   UNL     1     -11.538  12.255  66.204  1.00  0.00    -0.450 C  
HETATM   30  C   UNL     1     -11.708  12.582  67.670  1.00  0.00    -0.423 A  
BRANCH  24  31
HETATM   31  O   UNL     1     -12.378  13.604  71.689  1.00  0.00    -0.238 OA 
HETATM   32  C   UNL     1     -13.636  13.269  72.264  1.00  0.00    -0.605 C  
ENDBRANCH  24  31
BRANCH  25  33
HETATM   33  O   UNL     1     -12.405  15.521  69.864  1.00  0.00    -0.357 OA 
HETATM   34  C   UNL     1     -11.273  16.319  70.185  1.00  0.00    -0.333 C  
ENDBRANCH  25  33
ENDBRANCH  18  19
ENDBRANCH  17  18
ENDBRANCH  16  17
ENDBRANCH  14  16
ENDBRANCH  13  14
ENDBRANCH   9  13
ENDBRANCH   2   3
TORSDOF 10
ENDMDL
MODEL       35
REMARK 921   NORMALIZED FREE ENERGY PREDICTED BY IDOCK:   -5.72 KCAL/MOL
REMARK 922        TOTAL FREE ENERGY PREDICTED BY IDOCK:  -11.03 KCAL/MOL
REMARK 923 INTER-LIGAND FREE ENERGY PREDICTED BY IDOCK:   -8.79 KCAL/MOL
REMARK 924 INTRA-LIGAND FREE ENERGY PREDICTED BY IDOCK:   -2.24 KCAL/MOL
REMARK 927      BINDING AFFINITY PREDICTED BY RF-SCORE:    0.00 PKD
ROOT
HETATM    1  C   UNL     1     -11.609  16.043  64.299  1.00  0.00    -0.138 C  
HETATM    2  O   UNL     1     -12.237  14.791  64.039  1.00  0.00    -0.577 OA 
ENDROOT
BRANCH   2   3
HETATM    3  C   UNL     1     -11.964  13.753  64.893  1.00  0.00    -0.390 A  
HETATM    4  C   UNL     1     -11.465  12.466  64.553  1.00  0.00    -0.337 A  
HETATM    5  C   UNL     1     -12.224  14.076  66.253  1.00  0.00    -0.493 A  
HETATM    6  C   UNL     1     -11.305  11.508  65.555  1.00  0.00    -0.151 A  
HETATM    7  C   UNL     1     -12.025  13.097  67.208  1.00  0.00    -0.389 A  
HETATM    8  C   UNL     1     -11.657  11.843  66.833  1.00  0.00    -0.358 A  
HETATM    9  C   UNL     1     -11.785  11.239  68.208  1.00  0.00    -0.344 C  
HETATM   10  C   UNL     1     -11.954  12.752  68.678  1.00  0.00    -0.272 C  
BRANCH   4  11
HETATM   11  O   UNL     1     -11.108  12.178  63.262  1.00  0.00    -0.410 OA 
HETATM   12  C   UNL     1      -9.834  11.562  63.081  1.00  0.00    -0.390 C  
ENDBRANCH   4  11
BRANCH   9  13
HETATM   13  C   UNL     1     -10.608  10.268  68.378  1.00  0.00    -0.216 C  
BRANCH  13  14
HETATM   14  N   UNL     1      -9.953  10.212  69.686  1.00  0.00    -0.233 NA 
HETATM   15  C   UNL     1     -10.853   9.738  70.723  1.00  0.00    -0.333 C  
BRANCH  14  16
HETATM   16  C   UNL     1      -8.619   9.599  69.657  1.00  0.00    -0.187 C  
BRANCH  16  17
HETATM   17  C   UNL     1      -7.512  10.641  69.788  1.00  0.00    -0.088 C  
BRANCH  17  18
HETATM   18  C   UNL     1      -7.006  11.164  68.438  1.00  0.00    -0.072 C  
BRANCH  18  19
HETATM   19  N   UNL     1      -7.136  12.622  68.401  1.00  0.00    -0.093 N  
HETATM   20  C   UNL     1      -8.474  13.169  68.209  1.00  0.00    -0.161 C  
HETATM   21  C   UNL     1      -8.565  14.036  66.965  1.00  0.00    -0.193 C  
HETATM   22  C   UNL     1      -8.197  15.443  67.346  1.00  0.00    -0.205 A  
HETATM   23  C   UNL     1      -9.170  16.443  67.225  1.00  0.00    -0.224 A  
HETATM   24  C   UNL     1      -8.910  17.756  67.613  1.00  0.00    -0.248 A  
HETATM   25  C   UNL     1      -7.647  18.080  68.140  1.00  0.00    -0.259 A  
HETATM   26  O   UNL     1      -5.166  13.008  69.497  1.00  0.00    -0.075 OA 
HETATM   27  C   UNL     1      -6.056  13.421  68.748  1.00  0.00    -0.086 C  
HETATM   28  C   UNL     1      -6.675  17.075  68.264  1.00  0.00    -0.158 A  
HETATM   29  C   UNL     1      -5.840  14.711  67.962  1.00  0.00    -0.154 C  
HETATM   30  C   UNL     1      -6.939  15.746  67.884  1.00  0.00    -0.157 A  
BRANCH  24  31
HETATM   31  O   UNL     1      -9.846  18.759  67.546  1.00  0.00    -0.303 OA 
HETATM   32  C   UNL     1     -10.372  19.047  66.254  1.00  0.00    -0.459 C  
ENDBRANCH  24  31
BRANCH  25  33
HETATM   33  O   UNL     1      -7.457  19.393  68.494  1.00  0.00    -0.303 OA 
HETATM   34  C   UNL     1      -6.425  19.679  69.427  1.00  0.00    -0.335 C  
ENDBRANCH  25  33
ENDBRANCH  18  19
ENDBRANCH  17  18
ENDBRANCH  16  17
ENDBRANCH  14  16
ENDBRANCH  13  14
ENDBRANCH   9  13
ENDBRANCH   2   3
TORSDOF 10
ENDMDL
MODEL       36
REMARK 921   NORMALIZED FREE ENERGY PREDICTED BY IDOCK:   -5.71 KCAL/MOL
REMARK 922        TOTAL FREE ENERGY PREDICTED BY IDOCK:  -11.01 KCAL/MOL
REMARK 923 INTER-LIGAND FREE ENERGY PREDICTED BY IDOCK:   -9.81 KCAL/MOL
REMARK 924 INTRA-LIGAND FREE ENERGY PREDICTED BY IDOCK:   -1.20 KCAL/MOL
REMARK 927      BINDING AFFINITY PREDICTED BY RF-SCORE:    0.00 PKD
ROOT
HETATM    1  C   UNL     1     -10.012  19.963  68.299  1.00  0.00    -0.432 C  
HETATM    2  O   UNL     1      -9.874  18.684  68.909  1.00  0.00    -0.382 OA 
ENDROOT
BRANCH   2   3
HETATM    3  C   UNL     1     -10.372  17.599  68.234  1.00  0.00    -0.384 A  
HETATM    4  C   UNL     1     -10.914  16.410  68.793  1.00  0.00    -0.344 A  
HETATM    5  C   UNL     1     -10.317  17.758  66.821  1.00  0.00    -0.343 A  
HETATM    6  C   UNL     1     -11.319  15.379  67.945  1.00  0.00    -0.328 A  
HETATM    7  C   UNL     1     -10.754  16.713  66.029  1.00  0.00    -0.153 A  
HETATM    8  C   UNL     1     -11.158  15.547  66.598  1.00  0.00    -0.193 A  
HETATM    9  C   UNL     1     -11.313  14.799  65.298  1.00  0.00    -0.363 C  
HETATM   10  C   UNL     1     -11.098  16.233  64.637  1.00  0.00    -0.259 C  
BRANCH   4  11
HETATM   11  O   UNL     1     -11.073  16.290  70.149  1.00  0.00    -0.347 OA 
HETATM   12  C   UNL     1     -12.163  15.480  70.587  1.00  0.00    -0.402 C  
ENDBRANCH   4  11
BRANCH   9  13
HETATM   13  C   UNL     1     -12.579  13.941  65.428  1.00  0.00    -0.507 C  
BRANCH  13  14
HETATM   14  N   UNL     1     -12.438  12.491  65.278  1.00  0.00    -0.647 NA 
HETATM   15  C   UNL     1     -12.403  12.092  63.882  1.00  0.00    -0.450 C  
BRANCH  14  16
HETATM   16  C   UNL     1     -11.411  11.902  66.146  1.00  0.00    -0.324 C  
BRANCH  16  17
HETATM   17  C   UNL     1     -11.901  11.748  67.583  1.00  0.00    -0.241 C  
BRANCH  17  18
HETATM   18  C   UNL     1     -10.799  11.963  68.628  1.00  0.00    -0.235 C  
BRANCH  18  19
HETATM   19  N   UNL     1     -10.701  10.778  69.483  1.00  0.00    -0.235 N  
HETATM   20  C   UNL     1      -9.504   9.955  69.351  1.00  0.00    -0.213 C  
HETATM   21  C   UNL     1      -9.832   8.527  68.953  1.00  0.00    -0.181 C  
HETATM   22  C   UNL     1     -10.070   7.733  70.208  1.00  0.00    -0.195 A  
HETATM   23  C   UNL     1      -9.198   6.677  70.503  1.00  0.00    -0.156 A  
HETATM   24  C   UNL     1      -9.330   5.938  71.678  1.00  0.00    -0.149 A  
HETATM   25  C   UNL     1     -10.354   6.263  72.584  1.00  0.00    -0.199 A  
HETATM   26  O   UNL     1     -12.209  11.540  71.023  1.00  0.00    -0.344 OA 
HETATM   27  C   UNL     1     -11.617  10.588  70.508  1.00  0.00    -0.350 C  
HETATM   28  C   UNL     1     -11.224   7.325  72.288  1.00  0.00    -0.305 A  
HETATM   29  C   UNL     1     -12.089   9.165  70.791  1.00  0.00    -0.200 C  
HETATM   30  C   UNL     1     -11.085   8.080  71.108  1.00  0.00    -0.278 A  
BRANCH  24  31
HETATM   31  O   UNL     1      -8.476   4.919  72.024  1.00  0.00    -0.120 OA 
HETATM   32  C   UNL     1      -7.101   5.113  71.711  1.00  0.00    -0.074 C  
ENDBRANCH  24  31
BRANCH  25  33
HETATM   33  O   UNL     1     -10.431   5.489  73.716  1.00  0.00    -0.232 OA 
HETATM   34  C   UNL     1     -11.281   4.352  73.677  1.00  0.00    -0.251 C  
ENDBRANCH  25  33
ENDBRANCH  18  19
ENDBRANCH  17  18
ENDBRANCH  16  17
ENDBRANCH  14  16
ENDBRANCH  13  14
ENDBRANCH   9  13
ENDBRANCH   2   3
TORSDOF 10
ENDMDL
MODEL       37
REMARK 921   NORMALIZED FREE ENERGY PREDICTED BY IDOCK:   -5.70 KCAL/MOL
REMARK 922        TOTAL FREE ENERGY PREDICTED BY IDOCK:  -11.00 KCAL/MOL
REMARK 923 INTER-LIGAND FREE ENERGY PREDICTED BY IDOCK:   -8.34 KCAL/MOL
REMARK 924 INTRA-LIGAND FREE ENERGY PREDICTED BY IDOCK:   -2.66 KCAL/MOL
REMARK 927      BINDING AFFINITY PREDICTED BY RF-SCORE:    0.00 PKD
ROOT
HETATM    1  C   UNL     1     -11.021  16.459  69.810  1.00  0.00    -0.341 C  
HETATM    2  O   UNL     1     -11.642  15.993  68.616  1.00  0.00    -0.386 OA 
ENDROOT
BRANCH   2   3
HETATM    3  C   UNL     1     -11.553  14.654  68.333  1.00  0.00    -0.323 A  
HETATM    4  C   UNL     1     -11.322  14.055  67.065  1.00  0.00    -0.330 A  
HETATM    5  C   UNL     1     -11.712  13.837  69.486  1.00  0.00    -0.380 A  
HETATM    6  C   UNL     1     -11.325  12.664  66.956  1.00  0.00    -0.377 A  
HETATM    7  C   UNL     1     -11.683  12.465  69.324  1.00  0.00    -0.386 A  
HETATM    8  C   UNL     1     -11.574  11.927  68.081  1.00  0.00    -0.400 A  
HETATM    9  C   UNL     1     -11.782  10.500  68.523  1.00  0.00    -0.125 C  
HETATM   10  C   UNL     1     -11.643  11.108  69.990  1.00  0.00    -0.421 C  
BRANCH   4  11
HETATM   11  O   UNL     1     -11.059  14.831  65.967  1.00  0.00    -0.322 OA 
HETATM   12  C   UNL     1     -10.471  14.167  64.850  1.00  0.00    -0.438 C  
ENDBRANCH   4  11
BRANCH   9  13
HETATM   13  C   UNL     1     -10.812   9.636  67.706  1.00  0.00    -0.217 C  
BRANCH  13  14
HETATM   14  N   UNL     1      -9.775   8.903  68.434  1.00  0.00    -0.157 NA 
HETATM   15  C   UNL     1      -9.906   7.466  68.263  1.00  0.00    -0.160 C  
BRANCH  14  16
HETATM   16  C   UNL     1      -8.425   9.453  68.260  1.00  0.00    -0.120 C  
BRANCH  16  17
HETATM   17  C   UNL     1      -8.082  10.469  69.347  1.00  0.00    -0.136 C  
BRANCH  17  18
HETATM   18  C   UNL     1      -6.695  11.101  69.173  1.00  0.00    -0.092 C  
BRANCH  18  19
HETATM   19  N   UNL     1      -6.829  12.559  69.113  1.00  0.00    -0.091 N  
HETATM   20  C   UNL     1      -7.964  13.095  68.371  1.00  0.00    -0.130 C  
HETATM   21  C   UNL     1      -7.526  13.995  67.228  1.00  0.00    -0.054 C  
HETATM   22  C   UNL     1      -7.391  15.395  67.758  1.00  0.00    -0.180 A  
HETATM   23  C   UNL     1      -8.238  16.386  67.247  1.00  0.00    -0.193 A  
HETATM   24  C   UNL     1      -8.201  17.692  67.736  1.00  0.00    -0.225 A  
HETATM   25  C   UNL     1      -7.300  18.016  68.765  1.00  0.00    -0.273 A  
HETATM   26  O   UNL     1      -5.539  12.936  70.962  1.00  0.00    -0.208 OA 
HETATM   27  C   UNL     1      -6.025  13.360  69.910  1.00  0.00    -0.133 C  
HETATM   28  C   UNL     1      -6.455  17.019  69.279  1.00  0.00    -0.231 A  
HETATM   29  C   UNL     1      -5.519  14.674  69.322  1.00  0.00    -0.088 C  
HETATM   30  C   UNL     1      -6.498  15.698  68.795  1.00  0.00    -0.109 A  
BRANCH  24  31
HETATM   31  O   UNL     1      -9.038  18.685  67.289  1.00  0.00    -0.272 OA 
HETATM   32  C   UNL     1     -10.157  18.268  66.514  1.00  0.00    -0.385 C  
ENDBRANCH  24  31
BRANCH  25  33
HETATM   33  O   UNL     1      -7.312  19.320  69.192  1.00  0.00    -0.346 OA 
HETATM   34  C   UNL     1      -6.081  20.031  69.166  1.00  0.00    -0.310 C  
ENDBRANCH  25  33
ENDBRANCH  18  19
ENDBRANCH  17  18
ENDBRANCH  16  17
ENDBRANCH  14  16
ENDBRANCH  13  14
ENDBRANCH   9  13
ENDBRANCH   2   3
TORSDOF 10
ENDMDL
MODEL       38
REMARK 921   NORMALIZED FREE ENERGY PREDICTED BY IDOCK:   -5.70 KCAL/MOL
REMARK 922        TOTAL FREE ENERGY PREDICTED BY IDOCK:  -11.00 KCAL/MOL
REMARK 923 INTER-LIGAND FREE ENERGY PREDICTED BY IDOCK:  -10.14 KCAL/MOL
REMARK 924 INTRA-LIGAND FREE ENERGY PREDICTED BY IDOCK:   -0.86 KCAL/MOL
REMARK 927      BINDING AFFINITY PREDICTED BY RF-SCORE:    0.00 PKD
ROOT
HETATM    1  C   UNL     1     -10.887   4.938  72.715  1.00  0.00    -0.228 C  
HETATM    2  O   UNL     1     -10.563   5.616  71.504  1.00  0.00    -0.230 OA 
ENDROOT
BRANCH   2   3
HETATM    3  C   UNL     1     -10.887   6.945  71.413  1.00  0.00    -0.228 A  
HETATM    4  C   UNL     1     -10.024   8.020  71.067  1.00  0.00    -0.182 A  
HETATM    5  C   UNL     1     -12.256   7.199  71.703  1.00  0.00    -0.385 A  
HETATM    6  C   UNL     1     -10.517   9.325  71.086  1.00  0.00    -0.401 A  
HETATM    7  C   UNL     1     -12.697   8.509  71.683  1.00  0.00    -0.365 A  
HETATM    8  C   UNL     1     -11.817   9.521  71.460  1.00  0.00    -0.478 A  
HETATM    9  C   UNL     1     -12.801  10.629  71.739  1.00  0.00    -0.549 C  
HETATM   10  C   UNL     1     -13.876   9.453  71.736  1.00  0.00    -0.357 C  
BRANCH   4  11
HETATM   11  O   UNL     1      -8.732   7.777  70.682  1.00  0.00    -0.136 OA 
HETATM   12  C   UNL     1      -7.760   8.739  71.089  1.00  0.00    -0.123 C  
ENDBRANCH   4  11
BRANCH   9  13
HETATM   13  C   UNL     1     -12.530  11.733  70.708  1.00  0.00    -0.312 C  
BRANCH  13  14
HETATM   14  N   UNL     1     -12.900  13.104  71.064  1.00  0.00    -0.262 NA 
HETATM   15  C   UNL     1     -13.626  13.161  72.321  1.00  0.00    -0.581 C  
BRANCH  14  16
HETATM   16  C   UNL     1     -11.809  14.075  70.903  1.00  0.00    -0.173 C  
BRANCH  16  17
HETATM   17  C   UNL     1     -12.109  15.088  69.802  1.00  0.00    -0.354 C  
BRANCH  17  18
HETATM   18  C   UNL     1     -11.567  14.671  68.429  1.00  0.00    -0.323 C  
BRANCH  18  19
HETATM   19  N   UNL     1     -10.469  15.564  68.048  1.00  0.00    -0.254 N  
HETATM   20  C   UNL     1     -10.103  16.613  68.993  1.00  0.00    -0.293 C  
HETATM   21  C   UNL     1     -10.238  18.000  68.389  1.00  0.00    -0.399 C  
HETATM   22  C   UNL     1      -8.939  18.347  67.716  1.00  0.00    -0.292 A  
HETATM   23  C   UNL     1      -8.202  19.431  68.210  1.00  0.00    -0.372 A  
HETATM   24  C   UNL     1      -6.963  19.769  67.667  1.00  0.00    -0.245 A  
HETATM   25  C   UNL     1      -6.444  19.005  66.607  1.00  0.00    -0.188 A  
HETATM   26  O   UNL     1      -9.576  14.115  66.522  1.00  0.00    -0.276 OA 
HETATM   27  C   UNL     1      -9.695  15.272  66.935  1.00  0.00    -0.233 C  
HETATM   28  C   UNL     1      -7.184  17.917  66.117  1.00  0.00    -0.339 A  
HETATM   29  C   UNL     1      -9.227  16.435  66.065  1.00  0.00    -0.328 C  
HETATM   30  C   UNL     1      -8.429  17.566  66.672  1.00  0.00    -0.288 A  
BRANCH  24  31
HETATM   31  O   UNL     1      -6.190  20.801  68.144  1.00  0.00    -0.292 OA 
HETATM   32  C   UNL     1      -5.710  20.666  69.477  1.00  0.00    -0.364 C  
ENDBRANCH  24  31
BRANCH  25  33
HETATM   33  O   UNL     1      -5.225  19.400  66.116  1.00  0.00    -0.149 OA 
HETATM   34  C   UNL     1      -5.192  19.959  64.810  1.00  0.00    -0.163 C  
ENDBRANCH  25  33
ENDBRANCH  18  19
ENDBRANCH  17  18
ENDBRANCH  16  17
ENDBRANCH  14  16
ENDBRANCH  13  14
ENDBRANCH   9  13
ENDBRANCH   2   3
TORSDOF 10
ENDMDL
MODEL       39
REMARK 921   NORMALIZED FREE ENERGY PREDICTED BY IDOCK:   -5.69 KCAL/MOL
REMARK 922        TOTAL FREE ENERGY PREDICTED BY IDOCK:  -10.99 KCAL/MOL
REMARK 923 INTER-LIGAND FREE ENERGY PREDICTED BY IDOCK:  -10.32 KCAL/MOL
REMARK 924 INTRA-LIGAND FREE ENERGY PREDICTED BY IDOCK:   -0.66 KCAL/MOL
REMARK 927      BINDING AFFINITY PREDICTED BY RF-SCORE:    0.00 PKD
ROOT
HETATM    1  C   UNL     1     -13.181  15.803  73.215  1.00  0.00    -0.581 C  
HETATM    2  O   UNL     1     -13.694  15.238  72.012  1.00  0.00    -0.404 OA 
ENDROOT
BRANCH   2   3
HETATM    3  C   UNL     1     -13.093  14.102  71.534  1.00  0.00    -0.353 A  
HETATM    4  C   UNL     1     -12.071  14.016  70.550  1.00  0.00    -0.353 A  
HETATM    5  C   UNL     1     -13.591  12.918  72.145  1.00  0.00    -0.589 A  
HETATM    6  C   UNL     1     -11.620  12.762  70.141  1.00  0.00    -0.130 A  
HETATM    7  C   UNL     1     -13.091  11.702  71.718  1.00  0.00    -0.487 A  
HETATM    8  C   UNL     1     -12.198  11.653  70.694  1.00  0.00    -0.461 A  
HETATM    9  C   UNL     1     -12.190  10.149  70.584  1.00  0.00    -0.394 C  
HETATM   10  C   UNL     1     -13.021  10.209  71.942  1.00  0.00    -0.549 C  
BRANCH   4  11
HETATM   11  O   UNL     1     -11.507  15.153  70.034  1.00  0.00    -0.250 OA 
HETATM   12  C   UNL     1     -12.151  15.715  68.891  1.00  0.00    -0.161 C  
ENDBRANCH   4  11
BRANCH   9  13
HETATM   13  C   UNL     1     -10.737   9.731  70.322  1.00  0.00    -0.302 C  
BRANCH  13  14
HETATM   14  N   UNL     1     -10.502   8.625  69.392  1.00  0.00    -0.219 NA 
HETATM   15  C   UNL     1     -11.135   7.397  69.842  1.00  0.00    -0.190 C  
BRANCH  14  16
HETATM   16  C   UNL     1     -10.708   8.980  67.983  1.00  0.00    -0.125 C  
BRANCH  16  17
HETATM   17  C   UNL     1      -9.698  10.021  67.507  1.00  0.00    -0.189 C  
BRANCH  17  18
HETATM   18  C   UNL     1     -10.256  10.961  66.430  1.00  0.00    -0.238 C  
BRANCH  18  19
HETATM   19  N   UNL     1      -9.915  12.345  66.768  1.00  0.00    -0.221 N  
HETATM   20  C   UNL     1     -10.848  13.384  66.350  1.00  0.00    -0.289 C  
HETATM   21  C   UNL     1     -10.195  14.403  65.431  1.00  0.00    -0.408 C  
HETATM   22  C   UNL     1      -9.591  15.484  66.283  1.00  0.00    -0.338 A  
HETATM   23  C   UNL     1     -10.095  16.785  66.164  1.00  0.00    -0.360 A  
HETATM   24  C   UNL     1      -9.617  17.821  66.966  1.00  0.00    -0.284 A  
HETATM   25  C   UNL     1      -8.613  17.552  67.912  1.00  0.00    -0.239 A  
HETATM   26  O   UNL     1      -8.489  11.772  68.461  1.00  0.00    -0.158 OA 
HETATM   27  C   UNL     1      -8.859  12.605  67.629  1.00  0.00    -0.184 C  
HETATM   28  C   UNL     1      -8.113  16.245  68.032  1.00  0.00    -0.150 A  
HETATM   29  C   UNL     1      -7.983  13.821  67.339  1.00  0.00    -0.175 C  
HETATM   30  C   UNL     1      -8.603  15.195  67.232  1.00  0.00    -0.218 A  
BRANCH  24  31
HETATM   31  O   UNL     1     -10.108  19.103  66.908  1.00  0.00    -0.327 OA 
HETATM   32  C   UNL     1     -10.775  19.471  65.706  1.00  0.00    -0.393 C  
ENDBRANCH  24  31
BRANCH  25  33
HETATM   33  O   UNL     1      -8.184  18.620  68.660  1.00  0.00    -0.328 OA 
HETATM   34  C   UNL     1      -6.799  18.938  68.616  1.00  0.00    -0.276 C  
ENDBRANCH  25  33
ENDBRANCH  18  19
ENDBRANCH  17  18
ENDBRANCH  16  17
ENDBRANCH  14  16
ENDBRANCH  13  14
ENDBRANCH   9  13
ENDBRANCH   2   3
TORSDOF 10
ENDMDL
MODEL       40
REMARK 921   NORMALIZED FREE ENERGY PREDICTED BY IDOCK:   -5.69 KCAL/MOL
REMARK 922        TOTAL FREE ENERGY PREDICTED BY IDOCK:  -10.98 KCAL/MOL
REMARK 923 INTER-LIGAND FREE ENERGY PREDICTED BY IDOCK:   -8.46 KCAL/MOL
REMARK 924 INTRA-LIGAND FREE ENERGY PREDICTED BY IDOCK:   -2.52 KCAL/MOL
REMARK 927      BINDING AFFINITY PREDICTED BY RF-SCORE:    0.00 PKD
ROOT
HETATM    1  C   UNL     1     -11.038   4.879  73.045  1.00  0.00    -0.295 C  
HETATM    2  O   UNL     1     -10.789   5.438  71.759  1.00  0.00    -0.231 OA 
ENDROOT
BRANCH   2   3
HETATM    3  C   UNL     1     -11.004   6.783  71.597  1.00  0.00    -0.235 A  
HETATM    4  C   UNL     1     -10.036   7.781  71.303  1.00  0.00    -0.175 A  
HETATM    5  C   UNL     1     -12.372   7.143  71.745  1.00  0.00    -0.385 A  
HETATM    6  C   UNL     1     -10.431   9.117  71.235  1.00  0.00    -0.398 A  
HETATM    7  C   UNL     1     -12.711   8.479  71.644  1.00  0.00    -0.365 A  
HETATM    8  C   UNL     1     -11.743   9.418  71.476  1.00  0.00    -0.465 A  
HETATM    9  C   UNL     1     -12.664  10.602  71.624  1.00  0.00    -0.531 C  
HETATM   10  C   UNL     1     -13.818   9.505  71.554  1.00  0.00    -0.262 C  
BRANCH   4  11
HETATM   11  O   UNL     1      -8.734   7.434  71.051  1.00  0.00    -0.136 OA 
HETATM   12  C   UNL     1      -7.736   8.171  71.756  1.00  0.00    -0.102 C  
ENDBRANCH   4  11
BRANCH   9  13
HETATM   13  C   UNL     1     -12.217  11.645  70.591  1.00  0.00    -0.366 C  
BRANCH  13  14
HETATM   14  N   UNL     1     -12.760  12.999  70.711  1.00  0.00    -0.220 NA 
HETATM   15  C   UNL     1     -13.186  13.295  72.068  1.00  0.00    -0.446 C  
BRANCH  14  16
HETATM   16  C   UNL     1     -11.945  14.027  70.051  1.00  0.00    -0.339 C  
BRANCH  16  17
HETATM   17  C   UNL     1     -12.067  13.959  68.531  1.00  0.00    -0.331 C  
BRANCH  17  18
HETATM   18  C   UNL     1     -10.717  14.054  67.808  1.00  0.00    -0.243 C  
BRANCH  18  19
HETATM   19  N   UNL     1     -10.135  12.715  67.686  1.00  0.00    -0.215 N  
HETATM   20  C   UNL     1     -10.832  11.758  66.834  1.00  0.00    -0.271 C  
HETATM   21  C   UNL     1     -11.259  10.517  67.598  1.00  0.00    -0.338 C  
HETATM   22  C   UNL     1     -10.130   9.525  67.550  1.00  0.00    -0.257 A  
HETATM   23  C   UNL     1     -10.342   8.305  66.895  1.00  0.00    -0.391 A  
HETATM   24  C   UNL     1      -9.319   7.366  66.767  1.00  0.00    -0.160 A  
HETATM   25  C   UNL     1      -8.051   7.653  67.301  1.00  0.00    -0.119 A  
HETATM   26  O   UNL     1      -8.042  13.368  68.335  1.00  0.00    -0.144 OA 
HETATM   27  C   UNL     1      -8.870  12.463  68.197  1.00  0.00    -0.191 C  
HETATM   28  C   UNL     1      -7.840   8.878  67.953  1.00  0.00    -0.102 A  
HETATM   29  C   UNL     1      -8.620  11.106  68.849  1.00  0.00    -0.092 C  
HETATM   30  C   UNL     1      -8.868   9.833  68.073  1.00  0.00    -0.119 A  
BRANCH  24  31
HETATM   31  O   UNL     1      -9.473   6.174  66.102  1.00  0.00    -0.147 OA 
HETATM   32  C   UNL     1     -10.298   5.200  66.733  1.00  0.00    -0.261 C  
ENDBRANCH  24  31
BRANCH  25  33
HETATM   33  O   UNL     1      -7.094   6.681  67.146  1.00  0.00    -0.072 OA 
HETATM   34  C   UNL     1      -6.664   5.991  68.311  1.00  0.00    -0.061 C  
ENDBRANCH  25  33
ENDBRANCH  18  19
ENDBRANCH  17  18
ENDBRANCH  16  17
ENDBRANCH  14  16
ENDBRANCH  13  14
ENDBRANCH   9  13
ENDBRANCH   2   3
TORSDOF 10
ENDMDL
MODEL       41
REMARK 921   NORMALIZED FREE ENERGY PREDICTED BY IDOCK:   -5.69 KCAL/MOL
REMARK 922        TOTAL FREE ENERGY PREDICTED BY IDOCK:  -10.98 KCAL/MOL
REMARK 923 INTER-LIGAND FREE ENERGY PREDICTED BY IDOCK:  -10.16 KCAL/MOL
REMARK 924 INTRA-LIGAND FREE ENERGY PREDICTED BY IDOCK:   -0.82 KCAL/MOL
REMARK 927      BINDING AFFINITY PREDICTED BY RF-SCORE:    0.00 PKD
ROOT
HETATM    1  C   UNL     1      -9.358   3.310  68.731  1.00  0.00    -0.168 C  
HETATM    2  O   UNL     1      -9.897   4.212  69.693  1.00  0.00    -0.217 OA 
ENDROOT
BRANCH   2   3
HETATM    3  C   UNL     1     -10.111   5.508  69.301  1.00  0.00    -0.223 A  
HETATM    4  C   UNL     1     -10.798   6.523  70.020  1.00  0.00    -0.287 A  
HETATM    5  C   UNL     1      -9.548   5.798  68.028  1.00  0.00    -0.131 A  
HETATM    6  C   UNL     1     -10.974   7.777  69.433  1.00  0.00    -0.046 A  
HETATM    7  C   UNL     1      -9.732   7.063  67.504  1.00  0.00    -0.167 A  
HETATM    8  C   UNL     1     -10.492   7.973  68.169  1.00  0.00    -0.222 A  
HETATM    9  C   UNL     1     -10.471   9.007  67.072  1.00  0.00    -0.316 C  
HETATM   10  C   UNL     1      -9.373   8.054  66.419  1.00  0.00    -0.259 C  
BRANCH   4  11
HETATM   11  O   UNL     1     -11.251   6.289  71.292  1.00  0.00    -0.276 OA 
HETATM   12  C   UNL     1     -12.568   6.749  71.589  1.00  0.00    -0.333 C  
ENDBRANCH   4  11
BRANCH   9  13
HETATM   13  C   UNL     1     -10.325  10.375  67.753  1.00  0.00    -0.206 C  
BRANCH  13  14
HETATM   14  N   UNL     1     -11.501  11.245  67.794  1.00  0.00    -0.458 NA 
HETATM   15  C   UNL     1     -11.729  11.785  69.123  1.00  0.00    -0.325 C  
BRANCH  14  16
HETATM   16  C   UNL     1     -11.568  12.206  66.686  1.00  0.00    -0.350 C  
BRANCH  16  17
HETATM   17  C   UNL     1     -11.198  13.617  67.135  1.00  0.00    -0.327 C  
BRANCH  17  18
HETATM   18  C   UNL     1     -11.543  14.694  66.098  1.00  0.00    -0.332 C  
BRANCH  18  19
HETATM   19  N   UNL     1     -10.693  15.868  66.316  1.00  0.00    -0.295 N  
HETATM   20  C   UNL     1      -9.686  15.777  67.366  1.00  0.00    -0.223 C  
HETATM   21  C   UNL     1      -9.874  16.842  68.433  1.00  0.00    -0.266 C  
HETATM   22  C   UNL     1      -9.120  18.071  68.009  1.00  0.00    -0.274 A  
HETATM   23  C   UNL     1      -8.050  18.503  68.803  1.00  0.00    -0.287 A  
HETATM   24  C   UNL     1      -7.274  19.602  68.435  1.00  0.00    -0.320 A  
HETATM   25  C   UNL     1      -7.571  20.285  67.242  1.00  0.00    -0.311 A  
HETATM   26  O   UNL     1     -11.064  16.749  64.239  1.00  0.00    -1.106 OA 
HETATM   27  C   UNL     1     -10.724  16.921  65.413  1.00  0.00    -0.150 C  
HETATM   28  C   UNL     1      -8.641  19.847  66.446  1.00  0.00    -0.386 A  
HETATM   29  C   UNL     1     -10.608  18.338  65.964  1.00  0.00    -0.318 C  
HETATM   30  C   UNL     1      -9.418  18.730  66.809  1.00  0.00    -0.335 A  
BRANCH  24  31
HETATM   31  O   UNL     1      -6.195  20.038  69.164  1.00  0.00    -0.284 OA 
HETATM   32  C   UNL     1      -5.570  19.074  70.005  1.00  0.00    -0.230 C  
ENDBRANCH  24  31
BRANCH  25  33
HETATM   33  O   UNL     1      -6.773  21.362  66.946  1.00  0.00    -0.483 OA 
HETATM   34  C   UNL     1      -5.817  21.206  65.906  1.00  0.00    -0.251 C  
ENDBRANCH  25  33
ENDBRANCH  18  19
ENDBRANCH  17  18
ENDBRANCH  16  17
ENDBRANCH  14  16
ENDBRANCH  13  14
ENDBRANCH   9  13
ENDBRANCH   2   3
TORSDOF 10
ENDMDL
MODEL       42
REMARK 921   NORMALIZED FREE ENERGY PREDICTED BY IDOCK:   -5.69 KCAL/MOL
REMARK 922        TOTAL FREE ENERGY PREDICTED BY IDOCK:  -10.97 KCAL/MOL
REMARK 923 INTER-LIGAND FREE ENERGY PREDICTED BY IDOCK:   -9.29 KCAL/MOL
REMARK 924 INTRA-LIGAND FREE ENERGY PREDICTED BY IDOCK:   -1.69 KCAL/MOL
REMARK 927      BINDING AFFINITY PREDICTED BY RF-SCORE:    0.00 PKD
ROOT
HETATM    1  C   UNL     1      -6.032  21.340  66.291  1.00  0.00    -0.276 C  
HETATM    2  O   UNL     1      -7.057  21.257  67.277  1.00  0.00    -0.522 OA 
ENDROOT
BRANCH   2   3
HETATM    3  C   UNL     1      -7.521  20.010  67.609  1.00  0.00    -0.292 A  
HETATM    4  C   UNL     1      -8.857  19.533  67.510  1.00  0.00    -0.307 A  
HETATM    5  C   UNL     1      -6.495  19.151  68.090  1.00  0.00    -0.249 A  
HETATM    6  C   UNL     1      -9.157  18.246  67.955  1.00  0.00    -0.300 A  
HETATM    7  C   UNL     1      -6.845  17.877  68.495  1.00  0.00    -0.236 A  
HETATM    8  C   UNL     1      -8.149  17.495  68.494  1.00  0.00    -0.275 A  
HETATM    9  C   UNL     1      -7.912  16.172  69.176  1.00  0.00    -0.233 C  
HETATM   10  C   UNL     1      -6.373  16.509  68.934  1.00  0.00    -0.157 C  
BRANCH   4  11
HETATM   11  O   UNL     1      -9.833  20.313  66.948  1.00  0.00    -0.420 OA 
HETATM   12  C   UNL     1     -10.483  19.779  65.796  1.00  0.00    -0.445 C  
ENDBRANCH   4  11
BRANCH   9  13
HETATM   13  C   UNL     1      -8.827  15.148  68.491  1.00  0.00    -0.185 C  
BRANCH  13  14
HETATM   14  N   UNL     1      -8.480  14.725  67.133  1.00  0.00    -0.212 NA 
HETATM   15  C   UNL     1      -7.829  13.426  67.120  1.00  0.00    -0.019 C  
BRANCH  14  16
HETATM   16  C   UNL     1      -9.560  14.916  66.157  1.00  0.00    -0.310 C  
BRANCH  16  17
HETATM   17  C   UNL     1     -10.927  15.001  66.832  1.00  0.00    -0.324 C  
BRANCH  17  18
HETATM   18  C   UNL     1     -11.973  14.071  66.205  1.00  0.00    -0.420 C  
BRANCH  18  19
HETATM   19  N   UNL     1     -11.674  12.685  66.572  1.00  0.00    -0.386 N  
HETATM   20  C   UNL     1     -11.949  12.283  67.946  1.00  0.00    -0.173 C  
HETATM   21  C   UNL     1     -10.702  11.788  68.658  1.00  0.00    -0.252 C  
HETATM   22  C   UNL     1     -10.570  10.313  68.402  1.00  0.00    -0.247 A  
HETATM   23  C   UNL     1     -10.653   9.437  69.492  1.00  0.00    -0.237 A  
HETATM   24  C   UNL     1     -10.595   8.055  69.314  1.00  0.00    -0.184 A  
HETATM   25  C   UNL     1     -10.454   7.533  68.017  1.00  0.00    -0.197 A  
HETATM   26  O   UNL     1     -11.721  11.913  64.420  1.00  0.00    -0.329 OA 
HETATM   27  C   UNL     1     -11.346  11.765  65.587  1.00  0.00    -0.233 C  
HETATM   28  C   UNL     1     -10.375   8.413  66.926  1.00  0.00    -0.378 A  
HETATM   29  C   UNL     1     -10.279  10.722  65.909  1.00  0.00    -0.319 C  
HETATM   30  C   UNL     1     -10.445   9.808  67.101  1.00  0.00    -0.316 A  
BRANCH  24  31
HETATM   31  O   UNL     1     -10.709   7.160  70.350  1.00  0.00    -0.223 OA 
HETATM   32  C   UNL     1     -11.997   7.043  70.945  1.00  0.00    -0.364 C  
ENDBRANCH  24  31
BRANCH  25  33
HETATM   33  O   UNL     1     -10.394   6.165  67.917  1.00  0.00    -0.159 OA 
HETATM   34  C   UNL     1      -9.248   5.601  67.294  1.00  0.00    -0.110 C  
ENDBRANCH  25  33
ENDBRANCH  18  19
ENDBRANCH  17  18
ENDBRANCH  16  17
ENDBRANCH  14  16
ENDBRANCH  13  14
ENDBRANCH   9  13
ENDBRANCH   2   3
TORSDOF 10
ENDMDL
MODEL       43
REMARK 921   NORMALIZED FREE ENERGY PREDICTED BY IDOCK:   -5.68 KCAL/MOL
REMARK 922        TOTAL FREE ENERGY PREDICTED BY IDOCK:  -10.97 KCAL/MOL
REMARK 923 INTER-LIGAND FREE ENERGY PREDICTED BY IDOCK:   -9.47 KCAL/MOL
REMARK 924 INTRA-LIGAND FREE ENERGY PREDICTED BY IDOCK:   -1.49 KCAL/MOL
REMARK 927      BINDING AFFINITY PREDICTED BY RF-SCORE:    0.00 PKD
ROOT
HETATM    1  C   UNL     1     -11.419   5.793  72.509  1.00  0.00    -0.296 C  
HETATM    2  O   UNL     1     -12.203   6.594  71.630  1.00  0.00    -0.343 OA 
ENDROOT
BRANCH   2   3
HETATM    3  C   UNL     1     -11.558   7.221  70.595  1.00  0.00    -0.290 A  
HETATM    4  C   UNL     1     -11.161   8.584  70.527  1.00  0.00    -0.242 A  
HETATM    5  C   UNL     1     -11.281   6.346  69.508  1.00  0.00    -0.477 A  
HETATM    6  C   UNL     1     -10.567   9.066  69.360  1.00  0.00    -0.231 A  
HETATM    7  C   UNL     1     -10.668   6.871  68.386  1.00  0.00    -0.259 A  
HETATM    8  C   UNL     1     -10.407   8.203  68.312  1.00  0.00    -0.241 A  
HETATM    9  C   UNL     1      -9.949   8.179  66.875  1.00  0.00    -0.343 C  
HETATM   10  C   UNL     1     -10.005   6.596  67.055  1.00  0.00    -0.223 C  
BRANCH   4  11
HETATM   11  O   UNL     1     -11.325   9.410  71.608  1.00  0.00    -0.372 OA 
HETATM   12  C   UNL     1     -12.544  10.150  71.659  1.00  0.00    -0.434 C  
ENDBRANCH   4  11
BRANCH   9  13
HETATM   13  C   UNL     1      -8.748   9.129  66.775  1.00  0.00    -0.127 C  
BRANCH  13  14
HETATM   14  N   UNL     1      -8.709  10.063  65.649  1.00  0.00    -0.149 NA 
HETATM   15  C   UNL     1      -7.431  10.027  64.959  1.00  0.00    -0.139 C  
BRANCH  14  16
HETATM   16  C   UNL     1      -9.905  10.017  64.798  1.00  0.00    -0.254 C  
BRANCH  16  17
HETATM   17  C   UNL     1     -10.652  11.348  64.798  1.00  0.00    -0.377 C  
BRANCH  17  18
HETATM   18  C   UNL     1     -11.190  11.742  66.180  1.00  0.00    -0.306 C  
BRANCH  18  19
HETATM   19  N   UNL     1     -10.625  13.037  66.570  1.00  0.00    -0.279 N  
HETATM   20  C   UNL     1     -11.301  14.234  66.083  1.00  0.00    -0.342 C  
HETATM   21  C   UNL     1     -10.383  15.108  65.245  1.00  0.00    -0.425 C  
HETATM   22  C   UNL     1      -9.667  16.056  66.166  1.00  0.00    -0.353 A  
HETATM   23  C   UNL     1      -9.901  17.429  66.022  1.00  0.00    -0.201 A  
HETATM   24  C   UNL     1      -9.312  18.357  66.880  1.00  0.00    -0.290 A  
HETATM   25  C   UNL     1      -8.470  17.903  67.911  1.00  0.00    -0.251 A  
HETATM   26  O   UNL     1      -9.498  12.206  68.377  1.00  0.00    -0.208 OA 
HETATM   27  C   UNL     1      -9.624  13.093  67.528  1.00  0.00    -0.208 C  
HETATM   28  C   UNL     1      -8.241  16.525  68.055  1.00  0.00    -0.172 A  
HETATM   29  C   UNL     1      -8.511  14.119  67.339  1.00  0.00    -0.214 C  
HETATM   30  C   UNL     1      -8.844  15.586  67.198  1.00  0.00    -0.233 A  
BRANCH  24  31
HETATM   31  O   UNL     1      -9.542  19.708  66.797  1.00  0.00    -0.327 OA 
HETATM   32  C   UNL     1     -10.405  20.139  65.750  1.00  0.00    -0.282 C  
ENDBRANCH  24  31
BRANCH  25  33
HETATM   33  O   UNL     1      -7.917  18.871  68.712  1.00  0.00    -0.334 OA 
HETATM   34  C   UNL     1      -6.499  18.941  68.773  1.00  0.00    -0.252 C  
ENDBRANCH  25  33
ENDBRANCH  18  19
ENDBRANCH  17  18
ENDBRANCH  16  17
ENDBRANCH  14  16
ENDBRANCH  13  14
ENDBRANCH   9  13
ENDBRANCH   2   3
TORSDOF 10
ENDMDL
MODEL       44
REMARK 921   NORMALIZED FREE ENERGY PREDICTED BY IDOCK:   -5.68 KCAL/MOL
REMARK 922        TOTAL FREE ENERGY PREDICTED BY IDOCK:  -10.96 KCAL/MOL
REMARK 923 INTER-LIGAND FREE ENERGY PREDICTED BY IDOCK:   -9.90 KCAL/MOL
REMARK 924 INTRA-LIGAND FREE ENERGY PREDICTED BY IDOCK:   -1.06 KCAL/MOL
REMARK 927      BINDING AFFINITY PREDICTED BY RF-SCORE:    0.00 PKD
ROOT
HETATM    1  C   UNL     1      -9.263   1.989  68.356  1.00  0.00    -0.182 C  
HETATM    2  O   UNL     1      -8.756   3.318  68.429  1.00  0.00    -0.088 OA 
ENDROOT
BRANCH   2   3
HETATM    3  C   UNL     1      -9.552   4.273  69.008  1.00  0.00    -0.170 A  
HETATM    4  C   UNL     1     -10.370   5.229  68.348  1.00  0.00    -0.108 A  
HETATM    5  C   UNL     1      -9.510   4.235  70.429  1.00  0.00    -0.245 A  
HETATM    6  C   UNL     1     -11.069   6.170  69.105  1.00  0.00    -0.448 A  
HETATM    7  C   UNL     1     -10.241   5.176  71.130  1.00  0.00    -0.291 A  
HETATM    8  C   UNL     1     -10.920   6.146  70.464  1.00  0.00    -0.384 A  
HETATM    9  C   UNL     1     -11.320   6.915  71.699  1.00  0.00    -0.296 C  
HETATM   10  C   UNL     1     -10.755   5.642  72.474  1.00  0.00    -0.285 C  
BRANCH   4  11
HETATM   11  O   UNL     1     -10.503   5.206  66.985  1.00  0.00    -0.231 OA 
HETATM   12  C   UNL     1      -9.652   6.086  66.252  1.00  0.00    -0.102 C  
ENDBRANCH   4  11
BRANCH   9  13
HETATM   13  C   UNL     1     -12.763   7.388  71.480  1.00  0.00    -0.372 C  
BRANCH  13  14
HETATM   14  N   UNL     1     -13.010   8.830  71.449  1.00  0.00    -0.301 NA 
HETATM   15  C   UNL     1     -14.013   9.229  72.422  1.00  0.00    -0.360 C  
BRANCH  14  16
HETATM   16  C   UNL     1     -11.788   9.642  71.411  1.00  0.00    -0.406 C  
BRANCH  16  17
HETATM   17  C   UNL     1     -11.982  10.923  70.604  1.00  0.00    -0.467 C  
BRANCH  17  18
HETATM   18  C   UNL     1     -11.771  10.730  69.097  1.00  0.00    -0.296 C  
BRANCH  18  19
HETATM   19  N   UNL     1     -11.218  11.959  68.522  1.00  0.00    -0.233 N  
HETATM   20  C   UNL     1     -11.375  13.187  69.293  1.00  0.00    -0.253 C  
HETATM   21  C   UNL     1     -12.144  14.249  68.526  1.00  0.00    -0.295 C  
HETATM   22  C   UNL     1     -11.161  15.048  67.718  1.00  0.00    -0.312 A  
HETATM   23  C   UNL     1     -11.009  16.410  68.010  1.00  0.00    -0.327 A  
HETATM   24  C   UNL     1     -10.074  17.194  67.335  1.00  0.00    -0.301 A  
HETATM   25  C   UNL     1      -9.267  16.604  66.347  1.00  0.00    -0.287 A  
HETATM   26  O   UNL     1      -9.764  10.872  67.132  1.00  0.00    -0.171 OA 
HETATM   27  C   UNL     1     -10.405  11.892  67.400  1.00  0.00    -0.207 C  
HETATM   28  C   UNL     1      -9.419  15.238  66.059  1.00  0.00    -0.372 A  
HETATM   29  C   UNL     1     -10.538  12.995  66.354  1.00  0.00    -0.294 C  
HETATM   30  C   UNL     1     -10.353  14.442  66.747  1.00  0.00    -0.273 A  
BRANCH  24  31
HETATM   31  O   UNL     1      -9.867  18.523  67.615  1.00  0.00    -0.295 OA 
HETATM   32  C   UNL     1     -10.884  19.424  67.191  1.00  0.00    -0.450 C  
ENDBRANCH  24  31
BRANCH  25  33
HETATM   33  O   UNL     1      -8.375  17.436  65.717  1.00  0.00    -0.538 OA 
HETATM   34  C   UNL     1      -7.012  17.357  66.112  1.00  0.00    -0.263 C  
ENDBRANCH  25  33
ENDBRANCH  18  19
ENDBRANCH  17  18
ENDBRANCH  16  17
ENDBRANCH  14  16
ENDBRANCH  13  14
ENDBRANCH   9  13
ENDBRANCH   2   3
TORSDOF 10
ENDMDL
MODEL       45
REMARK 921   NORMALIZED FREE ENERGY PREDICTED BY IDOCK:   -5.67 KCAL/MOL
REMARK 922        TOTAL FREE ENERGY PREDICTED BY IDOCK:  -10.96 KCAL/MOL
REMARK 923 INTER-LIGAND FREE ENERGY PREDICTED BY IDOCK:   -9.76 KCAL/MOL
REMARK 924 INTRA-LIGAND FREE ENERGY PREDICTED BY IDOCK:   -1.20 KCAL/MOL
REMARK 927      BINDING AFFINITY PREDICTED BY RF-SCORE:    0.00 PKD
ROOT
HETATM    1  C   UNL     1     -11.246   5.795  72.621  1.00  0.00    -0.301 C  
HETATM    2  O   UNL     1     -12.178   6.388  71.722  1.00  0.00    -0.342 OA 
ENDROOT
BRANCH   2   3
HETATM    3  C   UNL     1     -11.682   7.201  70.736  1.00  0.00    -0.323 A  
HETATM    4  C   UNL     1     -11.562   8.617  70.766  1.00  0.00    -0.242 A  
HETATM    5  C   UNL     1     -11.253   6.477  69.590  1.00  0.00    -0.446 A  
HETATM    6  C   UNL     1     -11.088   9.287  69.638  1.00  0.00    -0.134 A  
HETATM    7  C   UNL     1     -10.770   7.190  68.509  1.00  0.00    -0.191 A  
HETATM    8  C   UNL     1     -10.776   8.549  68.530  1.00  0.00    -0.080 A  
HETATM    9  C   UNL     1     -10.341   8.716  67.096  1.00  0.00    -0.369 C  
HETATM   10  C   UNL     1     -10.083   7.145  67.162  1.00  0.00    -0.293 C  
BRANCH   4  11
HETATM   11  O   UNL     1     -11.870   9.317  71.903  1.00  0.00    -0.365 OA 
HETATM   12  C   UNL     1     -13.055  10.110  71.855  1.00  0.00    -0.466 C  
ENDBRANCH   4  11
BRANCH   9  13
HETATM   13  C   UNL     1      -9.351   9.888  67.066  1.00  0.00    -0.147 C  
BRANCH  13  14
HETATM   14  N   UNL     1      -9.737  11.088  66.322  1.00  0.00    -0.200 NA 
HETATM   15  C   UNL     1     -10.218  10.768  64.989  1.00  0.00    -0.306 C  
BRANCH  14  16
HETATM   16  C   UNL     1     -10.556  12.029  67.096  1.00  0.00    -0.224 C  
BRANCH  16  17
HETATM   17  C   UNL     1     -11.537  12.791  66.209  1.00  0.00    -0.433 C  
BRANCH  17  18
HETATM   18  C   UNL     1     -12.206  13.975  66.919  1.00  0.00    -0.380 C  
BRANCH  18  19
HETATM   19  N   UNL     1     -11.212  15.026  67.153  1.00  0.00    -0.337 N  
HETATM   20  C   UNL     1     -10.493  15.535  65.991  1.00  0.00    -0.323 C  
HETATM   21  C   UNL     1      -8.991  15.344  66.119  1.00  0.00    -0.294 C  
HETATM   22  C   UNL     1      -8.424  16.547  66.821  1.00  0.00    -0.273 A  
HETATM   23  C   UNL     1      -7.525  17.363  66.124  1.00  0.00    -0.331 A  
HETATM   24  C   UNL     1      -7.006  18.523  66.699  1.00  0.00    -0.204 A  
HETATM   25  C   UNL     1      -7.398  18.880  68.001  1.00  0.00    -0.250 A  
HETATM   26  O   UNL     1     -12.105  15.680  69.153  1.00  0.00    -0.344 OA 
HETATM   27  C   UNL     1     -11.132  15.638  68.395  1.00  0.00    -0.326 C  
HETATM   28  C   UNL     1      -8.303  18.062  68.696  1.00  0.00    -0.282 A  
HETATM   29  C   UNL     1      -9.749  16.004  68.923  1.00  0.00    -0.232 C  
HETATM   30  C   UNL     1      -8.837  16.897  68.113  1.00  0.00    -0.223 A  
BRANCH  24  31
HETATM   31  O   UNL     1      -6.151  19.371  66.038  1.00  0.00    -0.174 OA 
HETATM   32  C   UNL     1      -6.712  20.132  64.975  1.00  0.00    -0.274 C  
ENDBRANCH  24  31
BRANCH  25  33
HETATM   33  O   UNL     1      -6.842  20.029  68.507  1.00  0.00    -0.297 OA 
HETATM   34  C   UNL     1      -6.306  19.975  69.822  1.00  0.00    -0.354 C  
ENDBRANCH  25  33
ENDBRANCH  18  19
ENDBRANCH  17  18
ENDBRANCH  16  17
ENDBRANCH  14  16
ENDBRANCH  13  14
ENDBRANCH   9  13
ENDBRANCH   2   3
TORSDOF 10
ENDMDL
MODEL       46
REMARK 921   NORMALIZED FREE ENERGY PREDICTED BY IDOCK:   -5.66 KCAL/MOL
REMARK 922        TOTAL FREE ENERGY PREDICTED BY IDOCK:  -10.93 KCAL/MOL
REMARK 923 INTER-LIGAND FREE ENERGY PREDICTED BY IDOCK:   -9.15 KCAL/MOL
REMARK 924 INTRA-LIGAND FREE ENERGY PREDICTED BY IDOCK:   -1.78 KCAL/MOL
REMARK 927      BINDING AFFINITY PREDICTED BY RF-SCORE:    0.00 PKD
ROOT
HETATM    1  C   UNL     1     -10.450  16.984  68.767  1.00  0.00    -0.347 C  
HETATM    2  O   UNL     1     -11.643  16.261  68.476  1.00  0.00    -0.346 OA 
ENDROOT
BRANCH   2   3
HETATM    3  C   UNL     1     -11.714  14.957  68.895  1.00  0.00    -0.315 A  
HETATM    4  C   UNL     1     -11.221  13.807  68.220  1.00  0.00    -0.273 A  
HETATM    5  C   UNL     1     -12.359  14.819  70.155  1.00  0.00    -0.381 A  
HETATM    6  C   UNL     1     -11.440  12.545  68.772  1.00  0.00    -0.353 A  
HETATM    7  C   UNL     1     -12.528  13.546  70.667  1.00  0.00    -0.405 A  
HETATM    8  C   UNL     1     -12.146  12.462  69.940  1.00  0.00    -0.317 A  
HETATM    9  C   UNL     1     -12.731  11.443  70.885  1.00  0.00    -0.397 C  
HETATM   10  C   UNL     1     -12.936  12.696  71.849  1.00  0.00    -0.402 C  
BRANCH   4  11
HETATM   11  O   UNL     1     -10.504  13.937  67.060  1.00  0.00    -0.274 OA 
HETATM   12  C   UNL     1      -9.107  13.661  67.147  1.00  0.00    -0.239 C  
ENDBRANCH   4  11
BRANCH   9  13
HETATM   13  C   UNL     1     -11.730  10.282  70.960  1.00  0.00    -0.370 C  
BRANCH  13  14
HETATM   14  N   UNL     1     -12.055   9.157  71.839  1.00  0.00    -0.370 NA 
HETATM   15  C   UNL     1     -13.392   8.644  71.590  1.00  0.00    -0.350 C  
BRANCH  14  16
HETATM   16  C   UNL     1     -10.987   8.155  71.941  1.00  0.00    -0.275 C  
BRANCH  16  17
HETATM   17  C   UNL     1      -9.803   8.493  71.039  1.00  0.00    -0.245 C  
BRANCH  17  18
HETATM   18  C   UNL     1      -9.465   7.382  70.037  1.00  0.00    -0.161 C  
BRANCH  18  19
HETATM   19  N   UNL     1      -9.236   7.972  68.716  1.00  0.00    -0.144 N  
HETATM   20  C   UNL     1      -9.800   9.294  68.468  1.00  0.00    -0.158 C  
HETATM   21  C   UNL     1     -10.770   9.291  67.298  1.00  0.00    -0.244 C  
HETATM   22  C   UNL     1      -9.987   9.543  66.039  1.00  0.00    -0.348 A  
HETATM   23  C   UNL     1     -10.253  10.710  65.312  1.00  0.00    -0.351 A  
HETATM   24  C   UNL     1      -9.523  11.030  64.167  1.00  0.00    -0.242 A  
HETATM   25  C   UNL     1      -8.500  10.167  63.740  1.00  0.00    -0.181 A  
HETATM   26  O   UNL     1      -7.419   6.667  68.246  1.00  0.00    -0.091 OA 
HETATM   27  C   UNL     1      -8.343   7.376  67.838  1.00  0.00    -0.119 C  
HETATM   28  C   UNL     1      -8.233   9.000  64.473  1.00  0.00    -0.159 A  
HETATM   29  C   UNL     1      -8.692   7.377  66.353  1.00  0.00    -0.154 C  
HETATM   30  C   UNL     1      -8.960   8.681  65.636  1.00  0.00    -0.231 A  
BRANCH  24  31
HETATM   31  O   UNL     1      -9.726  12.181  63.445  1.00  0.00    -0.330 OA 
HETATM   32  C   UNL     1     -11.050  12.706  63.451  1.00  0.00    -0.298 C  
ENDBRANCH  24  31
BRANCH  25  33
HETATM   33  O   UNL     1      -7.830  10.539  62.601  1.00  0.00    -0.150 OA 
HETATM   34  C   UNL     1      -6.434  10.275  62.545  1.00  0.00    -0.131 C  
ENDBRANCH  25  33
ENDBRANCH  18  19
ENDBRANCH  17  18
ENDBRANCH  16  17
ENDBRANCH  14  16
ENDBRANCH  13  14
ENDBRANCH   9  13
ENDBRANCH   2   3
TORSDOF 10
ENDMDL
MODEL       47
REMARK 921   NORMALIZED FREE ENERGY PREDICTED BY IDOCK:   -5.64 KCAL/MOL
REMARK 922        TOTAL FREE ENERGY PREDICTED BY IDOCK:  -10.90 KCAL/MOL
REMARK 923 INTER-LIGAND FREE ENERGY PREDICTED BY IDOCK:   -9.60 KCAL/MOL
REMARK 924 INTRA-LIGAND FREE ENERGY PREDICTED BY IDOCK:   -1.30 KCAL/MOL
REMARK 927      BINDING AFFINITY PREDICTED BY RF-SCORE:    0.00 PKD
ROOT
HETATM    1  C   UNL     1      -5.634  11.185  69.944  1.00  0.00    -0.073 C  
HETATM    2  O   UNL     1      -6.089   9.856  69.712  1.00  0.00    -0.040 OA 
ENDROOT
BRANCH   2   3
HETATM    3  C   UNL     1      -7.381   9.555  70.062  1.00  0.00    -0.115 A  
HETATM    4  C   UNL     1      -8.556   9.775  69.292  1.00  0.00    -0.158 A  
HETATM    5  C   UNL     1      -7.477   8.952  71.346  1.00  0.00    -0.108 A  
HETATM    6  C   UNL     1      -9.800   9.461  69.839  1.00  0.00    -0.235 A  
HETATM    7  C   UNL     1      -8.733   8.638  71.829  1.00  0.00    -0.266 A  
HETATM    8  C   UNL     1      -9.841   8.968  71.114  1.00  0.00    -0.371 A  
HETATM    9  C   UNL     1     -10.826   8.568  72.183  1.00  0.00    -0.427 C  
HETATM   10  C   UNL     1      -9.546   7.944  72.899  1.00  0.00    -0.329 C  
BRANCH   4  11
HETATM   11  O   UNL     1      -8.467  10.255  68.012  1.00  0.00    -0.116 OA 
HETATM   12  C   UNL     1      -9.698  10.401  67.306  1.00  0.00    -0.165 C  
ENDBRANCH   4  11
BRANCH   9  13
HETATM   13  C   UNL     1     -12.001   7.885  71.471  1.00  0.00    -0.301 C  
BRANCH  13  14
HETATM   14  N   UNL     1     -13.289   8.581  71.457  1.00  0.00    -0.319 NA 
HETATM   15  C   UNL     1     -14.395   7.680  71.731  1.00  0.00    -0.452 C  
BRANCH  14  16
HETATM   16  C   UNL     1     -13.287   9.847  72.201  1.00  0.00    -0.399 C  
BRANCH  16  17
HETATM   17  C   UNL     1     -12.816  11.013  71.336  1.00  0.00    -0.548 C  
BRANCH  17  18
HETATM   18  C   UNL     1     -13.178  12.386  71.917  1.00  0.00    -0.382 C  
BRANCH  18  19
HETATM   19  N   UNL     1     -12.622  13.438  71.062  1.00  0.00    -0.361 N  
HETATM   20  C   UNL     1     -12.625  13.200  69.623  1.00  0.00     0.247 C  
HETATM   21  C   UNL     1     -11.225  13.238  69.035  1.00  0.00    -0.320 C  
HETATM   22  C   UNL     1     -10.911  14.659  68.658  1.00  0.00    -0.266 A  
HETATM   23  C   UNL     1     -10.698  14.959  67.307  1.00  0.00    -0.294 A  
HETATM   24  C   UNL     1     -10.459  16.266  66.886  1.00  0.00    -0.302 A  
HETATM   25  C   UNL     1     -10.436  17.302  67.836  1.00  0.00    -0.382 A  
HETATM   26  O   UNL     1     -12.873  15.091  72.621  1.00  0.00    -0.330 OA 
HETATM   27  C   UNL     1     -12.310  14.676  71.604  1.00  0.00    -0.351 C  
HETATM   28  C   UNL     1     -10.655  16.999  69.189  1.00  0.00    -0.303 A  
HETATM   29  C   UNL     1     -11.062  15.388  71.090  1.00  0.00    -0.362 C  
HETATM   30  C   UNL     1     -10.908  15.682  69.615  1.00  0.00    -0.287 A  
BRANCH  24  31
HETATM   31  O   UNL     1     -10.280  16.610  65.568  1.00  0.00    -0.550 OA 
HETATM   32  C   UNL     1     -10.847  15.729  64.603  1.00  0.00    -0.227 C  
ENDBRANCH  24  31
BRANCH  25  33
HETATM   33  O   UNL     1     -10.187  18.562  67.352  1.00  0.00    -0.335 OA 
HETATM   34  C   UNL     1     -10.529  19.664  68.182  1.00  0.00    -0.376 C  
ENDBRANCH  25  33
ENDBRANCH  18  19
ENDBRANCH  17  18
ENDBRANCH  16  17
ENDBRANCH  14  16
ENDBRANCH  13  14
ENDBRANCH   9  13
ENDBRANCH   2   3
TORSDOF 10
ENDMDL
MODEL       48
REMARK 921   NORMALIZED FREE ENERGY PREDICTED BY IDOCK:   -5.61 KCAL/MOL
REMARK 922        TOTAL FREE ENERGY PREDICTED BY IDOCK:  -10.85 KCAL/MOL
REMARK 923 INTER-LIGAND FREE ENERGY PREDICTED BY IDOCK:   -9.50 KCAL/MOL
REMARK 924 INTRA-LIGAND FREE ENERGY PREDICTED BY IDOCK:   -1.34 KCAL/MOL
REMARK 927      BINDING AFFINITY PREDICTED BY RF-SCORE:    0.00 PKD
ROOT
HETATM    1  C   UNL     1      -9.443   5.729  68.001  1.00  0.00    -0.110 C  
HETATM    2  O   UNL     1      -9.072   7.022  68.469  1.00  0.00    -0.132 OA 
ENDROOT
BRANCH   2   3
HETATM    3  C   UNL     1      -9.479   8.106  67.734  1.00  0.00    -0.142 A  
HETATM    4  C   UNL     1     -10.346   9.152  68.151  1.00  0.00    -0.216 A  
HETATM    5  C   UNL     1      -8.925   8.122  66.424  1.00  0.00    -0.207 A  
HETATM    6  C   UNL     1     -10.701  10.148  67.241  1.00  0.00    -0.316 A  
HETATM    7  C   UNL     1      -9.292   9.146  65.572  1.00  0.00    -0.287 A  
HETATM    8  C   UNL     1     -10.213  10.065  65.966  1.00  0.00    -0.277 A  
HETATM    9  C   UNL     1     -10.319  10.746  64.625  1.00  0.00    -0.394 C  
HETATM   10  C   UNL     1      -9.059   9.844  64.251  1.00  0.00    -0.297 C  
BRANCH   4  11
HETATM   11  O   UNL     1     -10.800   9.206  69.442  1.00  0.00    -0.219 OA 
HETATM   12  C   UNL     1     -11.332  10.458  69.873  1.00  0.00    -0.302 C  
ENDBRANCH   4  11
BRANCH   9  13
HETATM   13  C   UNL     1     -10.420  12.252  64.898  1.00  0.00    -0.289 C  
BRANCH  13  14
HETATM   14  N   UNL     1     -11.662  12.932  64.523  1.00  0.00    -0.344 NA 
HETATM   15  C   UNL     1     -12.460  12.134  63.607  1.00  0.00    -0.549 C  
BRANCH  14  16
HETATM   16  C   UNL     1     -12.380  13.527  65.657  1.00  0.00    -0.476 C  
BRANCH  16  17
HETATM   17  C   UNL     1     -11.486  13.659  66.888  1.00  0.00    -0.369 C  
BRANCH  17  18
HETATM   18  C   UNL     1     -11.834  14.869  67.764  1.00  0.00    -0.251 C  
BRANCH  18  19
HETATM   19  N   UNL     1     -10.688  15.781  67.811  1.00  0.00    -0.299 N  
HETATM   20  C   UNL     1     -10.237  16.351  66.546  1.00  0.00    -0.304 C  
HETATM   21  C   UNL     1      -8.790  15.998  66.244  1.00  0.00    -0.379 C  
HETATM   22  C   UNL     1      -7.912  17.045  66.869  1.00  0.00    -0.256 A  
HETATM   23  C   UNL     1      -7.128  17.846  66.029  1.00  0.00    -0.340 A  
HETATM   24  C   UNL     1      -6.334  18.871  66.542  1.00  0.00    -0.188 A  
HETATM   25  C   UNL     1      -6.325  19.108  67.927  1.00  0.00    -0.215 A  
HETATM   26  O   UNL     1     -10.940  16.276  70.028  1.00  0.00    -0.343 OA 
HETATM   27  C   UNL     1     -10.211  16.229  69.033  1.00  0.00    -0.261 C  
HETATM   28  C   UNL     1      -7.115  18.306  68.767  1.00  0.00    -0.291 A  
HETATM   29  C   UNL     1      -8.702  16.390  69.196  1.00  0.00    -0.185 C  
HETATM   30  C   UNL     1      -7.927  17.278  68.251  1.00  0.00    -0.244 A  
BRANCH  24  31
HETATM   31  O   UNL     1      -5.579  19.703  65.751  1.00  0.00    -0.156 OA 
HETATM   32  C   UNL     1      -6.296  20.572  64.882  1.00  0.00    -0.294 C  
ENDBRANCH  24  31
BRANCH  25  33
HETATM   33  O   UNL     1      -5.515  20.127  68.363  1.00  0.00    -0.208 OA 
HETATM   34  C   UNL     1      -5.698  20.587  69.695  1.00  0.00    -0.365 C  
ENDBRANCH  25  33
ENDBRANCH  18  19
ENDBRANCH  17  18
ENDBRANCH  16  17
ENDBRANCH  14  16
ENDBRANCH  13  14
ENDBRANCH   9  13
ENDBRANCH   2   3
TORSDOF 10
ENDMDL
MODEL       49
REMARK 921   NORMALIZED FREE ENERGY PREDICTED BY IDOCK:   -5.59 KCAL/MOL
REMARK 922        TOTAL FREE ENERGY PREDICTED BY IDOCK:  -10.83 KCAL/MOL
REMARK 923 INTER-LIGAND FREE ENERGY PREDICTED BY IDOCK:   -9.98 KCAL/MOL
REMARK 924 INTRA-LIGAND FREE ENERGY PREDICTED BY IDOCK:   -0.84 KCAL/MOL
REMARK 927      BINDING AFFINITY PREDICTED BY RF-SCORE:    0.00 PKD
ROOT
HETATM    1  C   UNL     1      -9.559   2.672  70.910  1.00  0.00    -0.127 C  
HETATM    2  O   UNL     1      -9.361   3.757  70.009  1.00  0.00    -0.144 OA 
ENDROOT
BRANCH   2   3
HETATM    3  C   UNL     1     -10.046   4.920  70.254  1.00  0.00    -0.252 A  
HETATM    4  C   UNL     1     -10.708   5.746  69.306  1.00  0.00    -0.316 A  
HETATM    5  C   UNL     1     -10.058   5.271  71.633  1.00  0.00    -0.259 A  
HETATM    6  C   UNL     1     -11.304   6.933  69.733  1.00  0.00    -0.288 A  
HETATM    7  C   UNL     1     -10.684   6.446  72.003  1.00  0.00    -0.261 A  
HETATM    8  C   UNL     1     -11.207   7.268  71.055  1.00  0.00    -0.291 A  
HETATM    9  C   UNL     1     -11.546   8.388  72.007  1.00  0.00    -0.418 C  
HETATM   10  C   UNL     1     -11.178   7.321  73.133  1.00  0.00    -0.263 C  
BRANCH   4  11
HETATM   11  O   UNL     1     -10.796   5.364  67.994  1.00  0.00    -0.094 OA 
HETATM   12  C   UNL     1     -11.144   6.386  67.060  1.00  0.00    -0.329 C  
ENDBRANCH   4  11
BRANCH   9  13
HETATM   13  C   UNL     1     -12.906   8.946  71.570  1.00  0.00    -0.334 C  
BRANCH  13  14
HETATM   14  N   UNL     1     -12.938  10.293  70.997  1.00  0.00    -0.384 NA 
HETATM   15  C   UNL     1     -13.264  11.298  71.994  1.00  0.00    -0.331 C  
BRANCH  14  16
HETATM   16  C   UNL     1     -11.797  10.595  70.124  1.00  0.00    -0.337 C  
BRANCH  16  17
HETATM   17  C   UNL     1     -11.836  12.033  69.616  1.00  0.00    -0.401 C  
BRANCH  17  18
HETATM   18  C   UNL     1     -11.723  12.142  68.090  1.00  0.00    -0.341 C  
BRANCH  18  19
HETATM   19  N   UNL     1     -11.079  13.411  67.739  1.00  0.00    -0.260 N  
HETATM   20  C   UNL     1     -10.741  14.313  68.834  1.00  0.00    -0.257 C  
HETATM   21  C   UNL     1     -11.424  15.663  68.696  1.00  0.00    -0.381 C  
HETATM   22  C   UNL     1     -10.538  16.555  67.872  1.00  0.00    -0.329 A  
HETATM   23  C   UNL     1     -10.007  17.704  68.472  1.00  0.00    -0.368 A  
HETATM   24  C   UNL     1      -9.134  18.543  67.781  1.00  0.00    -0.278 A  
HETATM   25  C   UNL     1      -8.777  18.225  66.459  1.00  0.00    -0.274 A  
HETATM   26  O   UNL     1     -10.337  12.683  65.703  1.00  0.00    -0.264 OA 
HETATM   27  C   UNL     1     -10.633  13.625  66.444  1.00  0.00    -0.284 C  
HETATM   28  C   UNL     1      -9.307  17.070  65.861  1.00  0.00    -0.095 A  
HETATM   29  C   UNL     1     -10.787  15.025  65.856  1.00  0.00    -0.339 C  
HETATM   30  C   UNL     1     -10.179  16.216  66.561  1.00  0.00    -0.304 A  
BRANCH  24  31
HETATM   31  O   UNL     1      -8.563  19.659  68.342  1.00  0.00    -0.343 OA 
HETATM   32  C   UNL     1      -7.396  19.444  69.129  1.00  0.00    -0.329 C  
ENDBRANCH  24  31
BRANCH  25  33
HETATM   33  O   UNL     1      -7.921  19.099  65.836  1.00  0.00    -0.435 OA 
HETATM   34  C   UNL     1      -6.584  18.668  65.622  1.00  0.00    -0.274 C  
ENDBRANCH  25  33
ENDBRANCH  18  19
ENDBRANCH  17  18
ENDBRANCH  16  17
ENDBRANCH  14  16
ENDBRANCH  13  14
ENDBRANCH   9  13
ENDBRANCH   2   3
TORSDOF 10
ENDMDL
MODEL       50
REMARK 921   NORMALIZED FREE ENERGY PREDICTED BY IDOCK:   -5.59 KCAL/MOL
REMARK 922        TOTAL FREE ENERGY PREDICTED BY IDOCK:  -10.82 KCAL/MOL
REMARK 923 INTER-LIGAND FREE ENERGY PREDICTED BY IDOCK:   -9.71 KCAL/MOL
REMARK 924 INTRA-LIGAND FREE ENERGY PREDICTED BY IDOCK:   -1.12 KCAL/MOL
REMARK 927      BINDING AFFINITY PREDICTED BY RF-SCORE:    0.00 PKD
ROOT
HETATM    1  C   UNL     1      -7.458  17.265  66.059  1.00  0.00    -0.197 C  
HETATM    2  O   UNL     1      -8.877  17.373  66.001  1.00  0.00    -0.498 OA 
ENDROOT
BRANCH   2   3
HETATM    3  C   UNL     1      -9.597  16.857  67.048  1.00  0.00    -0.248 A  
HETATM    4  C   UNL     1      -9.807  17.448  68.324  1.00  0.00    -0.310 A  
HETATM    5  C   UNL     1     -10.176  15.593  66.747  1.00  0.00    -0.278 A  
HETATM    6  C   UNL     1     -10.521  16.744  69.294  1.00  0.00    -0.331 A  
HETATM    7  C   UNL     1     -10.894  14.951  67.738  1.00  0.00    -0.286 A  
HETATM    8  C   UNL     1     -10.977  15.494  68.982  1.00  0.00    -0.256 A  
HETATM    9  C   UNL     1     -11.674  14.312  69.608  1.00  0.00    -0.362 C  
HETATM   10  C   UNL     1     -11.808  13.803  68.103  1.00  0.00    -0.411 C  
BRANCH   4  11
HETATM   11  O   UNL     1      -9.347  18.711  68.588  1.00  0.00    -0.335 OA 
HETATM   12  C   UNL     1     -10.183  19.789  68.169  1.00  0.00    -0.452 C  
ENDBRANCH   4  11
BRANCH   9  13
HETATM   13  C   UNL     1     -12.731  14.876  70.566  1.00  0.00    -0.347 C  
BRANCH  13  14
HETATM   14  N   UNL     1     -12.778  14.334  71.925  1.00  0.00    -0.338 NA 
HETATM   15  C   UNL     1     -12.827  15.386  72.927  1.00  0.00    -0.445 C  
BRANCH  14  16
HETATM   16  C   UNL     1     -13.737  13.236  72.094  1.00  0.00    -0.526 C  
BRANCH  16  17
HETATM   17  C   UNL     1     -13.044  11.876  72.124  1.00  0.00    -0.327 C  
BRANCH  17  18
HETATM   18  C   UNL     1     -12.968  11.202  70.748  1.00  0.00    -0.137 C  
BRANCH  18  19
HETATM   19  N   UNL     1     -12.178   9.973  70.852  1.00  0.00    -0.323 N  
HETATM   20  C   UNL     1     -12.874   8.767  71.285  1.00  0.00    -0.215 C  
HETATM   21  C   UNL     1     -12.274   8.184  72.554  1.00  0.00    -0.335 C  
HETATM   22  C   UNL     1     -11.173   7.239  72.161  1.00  0.00    -0.288 A  
HETATM   23  C   UNL     1     -11.316   5.882  72.477  1.00  0.00    -0.352 A  
HETATM   24  C   UNL     1     -10.357   4.946  72.091  1.00  0.00    -0.200 A  
HETATM   25  C   UNL     1      -9.230   5.373  71.368  1.00  0.00    -0.146 A  
HETATM   26  O   UNL     1     -10.525  10.699  69.451  1.00  0.00    -0.219 OA 
HETATM   27  C   UNL     1     -10.885   9.938  70.353  1.00  0.00    -0.319 C  
HETATM   28  C   UNL     1      -9.092   6.733  71.049  1.00  0.00    -0.156 A  
HETATM   29  C   UNL     1      -9.840   9.143  71.130  1.00  0.00    -0.371 C  
HETATM   30  C   UNL     1     -10.064   7.679  71.427  1.00  0.00    -0.204 A  
BRANCH  24  31
HETATM   31  O   UNL     1     -10.475   3.601  72.348  1.00  0.00    -0.143 OA 
HETATM   32  C   UNL     1     -11.051   3.246  73.600  1.00  0.00    -0.222 C  
ENDBRANCH  24  31
BRANCH  25  33
HETATM   33  O   UNL     1      -8.323   4.399  71.029  1.00  0.00    -0.085 OA 
HETATM   34  C   UNL     1      -6.946   4.750  71.046  1.00  0.00    -0.043 C  
ENDBRANCH  25  33
ENDBRANCH  18  19
ENDBRANCH  17  18
ENDBRANCH  16  17
ENDBRANCH  14  16
ENDBRANCH  13  14
ENDBRANCH   9  13
ENDBRANCH   2   3
TORSDOF 10
ENDMDL
MODEL       51
REMARK 921   NORMALIZED FREE ENERGY PREDICTED BY IDOCK:   -5.57 KCAL/MOL
REMARK 922        TOTAL FREE ENERGY PREDICTED BY IDOCK:  -10.80 KCAL/MOL
REMARK 923 INTER-LIGAND FREE ENERGY PREDICTED BY IDOCK:   -9.21 KCAL/MOL
REMARK 924 INTRA-LIGAND FREE ENERGY PREDICTED BY IDOCK:   -1.59 KCAL/MOL
REMARK 927      BINDING AFFINITY PREDICTED BY RF-SCORE:    0.00 PKD
ROOT
HETATM    1  C   UNL     1     -11.639  14.538  66.515  1.00  0.00    -0.371 C  
HETATM    2  O   UNL     1     -11.670  14.944  67.880  1.00  0.00    -0.340 OA 
ENDROOT
BRANCH   2   3
HETATM    3  C   UNL     1     -11.908  13.980  68.826  1.00  0.00    -0.361 A  
HETATM    4  C   UNL     1     -12.441  14.166  70.131  1.00  0.00    -0.331 A  
HETATM    5  C   UNL     1     -11.569  12.674  68.377  1.00  0.00    -0.370 A  
HETATM    6  C   UNL     1     -12.557  13.068  70.984  1.00  0.00    -0.386 A  
HETATM    7  C   UNL     1     -11.727  11.619  69.256  1.00  0.00    -0.396 A  
HETATM    8  C   UNL     1     -12.130  11.850  70.533  1.00  0.00    -0.422 A  
HETATM    9  C   UNL     1     -11.934  10.431  71.004  1.00  0.00    -0.481 C  
HETATM   10  C   UNL     1     -11.720  10.120  69.456  1.00  0.00    -0.128 C  
BRANCH   4  11
HETATM   11  O   UNL     1     -12.873  15.401  70.535  1.00  0.00    -0.417 OA 
HETATM   12  C   UNL     1     -13.804  15.422  71.615  1.00  0.00    -0.508 C  
ENDBRANCH   4  11
BRANCH   9  13
HETATM   13  C   UNL     1     -13.112  10.104  71.933  1.00  0.00    -0.466 C  
BRANCH  13  14
HETATM   14  N   UNL     1     -13.287   8.711  72.347  1.00  0.00    -0.364 NA 
HETATM   15  C   UNL     1     -14.340   8.050  71.595  1.00  0.00    -0.473 C  
BRANCH  14  16
HETATM   16  C   UNL     1     -12.027   7.969  72.484  1.00  0.00    -0.327 C  
BRANCH  16  17
HETATM   17  C   UNL     1     -12.139   6.553  71.926  1.00  0.00    -0.388 C  
BRANCH  17  18
HETATM   18  C   UNL     1     -10.781   5.925  71.586  1.00  0.00    -0.252 C  
BRANCH  18  19
HETATM   19  N   UNL     1     -10.125   6.720  70.545  1.00  0.00    -0.183 N  
HETATM   20  C   UNL     1     -10.868   6.946  69.310  1.00  0.00    -0.237 C  
HETATM   21  C   UNL     1     -10.132   6.409  68.094  1.00  0.00    -0.167 C  
HETATM   22  C   UNL     1      -9.223   7.491  67.580  1.00  0.00    -0.135 A  
HETATM   23  C   UNL     1      -9.459   8.008  66.300  1.00  0.00    -0.241 A  
HETATM   24  C   UNL     1      -8.686   9.050  65.788  1.00  0.00    -0.169 A  
HETATM   25  C   UNL     1      -7.655   9.593  66.574  1.00  0.00    -0.098 A  
HETATM   26  O   UNL     1      -8.658   7.726  71.981  1.00  0.00    -0.105 OA 
HETATM   27  C   UNL     1      -8.945   7.390  70.828  1.00  0.00    -0.151 C  
HETATM   28  C   UNL     1      -7.424   9.075  67.859  1.00  0.00    -0.085 A  
HETATM   29  C   UNL     1      -7.878   7.452  69.739  1.00  0.00    -0.116 C  
HETATM   30  C   UNL     1      -8.210   8.032  68.383  1.00  0.00    -0.123 A  
BRANCH  24  31
HETATM   31  O   UNL     1      -8.906   9.611  64.554  1.00  0.00    -0.195 OA 
HETATM   32  C   UNL     1      -8.484   8.848  63.429  1.00  0.00    -0.145 C  
ENDBRANCH  24  31
BRANCH  25  33
HETATM   33  O   UNL     1      -6.930  10.610  66.004  1.00  0.00    -0.127 OA 
HETATM   34  C   UNL     1      -6.320  11.551  66.877  1.00  0.00    -0.146 C  
ENDBRANCH  25  33
ENDBRANCH  18  19
ENDBRANCH  17  18
ENDBRANCH  16  17
ENDBRANCH  14  16
ENDBRANCH  13  14
ENDBRANCH   9  13
ENDBRANCH   2   3
TORSDOF 10
ENDMDL
MODEL       52
REMARK 921   NORMALIZED FREE ENERGY PREDICTED BY IDOCK:   -5.57 KCAL/MOL
REMARK 922        TOTAL FREE ENERGY PREDICTED BY IDOCK:  -10.79 KCAL/MOL
REMARK 923 INTER-LIGAND FREE ENERGY PREDICTED BY IDOCK:   -9.28 KCAL/MOL
REMARK 924 INTRA-LIGAND FREE ENERGY PREDICTED BY IDOCK:   -1.51 KCAL/MOL
REMARK 927      BINDING AFFINITY PREDICTED BY RF-SCORE:    0.00 PKD
ROOT
HETATM    1  C   UNL     1      -8.027   3.184  65.603  1.00  0.00    -0.086 C  
HETATM    2  O   UNL     1      -9.310   3.050  66.208  1.00  0.00    -0.145 OA 
ENDROOT
BRANCH   2   3
HETATM    3  C   UNL     1      -9.523   3.695  67.399  1.00  0.00    -0.195 A  
HETATM    4  C   UNL     1      -9.845   5.066  67.591  1.00  0.00    -0.161 A  
HETATM    5  C   UNL     1      -9.399   2.831  68.522  1.00  0.00    -0.249 A  
HETATM    6  C   UNL     1      -9.965   5.565  68.888  1.00  0.00    -0.236 A  
HETATM    7  C   UNL     1      -9.552   3.373  69.784  1.00  0.00    -0.180 A  
HETATM    8  C   UNL     1      -9.746   4.711  69.933  1.00  0.00    -0.279 A  
HETATM    9  C   UNL     1      -9.648   4.703  71.438  1.00  0.00    -0.230 C  
HETATM   10  C   UNL     1      -9.688   3.119  71.268  1.00  0.00    -0.215 C  
BRANCH   4  11
HETATM   11  O   UNL     1     -10.073   5.883  66.515  1.00  0.00    -0.172 OA 
HETATM   12  C   UNL     1      -9.103   6.903  66.279  1.00  0.00    -0.141 C  
ENDBRANCH   4  11
BRANCH   9  13
HETATM   13  C   UNL     1     -10.715   5.676  71.957  1.00  0.00    -0.235 C  
BRANCH  13  14
HETATM   14  N   UNL     1     -10.257   6.911  72.598  1.00  0.00    -0.182 NA 
HETATM   15  C   UNL     1     -10.140   6.762  74.039  1.00  0.00    -0.359 C  
BRANCH  14  16
HETATM   16  C   UNL     1      -9.121   7.546  71.919  1.00  0.00    -0.129 C  
BRANCH  16  17
HETATM   17  C   UNL     1      -9.417   8.999  71.558  1.00  0.00    -0.316 C  
BRANCH  17  18
HETATM   18  C   UNL     1     -10.913   9.291  71.388  1.00  0.00    -0.359 C  
BRANCH  18  19
HETATM   19  N   UNL     1     -11.134   9.976  70.112  1.00  0.00    -0.288 N  
HETATM   20  C   UNL     1     -10.713   9.282  68.900  1.00  0.00    -0.156 C  
HETATM   21  C   UNL     1      -9.685  10.077  68.114  1.00  0.00    -0.156 C  
HETATM   22  C   UNL     1     -10.418  10.988  67.169  1.00  0.00    -0.274 A  
HETATM   23  C   UNL     1     -10.248  10.797  65.792  1.00  0.00    -0.319 A  
HETATM   24  C   UNL     1     -10.943  11.571  64.864  1.00  0.00    -0.254 A  
HETATM   25  C   UNL     1     -11.833  12.558  65.320  1.00  0.00    -0.413 A  
HETATM   26  O   UNL     1     -12.758  11.363  70.928  1.00  0.00    -0.346 OA 
HETATM   27  C   UNL     1     -11.900  11.131  70.071  1.00  0.00    -0.361 C  
HETATM   28  C   UNL     1     -12.005  12.745  66.701  1.00  0.00    -0.411 A  
HETATM   29  C   UNL     1     -11.469  12.241  69.117  1.00  0.00    -0.352 C  
HETATM   30  C   UNL     1     -11.314  11.956  67.640  1.00  0.00    -0.372 A  
BRANCH  24  31
HETATM   31  O   UNL     1     -10.834  11.393  63.506  1.00  0.00    -0.391 OA 
HETATM   32  C   UNL     1      -9.517  11.427  62.968  1.00  0.00    -0.358 C  
ENDBRANCH  24  31
BRANCH  25  33
HETATM   33  O   UNL     1     -12.476  13.289  64.352  1.00  0.00    -0.555 OA 
HETATM   34  C   UNL     1     -12.239  14.689  64.320  1.00  0.00    -0.408 C  
ENDBRANCH  25  33
ENDBRANCH  18  19
ENDBRANCH  17  18
ENDBRANCH  16  17
ENDBRANCH  14  16
ENDBRANCH  13  14
ENDBRANCH   9  13
ENDBRANCH   2   3
TORSDOF 10
ENDMDL
MODEL       53
REMARK 921   NORMALIZED FREE ENERGY PREDICTED BY IDOCK:   -5.57 KCAL/MOL
REMARK 922        TOTAL FREE ENERGY PREDICTED BY IDOCK:  -10.78 KCAL/MOL
REMARK 923 INTER-LIGAND FREE ENERGY PREDICTED BY IDOCK:   -8.47 KCAL/MOL
REMARK 924 INTRA-LIGAND FREE ENERGY PREDICTED BY IDOCK:   -2.31 KCAL/MOL
REMARK 927      BINDING AFFINITY PREDICTED BY RF-SCORE:    0.00 PKD
ROOT
HETATM    1  C   UNL     1     -12.932   8.356  71.854  1.00  0.00    -0.355 C  
HETATM    2  O   UNL     1     -11.786   7.819  72.506  1.00  0.00    -0.344 OA 
ENDROOT
BRANCH   2   3
HETATM    3  C   UNL     1     -10.624   7.732  71.782  1.00  0.00    -0.217 A  
HETATM    4  C   UNL     1     -10.076   6.572  71.169  1.00  0.00    -0.183 A  
HETATM    5  C   UNL     1      -9.953   8.980  71.667  1.00  0.00    -0.383 A  
HETATM    6  C   UNL     1      -8.844   6.660  70.521  1.00  0.00    -0.152 A  
HETATM    7  C   UNL     1      -8.747   9.014  70.993  1.00  0.00    -0.280 A  
HETATM    8  C   UNL     1      -8.197   7.865  70.519  1.00  0.00    -0.118 A  
HETATM    9  C   UNL     1      -6.895   8.494  70.092  1.00  0.00    -0.039 C  
HETATM   10  C   UNL     1      -7.645   9.865  70.403  1.00  0.00    -0.118 C  
BRANCH   4  11
HETATM   11  O   UNL     1     -10.766   5.389  71.180  1.00  0.00    -0.231 OA 
HETATM   12  C   UNL     1     -10.328   4.411  72.123  1.00  0.00    -0.143 C  
ENDBRANCH   4  11
BRANCH   9  13
HETATM   13  C   UNL     1      -6.508   7.850  68.753  1.00  0.00    -0.048 C  
BRANCH  13  14
HETATM   14  N   UNL     1      -7.049   8.445  67.530  1.00  0.00    -0.082 NA 
HETATM   15  C   UNL     1      -6.045   9.211  66.810  1.00  0.00    -0.064 C  
BRANCH  14  16
HETATM   16  C   UNL     1      -7.856   7.519  66.726  1.00  0.00    -0.110 C  
BRANCH  16  17
HETATM   17  C   UNL     1      -9.333   7.905  66.728  1.00  0.00    -0.232 C  
BRANCH  17  18
HETATM   18  C   UNL     1      -9.660   9.065  65.778  1.00  0.00    -0.217 C  
BRANCH  18  19
HETATM   19  N   UNL     1     -10.156  10.203  66.555  1.00  0.00    -0.225 N  
HETATM   20  C   UNL     1     -10.188  10.060  68.006  1.00  0.00    -0.181 C  
HETATM   21  C   UNL     1     -11.590  10.227  68.566  1.00  0.00    -0.077 C  
HETATM   22  C   UNL     1     -11.813  11.687  68.846  1.00  0.00    -0.392 A  
HETATM   23  C   UNL     1     -12.023  12.087  70.172  1.00  0.00    -0.401 A  
HETATM   24  C   UNL     1     -12.180  13.432  70.505  1.00  0.00    -0.352 A  
HETATM   25  C   UNL     1     -12.120  14.403  69.491  1.00  0.00    -0.322 A  
HETATM   26  O   UNL     1      -9.774  11.733  64.899  1.00  0.00    -0.238 OA 
HETATM   27  C   UNL     1     -10.377  11.422  65.930  1.00  0.00    -0.250 C  
HETATM   28  C   UNL     1     -11.905  14.000  68.164  1.00  0.00    -0.402 A  
HETATM   29  C   UNL     1     -11.581  12.246  66.376  1.00  0.00    -0.445 C  
HETATM   30  C   UNL     1     -11.734  12.644  67.826  1.00  0.00    -0.412 A  
BRANCH  24  31
HETATM   31  O   UNL     1     -12.352  13.870  71.796  1.00  0.00    -0.255 OA 
HETATM   32  C   UNL     1     -13.585  13.529  72.420  1.00  0.00    -0.608 C  
ENDBRANCH  24  31
BRANCH  25  33
HETATM   33  O   UNL     1     -12.291  15.706  69.890  1.00  0.00    -0.354 OA 
HETATM   34  C   UNL     1     -11.157  16.561  69.843  1.00  0.00    -0.235 C  
ENDBRANCH  25  33
ENDBRANCH  18  19
ENDBRANCH  17  18
ENDBRANCH  16  17
ENDBRANCH  14  16
ENDBRANCH  13  14
ENDBRANCH   9  13
ENDBRANCH   2   3
TORSDOF 10
ENDMDL
MODEL       54
REMARK 921   NORMALIZED FREE ENERGY PREDICTED BY IDOCK:   -5.54 KCAL/MOL
REMARK 922        TOTAL FREE ENERGY PREDICTED BY IDOCK:  -10.75 KCAL/MOL
REMARK 923 INTER-LIGAND FREE ENERGY PREDICTED BY IDOCK:   -8.88 KCAL/MOL
REMARK 924 INTRA-LIGAND FREE ENERGY PREDICTED BY IDOCK:   -1.87 KCAL/MOL
REMARK 927      BINDING AFFINITY PREDICTED BY RF-SCORE:    0.00 PKD
ROOT
HETATM    1  C   UNL     1     -11.566   9.146  71.500  1.00  0.00    -0.368 C  
HETATM    2  O   UNL     1     -11.184   8.000  70.745  1.00  0.00    -0.261 OA 
ENDROOT
BRANCH   2   3
HETATM    3  C   UNL     1     -10.602   8.209  69.521  1.00  0.00    -0.213 A  
HETATM    4  C   UNL     1     -10.429   7.261  68.477  1.00  0.00    -0.188 A  
HETATM    5  C   UNL     1     -10.154   9.547  69.347  1.00  0.00    -0.206 A  
HETATM    6  C   UNL     1      -9.754   7.639  67.316  1.00  0.00    -0.221 A  
HETATM    7  C   UNL     1      -9.513   9.873  68.166  1.00  0.00    -0.149 A  
HETATM    8  C   UNL     1      -9.264   8.913  67.237  1.00  0.00    -0.164 A  
HETATM    9  C   UNL     1      -8.432   9.794  66.340  1.00  0.00    -0.128 C  
HETATM   10  C   UNL     1      -8.947  10.966  67.288  1.00  0.00    -0.139 C  
BRANCH   4  11
HETATM   11  O   UNL     1     -10.952   5.999  68.589  1.00  0.00    -0.301 OA 
HETATM   12  C   UNL     1     -10.023   4.954  68.872  1.00  0.00    -0.149 C  
ENDBRANCH   4  11
BRANCH   9  13
HETATM   13  C   UNL     1      -8.811   9.441  64.896  1.00  0.00    -0.202 C  
BRANCH  13  14
HETATM   14  N   UNL     1      -8.146  10.175  63.817  1.00  0.00    -0.158 NA 
HETATM   15  C   UNL     1      -7.041   9.421  63.251  1.00  0.00    -0.095 C  
BRANCH  14  16
HETATM   16  C   UNL     1      -9.072  10.786  62.856  1.00  0.00    -0.297 C  
BRANCH  16  17
HETATM   17  C   UNL     1     -10.449  11.026  63.468  1.00  0.00    -0.365 C  
BRANCH  17  18
HETATM   18  C   UNL     1     -10.993  12.437  63.208  1.00  0.00    -0.267 C  
BRANCH  18  19
HETATM   19  N   UNL     1     -11.228  13.111  64.487  1.00  0.00    -0.337 N  
HETATM   20  C   UNL     1     -10.460  14.322  64.755  1.00  0.00    -0.395 C  
HETATM   21  C   UNL     1      -9.613  14.197  66.009  1.00  0.00    -0.251 C  
HETATM   22  C   UNL     1     -10.445  14.633  67.183  1.00  0.00    -0.268 A  
HETATM   23  C   UNL     1     -10.040  15.764  67.903  1.00  0.00    -0.230 A  
HETATM   24  C   UNL     1     -10.797  16.253  68.967  1.00  0.00    -0.315 A  
HETATM   25  C   UNL     1     -11.992  15.600  69.318  1.00  0.00    -0.320 A  
HETATM   26  O   UNL     1     -13.282  12.165  64.817  1.00  0.00    -0.567 OA 
HETATM   27  C   UNL     1     -12.286  12.716  65.292  1.00  0.00    -0.475 C  
HETATM   28  C   UNL     1     -12.397  14.469  68.591  1.00  0.00    -0.040 A  
HETATM   29  C   UNL     1     -12.073  12.717  66.803  1.00  0.00    -0.236 C  
HETATM   30  C   UNL     1     -11.641  13.981  67.510  1.00  0.00    -0.397 A  
BRANCH  24  31
HETATM   31  O   UNL     1     -10.456  17.378  69.677  1.00  0.00    -0.176 OA 
HETATM   32  C   UNL     1     -10.075  18.516  68.911  1.00  0.00    -0.310 C  
ENDBRANCH  24  31
BRANCH  25  33
HETATM   33  O   UNL     1     -12.682  16.130  70.380  1.00  0.00    -0.202 OA 
HETATM   34  C   UNL     1     -13.506  15.250  71.133  1.00  0.00    -0.489 C  
ENDBRANCH  25  33
ENDBRANCH  18  19
ENDBRANCH  17  18
ENDBRANCH  16  17
ENDBRANCH  14  16
ENDBRANCH  13  14
ENDBRANCH   9  13
ENDBRANCH   2   3
TORSDOF 10
ENDMDL
MODEL       55
REMARK 921   NORMALIZED FREE ENERGY PREDICTED BY IDOCK:   -5.52 KCAL/MOL
REMARK 922        TOTAL FREE ENERGY PREDICTED BY IDOCK:  -10.70 KCAL/MOL
REMARK 923 INTER-LIGAND FREE ENERGY PREDICTED BY IDOCK:   -9.52 KCAL/MOL
REMARK 924 INTRA-LIGAND FREE ENERGY PREDICTED BY IDOCK:   -1.18 KCAL/MOL
REMARK 927      BINDING AFFINITY PREDICTED BY RF-SCORE:    0.00 PKD
ROOT
HETATM    1  C   UNL     1     -11.298  15.536  67.614  1.00  0.00    -0.260 C  
HETATM    2  O   UNL     1     -11.853  15.648  68.920  1.00  0.00    -0.379 OA 
ENDROOT
BRANCH   2   3
HETATM    3  C   UNL     1     -12.135  14.487  69.593  1.00  0.00    -0.323 A  
HETATM    4  C   UNL     1     -12.878  14.348  70.797  1.00  0.00    -0.353 A  
HETATM    5  C   UNL     1     -11.601  13.336  68.952  1.00  0.00    -0.357 A  
HETATM    6  C   UNL     1     -13.013  13.085  71.375  1.00  0.00    -0.373 A  
HETATM    7  C   UNL     1     -11.785  12.106  69.556  1.00  0.00    -0.402 A  
HETATM    8  C   UNL     1     -12.401  12.025  70.765  1.00  0.00    -0.403 A  
HETATM    9  C   UNL     1     -12.137  10.554  70.962  1.00  0.00    -0.492 C  
HETATM   10  C   UNL     1     -11.658  10.604  69.443  1.00  0.00    -0.352 C  
BRANCH   4  11
HETATM   11  O   UNL     1     -13.489  15.434  71.366  1.00  0.00    -0.469 OA 
HETATM   12  C   UNL     1     -13.457  15.503  72.791  1.00  0.00    -0.557 C  
ENDBRANCH   4  11
BRANCH   9  13
HETATM   13  C   UNL     1     -13.404   9.955  71.588  1.00  0.00    -0.389 C  
BRANCH  13  14
HETATM   14  N   UNL     1     -13.283   8.669  72.277  1.00  0.00    -0.375 NA 
HETATM   15  C   UNL     1     -14.064   7.631  71.627  1.00  0.00    -0.434 C  
BRANCH  14  16
HETATM   16  C   UNL     1     -11.903   8.314  72.632  1.00  0.00    -0.315 C  
BRANCH  16  17
HETATM   17  C   UNL     1     -11.375   7.165  71.776  1.00  0.00    -0.285 C  
BRANCH  17  18
HETATM   18  C   UNL     1      -9.964   7.415  71.228  1.00  0.00    -0.187 C  
BRANCH  18  19
HETATM   19  N   UNL     1      -9.697   6.483  70.130  1.00  0.00    -0.166 N  
HETATM   20  C   UNL     1      -9.898   6.976  68.772  1.00  0.00    -0.152 C  
HETATM   21  C   UNL     1     -10.929   6.158  68.013  1.00  0.00    -0.399 C  
HETATM   22  C   UNL     1     -10.219   5.015  67.343  1.00  0.00    -0.201 A  
HETATM   23  C   UNL     1     -10.217   4.960  65.943  1.00  0.00    -0.251 A  
HETATM   24  C   UNL     1      -9.530   3.957  65.260  1.00  0.00    -0.170 A  
HETATM   25  C   UNL     1      -8.823   2.987  65.990  1.00  0.00    -0.142 A  
HETATM   26  O   UNL     1      -8.353   5.115  71.374  1.00  0.00    -0.115 OA 
HETATM   27  C   UNL     1      -9.080   5.268  70.388  1.00  0.00    -0.139 C  
HETATM   28  C   UNL     1      -8.822   3.047  67.393  1.00  0.00    -0.162 A  
HETATM   29  C   UNL     1      -9.543   4.049  69.596  1.00  0.00    -0.270 C  
HETATM   30  C   UNL     1      -9.505   4.065  68.085  1.00  0.00    -0.215 A  
BRANCH  24  31
HETATM   31  O   UNL     1      -9.472   3.887  63.889  1.00  0.00    -0.142 OA 
HETATM   32  C   UNL     1     -10.716   3.746  63.211  1.00  0.00    -0.182 C  
ENDBRANCH  24  31
BRANCH  25  33
HETATM   33  O   UNL     1      -8.177   2.026  65.254  1.00  0.00    -0.078 OA 
HETATM   34  C   UNL     1      -6.864   1.661  65.657  1.00  0.00    -0.034 C  
ENDBRANCH  25  33
ENDBRANCH  18  19
ENDBRANCH  17  18
ENDBRANCH  16  17
ENDBRANCH  14  16
ENDBRANCH  13  14
ENDBRANCH   9  13
ENDBRANCH   2   3
TORSDOF 10
ENDMDL
MODEL       56
REMARK 921   NORMALIZED FREE ENERGY PREDICTED BY IDOCK:   -5.52 KCAL/MOL
REMARK 922        TOTAL FREE ENERGY PREDICTED BY IDOCK:  -10.70 KCAL/MOL
REMARK 923 INTER-LIGAND FREE ENERGY PREDICTED BY IDOCK:   -9.33 KCAL/MOL
REMARK 924 INTRA-LIGAND FREE ENERGY PREDICTED BY IDOCK:   -1.37 KCAL/MOL
REMARK 927      BINDING AFFINITY PREDICTED BY RF-SCORE:    0.00 PKD
ROOT
HETATM    1  C   UNL     1     -11.599  15.539  72.133  1.00  0.00    -0.460 C  
HETATM    2  O   UNL     1     -12.043  16.077  70.891  1.00  0.00    -0.394 OA 
ENDROOT
BRANCH   2   3
HETATM    3  C   UNL     1     -11.682  15.415  69.746  1.00  0.00    -0.333 A  
HETATM    4  C   UNL     1     -10.927  15.927  68.656  1.00  0.00    -0.320 A  
HETATM    5  C   UNL     1     -12.142  14.069  69.720  1.00  0.00    -0.405 A  
HETATM    6  C   UNL     1     -10.707  15.122  67.539  1.00  0.00    -0.284 A  
HETATM    7  C   UNL     1     -11.874  13.308  68.598  1.00  0.00    -0.380 A  
HETATM    8  C   UNL     1     -11.249  13.867  67.528  1.00  0.00    -0.323 A  
HETATM    9  C   UNL     1     -11.415  12.671  66.624  1.00  0.00    -0.409 C  
HETATM   10  C   UNL     1     -11.902  11.940  67.954  1.00  0.00    -0.308 C  
BRANCH   4  11
HETATM   11  O   UNL     1     -10.387  17.185  68.716  1.00  0.00    -0.314 OA 
HETATM   12  C   UNL     1     -10.565  18.005  67.562  1.00  0.00    -0.388 C  
ENDBRANCH   4  11
BRANCH   9  13
HETATM   13  C   UNL     1     -10.108  12.530  65.831  1.00  0.00    -0.254 C  
BRANCH  13  14
HETATM   14  N   UNL     1     -10.082  11.571  64.725  1.00  0.00    -0.256 NA 
HETATM   15  C   UNL     1     -10.469  12.185  63.467  1.00  0.00    -0.454 C  
BRANCH  14  16
HETATM   16  C   UNL     1      -8.877  10.734  64.692  1.00  0.00    -0.143 C  
BRANCH  16  17
HETATM   17  C   UNL     1      -9.166   9.303  65.139  1.00  0.00    -0.264 C  
BRANCH  17  18
HETATM   18  C   UNL     1      -8.109   8.740  66.097  1.00  0.00    -0.107 C  
BRANCH  18  19
HETATM   19  N   UNL     1      -8.756   8.321  67.343  1.00  0.00    -0.124 N  
HETATM   20  C   UNL     1      -9.840   9.157  67.847  1.00  0.00    -0.169 C  
HETATM   21  C   UNL     1      -9.550   9.693  69.238  1.00  0.00    -0.190 C  
HETATM   22  C   UNL     1     -10.047   8.689  70.241  1.00  0.00    -0.206 A  
HETATM   23  C   UNL     1     -11.082   9.067  71.105  1.00  0.00    -0.371 A  
HETATM   24  C   UNL     1     -11.625   8.165  72.020  1.00  0.00    -0.330 A  
HETATM   25  C   UNL     1     -11.126   6.851  72.070  1.00  0.00    -0.245 A  
HETATM   26  O   UNL     1      -8.084   6.143  67.174  1.00  0.00    -0.105 OA 
HETATM   27  C   UNL     1      -8.476   7.074  67.883  1.00  0.00    -0.124 C  
HETATM   28  C   UNL     1     -10.092   6.475  71.199  1.00  0.00    -0.206 A  
HETATM   29  C   UNL     1      -8.386   6.956  69.401  1.00  0.00    -0.132 C  
HETATM   30  C   UNL     1      -9.550   7.380  70.267  1.00  0.00    -0.165 A  
BRANCH  24  31
HETATM   31  O   UNL     1     -12.664   8.482  72.860  1.00  0.00    -0.259 OA 
HETATM   32  C   UNL     1     -13.843   8.990  72.244  1.00  0.00    -0.484 C  
ENDBRANCH  24  31
BRANCH  25  33
HETATM   33  O   UNL     1     -11.701   6.020  72.999  1.00  0.00    -0.088 OA 
HETATM   34  C   UNL     1     -11.044   4.791  73.277  1.00  0.00    -0.333 C  
ENDBRANCH  25  33
ENDBRANCH  18  19
ENDBRANCH  17  18
ENDBRANCH  16  17
ENDBRANCH  14  16
ENDBRANCH  13  14
ENDBRANCH   9  13
ENDBRANCH   2   3
TORSDOF 10
ENDMDL
MODEL       57
REMARK 921   NORMALIZED FREE ENERGY PREDICTED BY IDOCK:   -5.51 KCAL/MOL
REMARK 922        TOTAL FREE ENERGY PREDICTED BY IDOCK:  -10.69 KCAL/MOL
REMARK 923 INTER-LIGAND FREE ENERGY PREDICTED BY IDOCK:   -9.27 KCAL/MOL
REMARK 924 INTRA-LIGAND FREE ENERGY PREDICTED BY IDOCK:   -1.42 KCAL/MOL
REMARK 927      BINDING AFFINITY PREDICTED BY RF-SCORE:    0.00 PKD
ROOT
HETATM    1  C   UNL     1      -5.139  10.378  71.096  1.00  0.00    -0.085 C  
HETATM    2  O   UNL     1      -5.899   9.615  70.163  1.00  0.00    -0.038 OA 
ENDROOT
BRANCH   2   3
HETATM    3  C   UNL     1      -7.225   9.405  70.443  1.00  0.00    -0.111 A  
HETATM    4  C   UNL     1      -8.337   9.687  69.604  1.00  0.00    -0.168 A  
HETATM    5  C   UNL     1      -7.432   8.833  71.728  1.00  0.00    -0.080 A  
HETATM    6  C   UNL     1      -9.628   9.464  70.083  1.00  0.00    -0.275 A  
HETATM    7  C   UNL     1      -8.732   8.610  72.143  1.00  0.00    -0.217 A  
HETATM    8  C   UNL     1      -9.773   8.998  71.360  1.00  0.00    -0.369 A  
HETATM    9  C   UNL     1     -10.841   8.682  72.377  1.00  0.00    -0.312 C  
HETATM   10  C   UNL     1      -9.647   7.990  73.174  1.00  0.00    -0.344 C  
BRANCH   4  11
HETATM   11  O   UNL     1      -8.146  10.137  68.324  1.00  0.00    -0.100 OA 
HETATM   12  C   UNL     1      -8.167  11.552  68.142  1.00  0.00    -0.149 C  
ENDBRANCH   4  11
BRANCH   9  13
HETATM   13  C   UNL     1     -12.017   8.064  71.609  1.00  0.00    -0.298 C  
BRANCH  13  14
HETATM   14  N   UNL     1     -13.165   8.923  71.311  1.00  0.00    -0.243 NA 
HETATM   15  C   UNL     1     -14.400   8.164  71.220  1.00  0.00    -0.272 C  
BRANCH  14  16
HETATM   16  C   UNL     1     -13.216  10.147  72.120  1.00  0.00    -0.362 C  
BRANCH  16  17
HETATM   17  C   UNL     1     -12.635  11.345  71.373  1.00  0.00    -0.439 C  
BRANCH  17  18
HETATM   18  C   UNL     1     -12.658  11.180  69.848  1.00  0.00    -0.105 C  
BRANCH  18  19
HETATM   19  N   UNL     1     -12.017  12.340  69.224  1.00  0.00    -0.283 N  
HETATM   20  C   UNL     1     -11.571  13.412  70.106  1.00  0.00    -0.100 C  
HETATM   21  C   UNL     1     -12.234  14.738  69.774  1.00  0.00    -0.337 C  
HETATM   22  C   UNL     1     -11.397  15.434  68.737  1.00  0.00    -0.328 A  
HETATM   23  C   UNL     1     -10.794  16.652  69.075  1.00  0.00    -0.314 A  
HETATM   24  C   UNL     1      -9.961  17.320  68.177  1.00  0.00    -0.303 A  
HETATM   25  C   UNL     1      -9.719  16.755  66.913  1.00  0.00    -0.257 A  
HETATM   26  O   UNL     1     -11.457  11.228  67.306  1.00  0.00    -0.464 OA 
HETATM   27  C   UNL     1     -11.671  12.299  67.881  1.00  0.00    -0.347 C  
HETATM   28  C   UNL     1     -10.320  15.531  66.579  1.00  0.00    -0.293 A  
HETATM   29  C   UNL     1     -11.841  13.574  67.060  1.00  0.00    -0.447 C  
HETATM   30  C   UNL     1     -11.152  14.850  67.487  1.00  0.00    -0.319 A  
BRANCH  24  31
HETATM   31  O   UNL     1      -9.322  18.498  68.480  1.00  0.00    -0.319 OA 
HETATM   32  C   UNL     1     -10.156  19.598  68.826  1.00  0.00    -0.437 C  
ENDBRANCH  24  31
BRANCH  25  33
HETATM   33  O   UNL     1      -8.896  17.470  66.078  1.00  0.00    -0.499 OA 
HETATM   34  C   UNL     1      -7.507  17.169  66.109  1.00  0.00    -0.260 C  
ENDBRANCH  25  33
ENDBRANCH  18  19
ENDBRANCH  17  18
ENDBRANCH  16  17
ENDBRANCH  14  16
ENDBRANCH  13  14
ENDBRANCH   9  13
ENDBRANCH   2   3
TORSDOF 10
ENDMDL
MODEL       58
REMARK 921   NORMALIZED FREE ENERGY PREDICTED BY IDOCK:   -5.50 KCAL/MOL
REMARK 922        TOTAL FREE ENERGY PREDICTED BY IDOCK:  -10.68 KCAL/MOL
REMARK 923 INTER-LIGAND FREE ENERGY PREDICTED BY IDOCK:   -8.25 KCAL/MOL
REMARK 924 INTRA-LIGAND FREE ENERGY PREDICTED BY IDOCK:   -2.43 KCAL/MOL
REMARK 927      BINDING AFFINITY PREDICTED BY RF-SCORE:    0.00 PKD
ROOT
HETATM    1  C   UNL     1     -14.352   8.618  72.078  1.00  0.00    -0.422 C  
HETATM    2  O   UNL     1     -12.971   8.821  72.360  1.00  0.00    -0.392 OA 
ENDROOT
BRANCH   2   3
HETATM    3  C   UNL     1     -12.061   8.366  71.440  1.00  0.00    -0.301 A  
HETATM    4  C   UNL     1     -11.237   9.146  70.584  1.00  0.00    -0.270 A  
HETATM    5  C   UNL     1     -11.981   6.946  71.402  1.00  0.00    -0.393 A  
HETATM    6  C   UNL     1     -10.409   8.505  69.662  1.00  0.00    -0.218 A  
HETATM    7  C   UNL     1     -11.126   6.364  70.486  1.00  0.00    -0.388 A  
HETATM    8  C   UNL     1     -10.439   7.139  69.605  1.00  0.00    -0.241 A  
HETATM    9  C   UNL     1      -9.879   5.988  68.807  1.00  0.00    -0.170 C  
HETATM   10  C   UNL     1     -10.465   5.097  69.992  1.00  0.00    -0.305 C  
BRANCH   4  11
HETATM   11  O   UNL     1     -11.225  10.512  70.687  1.00  0.00    -0.316 OA 
HETATM   12  C   UNL     1     -12.156  11.215  69.866  1.00  0.00    -0.344 C  
ENDBRANCH   4  11
BRANCH   9  13
HETATM   13  C   UNL     1      -8.430   6.354  68.458  1.00  0.00    -0.119 C  
BRANCH  13  14
HETATM   14  N   UNL     1      -7.830   5.714  67.286  1.00  0.00    -0.101 NA 
HETATM   15  C   UNL     1      -8.785   5.564  66.201  1.00  0.00    -0.133 C  
BRANCH  14  16
HETATM   16  C   UNL     1      -6.516   6.259  66.920  1.00  0.00    -0.046 C  
BRANCH  16  17
HETATM   17  C   UNL     1      -6.302   7.657  67.493  1.00  0.00    -0.054 C  
BRANCH  17  18
HETATM   18  C   UNL     1      -6.067   8.726  66.417  1.00  0.00    -0.060 C  
BRANCH  18  19
HETATM   19  N   UNL     1      -7.204   9.649  66.392  1.00  0.00    -0.092 N  
HETATM   20  C   UNL     1      -7.053  10.914  67.103  1.00  0.00    -0.103 C  
HETATM   21  C   UNL     1      -8.099  11.086  68.191  1.00  0.00    -0.122 C  
HETATM   22  C   UNL     1      -9.309  11.735  67.579  1.00  0.00    -0.174 A  
HETATM   23  C   UNL     1      -9.685  13.006  68.032  1.00  0.00    -0.224 A  
HETATM   24  C   UNL     1     -10.764  13.686  67.467  1.00  0.00    -0.259 A  
HETATM   25  C   UNL     1     -11.484  13.084  66.421  1.00  0.00    -0.341 A  
HETATM   26  O   UNL     1      -8.144   8.728  64.523  1.00  0.00    -0.140 OA 
HETATM   27  C   UNL     1      -8.277   9.401  65.549  1.00  0.00    -0.126 C  
HETATM   28  C   UNL     1     -11.102  11.812  65.965  1.00  0.00    -0.363 A  
HETATM   29  C   UNL     1      -9.677   9.730  66.059  1.00  0.00    -0.319 C  
HETATM   30  C   UNL     1     -10.006  11.129  66.526  1.00  0.00    -0.252 A  
BRANCH  24  31
HETATM   31  O   UNL     1     -11.143  14.947  67.856  1.00  0.00    -0.276 OA 
HETATM   32  C   UNL     1     -10.324  16.021  67.407  1.00  0.00    -0.294 C  
ENDBRANCH  24  31
BRANCH  25  33
HETATM   33  O   UNL     1     -12.538  13.805  65.918  1.00  0.00    -0.472 OA 
HETATM   34  C   UNL     1     -12.383  14.383  64.628  1.00  0.00    -0.418 C  
ENDBRANCH  25  33
ENDBRANCH  18  19
ENDBRANCH  17  18
ENDBRANCH  16  17
ENDBRANCH  14  16
ENDBRANCH  13  14
ENDBRANCH   9  13
ENDBRANCH   2   3
TORSDOF 10
ENDMDL
MODEL       59
REMARK 921   NORMALIZED FREE ENERGY PREDICTED BY IDOCK:   -5.49 KCAL/MOL
REMARK 922        TOTAL FREE ENERGY PREDICTED BY IDOCK:  -10.66 KCAL/MOL
REMARK 923 INTER-LIGAND FREE ENERGY PREDICTED BY IDOCK:   -9.41 KCAL/MOL
REMARK 924 INTRA-LIGAND FREE ENERGY PREDICTED BY IDOCK:   -1.25 KCAL/MOL
REMARK 927      BINDING AFFINITY PREDICTED BY RF-SCORE:    0.00 PKD
ROOT
HETATM    1  C   UNL     1     -10.871  15.880  67.410  1.00  0.00    -0.291 C  
HETATM    2  O   UNL     1     -11.589  16.072  68.626  1.00  0.00    -0.386 OA 
ENDROOT
BRANCH   2   3
HETATM    3  C   UNL     1     -11.868  14.962  69.382  1.00  0.00    -0.324 A  
HETATM    4  C   UNL     1     -12.262  14.927  70.747  1.00  0.00    -0.325 A  
HETATM    5  C   UNL     1     -11.735  13.750  68.650  1.00  0.00    -0.391 A  
HETATM    6  C   UNL     1     -12.445  13.694  71.374  1.00  0.00    -0.374 A  
HETATM    7  C   UNL     1     -11.952  12.558  69.315  1.00  0.00    -0.304 A  
HETATM    8  C   UNL     1     -12.215  12.558  70.649  1.00  0.00    -0.365 A  
HETATM    9  C   UNL     1     -12.161  11.059  70.806  1.00  0.00    -0.480 C  
HETATM   10  C   UNL     1     -12.119  11.058  69.213  1.00  0.00    -0.363 C  
BRANCH   4  11
HETATM   11  O   UNL     1     -12.498  16.090  71.432  1.00  0.00    -0.446 OA 
HETATM   12  C   UNL     1     -12.116  16.102  72.807  1.00  0.00    -0.553 C  
ENDBRANCH   4  11
BRANCH   9  13
HETATM   13  C   UNL     1     -13.289  10.674  71.773  1.00  0.00    -0.334 C  
BRANCH  13  14
HETATM   14  N   UNL     1     -13.215   9.362  72.419  1.00  0.00    -0.434 NA 
HETATM   15  C   UNL     1     -14.403   8.565  72.164  1.00  0.00    -0.436 C  
BRANCH  14  16
HETATM   16  C   UNL     1     -11.927   8.681  72.234  1.00  0.00    -0.368 C  
BRANCH  16  17
HETATM   17  C   UNL     1     -12.058   7.452  71.339  1.00  0.00    -0.357 C  
BRANCH  17  18
HETATM   18  C   UNL     1     -10.794   6.583  71.312  1.00  0.00    -0.249 C  
BRANCH  18  19
HETATM   19  N   UNL     1     -10.238   6.577  69.956  1.00  0.00    -0.180 N  
HETATM   20  C   UNL     1      -9.691   7.833  69.454  1.00  0.00    -0.169 C  
HETATM   21  C   UNL     1     -10.393   8.296  68.189  1.00  0.00    -0.253 C  
HETATM   22  C   UNL     1      -9.691   7.681  67.010  1.00  0.00    -0.255 A  
HETATM   23  C   UNL     1      -9.055   8.530  66.096  1.00  0.00    -0.245 A  
HETATM   24  C   UNL     1      -8.340   8.020  65.013  1.00  0.00    -0.113 A  
HETATM   25  C   UNL     1      -8.252   6.628  64.841  1.00  0.00    -0.085 A  
HETATM   26  O   UNL     1      -9.912   4.315  69.902  1.00  0.00    -0.221 OA 
HETATM   27  C   UNL     1     -10.059   5.375  69.287  1.00  0.00    -0.231 C  
HETATM   28  C   UNL     1      -8.886   5.779  65.762  1.00  0.00    -0.151 A  
HETATM   29  C   UNL     1     -10.330   5.345  67.787  1.00  0.00    -0.226 C  
HETATM   30  C   UNL     1      -9.599   6.291  66.862  1.00  0.00    -0.173 A  
BRANCH  24  31
HETATM   31  O   UNL     1      -7.672   8.815  64.113  1.00  0.00    -0.116 OA 
HETATM   32  C   UNL     1      -6.578   9.568  64.625  1.00  0.00    -0.093 C  
ENDBRANCH  24  31
BRANCH  25  33
HETATM   33  O   UNL     1      -7.539   6.196  63.749  1.00  0.00    -0.075 OA 
HETATM   34  C   UNL     1      -6.674   5.083  63.928  1.00  0.00    -0.042 C  
ENDBRANCH  25  33
ENDBRANCH  18  19
ENDBRANCH  17  18
ENDBRANCH  16  17
ENDBRANCH  14  16
ENDBRANCH  13  14
ENDBRANCH   9  13
ENDBRANCH   2   3
TORSDOF 10
ENDMDL
MODEL       60
REMARK 921   NORMALIZED FREE ENERGY PREDICTED BY IDOCK:   -5.47 KCAL/MOL
REMARK 922        TOTAL FREE ENERGY PREDICTED BY IDOCK:  -10.64 KCAL/MOL
REMARK 923 INTER-LIGAND FREE ENERGY PREDICTED BY IDOCK:   -9.99 KCAL/MOL
REMARK 924 INTRA-LIGAND FREE ENERGY PREDICTED BY IDOCK:   -0.65 KCAL/MOL
REMARK 927      BINDING AFFINITY PREDICTED BY RF-SCORE:    0.00 PKD
ROOT
HETATM    1  C   UNL     1      -9.903   4.424  71.371  1.00  0.00    -0.192 C  
HETATM    2  O   UNL     1     -10.865   5.450  71.593  1.00  0.00    -0.229 OA 
ENDROOT
BRANCH   2   3
HETATM    3  C   UNL     1     -10.775   6.585  70.828  1.00  0.00    -0.241 A  
HETATM    4  C   UNL     1     -10.717   7.930  71.284  1.00  0.00    -0.228 A  
HETATM    5  C   UNL     1     -10.731   6.305  69.434  1.00  0.00    -0.364 A  
HETATM    6  C   UNL     1     -10.689   8.967  70.352  1.00  0.00    -0.261 A  
HETATM    7  C   UNL     1     -10.680   7.371  68.555  1.00  0.00    -0.138 A  
HETATM    8  C   UNL     1     -10.741   8.645  69.024  1.00  0.00    -0.122 A  
HETATM    9  C   UNL     1     -10.832   9.293  67.665  1.00  0.00    -0.188 C  
HETATM   10  C   UNL     1     -10.494   7.831  67.127  1.00  0.00    -0.413 C  
BRANCH   4  11
HETATM   11  O   UNL     1     -10.649   8.206  72.624  1.00  0.00    -0.316 OA 
HETATM   12  C   UNL     1      -9.365   8.074  73.232  1.00  0.00    -0.275 C  
ENDBRANCH   4  11
BRANCH   9  13
HETATM   13  C   UNL     1      -9.967  10.559  67.718  1.00  0.00    -0.171 C  
BRANCH  13  14
HETATM   14  N   UNL     1      -9.766  11.301  66.472  1.00  0.00    -0.198 NA 
HETATM   15  C   UNL     1      -9.183  10.467  65.434  1.00  0.00    -0.192 C  
BRANCH  14  16
HETATM   16  C   UNL     1     -10.919  12.118  66.074  1.00  0.00    -0.293 C  
BRANCH  16  17
HETATM   17  C   UNL     1     -10.488  13.455  65.478  1.00  0.00    -0.297 C  
BRANCH  17  18
HETATM   18  C   UNL     1     -11.374  14.629  65.916  1.00  0.00    -0.338 C  
BRANCH  18  19
HETATM   19  N   UNL     1     -10.533  15.798  66.188  1.00  0.00    -0.305 N  
HETATM   20  C   UNL     1      -9.457  15.635  67.159  1.00  0.00    -0.217 C  
HETATM   21  C   UNL     1      -9.594  16.592  68.330  1.00  0.00    -0.233 C  
HETATM   22  C   UNL     1      -8.891  17.872  67.975  1.00  0.00    -0.268 A  
HETATM   23  C   UNL     1      -7.779  18.255  68.736  1.00  0.00    -0.286 A  
HETATM   24  C   UNL     1      -7.050  19.402  68.424  1.00  0.00    -0.304 A  
HETATM   25  C   UNL     1      -7.436  20.184  67.322  1.00  0.00    -0.286 A  
HETATM   26  O   UNL     1     -11.055  16.857  64.230  1.00  0.00    -1.135 OA 
HETATM   27  C   UNL     1     -10.642  16.928  65.391  1.00  0.00    -0.162 C  
HETATM   28  C   UNL     1      -8.548  19.796  66.558  1.00  0.00    -0.396 A  
HETATM   29  C   UNL     1     -10.515  18.291  66.064  1.00  0.00    -0.380 C  
HETATM   30  C   UNL     1      -9.279  18.632  66.864  1.00  0.00    -0.305 A  
BRANCH  24  31
HETATM   31  O   UNL     1      -5.932  19.794  69.121  1.00  0.00    -0.240 OA 
HETATM   32  C   UNL     1      -6.105  20.020  70.516  1.00  0.00    -0.337 C  
ENDBRANCH  24  31
BRANCH  25  33
HETATM   33  O   UNL     1      -6.679  21.303  67.078  1.00  0.00    -0.439 OA 
HETATM   34  C   UNL     1      -5.755  21.248  65.999  1.00  0.00    -0.240 C  
ENDBRANCH  25  33
ENDBRANCH  18  19
ENDBRANCH  17  18
ENDBRANCH  16  17
ENDBRANCH  14  16
ENDBRANCH  13  14
ENDBRANCH   9  13
ENDBRANCH   2   3
TORSDOF 10
ENDMDL
MODEL       61
REMARK 921   NORMALIZED FREE ENERGY PREDICTED BY IDOCK:   -5.47 KCAL/MOL
REMARK 922        TOTAL FREE ENERGY PREDICTED BY IDOCK:  -10.63 KCAL/MOL
REMARK 923 INTER-LIGAND FREE ENERGY PREDICTED BY IDOCK:   -9.83 KCAL/MOL
REMARK 924 INTRA-LIGAND FREE ENERGY PREDICTED BY IDOCK:   -0.80 KCAL/MOL
REMARK 927      BINDING AFFINITY PREDICTED BY RF-SCORE:    0.00 PKD
ROOT
HETATM    1  C   UNL     1      -6.654   6.835  71.974  1.00  0.00    -0.054 C  
HETATM    2  O   UNL     1      -7.262   8.013  72.495  1.00  0.00    -0.084 OA 
ENDROOT
BRANCH   2   3
HETATM    3  C   UNL     1      -8.305   8.557  71.790  1.00  0.00    -0.163 A  
HETATM    4  C   UNL     1      -9.691   8.459  72.088  1.00  0.00    -0.300 A  
HETATM    5  C   UNL     1      -7.874   9.294  70.652  1.00  0.00    -0.181 A  
HETATM    6  C   UNL     1     -10.620   9.028  71.217  1.00  0.00    -0.378 A  
HETATM    7  C   UNL     1      -8.837   9.858  69.836  1.00  0.00    -0.222 A  
HETATM    8  C   UNL     1     -10.155   9.646  70.089  1.00  0.00    -0.311 A  
HETATM    9  C   UNL     1     -10.651  10.309  68.829  1.00  0.00    -0.231 C  
HETATM   10  C   UNL     1      -9.137  10.781  68.676  1.00  0.00    -0.173 C  
BRANCH   4  11
HETATM   11  O   UNL     1     -10.112   7.845  73.239  1.00  0.00    -0.313 OA 
HETATM   12  C   UNL     1     -10.755   6.581  73.081  1.00  0.00    -0.269 C  
ENDBRANCH   4  11
BRANCH   9  13
HETATM   13  C   UNL     1     -11.908  11.103  69.210  1.00  0.00    -0.352 C  
BRANCH  13  14
HETATM   14  N   UNL     1     -12.034  12.469  68.697  1.00  0.00    -0.284 NA 
HETATM   15  C   UNL     1     -11.537  13.451  69.646  1.00  0.00    -0.268 C  
BRANCH  14  16
HETATM   16  C   UNL     1     -11.584  12.625  67.308  1.00  0.00    -0.364 C  
BRANCH  16  17
HETATM   17  C   UNL     1     -12.185  13.866  66.654  1.00  0.00    -0.465 C  
BRANCH  17  18
HETATM   18  C   UNL     1     -11.402  14.344  65.424  1.00  0.00    -0.339 C  
BRANCH  18  19
HETATM   19  N   UNL     1     -10.613  15.526  65.779  1.00  0.00    -0.337 N  
HETATM   20  C   UNL     1      -9.460  15.323  66.650  1.00  0.00    -0.259 C  
HETATM   21  C   UNL     1      -9.565  16.125  67.935  1.00  0.00    -0.223 C  
HETATM   22  C   UNL     1      -8.966  17.482  67.693  1.00  0.00    -0.231 A  
HETATM   23  C   UNL     1      -7.825  17.846  68.419  1.00  0.00    -0.288 A  
HETATM   24  C   UNL     1      -7.188  19.067  68.200  1.00  0.00    -0.260 A  
HETATM   25  C   UNL     1      -7.700  19.946  67.230  1.00  0.00    -0.276 A  
HETATM   26  O   UNL     1     -11.339  16.771  64.004  1.00  0.00    -1.153 OA 
HETATM   27  C   UNL     1     -10.846  16.733  65.135  1.00  0.00    -0.138 C  
HETATM   28  C   UNL     1      -8.842  19.576  66.501  1.00  0.00    -0.395 A  
HETATM   29  C   UNL     1     -10.749  18.013  65.959  1.00  0.00    -0.143 C  
HETATM   30  C   UNL     1      -9.479  18.339  66.711  1.00  0.00    -0.300 A  
BRANCH  24  31
HETATM   31  O   UNL     1      -6.047  19.448  68.864  1.00  0.00    -0.227 OA 
HETATM   32  C   UNL     1      -6.148  19.563  70.279  1.00  0.00    -0.229 C  
ENDBRANCH  24  31
BRANCH  25  33
HETATM   33  O   UNL     1      -7.029  21.133  67.074  1.00  0.00    -0.371 OA 
HETATM   34  C   UNL     1      -6.037  21.198  66.059  1.00  0.00    -0.247 C  
ENDBRANCH  25  33
ENDBRANCH  18  19
ENDBRANCH  17  18
ENDBRANCH  16  17
ENDBRANCH  14  16
ENDBRANCH  13  14
ENDBRANCH   9  13
ENDBRANCH   2   3
TORSDOF 10
ENDMDL
MODEL       62
REMARK 921   NORMALIZED FREE ENERGY PREDICTED BY IDOCK:   -5.47 KCAL/MOL
REMARK 922        TOTAL FREE ENERGY PREDICTED BY IDOCK:  -10.63 KCAL/MOL
REMARK 923 INTER-LIGAND FREE ENERGY PREDICTED BY IDOCK:   -8.73 KCAL/MOL
REMARK 924 INTRA-LIGAND FREE ENERGY PREDICTED BY IDOCK:   -1.89 KCAL/MOL
REMARK 927      BINDING AFFINITY PREDICTED BY RF-SCORE:    0.00 PKD
ROOT
HETATM    1  C   UNL     1      -5.155  12.403  70.684  1.00  0.00    -0.124 C  
HETATM    2  O   UNL     1      -6.140  13.421  70.830  1.00  0.00    -0.127 OA 
ENDROOT
BRANCH   2   3
HETATM    3  C   UNL     1      -6.341  14.268  69.770  1.00  0.00    -0.144 A  
HETATM    4  C   UNL     1      -7.077  14.003  68.583  1.00  0.00    -0.108 A  
HETATM    5  C   UNL     1      -5.723  15.536  69.954  1.00  0.00    -0.135 A  
HETATM    6  C   UNL     1      -7.124  14.969  67.578  1.00  0.00    -0.224 A  
HETATM    7  C   UNL     1      -5.821  16.465  68.935  1.00  0.00    -0.132 A  
HETATM    8  C   UNL     1      -6.435  16.135  67.768  1.00  0.00    -0.168 A  
HETATM    9  C   UNL     1      -6.068  17.408  67.048  1.00  0.00    -0.193 C  
HETATM   10  C   UNL     1      -5.587  17.891  68.489  1.00  0.00    -0.161 C  
BRANCH   4  11
HETATM   11  O   UNL     1      -7.767  12.828  68.441  1.00  0.00    -0.126 OA 
HETATM   12  C   UNL     1      -7.293  11.936  67.433  1.00  0.00    -0.145 C  
ENDBRANCH   4  11
BRANCH   9  13
HETATM   13  C   UNL     1      -7.291  17.818  66.218  1.00  0.00    -0.299 C  
BRANCH  13  14
HETATM   14  N   UNL     1      -8.136  18.896  66.734  1.00  0.00    -0.259 NA 
HETATM   15  C   UNL     1      -7.552  20.204  66.496  1.00  0.00    -0.282 C  
BRANCH  14  16
HETATM   16  C   UNL     1      -9.558  18.751  66.395  1.00  0.00    -0.335 C  
BRANCH  16  17
HETATM   17  C   UNL     1     -10.048  17.320  66.603  1.00  0.00    -0.302 C  
BRANCH  17  18
HETATM   18  C   UNL     1     -10.878  17.142  67.881  1.00  0.00    -0.294 C  
BRANCH  18  19
HETATM   19  N   UNL     1     -10.958  15.718  68.214  1.00  0.00    -0.310 N  
HETATM   20  C   UNL     1     -10.467  14.771  67.219  1.00  0.00    -0.264 C  
HETATM   21  C   UNL     1     -11.546  13.800  66.773  1.00  0.00    -0.394 C  
HETATM   22  C   UNL     1     -11.528  12.618  67.703  1.00  0.00    -0.390 A  
HETATM   23  C   UNL     1     -11.203  11.361  67.177  1.00  0.00    -0.363 A  
HETATM   24  C   UNL     1     -11.114  10.236  67.996  1.00  0.00    -0.274 A  
HETATM   25  C   UNL     1     -11.349  10.369  69.375  1.00  0.00    -0.250 A  
HETATM   26  O   UNL     1     -11.083  16.065  70.470  1.00  0.00    -0.345 OA 
HETATM   27  C   UNL     1     -11.290  15.327  69.503  1.00  0.00    -0.288 C  
HETATM   28  C   UNL     1     -11.670  11.631  69.900  1.00  0.00    -0.414 A  
HETATM   29  C   UNL     1     -12.172  14.094  69.671  1.00  0.00    -0.376 C  
HETATM   30  C   UNL     1     -11.749  12.770  69.078  1.00  0.00    -0.371 A  
BRANCH  24  31
HETATM   31  O   UNL     1     -10.763   8.993  67.527  1.00  0.00    -0.267 OA 
HETATM   32  C   UNL     1      -9.960   8.963  66.353  1.00  0.00    -0.284 C  
ENDBRANCH  24  31
BRANCH  25  33
HETATM   33  O   UNL     1     -11.253   9.219  70.119  1.00  0.00    -0.248 OA 
HETATM   34  C   UNL     1     -10.427   9.252  71.275  1.00  0.00    -0.338 C  
ENDBRANCH  25  33
ENDBRANCH  18  19
ENDBRANCH  17  18
ENDBRANCH  16  17
ENDBRANCH  14  16
ENDBRANCH  13  14
ENDBRANCH   9  13
ENDBRANCH   2   3
TORSDOF 10
ENDMDL
MODEL       63
REMARK 921   NORMALIZED FREE ENERGY PREDICTED BY IDOCK:   -5.45 KCAL/MOL
REMARK 922        TOTAL FREE ENERGY PREDICTED BY IDOCK:  -10.59 KCAL/MOL
REMARK 923 INTER-LIGAND FREE ENERGY PREDICTED BY IDOCK:   -9.82 KCAL/MOL
REMARK 924 INTRA-LIGAND FREE ENERGY PREDICTED BY IDOCK:   -0.78 KCAL/MOL
REMARK 927      BINDING AFFINITY PREDICTED BY RF-SCORE:    0.00 PKD
ROOT
HETATM    1  C   UNL     1      -7.226   2.776  70.445  1.00  0.00    -0.033 C  
HETATM    2  O   UNL     1      -8.429   2.619  71.191  1.00  0.00    -0.060 OA 
ENDROOT
BRANCH   2   3
HETATM    3  C   UNL     1      -9.249   3.712  71.314  1.00  0.00    -0.127 A  
HETATM    4  C   UNL     1      -9.671   4.341  72.517  1.00  0.00    -0.147 A  
HETATM    5  C   UNL     1      -9.677   4.222  70.058  1.00  0.00    -0.287 A  
HETATM    6  C   UNL     1     -10.562   5.412  72.451  1.00  0.00    -0.276 A  
HETATM    7  C   UNL     1     -10.541   5.301  70.051  1.00  0.00    -0.300 A  
HETATM    8  C   UNL     1     -11.014   5.804  71.222  1.00  0.00    -0.299 A  
HETATM    9  C   UNL     1     -11.986   6.764  70.583  1.00  0.00    -0.418 C  
HETATM   10  C   UNL     1     -11.242   6.362  69.233  1.00  0.00    -0.440 C  
BRANCH   4  11
HETATM   11  O   UNL     1      -9.180   3.926  73.727  1.00  0.00    -0.094 OA 
HETATM   12  C   UNL     1      -8.158   4.737  74.305  1.00  0.00    -0.100 C  
ENDBRANCH   4  11
BRANCH   9  13
HETATM   13  C   UNL     1     -11.932   8.061  71.402  1.00  0.00    -0.298 C  
BRANCH  13  14
HETATM   14  N   UNL     1     -13.082   8.963  71.327  1.00  0.00    -0.251 NA 
HETATM   15  C   UNL     1     -14.221   8.451  72.070  1.00  0.00    -0.444 C  
BRANCH  14  16
HETATM   16  C   UNL     1     -12.746  10.375  71.550  1.00  0.00    -0.459 C  
BRANCH  16  17
HETATM   17  C   UNL     1     -11.705  10.875  70.552  1.00  0.00    -0.441 C  
BRANCH  17  18
HETATM   18  C   UNL     1     -12.283  11.146  69.157  1.00  0.00    -0.175 C  
BRANCH  18  19
HETATM   19  N   UNL     1     -11.721  12.393  68.632  1.00  0.00    -0.312 N  
HETATM   20  C   UNL     1     -11.333  13.411  69.602  1.00  0.00    -0.137 C  
HETATM   21  C   UNL     1     -12.079  14.718  69.388  1.00  0.00    -0.305 C  
HETATM   22  C   UNL     1     -11.296  15.550  68.412  1.00  0.00    -0.357 A  
HETATM   23  C   UNL     1     -10.767  16.770  68.850  1.00  0.00    -0.333 A  
HETATM   24  C   UNL     1      -9.985  17.563  68.010  1.00  0.00    -0.310 A  
HETATM   25  C   UNL     1      -9.720  17.125  66.701  1.00  0.00    -0.276 A  
HETATM   26  O   UNL     1     -11.112  11.487  66.623  1.00  0.00    -0.292 OA 
HETATM   27  C   UNL     1     -11.386  12.490  67.289  1.00  0.00    -0.315 C  
HETATM   28  C   UNL     1     -10.249  15.899  66.265  1.00  0.00    -0.324 A  
HETATM   29  C   UNL     1     -11.642  13.817  66.583  1.00  0.00    -0.392 C  
HETATM   30  C   UNL     1     -11.028  15.092  67.115  1.00  0.00    -0.329 A  
BRANCH  24  31
HETATM   31  O   UNL     1      -9.416  18.748  68.411  1.00  0.00    -0.317 OA 
HETATM   32  C   UNL     1     -10.252  19.899  68.359  1.00  0.00    -0.433 C  
ENDBRANCH  24  31
BRANCH  25  33
HETATM   33  O   UNL     1      -8.951  17.958  65.927  1.00  0.00    -0.512 OA 
HETATM   34  C   UNL     1      -7.543  17.772  65.961  1.00  0.00    -0.220 C  
ENDBRANCH  25  33
ENDBRANCH  18  19
ENDBRANCH  17  18
ENDBRANCH  16  17
ENDBRANCH  14  16
ENDBRANCH  13  14
ENDBRANCH   9  13
ENDBRANCH   2   3
TORSDOF 10
ENDMDL
MODEL       64
REMARK 921   NORMALIZED FREE ENERGY PREDICTED BY IDOCK:   -5.44 KCAL/MOL
REMARK 922        TOTAL FREE ENERGY PREDICTED BY IDOCK:  -10.58 KCAL/MOL
REMARK 923 INTER-LIGAND FREE ENERGY PREDICTED BY IDOCK:   -9.34 KCAL/MOL
REMARK 924 INTRA-LIGAND FREE ENERGY PREDICTED BY IDOCK:   -1.24 KCAL/MOL
REMARK 927      BINDING AFFINITY PREDICTED BY RF-SCORE:    0.00 PKD
ROOT
HETATM    1  C   UNL     1      -9.772   2.496  71.448  1.00  0.00    -0.147 C  
HETATM    2  O   UNL     1      -9.442   3.437  70.431  1.00  0.00    -0.158 OA 
ENDROOT
BRANCH   2   3
HETATM    3  C   UNL     1      -9.997   4.688  70.516  1.00  0.00    -0.225 A  
HETATM    4  C   UNL     1     -10.381   5.535  69.442  1.00  0.00    -0.278 A  
HETATM    5  C   UNL     1     -10.187   5.115  71.860  1.00  0.00    -0.269 A  
HETATM    6  C   UNL     1     -10.876   6.809  69.719  1.00  0.00    -0.316 A  
HETATM    7  C   UNL     1     -10.704   6.378  72.077  1.00  0.00    -0.261 A  
HETATM    8  C   UNL     1     -10.953   7.204  71.026  1.00  0.00    -0.277 A  
HETATM    9  C   UNL     1     -11.290   8.409  71.868  1.00  0.00    -0.382 C  
HETATM   10  C   UNL     1     -11.256   7.370  73.076  1.00  0.00    -0.345 C  
BRANCH   4  11
HETATM   11  O   UNL     1     -10.304   5.093  68.147  1.00  0.00    -0.146 OA 
HETATM   12  C   UNL     1     -10.559   6.063  67.132  1.00  0.00    -0.302 C  
ENDBRANCH   4  11
BRANCH   9  13
HETATM   13  C   UNL     1     -12.476   9.107  71.187  1.00  0.00    -0.254 C  
BRANCH  13  14
HETATM   14  N   UNL     1     -12.304  10.504  70.783  1.00  0.00    -0.345 NA 
HETATM   15  C   UNL     1     -12.824  11.424  71.779  1.00  0.00    -0.344 C  
BRANCH  14  16
HETATM   16  C   UNL     1     -10.968  10.809  70.255  1.00  0.00    -0.085 C  
BRANCH  16  17
HETATM   17  C   UNL     1     -10.965  10.888  68.731  1.00  0.00    -0.285 C  
BRANCH  17  18
HETATM   18  C   UNL     1     -11.987  11.886  68.172  1.00  0.00    -0.152 C  
BRANCH  18  19
HETATM   19  N   UNL     1     -11.368  13.209  68.067  1.00  0.00    -0.274 N  
HETATM   20  C   UNL     1     -10.733  13.551  66.799  1.00  0.00    -0.278 C  
HETATM   21  C   UNL     1      -9.258  13.873  66.966  1.00  0.00    -0.257 C  
HETATM   22  C   UNL     1      -9.129  15.340  67.266  1.00  0.00    -0.210 A  
HETATM   23  C   UNL     1      -8.452  16.151  66.347  1.00  0.00    -0.369 A  
HETATM   24  C   UNL     1      -8.346  17.528  66.539  1.00  0.00    -0.270 A  
HETATM   25  C   UNL     1      -8.933  18.112  67.674  1.00  0.00    -0.259 A  
HETATM   26  O   UNL     1     -12.578  14.113  69.783  1.00  0.00    -0.294 OA 
HETATM   27  C   UNL     1     -11.575  14.150  69.065  1.00  0.00    -0.304 C  
HETATM   28  C   UNL     1      -9.615  17.297  68.592  1.00  0.00    -0.284 A  
HETATM   29  C   UNL     1     -10.409  15.057  69.445  1.00  0.00    -0.241 C  
HETATM   30  C   UNL     1      -9.734  15.908  68.395  1.00  0.00    -0.214 A  
BRANCH  24  31
HETATM   31  O   UNL     1      -7.723  18.365  65.645  1.00  0.00    -0.518 OA 
HETATM   32  C   UNL     1      -6.304  18.272  65.574  1.00  0.00    -0.249 C  
ENDBRANCH  24  31
BRANCH  25  33
HETATM   33  O   UNL     1      -8.782  19.470  67.804  1.00  0.00    -0.304 OA 
HETATM   34  C   UNL     1      -9.889  20.290  67.453  1.00  0.00    -0.446 C  
ENDBRANCH  25  33
ENDBRANCH  18  19
ENDBRANCH  17  18
ENDBRANCH  16  17
ENDBRANCH  14  16
ENDBRANCH  13  14
ENDBRANCH   9  13
ENDBRANCH   2   3
TORSDOF 10
ENDMDL
MODEL       65
REMARK 921   NORMALIZED FREE ENERGY PREDICTED BY IDOCK:   -5.43 KCAL/MOL
REMARK 922        TOTAL FREE ENERGY PREDICTED BY IDOCK:  -10.56 KCAL/MOL
REMARK 923 INTER-LIGAND FREE ENERGY PREDICTED BY IDOCK:   -9.68 KCAL/MOL
REMARK 924 INTRA-LIGAND FREE ENERGY PREDICTED BY IDOCK:   -0.88 KCAL/MOL
REMARK 927      BINDING AFFINITY PREDICTED BY RF-SCORE:    0.00 PKD
ROOT
HETATM    1  C   UNL     1      -9.530   1.481  68.937  1.00  0.00    -0.133 C  
HETATM    2  O   UNL     1      -8.712   2.569  69.358  1.00  0.00    -0.067 OA 
ENDROOT
BRANCH   2   3
HETATM    3  C   UNL     1      -9.339   3.683  69.852  1.00  0.00    -0.176 A  
HETATM    4  C   UNL     1      -9.650   4.880  69.151  1.00  0.00    -0.163 A  
HETATM    5  C   UNL     1      -9.697   3.551  71.223  1.00  0.00    -0.237 A  
HETATM    6  C   UNL     1     -10.239   5.941  69.838  1.00  0.00    -0.280 A  
HETATM    7  C   UNL     1     -10.301   4.625  71.848  1.00  0.00    -0.220 A  
HETATM    8  C   UNL     1     -10.478   5.794  71.176  1.00  0.00    -0.301 A  
HETATM    9  C   UNL     1     -10.969   6.572  72.370  1.00  0.00    -0.279 C  
HETATM   10  C   UNL     1     -11.010   5.145  73.078  1.00  0.00    -0.355 C  
BRANCH   4  11
HETATM   11  O   UNL     1      -9.409   4.979  67.806  1.00  0.00    -0.118 OA 
HETATM   12  C   UNL     1     -10.499   5.426  67.000  1.00  0.00    -0.257 C  
ENDBRANCH   4  11
BRANCH   9  13
HETATM   13  C   UNL     1     -12.110   7.472  71.876  1.00  0.00    -0.305 C  
BRANCH  13  14
HETATM   14  N   UNL     1     -11.898   8.920  71.907  1.00  0.00    -0.349 NA 
HETATM   15  C   UNL     1     -10.999   9.360  70.853  1.00  0.00    -0.320 C  
BRANCH  14  16
HETATM   16  C   UNL     1     -13.133   9.698  72.070  1.00  0.00    -0.445 C  
BRANCH  16  17
HETATM   17  C   UNL     1     -13.151  10.929  71.168  1.00  0.00    -0.351 C  
BRANCH  17  18
HETATM   18  C   UNL     1     -13.037  12.250  71.940  1.00  0.00    -0.363 C  
BRANCH  18  19
HETATM   19  N   UNL     1     -12.524  13.292  71.048  1.00  0.00    -0.370 N  
HETATM   20  C   UNL     1     -12.396  12.957  69.634  1.00  0.00    -0.023 C  
HETATM   21  C   UNL     1     -10.967  13.099  69.140  1.00  0.00    -0.194 C  
HETATM   22  C   UNL     1     -10.768  14.516  68.678  1.00  0.00    -0.257 A  
HETATM   23  C   UNL     1     -10.485  14.742  67.325  1.00  0.00    -0.264 A  
HETATM   24  C   UNL     1     -10.345  16.035  66.822  1.00  0.00    -0.300 A  
HETATM   25  C   UNL     1     -10.497  17.131  67.690  1.00  0.00    -0.355 A  
HETATM   26  O   UNL     1     -13.054  15.014  72.455  1.00  0.00    -0.329 OA 
HETATM   27  C   UNL     1     -12.378  14.591  71.513  1.00  0.00    -0.361 C  
HETATM   28  C   UNL     1     -10.785  16.901  69.045  1.00  0.00    -0.308 A  
HETATM   29  C   UNL     1     -11.172  15.391  71.031  1.00  0.00    -0.408 C  
HETATM   30  C   UNL     1     -10.938  15.597  69.552  1.00  0.00    -0.281 A  
BRANCH  24  31
HETATM   31  O   UNL     1     -10.104  16.304  65.497  1.00  0.00    -0.477 OA 
HETATM   32  C   UNL     1     -11.064  15.813  64.568  1.00  0.00    -0.277 C  
ENDBRANCH  24  31
BRANCH  25  33
HETATM   33  O   UNL     1     -10.338  18.374  67.130  1.00  0.00    -0.358 OA 
HETATM   34  C   UNL     1     -10.429  19.500  67.992  1.00  0.00    -0.405 C  
ENDBRANCH  25  33
ENDBRANCH  18  19
ENDBRANCH  17  18
ENDBRANCH  16  17
ENDBRANCH  14  16
ENDBRANCH  13  14
ENDBRANCH   9  13
ENDBRANCH   2   3
TORSDOF 10
ENDMDL
MODEL       66
REMARK 921   NORMALIZED FREE ENERGY PREDICTED BY IDOCK:   -5.42 KCAL/MOL
REMARK 922        TOTAL FREE ENERGY PREDICTED BY IDOCK:  -10.55 KCAL/MOL
REMARK 923 INTER-LIGAND FREE ENERGY PREDICTED BY IDOCK:   -9.00 KCAL/MOL
REMARK 924 INTRA-LIGAND FREE ENERGY PREDICTED BY IDOCK:   -1.55 KCAL/MOL
REMARK 927      BINDING AFFINITY PREDICTED BY RF-SCORE:    0.00 PKD
ROOT
HETATM    1  C   UNL     1     -14.085   9.074  71.832  1.00  0.00    -0.341 C  
HETATM    2  O   UNL     1     -13.299  10.110  72.413  1.00  0.00    -0.347 OA 
ENDROOT
BRANCH   2   3
HETATM    3  C   UNL     1     -12.874  11.123  71.592  1.00  0.00    -0.419 A  
HETATM    4  C   UNL     1     -12.044  11.011  70.444  1.00  0.00    -0.373 A  
HETATM    5  C   UNL     1     -13.365  12.397  71.991  1.00  0.00    -0.511 A  
HETATM    6  C   UNL     1     -11.662  12.165  69.761  1.00  0.00    -0.381 A  
HETATM    7  C   UNL     1     -12.973  13.505  71.264  1.00  0.00    -0.384 A  
HETATM    8  C   UNL     1     -12.087  13.373  70.242  1.00  0.00    -0.419 A  
HETATM    9  C   UNL     1     -11.927  14.852  69.998  1.00  0.00    -0.377 C  
HETATM   10  C   UNL     1     -13.153  14.985  71.007  1.00  0.00    -0.482 C  
BRANCH   4  11
HETATM   11  O   UNL     1     -11.655   9.779  69.986  1.00  0.00    -0.218 OA 
HETATM   12  C   UNL     1     -10.480   9.228  70.579  1.00  0.00    -0.255 C  
ENDBRANCH   4  11
BRANCH   9  13
HETATM   13  C   UNL     1     -11.863  15.047  68.477  1.00  0.00    -0.291 C  
BRANCH  13  14
HETATM   14  N   UNL     1     -10.553  15.312  67.879  1.00  0.00    -0.254 NA 
HETATM   15  C   UNL     1      -9.709  16.108  68.753  1.00  0.00    -0.233 C  
BRANCH  14  16
HETATM   16  C   UNL     1      -9.927  14.130  67.274  1.00  0.00    -0.249 C  
BRANCH  16  17
HETATM   17  C   UNL     1     -10.120  14.096  65.761  1.00  0.00    -0.352 C  
BRANCH  17  18
HETATM   18  C   UNL     1     -11.194  13.099  65.308  1.00  0.00    -0.291 C  
BRANCH  18  19
HETATM   19  N   UNL     1     -10.633  11.745  65.310  1.00  0.00    -0.269 N  
HETATM   20  C   UNL     1     -11.035  10.858  66.396  1.00  0.00    -0.088 C  
HETATM   21  C   UNL     1      -9.846  10.376  67.210  1.00  0.00    -0.214 C  
HETATM   22  C   UNL     1      -9.316   9.124  66.570  1.00  0.00    -0.244 A  
HETATM   23  C   UNL     1      -9.369   7.929  67.299  1.00  0.00    -0.180 A  
HETATM   24  C   UNL     1      -8.946   6.723  66.742  1.00  0.00    -0.134 A  
HETATM   25  C   UNL     1      -8.460   6.707  65.423  1.00  0.00    -0.107 A  
HETATM   26  O   UNL     1     -10.120  11.756  63.083  1.00  0.00    -0.418 OA 
HETATM   27  C   UNL     1      -9.926  11.288  64.208  1.00  0.00    -0.297 C  
HETATM   28  C   UNL     1      -8.412   7.906  64.693  1.00  0.00     0.029 A  
HETATM   29  C   UNL     1      -8.710  10.402  64.456  1.00  0.00    -0.205 C  
HETATM   30  C   UNL     1      -8.850   9.122  65.249  1.00  0.00    -0.240 A  
BRANCH  24  31
HETATM   31  O   UNL     1      -9.014   5.523  67.408  1.00  0.00    -0.110 OA 
HETATM   32  C   UNL     1      -9.209   5.592  68.816  1.00  0.00    -0.118 C  
ENDBRANCH  24  31
BRANCH  25  33
HETATM   33  O   UNL     1      -8.053   5.488  64.942  1.00  0.00    -0.111 OA 
HETATM   34  C   UNL     1      -8.768   4.943  63.841  1.00  0.00    -0.111 C  
ENDBRANCH  25  33
ENDBRANCH  18  19
ENDBRANCH  17  18
ENDBRANCH  16  17
ENDBRANCH  14  16
ENDBRANCH  13  14
ENDBRANCH   9  13
ENDBRANCH   2   3
TORSDOF 10
ENDMDL
MODEL       67
REMARK 921   NORMALIZED FREE ENERGY PREDICTED BY IDOCK:   -5.41 KCAL/MOL
REMARK 922        TOTAL FREE ENERGY PREDICTED BY IDOCK:  -10.54 KCAL/MOL
REMARK 923 INTER-LIGAND FREE ENERGY PREDICTED BY IDOCK:   -9.47 KCAL/MOL
REMARK 924 INTRA-LIGAND FREE ENERGY PREDICTED BY IDOCK:   -1.07 KCAL/MOL
REMARK 927      BINDING AFFINITY PREDICTED BY RF-SCORE:    0.00 PKD
ROOT
HETATM    1  C   UNL     1      -8.717  19.759  66.355  1.00  0.00    -0.368 C  
HETATM    2  O   UNL     1      -9.710  18.937  65.749  1.00  0.00    -0.437 OA 
ENDROOT
BRANCH   2   3
HETATM    3  C   UNL     1      -9.913  17.688  66.279  1.00  0.00    -0.318 A  
HETATM    4  C   UNL     1     -10.656  16.620  65.707  1.00  0.00    -0.268 A  
HETATM    5  C   UNL     1      -9.273  17.514  67.537  1.00  0.00    -0.242 A  
HETATM    6  C   UNL     1     -10.807  15.433  66.423  1.00  0.00    -0.303 A  
HETATM    7  C   UNL     1      -9.437  16.308  68.192  1.00  0.00    -0.215 A  
HETATM    8  C   UNL     1     -10.248  15.351  67.668  1.00  0.00    -0.246 A  
HETATM    9  C   UNL     1     -10.168  14.428  68.858  1.00  0.00    -0.215 C  
HETATM   10  C   UNL     1      -9.021  15.421  69.344  1.00  0.00    -0.258 C  
BRANCH   4  11
HETATM   11  O   UNL     1     -11.185  16.738  64.449  1.00  0.00    -1.112 OA 
HETATM   12  C   UNL     1     -11.922  15.615  63.965  1.00  0.00     0.087 C  
ENDBRANCH   4  11
BRANCH   9  13
HETATM   13  C   UNL     1     -10.080  12.999  68.305  1.00  0.00    -0.239 C  
BRANCH  13  14
HETATM   14  N   UNL     1     -11.322  12.230  68.202  1.00  0.00    -0.272 NA 
HETATM   15  C   UNL     1     -11.070  10.834  67.888  1.00  0.00    -0.308 C  
BRANCH  14  16
HETATM   16  C   UNL     1     -12.271  12.487  69.293  1.00  0.00    -0.036 C  
BRANCH  16  17
HETATM   17  C   UNL     1     -11.951  11.655  70.532  1.00  0.00    -0.413 C  
BRANCH  17  18
HETATM   18  C   UNL     1     -13.091  10.715  70.944  1.00  0.00    -0.256 C  
BRANCH  18  19
HETATM   19  N   UNL     1     -12.531   9.430  71.370  1.00  0.00    -0.333 N  
HETATM   20  C   UNL     1     -11.080   9.290  71.337  1.00  0.00    -0.367 C  
HETATM   21  C   UNL     1     -10.635   8.155  70.431  1.00  0.00    -0.226 C  
HETATM   22  C   UNL     1     -10.598   6.891  71.245  1.00  0.00    -0.244 A  
HETATM   23  C   UNL     1      -9.365   6.253  71.429  1.00  0.00    -0.160 A  
HETATM   24  C   UNL     1      -9.255   5.109  72.219  1.00  0.00    -0.138 A  
HETATM   25  C   UNL     1     -10.402   4.591  72.845  1.00  0.00    -0.184 A  
HETATM   26  O   UNL     1     -14.379   8.814  72.567  1.00  0.00    -0.562 OA 
HETATM   27  C   UNL     1     -13.349   8.485  71.972  1.00  0.00    -0.369 C  
HETATM   28  C   UNL     1     -11.636   5.236  72.661  1.00  0.00    -0.226 A  
HETATM   29  C   UNL     1     -13.107   7.015  71.640  1.00  0.00    -0.384 C  
HETATM   30  C   UNL     1     -11.748   6.397  71.874  1.00  0.00    -0.378 A  
BRANCH  24  31
HETATM   31  O   UNL     1      -8.060   4.473  72.456  1.00  0.00    -0.098 OA 
HETATM   32  C   UNL     1      -6.937   5.311  72.707  1.00  0.00    -0.086 C  
ENDBRANCH  24  31
BRANCH  25  33
HETATM   33  O   UNL     1     -10.222   3.459  73.600  1.00  0.00    -0.119 OA 
HETATM   34  C   UNL     1     -10.999   2.317  73.267  1.00  0.00    -0.174 C  
ENDBRANCH  25  33
ENDBRANCH  18  19
ENDBRANCH  17  18
ENDBRANCH  16  17
ENDBRANCH  14  16
ENDBRANCH  13  14
ENDBRANCH   9  13
ENDBRANCH   2   3
TORSDOF 10
ENDMDL
MODEL       68
REMARK 921   NORMALIZED FREE ENERGY PREDICTED BY IDOCK:   -5.40 KCAL/MOL
REMARK 922        TOTAL FREE ENERGY PREDICTED BY IDOCK:  -10.52 KCAL/MOL
REMARK 923 INTER-LIGAND FREE ENERGY PREDICTED BY IDOCK:   -8.33 KCAL/MOL
REMARK 924 INTRA-LIGAND FREE ENERGY PREDICTED BY IDOCK:   -2.19 KCAL/MOL
REMARK 927      BINDING AFFINITY PREDICTED BY RF-SCORE:    0.00 PKD
ROOT
HETATM    1  C   UNL     1      -5.287  12.141  70.509  1.00  0.00    -0.144 C  
HETATM    2  O   UNL     1      -6.583  12.523  70.057  1.00  0.00     0.016 OA 
ENDROOT
BRANCH   2   3
HETATM    3  C   UNL     1      -7.066  11.916  68.925  1.00  0.00    -0.110 A  
HETATM    4  C   UNL     1      -6.860  12.318  67.578  1.00  0.00    -0.135 A  
HETATM    5  C   UNL     1      -7.842  10.759  69.211  1.00  0.00    -0.124 A  
HETATM    6  C   UNL     1      -7.485  11.611  66.551  1.00  0.00     0.032 A  
HETATM    7  C   UNL     1      -8.418  10.082  68.153  1.00  0.00    -0.114 A  
HETATM    8  C   UNL     1      -8.295  10.561  66.887  1.00  0.00    -0.126 A  
HETATM    9  C   UNL     1      -9.236   9.562  66.263  1.00  0.00    -0.219 C  
HETATM   10  C   UNL     1      -9.166   8.852  67.688  1.00  0.00    -0.151 C  
BRANCH   4  11
HETATM   11  O   UNL     1      -6.027  13.366  67.284  1.00  0.00    -0.341 OA 
HETATM   12  C   UNL     1      -6.522  14.670  67.583  1.00  0.00    -0.135 C  
ENDBRANCH   4  11
BRANCH   9  13
HETATM   13  C   UNL     1      -8.623   9.156  64.916  1.00  0.00    -0.184 C  
BRANCH  13  14
HETATM   14  N   UNL     1      -8.771  10.082  63.792  1.00  0.00    -0.197 NA 
HETATM   15  C   UNL     1      -8.122   9.585  62.591  1.00  0.00    -0.131 C  
BRANCH  14  16
HETATM   16  C   UNL     1     -10.135  10.598  63.623  1.00  0.00    -0.245 C  
BRANCH  16  17
HETATM   17  C   UNL     1     -10.141  12.084  63.276  1.00  0.00    -0.379 C  
BRANCH  17  18
HETATM   18  C   UNL     1     -11.475  12.776  63.588  1.00  0.00    -0.481 C  
BRANCH  18  19
HETATM   19  N   UNL     1     -11.354  13.520  64.844  1.00  0.00    -0.323 N  
HETATM   20  C   UNL     1     -11.228  14.970  64.753  1.00  0.00    -0.386 C  
HETATM   21  C   UNL     1      -9.941  15.473  65.384  1.00  0.00    -0.339 C  
HETATM   22  C   UNL     1     -10.201  15.728  66.842  1.00  0.00    -0.280 A  
HETATM   23  C   UNL     1     -10.089  17.040  67.319  1.00  0.00    -0.295 A  
HETATM   24  C   UNL     1     -10.372  17.352  68.649  1.00  0.00    -0.364 A  
HETATM   25  C   UNL     1     -10.781  16.331  69.523  1.00  0.00    -0.323 A  
HETATM   26  O   UNL     1     -12.273  11.864  66.125  1.00  0.00    -0.459 OA 
HETATM   27  C   UNL     1     -11.567  12.874  66.053  1.00  0.00    -0.375 C  
HETATM   28  C   UNL     1     -10.897  15.017  69.041  1.00  0.00    -0.242 A  
HETATM   29  C   UNL     1     -10.687  13.263  67.237  1.00  0.00    -0.262 C  
HETATM   30  C   UNL     1     -10.624  14.702  67.696  1.00  0.00    -0.256 A  
BRANCH  24  31
HETATM   31  O   UNL     1     -10.310  18.630  69.149  1.00  0.00    -0.221 OA 
HETATM   32  C   UNL     1     -10.273  19.683  68.192  1.00  0.00    -0.461 C  
ENDBRANCH  24  31
BRANCH  25  33
HETATM   33  O   UNL     1     -11.035  16.708  70.819  1.00  0.00    -0.125 OA 
HETATM   34  C   UNL     1     -12.109  16.065  71.492  1.00  0.00    -0.452 C  
ENDBRANCH  25  33
ENDBRANCH  18  19
ENDBRANCH  17  18
ENDBRANCH  16  17
ENDBRANCH  14  16
ENDBRANCH  13  14
ENDBRANCH   9  13
ENDBRANCH   2   3
TORSDOF 10
ENDMDL
MODEL       69
REMARK 921   NORMALIZED FREE ENERGY PREDICTED BY IDOCK:   -5.39 KCAL/MOL
REMARK 922        TOTAL FREE ENERGY PREDICTED BY IDOCK:  -10.50 KCAL/MOL
REMARK 923 INTER-LIGAND FREE ENERGY PREDICTED BY IDOCK:   -8.35 KCAL/MOL
REMARK 924 INTRA-LIGAND FREE ENERGY PREDICTED BY IDOCK:   -2.15 KCAL/MOL
REMARK 927      BINDING AFFINITY PREDICTED BY RF-SCORE:    0.00 PKD
ROOT
HETATM    1  C   UNL     1     -12.463   9.188  71.661  1.00  0.00    -0.359 C  
HETATM    2  O   UNL     1     -11.793   8.012  71.215  1.00  0.00    -0.288 OA 
ENDROOT
BRANCH   2   3
HETATM    3  C   UNL     1     -10.706   8.172  70.395  1.00  0.00    -0.232 A  
HETATM    4  C   UNL     1     -10.341   7.369  69.281  1.00  0.00    -0.204 A  
HETATM    5  C   UNL     1      -9.905   9.291  70.756  1.00  0.00    -0.350 A  
HETATM    6  C   UNL     1      -9.158   7.647  68.596  1.00  0.00    -0.135 A  
HETATM    7  C   UNL     1      -8.755   9.534  70.028  1.00  0.00    -0.242 A  
HETATM    8  C   UNL     1      -8.378   8.678  69.042  1.00  0.00    -0.119 A  
HETATM    9  C   UNL     1      -7.046   9.336  68.783  1.00  0.00    -0.073 C  
HETATM   10  C   UNL     1      -7.608  10.477  69.743  1.00  0.00    -0.102 C  
BRANCH   4  11
HETATM   11  O   UNL     1     -11.160   6.356  68.857  1.00  0.00    -0.329 OA 
HETATM   12  C   UNL     1     -10.818   5.745  67.614  1.00  0.00    -0.170 C  
ENDBRANCH   4  11
BRANCH   9  13
HETATM   13  C   UNL     1      -6.836   9.327  67.263  1.00  0.00    -0.080 C  
BRANCH  13  14
HETATM   14  N   UNL     1      -7.123  10.560  66.527  1.00  0.00    -0.112 NA 
HETATM   15  C   UNL     1      -5.951  11.412  66.419  1.00  0.00    -0.099 C  
BRANCH  14  16
HETATM   16  C   UNL     1      -7.886  10.349  65.290  1.00  0.00    -0.137 C  
BRANCH  16  17
HETATM   17  C   UNL     1      -9.309   9.875  65.575  1.00  0.00    -0.280 C  
BRANCH  17  18
HETATM   18  C   UNL     1     -10.383  10.870  65.117  1.00  0.00    -0.278 C  
BRANCH  18  19
HETATM   19  N   UNL     1     -10.539  11.917  66.130  1.00  0.00    -0.249 N  
HETATM   20  C   UNL     1     -10.357  13.298  65.697  1.00  0.00    -0.287 C  
HETATM   21  C   UNL     1      -9.239  13.993  66.455  1.00  0.00    -0.240 C  
HETATM   22  C   UNL     1      -9.825  14.607  67.696  1.00  0.00    -0.218 A  
HETATM   23  C   UNL     1      -9.793  16.001  67.828  1.00  0.00    -0.231 A  
HETATM   24  C   UNL     1     -10.369  16.636  68.928  1.00  0.00    -0.300 A  
HETATM   25  C   UNL     1     -10.998  15.861  69.919  1.00  0.00    -0.343 A  
HETATM   26  O   UNL     1     -11.774  10.617  67.548  1.00  0.00    -0.445 OA 
HETATM   27  C   UNL     1     -11.045  11.598  67.382  1.00  0.00    -0.281 C  
HETATM   28  C   UNL     1     -11.032  14.464  69.781  1.00  0.00    -0.151 A  
HETATM   29  C   UNL     1     -10.454  12.312  68.594  1.00  0.00    -0.228 C  
HETATM   30  C   UNL     1     -10.462  13.822  68.666  1.00  0.00    -0.245 A  
BRANCH  24  31
HETATM   31  O   UNL     1     -10.392  18.001  69.080  1.00  0.00    -0.350 OA 
HETATM   32  C   UNL     1     -10.463  18.769  67.883  1.00  0.00    -0.389 C  
ENDBRANCH  24  31
BRANCH  25  33
HETATM   33  O   UNL     1     -11.536  16.551  70.976  1.00  0.00    -0.328 OA 
HETATM   34  C   UNL     1     -12.101  15.792  72.036  1.00  0.00    -0.473 C  
ENDBRANCH  25  33
ENDBRANCH  18  19
ENDBRANCH  17  18
ENDBRANCH  16  17
ENDBRANCH  14  16
ENDBRANCH  13  14
ENDBRANCH   9  13
ENDBRANCH   2   3
TORSDOF 10
ENDMDL
MODEL       70
REMARK 921   NORMALIZED FREE ENERGY PREDICTED BY IDOCK:   -5.33 KCAL/MOL
REMARK 922        TOTAL FREE ENERGY PREDICTED BY IDOCK:  -10.41 KCAL/MOL
REMARK 923 INTER-LIGAND FREE ENERGY PREDICTED BY IDOCK:   -9.13 KCAL/MOL
REMARK 924 INTRA-LIGAND FREE ENERGY PREDICTED BY IDOCK:   -1.28 KCAL/MOL
REMARK 927      BINDING AFFINITY PREDICTED BY RF-SCORE:    0.00 PKD
ROOT
HETATM    1  C   UNL     1     -12.479  15.595  74.024  1.00  0.00    -0.651 C  
HETATM    2  O   UNL     1     -13.248  14.605  73.349  1.00  0.00    -0.585 OA 
ENDROOT
BRANCH   2   3
HETATM    3  C   UNL     1     -12.896  14.296  72.060  1.00  0.00    -0.347 A  
HETATM    4  C   UNL     1     -12.915  13.014  71.446  1.00  0.00    -0.283 A  
HETATM    5  C   UNL     1     -12.487  15.434  71.313  1.00  0.00    -0.460 A  
HETATM    6  C   UNL     1     -12.461  12.878  70.134  1.00  0.00    -0.144 A  
HETATM    7  C   UNL     1     -12.069  15.245  70.009  1.00  0.00    -0.386 A  
HETATM    8  C   UNL     1     -11.992  13.990  69.493  1.00  0.00    -0.390 A  
HETATM    9  C   UNL     1     -11.335  14.407  68.201  1.00  0.00    -0.317 C  
HETATM   10  C   UNL     1     -11.670  15.884  68.698  1.00  0.00    -0.328 C  
BRANCH   4  11
HETATM   11  O   UNL     1     -13.409  11.928  72.120  1.00  0.00    -0.503 OA 
HETATM   12  C   UNL     1     -12.997  10.648  71.644  1.00  0.00    -0.477 C  
ENDBRANCH   4  11
BRANCH   9  13
HETATM   13  C   UNL     1     -11.969  13.563  67.087  1.00  0.00    -0.381 C  
BRANCH  13  14
HETATM   14  N   UNL     1     -11.071  12.904  66.136  1.00  0.00    -0.280 NA 
HETATM   15  C   UNL     1     -10.410  13.861  65.264  1.00  0.00    -0.378 C  
BRANCH  14  16
HETATM   16  C   UNL     1     -10.212  11.880  66.742  1.00  0.00    -0.206 C  
BRANCH  16  17
HETATM   17  C   UNL     1      -9.255  11.267  65.723  1.00  0.00    -0.236 C  
BRANCH  17  18
HETATM   18  C   UNL     1      -9.584   9.808  65.380  1.00  0.00    -0.292 C  
BRANCH  18  19
HETATM   19  N   UNL     1      -9.344   8.967  66.556  1.00  0.00    -0.175 N  
HETATM   20  C   UNL     1     -10.482   8.232  67.094  1.00  0.00    -0.316 C  
HETATM   21  C   UNL     1     -10.769   8.599  68.540  1.00  0.00    -0.091 C  
HETATM   22  C   UNL     1      -9.949   7.701  69.424  1.00  0.00    -0.180 A  
HETATM   23  C   UNL     1     -10.618   6.818  70.280  1.00  0.00    -0.251 A  
HETATM   24  C   UNL     1      -9.917   5.920  71.084  1.00  0.00    -0.189 A  
HETATM   25  C   UNL     1      -8.512   5.899  71.029  1.00  0.00    -0.124 A  
HETATM   26  O   UNL     1      -7.090   8.806  66.207  1.00  0.00    -0.080 OA 
HETATM   27  C   UNL     1      -8.046   8.734  66.985  1.00  0.00    -0.099 C  
HETATM   28  C   UNL     1      -7.844   6.783  70.167  1.00  0.00    -0.107 A  
HETATM   29  C   UNL     1      -7.791   8.668  68.488  1.00  0.00    -0.108 C  
HETATM   30  C   UNL     1      -8.550   7.682  69.345  1.00  0.00    -0.136 A  
BRANCH  24  31
HETATM   31  O   UNL     1     -10.534   5.012  71.911  1.00  0.00    -0.209 OA 
HETATM   32  C   UNL     1     -11.337   5.552  72.955  1.00  0.00    -0.291 C  
ENDBRANCH  24  31
BRANCH  25  33
HETATM   33  O   UNL     1      -7.887   4.997  71.853  1.00  0.00    -0.103 OA 
HETATM   34  C   UNL     1      -6.548   4.640  71.541  1.00  0.00    -0.027 C  
ENDBRANCH  25  33
ENDBRANCH  18  19
ENDBRANCH  17  18
ENDBRANCH  16  17
ENDBRANCH  14  16
ENDBRANCH  13  14
ENDBRANCH   9  13
ENDBRANCH   2   3
TORSDOF 10
ENDMDL
MODEL       71
REMARK 921   NORMALIZED FREE ENERGY PREDICTED BY IDOCK:   -5.32 KCAL/MOL
REMARK 922        TOTAL FREE ENERGY PREDICTED BY IDOCK:  -10.40 KCAL/MOL
REMARK 923 INTER-LIGAND FREE ENERGY PREDICTED BY IDOCK:   -9.12 KCAL/MOL
REMARK 924 INTRA-LIGAND FREE ENERGY PREDICTED BY IDOCK:   -1.28 KCAL/MOL
REMARK 927      BINDING AFFINITY PREDICTED BY RF-SCORE:    0.00 PKD
ROOT
HETATM    1  C   UNL     1      -9.278   3.727  66.191  1.00  0.00    -0.164 C  
HETATM    2  O   UNL     1      -9.849   4.006  67.466  1.00  0.00    -0.163 OA 
ENDROOT
BRANCH   2   3
HETATM    3  C   UNL     1     -10.038   5.321  67.805  1.00  0.00    -0.157 A  
HETATM    4  C   UNL     1     -10.380   5.841  69.083  1.00  0.00    -0.248 A  
HETATM    5  C   UNL     1      -9.844   6.205  66.708  1.00  0.00    -0.203 A  
HETATM    6  C   UNL     1     -10.592   7.212  69.229  1.00  0.00    -0.233 A  
HETATM    7  C   UNL     1     -10.045   7.557  66.914  1.00  0.00    -0.336 A  
HETATM    8  C   UNL     1     -10.483   8.005  68.120  1.00  0.00    -0.222 A  
HETATM    9  C   UNL     1     -10.678   9.434  67.680  1.00  0.00    -0.295 C  
HETATM   10  C   UNL     1      -9.920   8.959  66.361  1.00  0.00    -0.354 C  
BRANCH   4  11
HETATM   11  O   UNL     1     -10.462   5.012  70.171  1.00  0.00    -0.267 OA 
HETATM   12  C   UNL     1      -9.389   5.089  71.107  1.00  0.00    -0.149 C  
ENDBRANCH   4  11
BRANCH   9  13
HETATM   13  C   UNL     1     -10.203  10.325  68.836  1.00  0.00    -0.205 C  
BRANCH  13  14
HETATM   14  N   UNL     1     -10.363  11.773  68.692  1.00  0.00    -0.220 NA 
HETATM   15  C   UNL     1      -9.201  12.387  68.072  1.00  0.00    -0.203 C  
BRANCH  14  16
HETATM   16  C   UNL     1     -11.669  12.176  68.158  1.00  0.00    -0.341 C  
BRANCH  16  17
HETATM   17  C   UNL     1     -11.538  12.892  66.816  1.00  0.00    -0.416 C  
BRANCH  17  18
HETATM   18  C   UNL     1     -12.199  14.277  66.799  1.00  0.00    -0.352 C  
BRANCH  18  19
HETATM   19  N   UNL     1     -11.192  15.300  67.091  1.00  0.00    -0.321 N  
HETATM   20  C   UNL     1     -10.496  15.896  65.956  1.00  0.00    -0.345 C  
HETATM   21  C   UNL     1      -8.994  15.687  66.032  1.00  0.00    -0.297 C  
HETATM   22  C   UNL     1      -8.400  16.825  66.814  1.00  0.00    -0.272 A  
HETATM   23  C   UNL     1      -7.512  17.690  66.162  1.00  0.00    -0.334 A  
HETATM   24  C   UNL     1      -6.970  18.797  66.815  1.00  0.00    -0.200 A  
HETATM   25  C   UNL     1      -7.327  19.050  68.150  1.00  0.00    -0.268 A  
HETATM   26  O   UNL     1     -12.030  15.796  69.159  1.00  0.00    -0.387 OA 
HETATM   27  C   UNL     1     -11.076  15.809  68.376  1.00  0.00    -0.341 C  
HETATM   28  C   UNL     1      -8.222  18.184  68.800  1.00  0.00    -0.240 A  
HETATM   29  C   UNL     1      -9.678  16.124  68.898  1.00  0.00    -0.242 C  
HETATM   30  C   UNL     1      -8.779  17.073  68.139  1.00  0.00    -0.233 A  
BRANCH  24  31
HETATM   31  O   UNL     1      -6.124  19.690  66.203  1.00  0.00    -0.171 OA 
HETATM   32  C   UNL     1      -6.274  19.839  64.795  1.00  0.00    -0.278 C  
ENDBRANCH  24  31
BRANCH  25  33
HETATM   33  O   UNL     1      -6.751  20.151  68.733  1.00  0.00    -0.307 OA 
HETATM   34  C   UNL     1      -6.194  19.992  70.031  1.00  0.00    -0.359 C  
ENDBRANCH  25  33
ENDBRANCH  18  19
ENDBRANCH  17  18
ENDBRANCH  16  17
ENDBRANCH  14  16
ENDBRANCH  13  14
ENDBRANCH   9  13
ENDBRANCH   2   3
TORSDOF 10
ENDMDL
MODEL       72
REMARK 921   NORMALIZED FREE ENERGY PREDICTED BY IDOCK:   -5.32 KCAL/MOL
REMARK 922        TOTAL FREE ENERGY PREDICTED BY IDOCK:  -10.39 KCAL/MOL
REMARK 923 INTER-LIGAND FREE ENERGY PREDICTED BY IDOCK:   -9.11 KCAL/MOL
REMARK 924 INTRA-LIGAND FREE ENERGY PREDICTED BY IDOCK:   -1.28 KCAL/MOL
REMARK 927      BINDING AFFINITY PREDICTED BY RF-SCORE:    0.00 PKD
ROOT
HETATM    1  C   UNL     1     -13.232  10.512  71.895  1.00  0.00    -0.420 C  
HETATM    2  O   UNL     1     -12.872   9.135  71.854  1.00  0.00    -0.337 OA 
ENDROOT
BRANCH   2   3
HETATM    3  C   UNL     1     -11.720   8.797  71.190  1.00  0.00    -0.291 A  
HETATM    4  C   UNL     1     -11.241   7.489  70.908  1.00  0.00    -0.269 A  
HETATM    5  C   UNL     1     -10.981   9.933  70.759  1.00  0.00    -0.407 A  
HETATM    6  C   UNL     1     -10.009   7.336  70.272  1.00  0.00    -0.188 A  
HETATM    7  C   UNL     1      -9.778   9.722  70.112  1.00  0.00    -0.299 A  
HETATM    8  C   UNL     1      -9.296   8.460  69.961  1.00  0.00    -0.159 A  
HETATM    9  C   UNL     1      -7.962   8.883  69.399  1.00  0.00    -0.100 C  
HETATM   10  C   UNL     1      -8.633  10.327  69.332  1.00  0.00    -0.167 C  
BRANCH   4  11
HETATM   11  O   UNL     1     -11.996   6.390  71.221  1.00  0.00    -0.326 OA 
HETATM   12  C   UNL     1     -11.605   5.666  72.387  1.00  0.00    -0.221 C  
ENDBRANCH   4  11
BRANCH   9  13
HETATM   13  C   UNL     1      -7.618   7.891  68.279  1.00  0.00    -0.116 C  
BRANCH  13  14
HETATM   14  N   UNL     1      -7.687   8.372  66.898  1.00  0.00    -0.091 NA 
HETATM   15  C   UNL     1      -6.503   8.008  66.138  1.00  0.00    -0.046 C  
BRANCH  14  16
HETATM   16  C   UNL     1      -8.977   8.119  66.244  1.00  0.00    -0.177 C  
BRANCH  16  17
HETATM   17  C   UNL     1      -9.896   9.336  66.313  1.00  0.00    -0.361 C  
BRANCH  17  18
HETATM   18  C   UNL     1      -9.995  10.098  64.985  1.00  0.00    -0.305 C  
BRANCH  18  19
HETATM   19  N   UNL     1      -9.942  11.539  65.246  1.00  0.00    -0.250 N  
HETATM   20  C   UNL     1      -9.317  11.969  66.492  1.00  0.00    -0.223 C  
HETATM   21  C   UNL     1     -10.272  12.764  67.366  1.00  0.00    -0.222 C  
HETATM   22  C   UNL     1     -10.168  14.212  66.977  1.00  0.00    -0.260 A  
HETATM   23  C   UNL     1      -9.695  15.125  67.928  1.00  0.00    -0.208 A  
HETATM   24  C   UNL     1      -9.523  16.473  67.614  1.00  0.00    -0.225 A  
HETATM   25  C   UNL     1      -9.826  16.920  66.316  1.00  0.00    -0.302 A  
HETATM   26  O   UNL     1     -10.192  12.131  63.052  1.00  0.00    -0.297 OA 
HETATM   27  C   UNL     1     -10.283  12.436  64.245  1.00  0.00    -0.332 C  
HETATM   28  C   UNL     1     -10.296  16.002  65.363  1.00  0.00    -0.386 A  
HETATM   29  C   UNL     1     -11.040  13.699  64.644  1.00  0.00    -0.387 C  
HETATM   30  C   UNL     1     -10.459  14.639  65.675  1.00  0.00    -0.358 A  
BRANCH  24  31
HETATM   31  O   UNL     1      -9.028  17.394  68.504  1.00  0.00    -0.266 OA 
HETATM   32  C   UNL     1      -7.643  17.292  68.815  1.00  0.00    -0.256 C  
ENDBRANCH  24  31
BRANCH  25  33
HETATM   33  O   UNL     1      -9.641  18.260  66.079  1.00  0.00    -0.497 OA 
HETATM   34  C   UNL     1     -10.692  19.143  66.446  1.00  0.00    -0.361 C  
ENDBRANCH  25  33
ENDBRANCH  18  19
ENDBRANCH  17  18
ENDBRANCH  16  17
ENDBRANCH  14  16
ENDBRANCH  13  14
ENDBRANCH   9  13
ENDBRANCH   2   3
TORSDOF 10
ENDMDL
MODEL       73
REMARK 921   NORMALIZED FREE ENERGY PREDICTED BY IDOCK:   -5.30 KCAL/MOL
REMARK 922        TOTAL FREE ENERGY PREDICTED BY IDOCK:  -10.36 KCAL/MOL
REMARK 923 INTER-LIGAND FREE ENERGY PREDICTED BY IDOCK:   -8.26 KCAL/MOL
REMARK 924 INTRA-LIGAND FREE ENERGY PREDICTED BY IDOCK:   -2.10 KCAL/MOL
REMARK 927      BINDING AFFINITY PREDICTED BY RF-SCORE:    0.00 PKD
ROOT
HETATM    1  C   UNL     1      -6.205  11.689  69.915  1.00  0.00    -0.144 C  
HETATM    2  O   UNL     1      -6.683  10.700  70.821  1.00  0.00    -0.322 OA 
ENDROOT
BRANCH   2   3
HETATM    3  C   UNL     1      -7.079   9.495  70.298  1.00  0.00    -0.110 A  
HETATM    4  C   UNL     1      -7.993   8.568  70.867  1.00  0.00    -0.110 A  
HETATM    5  C   UNL     1      -6.472   9.215  69.043  1.00  0.00    -0.047 A  
HETATM    6  C   UNL     1      -8.230   7.356  70.218  1.00  0.00    -0.132 A  
HETATM    7  C   UNL     1      -6.762   8.010  68.431  1.00  0.00    -0.067 A  
HETATM    8  C   UNL     1      -7.551   7.098  69.059  1.00  0.00    -0.100 A  
HETATM    9  C   UNL     1      -7.341   6.003  68.044  1.00  0.00    -0.084 C  
HETATM   10  C   UNL     1      -6.642   7.153  67.191  1.00  0.00    -0.059 C  
BRANCH   4  11
HETATM   11  O   UNL     1      -8.666   8.874  72.021  1.00  0.00    -0.365 OA 
HETATM   12  C   UNL     1     -10.084   8.727  71.983  1.00  0.00    -0.327 C  
ENDBRANCH   4  11
BRANCH   9  13
HETATM   13  C   UNL     1      -8.695   5.306  67.856  1.00  0.00    -0.102 C  
BRANCH  13  14
HETATM   14  N   UNL     1      -9.446   5.595  66.633  1.00  0.00    -0.142 NA 
HETATM   15  C   UNL     1      -9.295   4.541  65.644  1.00  0.00    -0.164 C  
BRANCH  14  16
HETATM   16  C   UNL     1     -10.816   6.064  66.874  1.00  0.00    -0.318 C  
BRANCH  16  17
HETATM   17  C   UNL     1     -10.840   7.482  67.438  1.00  0.00    -0.272 C  
BRANCH  17  18
HETATM   18  C   UNL     1     -10.057   8.488  66.585  1.00  0.00    -0.294 C  
BRANCH  18  19
HETATM   19  N   UNL     1     -10.396   9.850  67.005  1.00  0.00    -0.235 N  
HETATM   20  C   UNL     1     -10.417  10.121  68.438  1.00  0.00    -0.208 C  
HETATM   21  C   UNL     1     -11.777  10.607  68.908  1.00  0.00    -0.282 C  
HETATM   22  C   UNL     1     -11.815  12.103  68.766  1.00  0.00    -0.356 A  
HETATM   23  C   UNL     1     -11.950  12.879  69.925  1.00  0.00    -0.377 A  
HETATM   24  C   UNL     1     -11.936  14.272  69.868  1.00  0.00    -0.339 A  
HETATM   25  C   UNL     1     -11.778  14.908  68.624  1.00  0.00    -0.330 A  
HETATM   26  O   UNL     1      -9.863  10.799  64.995  1.00  0.00    -0.242 OA 
HETATM   27  C   UNL     1     -10.479  10.864  66.062  1.00  0.00    -0.225 C  
HETATM   28  C   UNL     1     -11.639  14.128  67.465  1.00  0.00    -0.396 A  
HETATM   29  C   UNL     1     -11.565  11.920  66.242  1.00  0.00    -0.317 C  
HETATM   30  C   UNL     1     -11.641  12.721  67.522  1.00  0.00    -0.412 A  
BRANCH  24  31
HETATM   31  O   UNL     1     -12.029  15.070  70.982  1.00  0.00    -0.280 OA 
HETATM   32  C   UNL     1     -13.314  15.162  71.588  1.00  0.00    -0.431 C  
ENDBRANCH  24  31
BRANCH  25  33
HETATM   33  O   UNL     1     -11.782  16.281  68.641  1.00  0.00    -0.314 OA 
HETATM   34  C   UNL     1     -10.634  16.947  68.132  1.00  0.00    -0.360 C  
ENDBRANCH  25  33
ENDBRANCH  18  19
ENDBRANCH  17  18
ENDBRANCH  16  17
ENDBRANCH  14  16
ENDBRANCH  13  14
ENDBRANCH   9  13
ENDBRANCH   2   3
TORSDOF 10
ENDMDL
MODEL       74
REMARK 921   NORMALIZED FREE ENERGY PREDICTED BY IDOCK:   -5.30 KCAL/MOL
REMARK 922        TOTAL FREE ENERGY PREDICTED BY IDOCK:  -10.36 KCAL/MOL
REMARK 923 INTER-LIGAND FREE ENERGY PREDICTED BY IDOCK:   -7.15 KCAL/MOL
REMARK 924 INTRA-LIGAND FREE ENERGY PREDICTED BY IDOCK:   -3.21 KCAL/MOL
REMARK 927      BINDING AFFINITY PREDICTED BY RF-SCORE:    0.00 PKD
ROOT
HETATM    1  C   UNL     1     -11.679  15.802  69.863  1.00  0.00    -0.357 C  
HETATM    2  O   UNL     1     -12.158  15.337  68.605  1.00  0.00    -0.263 OA 
ENDROOT
BRANCH   2   3
HETATM    3  C   UNL     1     -11.933  14.022  68.284  1.00  0.00    -0.349 A  
HETATM    4  C   UNL     1     -12.121  13.399  67.021  1.00  0.00    -0.339 A  
HETATM    5  C   UNL     1     -11.451  13.263  69.386  1.00  0.00    -0.323 A  
HETATM    6  C   UNL     1     -11.898  12.028  66.895  1.00  0.00    -0.250 A  
HETATM    7  C   UNL     1     -11.224  11.912  69.199  1.00  0.00    -0.314 A  
HETATM    8  C   UNL     1     -11.524  11.328  68.009  1.00  0.00    -0.369 A  
HETATM    9  C   UNL     1     -11.255   9.918  68.470  1.00  0.00    -0.129 C  
HETATM   10  C   UNL     1     -10.656  10.629  69.764  1.00  0.00    -0.233 C  
BRANCH   4  11
HETATM   11  O   UNL     1     -12.481  14.141  65.927  1.00  0.00    -0.471 OA 
HETATM   12  C   UNL     1     -11.738  13.906  64.732  1.00  0.00    -0.386 C  
ENDBRANCH   4  11
BRANCH   9  13
HETATM   13  C   UNL     1     -10.549   9.199  67.311  1.00  0.00    -0.233 C  
BRANCH  13  14
HETATM   14  N   UNL     1      -9.991   7.871  67.572  1.00  0.00    -0.176 NA 
HETATM   15  C   UNL     1     -10.859   6.813  67.085  1.00  0.00    -0.392 C  
BRANCH  14  16
HETATM   16  C   UNL     1      -8.568   7.749  67.232  1.00  0.00    -0.128 C  
BRANCH  16  17
HETATM   17  C   UNL     1      -7.680   8.491  68.227  1.00  0.00    -0.102 C  
BRANCH  17  18
HETATM   18  C   UNL     1      -6.548   9.283  67.559  1.00  0.00    -0.064 C  
BRANCH  18  19
HETATM   19  N   UNL     1      -6.935  10.693  67.461  1.00  0.00    -0.082 N  
HETATM   20  C   UNL     1      -6.405  11.603  68.470  1.00  0.00    -0.052 C  
HETATM   21  C   UNL     1      -7.508  12.293  69.253  1.00  0.00     0.248 C  
HETATM   22  C   UNL     1      -7.888  13.550  68.521  1.00  0.00    -0.125 A  
HETATM   23  C   UNL     1      -7.671  14.781  69.153  1.00  0.00    -0.144 A  
HETATM   24  C   UNL     1      -7.950  15.984  68.506  1.00  0.00    -0.159 A  
HETATM   25  C   UNL     1      -8.454  15.960  67.194  1.00  0.00    -0.199 A  
HETATM   26  O   UNL     1      -7.487  10.575  65.245  1.00  0.00    -0.137 OA 
HETATM   27  C   UNL     1      -7.599  11.150  66.332  1.00  0.00    -0.109 C  
HETATM   28  C   UNL     1      -8.666  14.724  66.562  1.00  0.00    -0.160 A  
HETATM   29  C   UNL     1      -8.689  12.200  66.520  1.00  0.00    -0.114 C  
HETATM   30  C   UNL     1      -8.374  13.508  67.208  1.00  0.00    -0.188 A  
BRANCH  24  31
HETATM   31  O   UNL     1      -7.718  17.213  69.075  1.00  0.00    -0.235 OA 
HETATM   32  C   UNL     1      -6.355  17.581  69.252  1.00  0.00    -0.244 C  
ENDBRANCH  24  31
BRANCH  25  33
HETATM   33  O   UNL     1      -8.714  17.180  66.622  1.00  0.00    -0.224 OA 
HETATM   34  C   UNL     1     -10.070  17.597  66.550  1.00  0.00    -0.350 C  
ENDBRANCH  25  33
ENDBRANCH  18  19
ENDBRANCH  17  18
ENDBRANCH  16  17
ENDBRANCH  14  16
ENDBRANCH  13  14
ENDBRANCH   9  13
ENDBRANCH   2   3
TORSDOF 10
ENDMDL
MODEL       75
REMARK 921   NORMALIZED FREE ENERGY PREDICTED BY IDOCK:   -5.29 KCAL/MOL
REMARK 922        TOTAL FREE ENERGY PREDICTED BY IDOCK:  -10.35 KCAL/MOL
REMARK 923 INTER-LIGAND FREE ENERGY PREDICTED BY IDOCK:   -9.25 KCAL/MOL
REMARK 924 INTRA-LIGAND FREE ENERGY PREDICTED BY IDOCK:   -1.10 KCAL/MOL
REMARK 927      BINDING AFFINITY PREDICTED BY RF-SCORE:    0.00 PKD
ROOT
HETATM    1  C   UNL     1      -7.835   2.690  69.366  1.00  0.00    -0.042 C  
HETATM    2  O   UNL     1      -8.596   3.513  68.486  1.00  0.00    -0.084 OA 
ENDROOT
BRANCH   2   3
HETATM    3  C   UNL     1      -9.434   4.442  69.049  1.00  0.00    -0.168 A  
HETATM    4  C   UNL     1     -10.270   5.370  68.372  1.00  0.00    -0.163 A  
HETATM    5  C   UNL     1      -9.418   4.407  70.471  1.00  0.00    -0.241 A  
HETATM    6  C   UNL     1     -11.013   6.288  69.114  1.00  0.00    -0.442 A  
HETATM    7  C   UNL     1     -10.192   5.324  71.156  1.00  0.00    -0.294 A  
HETATM    8  C   UNL     1     -10.890   6.271  70.475  1.00  0.00    -0.348 A  
HETATM    9  C   UNL     1     -11.338   7.027  71.701  1.00  0.00    -0.288 C  
HETATM   10  C   UNL     1     -10.746   5.774  72.489  1.00  0.00    -0.279 C  
BRANCH   4  11
HETATM   11  O   UNL     1     -10.376   5.341  67.006  1.00  0.00    -0.212 OA 
HETATM   12  C   UNL     1      -9.497   6.203  66.285  1.00  0.00    -0.113 C  
ENDBRANCH   4  11
BRANCH   9  13
HETATM   13  C   UNL     1     -12.791   7.453  71.454  1.00  0.00    -0.365 C  
BRANCH  13  14
HETATM   14  N   UNL     1     -13.097   8.884  71.482  1.00  0.00    -0.337 NA 
HETATM   15  C   UNL     1     -14.147   9.195  72.438  1.00  0.00    -0.359 C  
BRANCH  14  16
HETATM   16  C   UNL     1     -11.908   9.745  71.525  1.00  0.00    -0.399 C  
BRANCH  16  17
HETATM   17  C   UNL     1     -12.023  10.919  70.557  1.00  0.00    -0.466 C  
BRANCH  17  18
HETATM   18  C   UNL     1     -11.574  10.577  69.130  1.00  0.00    -0.224 C  
BRANCH  18  19
HETATM   19  N   UNL     1     -10.993  11.768  68.505  1.00  0.00    -0.212 N  
HETATM   20  C   UNL     1     -11.854  12.936  68.362  1.00  0.00    -0.318 C  
HETATM   21  C   UNL     1     -12.008  13.359  66.911  1.00  0.00    -0.437 C  
HETATM   22  C   UNL     1     -10.895  14.314  66.580  1.00  0.00    -0.301 A  
HETATM   23  C   UNL     1     -11.226  15.631  66.238  1.00  0.00    -0.033 A  
HETATM   24  C   UNL     1     -10.239  16.580  65.975  1.00  0.00    -0.356 A  
HETATM   25  C   UNL     1      -8.886  16.207  66.060  1.00  0.00    -0.278 A  
HETATM   26  O   UNL     1      -8.831  11.160  68.932  1.00  0.00    -0.153 OA 
HETATM   27  C   UNL     1      -9.628  11.825  68.265  1.00  0.00    -0.199 C  
HETATM   28  C   UNL     1      -8.557  14.887  66.409  1.00  0.00    -0.018 A  
HETATM   29  C   UNL     1      -9.155  12.502  66.982  1.00  0.00    -0.213 C  
HETATM   30  C   UNL     1      -9.551  13.931  66.686  1.00  0.00    -0.297 A  
BRANCH  24  31
HETATM   31  O   UNL     1     -10.519  17.890  65.671  1.00  0.00    -0.610 OA 
HETATM   32  C   UNL     1     -10.693  18.771  66.775  1.00  0.00    -0.312 C  
ENDBRANCH  24  31
BRANCH  25  33
HETATM   33  O   UNL     1      -7.969  17.189  65.781  1.00  0.00    -0.476 OA 
HETATM   34  C   UNL     1      -7.062  17.554  66.812  1.00  0.00    -0.211 C  
ENDBRANCH  25  33
ENDBRANCH  18  19
ENDBRANCH  17  18
ENDBRANCH  16  17
ENDBRANCH  14  16
ENDBRANCH  13  14
ENDBRANCH   9  13
ENDBRANCH   2   3
TORSDOF 10
ENDMDL
MODEL       76
REMARK 921   NORMALIZED FREE ENERGY PREDICTED BY IDOCK:   -5.29 KCAL/MOL
REMARK 922        TOTAL FREE ENERGY PREDICTED BY IDOCK:  -10.35 KCAL/MOL
REMARK 923 INTER-LIGAND FREE ENERGY PREDICTED BY IDOCK:   -9.46 KCAL/MOL
REMARK 924 INTRA-LIGAND FREE ENERGY PREDICTED BY IDOCK:   -0.88 KCAL/MOL
REMARK 927      BINDING AFFINITY PREDICTED BY RF-SCORE:    0.00 PKD
ROOT
HETATM    1  C   UNL     1      -6.613  18.369  65.931  1.00  0.00    -0.271 C  
HETATM    2  O   UNL     1      -7.986  18.141  65.629  1.00  0.00    -0.502 OA 
ENDROOT
BRANCH   2   3
HETATM    3  C   UNL     1      -8.731  17.440  66.544  1.00  0.00    -0.260 A  
HETATM    4  C   UNL     1      -9.205  17.900  67.802  1.00  0.00    -0.258 A  
HETATM    5  C   UNL     1      -9.029  16.118  66.112  1.00  0.00    -0.372 A  
HETATM    6  C   UNL     1      -9.900  17.021  68.633  1.00  0.00    -0.290 A  
HETATM    7  C   UNL     1      -9.742  15.297  66.966  1.00  0.00    -0.232 A  
HETATM    8  C   UNL     1     -10.080  15.734  68.208  1.00  0.00    -0.222 A  
HETATM    9  C   UNL     1     -10.628  14.411  68.681  1.00  0.00    -0.253 C  
HETATM   10  C   UNL     1     -10.473  13.987  67.152  1.00  0.00    -0.270 C  
BRANCH   4  11
HETATM   11  O   UNL     1      -9.018  19.203  68.181  1.00  0.00    -0.300 OA 
HETATM   12  C   UNL     1     -10.060  20.116  67.841  1.00  0.00    -0.392 C  
ENDBRANCH   4  11
BRANCH   9  13
HETATM   13  C   UNL     1     -11.884  14.720  69.507  1.00  0.00    -0.326 C  
BRANCH  13  14
HETATM   14  N   UNL     1     -11.798  14.568  70.961  1.00  0.00    -0.310 NA 
HETATM   15  C   UNL     1     -11.697  15.851  71.634  1.00  0.00    -0.485 C  
BRANCH  14  16
HETATM   16  C   UNL     1     -12.771  13.620  71.517  1.00  0.00    -0.332 C  
BRANCH  16  17
HETATM   17  C   UNL     1     -12.447  12.180  71.128  1.00  0.00    -0.337 C  
BRANCH  17  18
HETATM   18  C   UNL     1     -13.430  11.157  71.712  1.00  0.00    -0.134 C  
BRANCH  18  19
HETATM   19  N   UNL     1     -12.778   9.847  71.791  1.00  0.00    -0.407 N  
HETATM   20  C   UNL     1     -11.345   9.797  71.523  1.00  0.00    -0.275 C  
HETATM   21  C   UNL     1     -11.014   8.882  70.356  1.00  0.00    -0.275 C  
HETATM   22  C   UNL     1     -10.820   7.491  70.891  1.00  0.00    -0.252 A  
HETATM   23  C   UNL     1      -9.557   6.898  70.767  1.00  0.00    -0.167 A  
HETATM   24  C   UNL     1      -9.297   5.633  71.292  1.00  0.00    -0.147 A  
HETATM   25  C   UNL     1     -10.322   4.942  71.961  1.00  0.00    -0.197 A  
HETATM   26  O   UNL     1     -14.406   8.912  73.096  1.00  0.00    -0.348 OA 
HETATM   27  C   UNL     1     -13.470   8.761  72.306  1.00  0.00    -0.420 C  
HETATM   28  C   UNL     1     -11.587   5.540  72.088  1.00  0.00    -0.126 A  
HETATM   29  C   UNL     1     -13.243   7.397  71.660  1.00  0.00    -0.416 C  
HETATM   30  C   UNL     1     -11.848   6.822  71.569  1.00  0.00    -0.378 A  
BRANCH  24  31
HETATM   31  O   UNL     1      -8.065   5.031  71.224  1.00  0.00    -0.105 OA 
HETATM   32  C   UNL     1      -7.751   4.368  70.004  1.00  0.00    -0.053 C  
ENDBRANCH  24  31
BRANCH  25  33
HETATM   33  O   UNL     1      -9.999   3.698  72.444  1.00  0.00    -0.151 OA 
HETATM   34  C   UNL     1     -10.920   3.079  73.331  1.00  0.00    -0.200 C  
ENDBRANCH  25  33
ENDBRANCH  18  19
ENDBRANCH  17  18
ENDBRANCH  16  17
ENDBRANCH  14  16
ENDBRANCH  13  14
ENDBRANCH   9  13
ENDBRANCH   2   3
TORSDOF 10
ENDMDL
MODEL       77
REMARK 921   NORMALIZED FREE ENERGY PREDICTED BY IDOCK:   -5.29 KCAL/MOL
REMARK 922        TOTAL FREE ENERGY PREDICTED BY IDOCK:  -10.34 KCAL/MOL
REMARK 923 INTER-LIGAND FREE ENERGY PREDICTED BY IDOCK:   -8.95 KCAL/MOL
REMARK 924 INTRA-LIGAND FREE ENERGY PREDICTED BY IDOCK:   -1.39 KCAL/MOL
REMARK 927      BINDING AFFINITY PREDICTED BY RF-SCORE:    0.00 PKD
ROOT
HETATM    1  C   UNL     1      -5.971  11.877  69.978  1.00  0.00    -0.159 C  
HETATM    2  O   UNL     1      -6.240  10.889  70.968  1.00  0.00    -0.359 OA 
ENDROOT
BRANCH   2   3
HETATM    3  C   UNL     1      -6.588   9.634  70.537  1.00  0.00    -0.107 A  
HETATM    4  C   UNL     1      -7.065   8.554  71.328  1.00  0.00    -0.078 A  
HETATM    5  C   UNL     1      -6.439   9.474  69.132  1.00  0.00    -0.045 A  
HETATM    6  C   UNL     1      -7.313   7.321  70.723  1.00  0.00    -0.071 A  
HETATM    7  C   UNL     1      -6.721   8.238  68.582  1.00  0.00    -0.059 A  
HETATM    8  C   UNL     1      -7.065   7.196  69.384  1.00  0.00    -0.075 A  
HETATM    9  C   UNL     1      -7.054   6.161  68.288  1.00  0.00    -0.082 C  
HETATM   10  C   UNL     1      -6.915   7.422  67.323  1.00  0.00    -0.083 C  
BRANCH   4  11
HETATM   11  O   UNL     1      -7.317   8.728  72.664  1.00  0.00    -0.336 OA 
HETATM   12  C   UNL     1      -8.507   8.124  73.167  1.00  0.00    -0.216 C  
ENDBRANCH   4  11
BRANCH   9  13
HETATM   13  C   UNL     1      -8.247   5.229  68.545  1.00  0.00    -0.090 C  
BRANCH  13  14
HETATM   14  N   UNL     1      -9.591   5.768  68.331  1.00  0.00    -0.121 NA 
HETATM   15  C   UNL     1     -10.071   5.508  66.985  1.00  0.00    -0.194 C  
BRANCH  14  16
HETATM   16  C   UNL     1     -10.529   5.473  69.421  1.00  0.00    -0.290 C  
BRANCH  16  17
HETATM   17  C   UNL     1     -11.433   6.664  69.730  1.00  0.00    -0.388 C  
BRANCH  17  18
HETATM   18  C   UNL     1     -11.134   7.317  71.085  1.00  0.00    -0.253 C  
BRANCH  18  19
HETATM   19  N   UNL     1     -11.386   8.758  70.996  1.00  0.00    -0.267 N  
HETATM   20  C   UNL     1     -11.931   9.415  72.179  1.00  0.00    -0.170 C  
HETATM   21  C   UNL     1     -13.267  10.081  71.898  1.00  0.00    -0.557 C  
HETATM   22  C   UNL     1     -13.002  11.480  71.415  1.00  0.00    -0.450 A  
HETATM   23  C   UNL     1     -13.458  12.551  72.193  1.00  0.00    -0.523 A  
HETATM   24  C   UNL     1     -13.196  13.872  71.830  1.00  0.00    -0.397 A  
HETATM   25  C   UNL     1     -12.455  14.130  70.664  1.00  0.00    -0.362 A  
HETATM   26  O   UNL     1      -9.950   9.086  69.248  1.00  0.00    -0.178 OA 
HETATM   27  C   UNL     1     -10.921   9.475  69.904  1.00  0.00    -0.238 C  
HETATM   28  C   UNL     1     -11.995  13.054  69.888  1.00  0.00    -0.381 A  
HETATM   29  C   UNL     1     -11.801  10.594  69.356  1.00  0.00    -0.325 C  
HETATM   30  C   UNL     1     -12.248  11.720  70.259  1.00  0.00    -0.381 A  
BRANCH  24  31
HETATM   31  O   UNL     1     -13.593  14.951  72.582  1.00  0.00    -0.419 OA 
HETATM   32  C   UNL     1     -12.765  15.289  73.689  1.00  0.00    -0.566 C  
ENDBRANCH  24  31
BRANCH  25  33
HETATM   33  O   UNL     1     -12.242  15.453  70.362  1.00  0.00    -0.340 OA 
HETATM   34  C   UNL     1     -11.637  15.752  69.112  1.00  0.00    -0.392 C  
ENDBRANCH  25  33
ENDBRANCH  18  19
ENDBRANCH  17  18
ENDBRANCH  16  17
ENDBRANCH  14  16
ENDBRANCH  13  14
ENDBRANCH   9  13
ENDBRANCH   2   3
TORSDOF 10
ENDMDL
MODEL       78
REMARK 921   NORMALIZED FREE ENERGY PREDICTED BY IDOCK:   -5.27 KCAL/MOL
REMARK 922        TOTAL FREE ENERGY PREDICTED BY IDOCK:  -10.32 KCAL/MOL
REMARK 923 INTER-LIGAND FREE ENERGY PREDICTED BY IDOCK:   -9.08 KCAL/MOL
REMARK 924 INTRA-LIGAND FREE ENERGY PREDICTED BY IDOCK:   -1.25 KCAL/MOL
REMARK 927      BINDING AFFINITY PREDICTED BY RF-SCORE:    0.00 PKD
ROOT
HETATM    1  C   UNL     1      -7.530  17.795  65.989  1.00  0.00    -0.249 C  
HETATM    2  O   UNL     1      -8.945  17.949  66.020  1.00  0.00    -0.495 OA 
ENDROOT
BRANCH   2   3
HETATM    3  C   UNL     1      -9.635  17.297  67.010  1.00  0.00    -0.261 A  
HETATM    4  C   UNL     1      -9.840  17.731  68.348  1.00  0.00    -0.347 A  
HETATM    5  C   UNL     1     -10.186  16.060  66.572  1.00  0.00    -0.301 A  
HETATM    6  C   UNL     1     -10.520  16.901  69.239  1.00  0.00    -0.319 A  
HETATM    7  C   UNL     1     -10.871  15.289  67.491  1.00  0.00    -0.304 A  
HETATM    8  C   UNL     1     -10.948  15.682  68.790  1.00  0.00    -0.281 A  
HETATM    9  C   UNL     1     -11.604  14.417  69.284  1.00  0.00    -0.345 C  
HETATM   10  C   UNL     1     -11.749  14.081  67.733  1.00  0.00    -0.403 C  
BRANCH   4  11
HETATM   11  O   UNL     1      -9.409  18.967  68.750  1.00  0.00    -0.355 OA 
HETATM   12  C   UNL     1     -10.213  20.077  68.353  1.00  0.00    -0.379 C  
ENDBRANCH   4  11
BRANCH   9  13
HETATM   13  C   UNL     1     -12.660  14.838  70.315  1.00  0.00    -0.315 C  
BRANCH  13  14
HETATM   14  N   UNL     1     -12.413  14.505  71.719  1.00  0.00    -0.342 NA 
HETATM   15  C   UNL     1     -12.310  15.694  72.548  1.00  0.00    -0.433 C  
BRANCH  14  16
HETATM   16  C   UNL     1     -13.270  13.430  72.235  1.00  0.00    -0.472 C  
BRANCH  16  17
HETATM   17  C   UNL     1     -13.380  12.270  71.248  1.00  0.00     0.109 C  
BRANCH  17  18
HETATM   18  C   UNL     1     -13.061  10.907  71.876  1.00  0.00    -0.432 C  
BRANCH  18  19
HETATM   19  N   UNL     1     -12.051  10.223  71.065  1.00  0.00    -0.353 N  
HETATM   20  C   UNL     1     -11.341  11.020  70.071  1.00  0.00    -0.277 C  
HETATM   21  C   UNL     1     -11.528  10.478  68.664  1.00  0.00    -0.290 C  
HETATM   22  C   UNL     1     -10.455   9.457  68.407  1.00  0.00    -0.256 A  
HETATM   23  C   UNL     1      -9.519   9.714  67.398  1.00  0.00    -0.170 A  
HETATM   24  C   UNL     1      -8.466   8.835  67.147  1.00  0.00    -0.110 A  
HETATM   25  C   UNL     1      -8.342   7.671  67.926  1.00  0.00    -0.123 A  
HETATM   26  O   UNL     1     -11.760   8.505  72.546  1.00  0.00    -0.380 OA 
HETATM   27  C   UNL     1     -11.658   8.933  71.393  1.00  0.00    -0.312 C  
HETATM   28  C   UNL     1      -9.279   7.418  68.940  1.00  0.00    -0.142 A  
HETATM   29  C   UNL     1     -11.367   7.963  70.252  1.00  0.00    -0.158 C  
HETATM   30  C   UNL     1     -10.336   8.311  69.203  1.00  0.00    -0.225 A  
BRANCH  24  31
HETATM   31  O   UNL     1      -7.506   9.066  66.192  1.00  0.00    -0.089 OA 
HETATM   32  C   UNL     1      -7.414  10.397  65.698  1.00  0.00    -0.149 C  
ENDBRANCH  24  31
BRANCH  25  33
HETATM   33  O   UNL     1      -7.288   6.847  67.619  1.00  0.00    -0.091 OA 
HETATM   34  C   UNL     1      -6.120   6.947  68.422  1.00  0.00    -0.029 C  
ENDBRANCH  25  33
ENDBRANCH  18  19
ENDBRANCH  17  18
ENDBRANCH  16  17
ENDBRANCH  14  16
ENDBRANCH  13  14
ENDBRANCH   9  13
ENDBRANCH   2   3
TORSDOF 10
ENDMDL
MODEL       79
REMARK 921   NORMALIZED FREE ENERGY PREDICTED BY IDOCK:   -5.27 KCAL/MOL
REMARK 922        TOTAL FREE ENERGY PREDICTED BY IDOCK:  -10.31 KCAL/MOL
REMARK 923 INTER-LIGAND FREE ENERGY PREDICTED BY IDOCK:   -8.42 KCAL/MOL
REMARK 924 INTRA-LIGAND FREE ENERGY PREDICTED BY IDOCK:   -1.89 KCAL/MOL
REMARK 927      BINDING AFFINITY PREDICTED BY RF-SCORE:    0.00 PKD
ROOT
HETATM    1  C   UNL     1      -5.153  12.772  70.930  1.00  0.00    -0.141 C  
HETATM    2  O   UNL     1      -6.124  13.796  71.123  1.00  0.00    -0.159 OA 
ENDROOT
BRANCH   2   3
HETATM    3  C   UNL     1      -6.229  14.764  70.158  1.00  0.00    -0.166 A  
HETATM    4  C   UNL     1      -6.960  14.692  68.941  1.00  0.00    -0.112 A  
HETATM    5  C   UNL     1      -5.508  15.946  70.484  1.00  0.00    -0.142 A  
HETATM    6  C   UNL     1      -6.901  15.759  68.044  1.00  0.00    -0.141 A  
HETATM    7  C   UNL     1      -5.504  16.982  69.569  1.00  0.00    -0.170 A  
HETATM    8  C   UNL     1      -6.119  16.833  68.366  1.00  0.00    -0.133 A  
HETATM    9  C   UNL     1      -5.627  18.137  67.791  1.00  0.00    -0.151 C  
HETATM   10  C   UNL     1      -5.138  18.421  69.281  1.00  0.00    -0.186 C  
BRANCH   4  11
HETATM   11  O   UNL     1      -7.745  13.603  68.666  1.00  0.00    -0.131 OA 
HETATM   12  C   UNL     1      -7.441  12.892  67.466  1.00  0.00    -0.155 C  
ENDBRANCH   4  11
BRANCH   9  13
HETATM   13  C   UNL     1      -6.793  18.738  66.994  1.00  0.00    -0.201 C  
BRANCH  13  14
HETATM   14  N   UNL     1      -7.539  19.840  67.604  1.00  0.00    -0.274 NA 
HETATM   15  C   UNL     1      -6.895  21.122  67.377  1.00  0.00    -0.339 C  
BRANCH  14  16
HETATM   16  C   UNL     1      -8.985  19.789  67.351  1.00  0.00    -0.326 C  
BRANCH  16  17
HETATM   17  C   UNL     1      -9.390  18.509  66.626  1.00  0.00    -0.310 C  
BRANCH  17  18
HETATM   18  C   UNL     1     -10.576  17.789  67.281  1.00  0.00    -0.316 C  
BRANCH  18  19
HETATM   19  N   UNL     1     -10.519  16.362  66.954  1.00  0.00    -0.303 N  
HETATM   20  C   UNL     1     -10.085  16.002  65.608  1.00  0.00    -0.354 C  
HETATM   21  C   UNL     1     -11.140  15.205  64.861  1.00  0.00    -0.425 C  
HETATM   22  C   UNL     1     -10.932  13.748  65.167  1.00  0.00    -0.337 A  
HETATM   23  C   UNL     1     -10.587  12.890  64.115  1.00  0.00    -0.442 A  
HETATM   24  C   UNL     1     -10.325  11.539  64.342  1.00  0.00    -0.312 A  
HETATM   25  C   UNL     1     -10.406  11.032  65.650  1.00  0.00    -0.251 A  
HETATM   26  O   UNL     1     -10.403  15.680  69.133  1.00  0.00    -0.214 OA 
HETATM   27  C   UNL     1     -10.670  15.416  67.957  1.00  0.00    -0.279 C  
HETATM   28  C   UNL     1     -10.749  11.896  66.703  1.00  0.00    -0.291 A  
HETATM   29  C   UNL     1     -11.441  14.141  67.627  1.00  0.00    -0.364 C  
HETATM   30  C   UNL     1     -11.001  13.263  66.479  1.00  0.00    -0.299 A  
BRANCH  24  31
HETATM   31  O   UNL     1      -9.948  10.670  63.347  1.00  0.00    -0.320 OA 
HETATM   32  C   UNL     1      -8.549  10.474  63.175  1.00  0.00    -0.186 C  
ENDBRANCH  24  31
BRANCH  25  33
HETATM   33  O   UNL     1     -10.145   9.692  65.799  1.00  0.00    -0.290 OA 
HETATM   34  C   UNL     1     -10.644   9.051  66.965  1.00  0.00    -0.200 C  
ENDBRANCH  25  33
ENDBRANCH  18  19
ENDBRANCH  17  18
ENDBRANCH  16  17
ENDBRANCH  14  16
ENDBRANCH  13  14
ENDBRANCH   9  13
ENDBRANCH   2   3
TORSDOF 10
ENDMDL
MODEL       80
REMARK 921   NORMALIZED FREE ENERGY PREDICTED BY IDOCK:   -5.25 KCAL/MOL
REMARK 922        TOTAL FREE ENERGY PREDICTED BY IDOCK:  -10.28 KCAL/MOL
REMARK 923 INTER-LIGAND FREE ENERGY PREDICTED BY IDOCK:   -8.90 KCAL/MOL
REMARK 924 INTRA-LIGAND FREE ENERGY PREDICTED BY IDOCK:   -1.38 KCAL/MOL
REMARK 927      BINDING AFFINITY PREDICTED BY RF-SCORE:    0.00 PKD
ROOT
HETATM    1  C   UNL     1      -6.666   5.834  65.065  1.00  0.00    -0.047 C  
HETATM    2  O   UNL     1      -7.914   6.519  65.010  1.00  0.00    -0.110 OA 
ENDROOT
BRANCH   2   3
HETATM    3  C   UNL     1      -8.683   6.532  66.146  1.00  0.00    -0.147 A  
HETATM    4  C   UNL     1      -9.851   5.765  66.404  1.00  0.00    -0.138 A  
HETATM    5  C   UNL     1      -8.191   7.431  67.132  1.00  0.00    -0.118 A  
HETATM    6  C   UNL     1     -10.544   5.957  67.600  1.00  0.00    -0.335 A  
HETATM    7  C   UNL     1      -8.904   7.565  68.308  1.00  0.00    -0.125 A  
HETATM    8  C   UNL     1     -10.078   6.900  68.474  1.00  0.00    -0.165 A  
HETATM    9  C   UNL     1     -10.437   7.565  69.779  1.00  0.00    -0.232 C  
HETATM   10  C   UNL     1      -8.949   8.133  69.709  1.00  0.00    -0.144 C  
BRANCH   4  11
HETATM   11  O   UNL     1     -10.272   4.818  65.509  1.00  0.00    -0.189 OA 
HETATM   12  C   UNL     1      -9.581   3.570  65.536  1.00  0.00    -0.125 C  
ENDBRANCH   4  11
BRANCH   9  13
HETATM   13  C   UNL     1     -11.047   6.480  70.677  1.00  0.00    -0.309 C  
BRANCH  13  14
HETATM   14  N   UNL     1     -11.526   6.881  72.001  1.00  0.00    -0.263 NA 
HETATM   15  C   UNL     1     -10.948   6.065  73.056  1.00  0.00    -0.257 C  
BRANCH  14  16
HETATM   16  C   UNL     1     -11.511   8.332  72.224  1.00  0.00    -0.384 C  
BRANCH  16  17
HETATM   17  C   UNL     1     -12.780   8.999  71.701  1.00  0.00    -0.421 C  
BRANCH  17  18
HETATM   18  C   UNL     1     -12.850  10.500  72.010  1.00  0.00    -0.316 C  
BRANCH  18  19
HETATM   19  N   UNL     1     -12.640  11.261  70.775  1.00  0.00    -0.345 N  
HETATM   20  C   UNL     1     -12.648  10.515  69.522  1.00  0.00     0.247 C  
HETATM   21  C   UNL     1     -11.341  10.659  68.762  1.00  0.00    -0.339 C  
HETATM   22  C   UNL     1     -11.442  11.871  67.879  1.00  0.00    -0.385 A  
HETATM   23  C   UNL     1     -11.383  11.692  66.491  1.00  0.00    -0.331 A  
HETATM   24  C   UNL     1     -11.526  12.768  65.617  1.00  0.00    -0.342 A  
HETATM   25  C   UNL     1     -11.738  14.056  66.139  1.00  0.00    -0.384 A  
HETATM   26  O   UNL     1     -13.252  13.265  71.690  1.00  0.00    -0.383 OA 
HETATM   27  C   UNL     1     -12.648  12.647  70.808  1.00  0.00    -0.217 C  
HETATM   28  C   UNL     1     -11.801  14.232  67.531  1.00  0.00    -0.429 A  
HETATM   29  C   UNL     1     -11.665  13.389  69.907  1.00  0.00    -0.337 C  
HETATM   30  C   UNL     1     -11.668  13.145  68.415  1.00  0.00    -0.386 A  
BRANCH  24  31
HETATM   31  O   UNL     1     -11.512  12.632  64.250  1.00  0.00    -0.321 OA 
HETATM   32  C   UNL     1     -10.290  12.184  63.672  1.00  0.00    -0.452 C  
ENDBRANCH  24  31
BRANCH  25  33
HETATM   33  O   UNL     1     -11.862  15.069  65.221  1.00  0.00    -0.272 OA 
HETATM   34  C   UNL     1     -10.845  16.061  65.197  1.00  0.00    -0.395 C  
ENDBRANCH  25  33
ENDBRANCH  18  19
ENDBRANCH  17  18
ENDBRANCH  16  17
ENDBRANCH  14  16
ENDBRANCH  13  14
ENDBRANCH   9  13
ENDBRANCH   2   3
TORSDOF 10
ENDMDL
MODEL       81
REMARK 921   NORMALIZED FREE ENERGY PREDICTED BY IDOCK:   -5.23 KCAL/MOL
REMARK 922        TOTAL FREE ENERGY PREDICTED BY IDOCK:  -10.25 KCAL/MOL
REMARK 923 INTER-LIGAND FREE ENERGY PREDICTED BY IDOCK:   -8.40 KCAL/MOL
REMARK 924 INTRA-LIGAND FREE ENERGY PREDICTED BY IDOCK:   -1.84 KCAL/MOL
REMARK 927      BINDING AFFINITY PREDICTED BY RF-SCORE:    0.00 PKD
ROOT
HETATM    1  C   UNL     1     -12.411  12.123  63.457  1.00  0.00    -0.555 C  
HETATM    2  O   UNL     1     -12.982  12.417  64.729  1.00  0.00    -0.786 OA 
ENDROOT
BRANCH   2   3
HETATM    3  C   UNL     1     -12.290  13.264  65.556  1.00  0.00    -0.480 A  
HETATM    4  C   UNL     1     -11.967  13.058  66.925  1.00  0.00    -0.352 A  
HETATM    5  C   UNL     1     -11.876  14.456  64.901  1.00  0.00    -0.419 A  
HETATM    6  C   UNL     1     -11.307  14.064  67.630  1.00  0.00    -0.336 A  
HETATM    7  C   UNL     1     -11.203  15.409  65.642  1.00  0.00    -0.208 A  
HETATM    8  C   UNL     1     -11.012  15.228  66.975  1.00  0.00    -0.324 A  
HETATM    9  C   UNL     1     -10.438  16.599  67.226  1.00  0.00    -0.313 C  
HETATM   10  C   UNL     1     -10.419  16.702  65.636  1.00  0.00    -0.313 C  
BRANCH   4  11
HETATM   11  O   UNL     1     -12.265  11.869  67.538  1.00  0.00    -0.510 OA 
HETATM   12  C   UNL     1     -12.018  11.803  68.941  1.00  0.00    -0.271 C  
ENDBRANCH   4  11
BRANCH   9  13
HETATM   13  C   UNL     1      -9.288  16.423  68.227  1.00  0.00    -0.210 C  
BRANCH  13  14
HETATM   14  N   UNL     1      -8.121  15.651  67.795  1.00  0.00    -0.140 NA 
HETATM   15  C   UNL     1      -7.170  16.471  67.064  1.00  0.00    -0.212 C  
BRANCH  14  16
HETATM   16  C   UNL     1      -7.560  14.787  68.842  1.00  0.00    -0.144 C  
BRANCH  16  17
HETATM   17  C   UNL     1      -7.249  13.388  68.316  1.00  0.00    -0.111 C  
BRANCH  17  18
HETATM   18  C   UNL     1      -7.979  13.054  67.009  1.00  0.00    -0.004 C  
BRANCH  18  19
HETATM   19  N   UNL     1      -8.439  11.664  67.050  1.00  0.00    -0.162 N  
HETATM   20  C   UNL     1      -8.680  11.079  68.364  1.00  0.00    -0.150 C  
HETATM   21  C   UNL     1      -7.820   9.851  68.610  1.00  0.00    -0.086 C  
HETATM   22  C   UNL     1      -8.560   8.649  68.094  1.00  0.00    -0.141 A  
HETATM   23  C   UNL     1      -8.947   7.661  69.008  1.00  0.00    -0.137 A  
HETATM   24  C   UNL     1      -9.684   6.549  68.602  1.00  0.00    -0.127 A  
HETATM   25  C   UNL     1     -10.048   6.421  67.251  1.00  0.00    -0.163 A  
HETATM   26  O   UNL     1      -9.222  11.668  64.902  1.00  0.00    -0.084 OA 
HETATM   27  C   UNL     1      -8.821  11.028  65.878  1.00  0.00    -0.195 C  
HETATM   28  C   UNL     1      -9.663   7.415  66.337  1.00  0.00    -0.163 A  
HETATM   29  C   UNL     1      -8.469   9.552  65.718  1.00  0.00    -0.143 C  
HETATM   30  C   UNL     1      -8.929   8.545  66.747  1.00  0.00    -0.173 A  
BRANCH  24  31
HETATM   31  O   UNL     1     -10.115   5.576  69.471  1.00  0.00    -0.191 OA 
HETATM   32  C   UNL     1     -11.012   5.995  70.494  1.00  0.00    -0.319 C  
ENDBRANCH  24  31
BRANCH  25  33
HETATM   33  O   UNL     1     -10.765   5.298  66.921  1.00  0.00    -0.253 OA 
HETATM   34  C   UNL     1     -10.222   4.441  65.926  1.00  0.00    -0.227 C  
ENDBRANCH  25  33
ENDBRANCH  18  19
ENDBRANCH  17  18
ENDBRANCH  16  17
ENDBRANCH  14  16
ENDBRANCH  13  14
ENDBRANCH   9  13
ENDBRANCH   2   3
TORSDOF 10
ENDMDL
MODEL       82
REMARK 921   NORMALIZED FREE ENERGY PREDICTED BY IDOCK:   -5.22 KCAL/MOL
REMARK 922        TOTAL FREE ENERGY PREDICTED BY IDOCK:  -10.24 KCAL/MOL
REMARK 923 INTER-LIGAND FREE ENERGY PREDICTED BY IDOCK:   -9.51 KCAL/MOL
REMARK 924 INTRA-LIGAND FREE ENERGY PREDICTED BY IDOCK:   -0.73 KCAL/MOL
REMARK 927      BINDING AFFINITY PREDICTED BY RF-SCORE:    0.00 PKD
ROOT
HETATM    1  C   UNL     1      -8.766   1.986  68.600  1.00  0.00    -0.080 C  
HETATM    2  O   UNL     1      -8.496   2.247  69.974  1.00  0.00    -0.044 OA 
ENDROOT
BRANCH   2   3
HETATM    3  C   UNL     1      -9.184   3.270  70.575  1.00  0.00    -0.143 A  
HETATM    4  C   UNL     1      -9.331   3.508  71.969  1.00  0.00    -0.122 A  
HETATM    5  C   UNL     1      -9.783   4.156  69.637  1.00  0.00    -0.269 A  
HETATM    6  C   UNL     1     -10.124   4.571  72.401  1.00  0.00    -0.243 A  
HETATM    7  C   UNL     1     -10.538   5.207  70.121  1.00  0.00    -0.225 A  
HETATM    8  C   UNL     1     -10.751   5.336  71.457  1.00  0.00    -0.221 A  
HETATM    9  C   UNL     1     -11.734   6.473  71.336  1.00  0.00    -0.378 C  
HETATM   10  C   UNL     1     -11.279   6.488  69.809  1.00  0.00    -0.456 C  
BRANCH   4  11
HETATM   11  O   UNL     1      -8.671   2.726  72.880  1.00  0.00    -0.074 OA 
HETATM   12  C   UNL     1      -7.455   3.258  73.405  1.00  0.00    -0.056 C  
ENDBRANCH   4  11
BRANCH   9  13
HETATM   13  C   UNL     1     -11.425   7.451  72.478  1.00  0.00    -0.301 C  
BRANCH  13  14
HETATM   14  N   UNL     1     -11.414   8.881  72.166  1.00  0.00    -0.356 NA 
HETATM   15  C   UNL     1     -10.276   9.247  71.341  1.00  0.00    -0.301 C  
BRANCH  14  16
HETATM   16  C   UNL     1     -12.718   9.406  71.740  1.00  0.00    -0.390 C  
BRANCH  16  17
HETATM   17  C   UNL     1     -12.571  10.660  70.881  1.00  0.00    -0.503 C  
BRANCH  17  18
HETATM   18  C   UNL     1     -12.827  11.960  71.655  1.00  0.00    -0.312 C  
BRANCH  18  19
HETATM   19  N   UNL     1     -12.387  13.100  70.847  1.00  0.00    -0.360 N  
HETATM   20  C   UNL     1     -12.233  12.884  69.413  1.00  0.00    -0.091 C  
HETATM   21  C   UNL     1     -10.816  13.162  68.942  1.00  0.00    -0.240 C  
HETATM   22  C   UNL     1     -10.716  14.620  68.591  1.00  0.00    -0.252 A  
HETATM   23  C   UNL     1     -10.446  14.968  67.261  1.00  0.00    -0.265 A  
HETATM   24  C   UNL     1     -10.396  16.303  66.859  1.00  0.00    -0.299 A  
HETATM   25  C   UNL     1     -10.625  17.315  67.807  1.00  0.00    -0.367 A  
HETATM   26  O   UNL     1     -13.038  14.669  72.378  1.00  0.00    -0.335 OA 
HETATM   27  C   UNL     1     -12.333  14.366  71.412  1.00  0.00    -0.360 C  
HETATM   28  C   UNL     1     -10.899  16.963  69.138  1.00  0.00    -0.237 A  
HETATM   29  C   UNL     1     -11.184  15.283  71.001  1.00  0.00    -0.378 C  
HETATM   30  C   UNL     1     -10.962  15.617  69.544  1.00  0.00    -0.281 A  
BRANCH  24  31
HETATM   31  O   UNL     1     -10.171  16.687  65.560  1.00  0.00    -0.550 OA 
HETATM   32  C   UNL     1     -11.085  16.192  64.587  1.00  0.00    -0.296 C  
ENDBRANCH  24  31
BRANCH  25  33
HETATM   33  O   UNL     1     -10.552  18.606  67.344  1.00  0.00    -0.416 OA 
HETATM   34  C   UNL     1      -9.375  19.344  67.641  1.00  0.00    -0.309 C  
ENDBRANCH  25  33
ENDBRANCH  18  19
ENDBRANCH  17  18
ENDBRANCH  16  17
ENDBRANCH  14  16
ENDBRANCH  13  14
ENDBRANCH   9  13
ENDBRANCH   2   3
TORSDOF 10
ENDMDL
MODEL       83
REMARK 921   NORMALIZED FREE ENERGY PREDICTED BY IDOCK:   -5.17 KCAL/MOL
REMARK 922        TOTAL FREE ENERGY PREDICTED BY IDOCK:  -10.15 KCAL/MOL
REMARK 923 INTER-LIGAND FREE ENERGY PREDICTED BY IDOCK:   -9.62 KCAL/MOL
REMARK 924 INTRA-LIGAND FREE ENERGY PREDICTED BY IDOCK:   -0.53 KCAL/MOL
REMARK 927      BINDING AFFINITY PREDICTED BY RF-SCORE:    0.00 PKD
ROOT
HETATM    1  C   UNL     1      -8.522   3.606  69.591  1.00  0.00    -0.060 C  
HETATM    2  O   UNL     1      -9.828   3.958  69.144  1.00  0.00    -0.133 OA 
ENDROOT
BRANCH   2   3
HETATM    3  C   UNL     1     -10.022   5.237  68.690  1.00  0.00    -0.168 A  
HETATM    4  C   UNL     1     -10.345   5.642  67.366  1.00  0.00    -0.230 A  
HETATM    5  C   UNL     1      -9.875   6.213  69.714  1.00  0.00    -0.199 A  
HETATM    6  C   UNL     1     -10.444   7.002  67.072  1.00  0.00    -0.386 A  
HETATM    7  C   UNL     1     -10.007   7.545  69.372  1.00  0.00    -0.178 A  
HETATM    8  C   UNL     1     -10.203   7.900  68.074  1.00  0.00    -0.256 A  
HETATM    9  C   UNL     1     -10.079   9.384  68.311  1.00  0.00    -0.210 C  
HETATM   10  C   UNL     1     -10.116   8.975  69.851  1.00  0.00    -0.213 C  
BRANCH   4  11
HETATM   11  O   UNL     1     -10.596   4.708  66.396  1.00  0.00    -0.252 OA 
HETATM   12  C   UNL     1      -9.467   4.249  65.654  1.00  0.00    -0.176 C  
ENDBRANCH   4  11
BRANCH   9  13
HETATM   13  C   UNL     1     -11.139  10.065  67.435  1.00  0.00    -0.085 C  
BRANCH  13  14
HETATM   14  N   UNL     1     -11.584  11.405  67.820  1.00  0.00    -0.520 NA 
HETATM   15  C   UNL     1     -12.020  11.454  69.205  1.00  0.00    -0.332 C  
BRANCH  14  16
HETATM   16  C   UNL     1     -10.680  12.478  67.388  1.00  0.00    -0.229 C  
BRANCH  16  17
HETATM   17  C   UNL     1     -11.078  13.828  67.977  1.00  0.00    -0.284 C  
BRANCH  17  18
HETATM   18  C   UNL     1     -11.578  14.827  66.925  1.00  0.00    -0.327 C  
BRANCH  18  19
HETATM   19  N   UNL     1     -10.689  15.991  66.900  1.00  0.00    -0.298 N  
HETATM   20  C   UNL     1      -9.730  16.124  67.991  1.00  0.00    -0.229 C  
HETATM   21  C   UNL     1      -9.917  17.418  68.763  1.00  0.00    -0.329 C  
HETATM   22  C   UNL     1      -9.094  18.485  68.097  1.00  0.00    -0.329 A  
HETATM   23  C   UNL     1      -8.040  19.061  68.818  1.00  0.00    -0.372 A  
HETATM   24  C   UNL     1      -7.205  20.015  68.239  1.00  0.00    -0.277 A  
HETATM   25  C   UNL     1      -7.423  20.402  66.905  1.00  0.00    -0.298 A  
HETATM   26  O   UNL     1     -10.936  16.360  64.657  1.00  0.00    -0.707 OA 
HETATM   27  C   UNL     1     -10.638  16.798  65.772  1.00  0.00    -0.250 C  
HETATM   28  C   UNL     1      -8.477  19.819  66.183  1.00  0.00    -0.367 A  
HETATM   29  C   UNL     1     -10.484  18.302  65.975  1.00  0.00    -0.380 C  
HETATM   30  C   UNL     1      -9.314  18.847  66.762  1.00  0.00    -0.343 A  
BRANCH  24  31
HETATM   31  O   UNL     1      -6.139  20.579  68.897  1.00  0.00    -0.321 OA 
HETATM   32  C   UNL     1      -5.922  20.145  70.235  1.00  0.00    -0.349 C  
ENDBRANCH  24  31
BRANCH  25  33
HETATM   33  O   UNL     1      -6.568  21.351  66.402  1.00  0.00    -0.298 OA 
HETATM   34  C   UNL     1      -5.685  20.955  65.361  1.00  0.00    -0.233 C  
ENDBRANCH  25  33
ENDBRANCH  18  19
ENDBRANCH  17  18
ENDBRANCH  16  17
ENDBRANCH  14  16
ENDBRANCH  13  14
ENDBRANCH   9  13
ENDBRANCH   2   3
TORSDOF 10
ENDMDL
MODEL       84
REMARK 921   NORMALIZED FREE ENERGY PREDICTED BY IDOCK:   -5.16 KCAL/MOL
REMARK 922        TOTAL FREE ENERGY PREDICTED BY IDOCK:  -10.14 KCAL/MOL
REMARK 923 INTER-LIGAND FREE ENERGY PREDICTED BY IDOCK:   -8.42 KCAL/MOL
REMARK 924 INTRA-LIGAND FREE ENERGY PREDICTED BY IDOCK:   -1.72 KCAL/MOL
REMARK 927      BINDING AFFINITY PREDICTED BY RF-SCORE:    0.00 PKD
ROOT
HETATM    1  C   UNL     1      -9.727  10.161  65.424  1.00  0.00    -0.291 C  
HETATM    2  O   UNL     1      -8.971   8.975  65.195  1.00  0.00    -0.200 OA 
ENDROOT
BRANCH   2   3
HETATM    3  C   UNL     1      -8.727   8.159  66.270  1.00  0.00    -0.150 A  
HETATM    4  C   UNL     1      -7.557   8.123  67.077  1.00  0.00    -0.096 A  
HETATM    5  C   UNL     1      -9.812   7.284  66.554  1.00  0.00    -0.202 A  
HETATM    6  C   UNL     1      -7.460   7.177  68.097  1.00  0.00    -0.099 A  
HETATM    7  C   UNL     1      -9.671   6.383  67.592  1.00  0.00    -0.130 A  
HETATM    8  C   UNL     1      -8.494   6.300  68.268  1.00  0.00    -0.114 A  
HETATM    9  C   UNL     1      -8.882   5.091  69.081  1.00  0.00    -0.114 C  
HETATM   10  C   UNL     1     -10.335   5.357  68.482  1.00  0.00    -0.219 C  
BRANCH   4  11
HETATM   11  O   UNL     1      -6.551   9.033  66.882  1.00  0.00    -0.063 OA 
HETATM   12  C   UNL     1      -6.429  10.060  67.865  1.00  0.00    -0.059 C  
ENDBRANCH   4  11
BRANCH   9  13
HETATM   13  C   UNL     1      -8.331   5.313  70.497  1.00  0.00    -0.112 C  
BRANCH  13  14
HETATM   14  N   UNL     1      -9.289   5.342  71.604  1.00  0.00    -0.145 NA 
HETATM   15  C   UNL     1      -9.417   4.044  72.244  1.00  0.00    -0.130 C  
BRANCH  14  16
HETATM   16  C   UNL     1      -9.124   6.492  72.501  1.00  0.00    -0.135 C  
BRANCH  16  17
HETATM   17  C   UNL     1     -10.414   7.296  72.635  1.00  0.00    -0.285 C  
BRANCH  17  18
HETATM   18  C   UNL     1     -11.098   7.578  71.291  1.00  0.00    -0.246 C  
BRANCH  18  19
HETATM   19  N   UNL     1     -11.361   9.014  71.170  1.00  0.00    -0.283 N  
HETATM   20  C   UNL     1     -11.950   9.684  72.324  1.00  0.00     0.225 C  
HETATM   21  C   UNL     1     -13.283  10.332  71.990  1.00  0.00    -0.516 C  
HETATM   22  C   UNL     1     -13.016  11.725  71.493  1.00  0.00    -0.446 A  
HETATM   23  C   UNL     1     -13.507  12.804  72.239  1.00  0.00    -0.591 A  
HETATM   24  C   UNL     1     -13.246  14.122  71.863  1.00  0.00    -0.387 A  
HETATM   25  C   UNL     1     -12.472  14.369  70.716  1.00  0.00    -0.352 A  
HETATM   26  O   UNL     1      -9.873   9.329  69.463  1.00  0.00    -0.169 OA 
HETATM   27  C   UNL     1     -10.868   9.718  70.081  1.00  0.00    -0.291 C  
HETATM   28  C   UNL     1     -11.976  13.286  69.973  1.00  0.00    -0.399 A  
HETATM   29  C   UNL     1     -11.741  10.819  69.488  1.00  0.00    -0.384 C  
HETATM   30  C   UNL     1     -12.228  11.955  70.358  1.00  0.00    -0.399 A  
BRANCH  24  31
HETATM   31  O   UNL     1     -13.678  15.208  72.584  1.00  0.00    -0.455 OA 
HETATM   32  C   UNL     1     -12.947  15.512  73.767  1.00  0.00    -0.441 C  
ENDBRANCH  24  31
BRANCH  25  33
HETATM   33  O   UNL     1     -12.262  15.689  70.400  1.00  0.00    -0.381 OA 
HETATM   34  C   UNL     1     -10.939  16.080  70.059  1.00  0.00    -0.365 C  
ENDBRANCH  25  33
ENDBRANCH  18  19
ENDBRANCH  17  18
ENDBRANCH  16  17
ENDBRANCH  14  16
ENDBRANCH  13  14
ENDBRANCH   9  13
ENDBRANCH   2   3
TORSDOF 10
ENDMDL
MODEL       85
REMARK 921   NORMALIZED FREE ENERGY PREDICTED BY IDOCK:   -5.15 KCAL/MOL
REMARK 922        TOTAL FREE ENERGY PREDICTED BY IDOCK:  -10.12 KCAL/MOL
REMARK 923 INTER-LIGAND FREE ENERGY PREDICTED BY IDOCK:   -8.28 KCAL/MOL
REMARK 924 INTRA-LIGAND FREE ENERGY PREDICTED BY IDOCK:   -1.84 KCAL/MOL
REMARK 927      BINDING AFFINITY PREDICTED BY RF-SCORE:    0.00 PKD
ROOT
HETATM    1  C   UNL     1     -12.248   6.936  71.209  1.00  0.00    -0.380 C  
HETATM    2  O   UNL     1     -11.877   6.392  69.946  1.00  0.00    -0.384 OA 
ENDROOT
BRANCH   2   3
HETATM    3  C   UNL     1     -10.710   6.837  69.380  1.00  0.00    -0.255 A  
HETATM    4  C   UNL     1      -9.938   6.191  68.376  1.00  0.00    -0.140 A  
HETATM    5  C   UNL     1     -10.292   8.095  69.897  1.00  0.00    -0.214 A  
HETATM    6  C   UNL     1      -8.737   6.767  67.962  1.00  0.00    -0.118 A  
HETATM    7  C   UNL     1      -9.106   8.631  69.433  1.00  0.00    -0.149 A  
HETATM    8  C   UNL     1      -8.337   7.931  68.558  1.00  0.00    -0.128 A  
HETATM    9  C   UNL     1      -7.175   8.892  68.588  1.00  0.00    -0.072 C  
HETATM   10  C   UNL     1      -8.182   9.827  69.395  1.00  0.00    -0.135 C  
BRANCH   4  11
HETATM   11  O   UNL     1     -10.384   5.035  67.793  1.00  0.00    -0.136 OA 
HETATM   12  C   UNL     1     -10.461   5.035  66.368  1.00  0.00    -0.300 C  
ENDBRANCH   4  11
BRANCH   9  13
HETATM   13  C   UNL     1      -6.651   9.000  67.149  1.00  0.00    -0.061 C  
BRANCH  13  14
HETATM   14  N   UNL     1      -7.230  10.033  66.289  1.00  0.00    -0.101 NA 
HETATM   15  C   UNL     1      -6.237  11.008  65.869  1.00  0.00    -0.037 C  
BRANCH  14  16
HETATM   16  C   UNL     1      -8.105   9.507  65.234  1.00  0.00    -0.124 C  
BRANCH  16  17
HETATM   17  C   UNL     1      -9.576   9.559  65.638  1.00  0.00    -0.346 C  
BRANCH  17  18
HETATM   18  C   UNL     1     -10.375  10.630  64.883  1.00  0.00    -0.277 C  
BRANCH  18  19
HETATM   19  N   UNL     1     -10.498  11.826  65.721  1.00  0.00    -0.251 N  
HETATM   20  C   UNL     1     -10.417  11.640  67.165  1.00  0.00    -0.220 C  
HETATM   21  C   UNL     1     -11.672  12.121  67.874  1.00  0.00    -0.403 C  
HETATM   22  C   UNL     1     -11.502  13.580  68.192  1.00  0.00    -0.338 A  
HETATM   23  C   UNL     1     -11.474  13.970  69.537  1.00  0.00    -0.331 A  
HETATM   24  C   UNL     1     -11.263  15.299  69.900  1.00  0.00    -0.288 A  
HETATM   25  C   UNL     1     -11.070  16.264  68.897  1.00  0.00    -0.345 A  
HETATM   26  O   UNL     1      -9.922  13.277  64.051  1.00  0.00    -0.264 OA 
HETATM   27  C   UNL     1     -10.476  13.084  65.137  1.00  0.00    -0.320 C  
HETATM   28  C   UNL     1     -11.095  15.870  67.549  1.00  0.00    -0.235 A  
HETATM   29  C   UNL     1     -11.391  14.157  65.718  1.00  0.00    -0.317 C  
HETATM   30  C   UNL     1     -11.295  14.527  67.181  1.00  0.00    -0.361 A  
BRANCH  24  31
HETATM   31  O   UNL     1     -11.192  15.719  71.207  1.00  0.00    -0.366 OA 
HETATM   32  C   UNL     1     -12.426  15.801  71.912  1.00  0.00    -0.458 C  
ENDBRANCH  24  31
BRANCH  25  33
HETATM   33  O   UNL     1     -10.877  17.554  69.326  1.00  0.00    -0.034 OA 
HETATM   34  C   UNL     1     -10.028  18.385  68.545  1.00  0.00    -0.387 C  
ENDBRANCH  25  33
ENDBRANCH  18  19
ENDBRANCH  17  18
ENDBRANCH  16  17
ENDBRANCH  14  16
ENDBRANCH  13  14
ENDBRANCH   9  13
ENDBRANCH   2   3
TORSDOF 10
ENDMDL
MODEL       86
REMARK 921   NORMALIZED FREE ENERGY PREDICTED BY IDOCK:   -5.14 KCAL/MOL
REMARK 922        TOTAL FREE ENERGY PREDICTED BY IDOCK:  -10.11 KCAL/MOL
REMARK 923 INTER-LIGAND FREE ENERGY PREDICTED BY IDOCK:   -8.08 KCAL/MOL
REMARK 924 INTRA-LIGAND FREE ENERGY PREDICTED BY IDOCK:   -2.03 KCAL/MOL
REMARK 927      BINDING AFFINITY PREDICTED BY RF-SCORE:    0.00 PKD
ROOT
HETATM    1  C   UNL     1     -12.192  13.206  63.441  1.00  0.00    -0.444 C  
HETATM    2  O   UNL     1     -12.538  13.367  64.813  1.00  0.00    -0.578 OA 
ENDROOT
BRANCH   2   3
HETATM    3  C   UNL     1     -11.830  12.642  65.737  1.00  0.00    -0.444 A  
HETATM    4  C   UNL     1     -11.665  12.933  67.118  1.00  0.00    -0.377 A  
HETATM    5  C   UNL     1     -11.230  11.479  65.180  1.00  0.00    -0.214 A  
HETATM    6  C   UNL     1     -10.853  12.110  67.898  1.00  0.00    -0.254 A  
HETATM    7  C   UNL     1     -10.455  10.685  66.005  1.00  0.00    -0.250 A  
HETATM    8  C   UNL     1     -10.226  11.057  67.292  1.00  0.00    -0.234 A  
HETATM    9  C   UNL     1      -9.229   9.963  67.582  1.00  0.00    -0.146 C  
HETATM   10  C   UNL     1      -9.700   9.385  66.173  1.00  0.00    -0.334 C  
BRANCH   4  11
HETATM   11  O   UNL     1     -12.326  13.989  67.689  1.00  0.00    -0.274 OA 
HETATM   12  C   UNL     1     -11.551  15.162  67.932  1.00  0.00    -0.311 C  
ENDBRANCH   4  11
BRANCH   9  13
HETATM   13  C   UNL     1      -9.513   9.470  69.007  1.00  0.00    -0.158 C  
BRANCH  13  14
HETATM   14  N   UNL     1      -8.548   9.815  70.053  1.00  0.00    -0.206 NA 
HETATM   15  C   UNL     1      -8.763   9.042  71.264  1.00  0.00    -0.171 C  
BRANCH  14  16
HETATM   16  C   UNL     1      -7.161   9.900  69.577  1.00  0.00    -0.095 C  
BRANCH  16  17
HETATM   17  C   UNL     1      -6.417  11.076  70.204  1.00  0.00    -0.128 C  
BRANCH  17  18
HETATM   18  C   UNL     1      -5.392  11.719  69.262  1.00  0.00    -0.048 C  
BRANCH  18  19
HETATM   19  N   UNL     1      -5.920  12.991  68.764  1.00  0.00    -0.072 N  
HETATM   20  C   UNL     1      -5.449  14.209  69.412  1.00  0.00    -0.083 C  
HETATM   21  C   UNL     1      -6.587  15.012  70.017  1.00  0.00    -0.158 C  
HETATM   22  C   UNL     1      -7.116  15.945  68.964  1.00  0.00    -0.161 A  
HETATM   23  C   UNL     1      -7.001  17.325  69.176  1.00  0.00    -0.215 A  
HETATM   24  C   UNL     1      -7.421  18.242  68.213  1.00  0.00    -0.279 A  
HETATM   25  C   UNL     1      -7.965  17.771  67.006  1.00  0.00    -0.218 A  
HETATM   26  O   UNL     1      -6.535  12.149  66.729  1.00  0.00    -0.078 OA 
HETATM   27  C   UNL     1      -6.666  13.020  67.594  1.00  0.00    -0.157 C  
HETATM   28  C   UNL     1      -8.075  16.387  66.794  1.00  0.00    -0.287 A  
HETATM   29  C   UNL     1      -7.848  13.981  67.524  1.00  0.00    -0.197 C  
HETATM   30  C   UNL     1      -7.641  15.459  67.759  1.00  0.00    -0.167 A  
BRANCH  24  31
HETATM   31  O   UNL     1      -7.293  19.601  68.365  1.00  0.00    -0.300 OA 
HETATM   32  C   UNL     1      -6.161  20.051  69.101  1.00  0.00    -0.310 C  
ENDBRANCH  24  31
BRANCH  25  33
HETATM   33  O   UNL     1      -8.365  18.729  66.108  1.00  0.00    -0.413 OA 
HETATM   34  C   UNL     1      -9.719  19.158  66.165  1.00  0.00    -0.315 C  
ENDBRANCH  25  33
ENDBRANCH  18  19
ENDBRANCH  17  18
ENDBRANCH  16  17
ENDBRANCH  14  16
ENDBRANCH  13  14
ENDBRANCH   9  13
ENDBRANCH   2   3
TORSDOF 10
ENDMDL
MODEL       87
REMARK 921   NORMALIZED FREE ENERGY PREDICTED BY IDOCK:   -5.13 KCAL/MOL
REMARK 922        TOTAL FREE ENERGY PREDICTED BY IDOCK:  -10.09 KCAL/MOL
REMARK 923 INTER-LIGAND FREE ENERGY PREDICTED BY IDOCK:   -8.59 KCAL/MOL
REMARK 924 INTRA-LIGAND FREE ENERGY PREDICTED BY IDOCK:   -1.50 KCAL/MOL
REMARK 927      BINDING AFFINITY PREDICTED BY RF-SCORE:    0.00 PKD
ROOT
HETATM    1  C   UNL     1     -12.279  15.365  64.486  1.00  0.00    -0.124 C  
HETATM    2  O   UNL     1     -12.826  14.052  64.576  1.00  0.00    -0.644 OA 
ENDROOT
BRANCH   2   3
HETATM    3  C   UNL     1     -11.955  13.013  64.780  1.00  0.00    -0.395 A  
HETATM    4  C   UNL     1     -11.632  12.390  66.016  1.00  0.00    -0.401 A  
HETATM    5  C   UNL     1     -11.354  12.554  63.576  1.00  0.00    -0.556 A  
HETATM    6  C   UNL     1     -10.671  11.380  66.042  1.00  0.00    -0.318 A  
HETATM    7  C   UNL     1     -10.425  11.534  63.656  1.00  0.00    -0.483 A  
HETATM    8  C   UNL     1     -10.057  11.040  64.868  1.00  0.00    -0.359 A  
HETATM    9  C   UNL     1      -8.957  10.157  64.335  1.00  0.00    -0.264 C  
HETATM   10  C   UNL     1      -9.567  10.536  62.912  1.00  0.00    -0.355 C  
BRANCH   4  11
HETATM   11  O   UNL     1     -12.285  12.749  67.166  1.00  0.00    -0.404 OA 
HETATM   12  C   UNL     1     -11.513  13.459  68.135  1.00  0.00    -0.304 C  
ENDBRANCH   4  11
BRANCH   9  13
HETATM   13  C   UNL     1      -9.018   8.845  65.128  1.00  0.00    -0.137 C  
BRANCH  13  14
HETATM   14  N   UNL     1      -7.759   8.295  65.635  1.00  0.00    -0.088 NA 
HETATM   15  C   UNL     1      -7.523   6.946  65.152  1.00  0.00    -0.094 C  
BRANCH  14  16
HETATM   16  C   UNL     1      -6.625   9.223  65.540  1.00  0.00    -0.069 C  
BRANCH  16  17
HETATM   17  C   UNL     1      -6.593  10.202  66.711  1.00  0.00    -0.073 C  
BRANCH  17  18
HETATM   18  C   UNL     1      -6.200   9.546  68.041  1.00  0.00    -0.056 C  
BRANCH  18  19
HETATM   19  N   UNL     1      -7.409   9.246  68.812  1.00  0.00    -0.074 N  
HETATM   20  C   UNL     1      -7.505   7.923  69.417  1.00  0.00    -0.091 C  
HETATM   21  C   UNL     1      -8.721   7.156  68.926  1.00  0.00    -0.128 C  
HETATM   22  C   UNL     1      -9.882   7.495  69.819  1.00  0.00    -0.180 A  
HETATM   23  C   UNL     1     -10.454   6.471  70.584  1.00  0.00    -0.257 A  
HETATM   24  C   UNL     1     -11.497   6.730  71.474  1.00  0.00    -0.287 A  
HETATM   25  C   UNL     1     -11.977   8.044  71.607  1.00  0.00    -0.298 A  
HETATM   26  O   UNL     1      -7.944  11.440  69.171  1.00  0.00    -0.071 OA 
HETATM   27  C   UNL     1      -8.306  10.261  69.114  1.00  0.00    -0.154 C  
HETATM   28  C   UNL     1     -11.398   9.069  70.842  1.00  0.00    -0.351 A  
HETATM   29  C   UNL     1      -9.795   9.930  69.092  1.00  0.00    -0.204 C  
HETATM   30  C   UNL     1     -10.338   8.812  69.952  1.00  0.00    -0.212 A  
BRANCH  24  31
HETATM   31  O   UNL     1     -12.062   5.763  72.270  1.00  0.00    -0.230 OA 
HETATM   32  C   UNL     1     -11.161   4.934  72.995  1.00  0.00    -0.295 C  
ENDBRANCH  24  31
BRANCH  25  33
HETATM   33  O   UNL     1     -13.009   8.225  72.494  1.00  0.00    -0.239 OA 
HETATM   34  C   UNL     1     -13.777   9.415  72.375  1.00  0.00    -0.400 C  
ENDBRANCH  25  33
ENDBRANCH  18  19
ENDBRANCH  17  18
ENDBRANCH  16  17
ENDBRANCH  14  16
ENDBRANCH  13  14
ENDBRANCH   9  13
ENDBRANCH   2   3
TORSDOF 10
ENDMDL
MODEL       88
REMARK 921   NORMALIZED FREE ENERGY PREDICTED BY IDOCK:   -5.11 KCAL/MOL
REMARK 922        TOTAL FREE ENERGY PREDICTED BY IDOCK:  -10.06 KCAL/MOL
REMARK 923 INTER-LIGAND FREE ENERGY PREDICTED BY IDOCK:   -7.81 KCAL/MOL
REMARK 924 INTRA-LIGAND FREE ENERGY PREDICTED BY IDOCK:   -2.25 KCAL/MOL
REMARK 927      BINDING AFFINITY PREDICTED BY RF-SCORE:    0.00 PKD
ROOT
HETATM    1  C   UNL     1     -14.075   8.389  72.012  1.00  0.00    -0.421 C  
HETATM    2  O   UNL     1     -13.063   9.319  72.387  1.00  0.00    -0.419 OA 
ENDROOT
BRANCH   2   3
HETATM    3  C   UNL     1     -12.246   9.804  71.398  1.00  0.00    -0.397 A  
HETATM    4  C   UNL     1     -10.999   9.271  70.972  1.00  0.00    -0.320 A  
HETATM    5  C   UNL     1     -12.774  10.965  70.768  1.00  0.00    -0.431 A  
HETATM    6  C   UNL     1     -10.272   9.938  69.986  1.00  0.00    -0.319 A  
HETATM    7  C   UNL     1     -12.023  11.571  69.779  1.00  0.00    -0.415 A  
HETATM    8  C   UNL     1     -10.784  11.100  69.478  1.00  0.00    -0.193 A  
HETATM    9  C   UNL     1     -10.429  12.221  68.534  1.00  0.00    -0.248 C  
HETATM   10  C   UNL     1     -11.965  12.616  68.688  1.00  0.00    -0.264 C  
BRANCH   4  11
HETATM   11  O   UNL     1     -10.532   8.094  71.495  1.00  0.00    -0.208 OA 
HETATM   12  C   UNL     1      -9.676   8.204  72.631  1.00  0.00    -0.290 C  
ENDBRANCH   4  11
BRANCH   9  13
HETATM   13  C   UNL     1      -9.676  11.589  67.356  1.00  0.00    -0.179 C  
BRANCH  13  14
HETATM   14  N   UNL     1     -10.420  11.357  66.117  1.00  0.00    -0.248 NA 
HETATM   15  C   UNL     1     -10.451  12.540  65.274  1.00  0.00    -0.287 C  
BRANCH  14  16
HETATM   16  C   UNL     1     -10.081  10.094  65.448  1.00  0.00    -0.272 C  
BRANCH  16  17
HETATM   17  C   UNL     1      -8.932   9.372  66.147  1.00  0.00    -0.197 C  
BRANCH  17  18
HETATM   18  C   UNL     1      -8.940   7.855  65.920  1.00  0.00    -0.123 C  
BRANCH  18  19
HETATM   19  N   UNL     1      -9.046   7.171  67.211  1.00  0.00    -0.121 N  
HETATM   20  C   UNL     1      -8.009   7.444  68.199  1.00  0.00    -0.123 C  
HETATM   21  C   UNL     1      -7.270   6.185  68.616  1.00  0.00    -0.084 C  
HETATM   22  C   UNL     1      -8.010   5.566  69.769  1.00  0.00    -0.090 A  
HETATM   23  C   UNL     1      -7.361   5.479  71.007  1.00  0.00    -0.084 A  
HETATM   24  C   UNL     1      -8.011   4.968  72.130  1.00  0.00    -0.111 A  
HETATM   25  C   UNL     1      -9.344   4.536  72.015  1.00  0.00    -0.139 A  
HETATM   26  O   UNL     1     -11.284   6.750  67.009  1.00  0.00    -0.393 OA 
HETATM   27  C   UNL     1     -10.200   6.469  67.528  1.00  0.00    -0.176 C  
HETATM   28  C   UNL     1      -9.993   4.628  70.774  1.00  0.00    -0.284 A  
HETATM   29  C   UNL     1     -10.052   5.166  68.308  1.00  0.00    -0.199 C  
HETATM   30  C   UNL     1      -9.343   5.155  69.642  1.00  0.00    -0.182 A  
BRANCH  24  31
HETATM   31  O   UNL     1      -7.425   4.898  73.370  1.00  0.00    -0.085 OA 
HETATM   32  C   UNL     1      -6.523   5.948  73.703  1.00  0.00    -0.073 C  
ENDBRANCH  24  31
BRANCH  25  33
HETATM   33  O   UNL     1      -9.919   4.036  73.158  1.00  0.00    -0.131 OA 
HETATM   34  C   UNL     1     -11.169   4.581  73.556  1.00  0.00    -0.303 C  
ENDBRANCH  25  33
ENDBRANCH  18  19
ENDBRANCH  17  18
ENDBRANCH  16  17
ENDBRANCH  14  16
ENDBRANCH  13  14
ENDBRANCH   9  13
ENDBRANCH   2   3
TORSDOF 10
ENDMDL
MODEL       89
REMARK 921   NORMALIZED FREE ENERGY PREDICTED BY IDOCK:   -5.10 KCAL/MOL
REMARK 922        TOTAL FREE ENERGY PREDICTED BY IDOCK:  -10.05 KCAL/MOL
REMARK 923 INTER-LIGAND FREE ENERGY PREDICTED BY IDOCK:   -7.79 KCAL/MOL
REMARK 924 INTRA-LIGAND FREE ENERGY PREDICTED BY IDOCK:   -2.27 KCAL/MOL
REMARK 927      BINDING AFFINITY PREDICTED BY RF-SCORE:    0.00 PKD
ROOT
HETATM    1  C   UNL     1     -12.535  12.998  63.220  1.00  0.00    -0.190 C  
HETATM    2  O   UNL     1     -11.410  13.240  64.059  1.00  0.00    -0.382 OA 
ENDROOT
BRANCH   2   3
HETATM    3  C   UNL     1     -10.979  12.212  64.858  1.00  0.00    -0.309 A  
HETATM    4  C   UNL     1     -11.337  11.964  66.211  1.00  0.00    -0.334 A  
HETATM    5  C   UNL     1     -10.084  11.333  64.188  1.00  0.00    -0.373 A  
HETATM    6  C   UNL     1     -10.747  10.897  66.889  1.00  0.00    -0.318 A  
HETATM    7  C   UNL     1      -9.548  10.277  64.901  1.00  0.00    -0.365 A  
HETATM    8  C   UNL     1      -9.824  10.138  66.225  1.00  0.00    -0.288 A  
HETATM    9  C   UNL     1      -8.860   9.002  66.454  1.00  0.00    -0.172 C  
HETATM   10  C   UNL     1      -8.742   8.998  64.864  1.00  0.00    -0.200 C  
BRANCH   4  11
HETATM   11  O   UNL     1     -12.280  12.739  66.833  1.00  0.00    -0.454 OA 
HETATM   12  C   UNL     1     -11.787  13.811  67.636  1.00  0.00    -0.378 C  
ENDBRANCH   4  11
BRANCH   9  13
HETATM   13  C   UNL     1      -9.553   8.016  67.404  1.00  0.00    -0.153 C  
BRANCH  13  14
HETATM   14  N   UNL     1      -9.311   8.168  68.840  1.00  0.00    -0.147 NA 
HETATM   15  C   UNL     1      -9.792   7.023  69.594  1.00  0.00    -0.164 C  
BRANCH  14  16
HETATM   16  C   UNL     1      -7.959   8.637  69.168  1.00  0.00    -0.110 C  
BRANCH  16  17
HETATM   17  C   UNL     1      -7.989   9.910  70.010  1.00  0.00    -0.194 C  
BRANCH  17  18
HETATM   18  C   UNL     1      -6.659  10.674  70.003  1.00  0.00    -0.149 C  
BRANCH  18  19
HETATM   19  N   UNL     1      -6.879  12.028  69.489  1.00  0.00    -0.038 N  
HETATM   20  C   UNL     1      -8.073  12.250  68.681  1.00  0.00    -0.029 C  
HETATM   21  C   UNL     1      -7.736  12.752  67.288  1.00  0.00    -0.129 C  
HETATM   22  C   UNL     1      -7.660  14.252  67.335  1.00  0.00    -0.185 A  
HETATM   23  C   UNL     1      -8.584  14.991  66.584  1.00  0.00    -0.246 A  
HETATM   24  C   UNL     1      -8.602  16.384  66.629  1.00  0.00    -0.260 A  
HETATM   25  C   UNL     1      -7.679  17.059  67.446  1.00  0.00    -0.171 A  
HETATM   26  O   UNL     1      -5.537  13.034  71.043  1.00  0.00    -0.190 OA 
HETATM   27  C   UNL     1      -6.090  13.076  69.940  1.00  0.00    -0.125 C  
HETATM   28  C   UNL     1      -6.757  16.316  68.201  1.00  0.00    -0.132 A  
HETATM   29  C   UNL     1      -5.686  14.151  68.935  1.00  0.00    -0.086 C  
HETATM   30  C   UNL     1      -6.744  14.909  68.167  1.00  0.00    -0.136 A  
BRANCH  24  31
HETATM   31  O   UNL     1      -9.513  17.145  65.937  1.00  0.00    -0.496 OA 
HETATM   32  C   UNL     1     -10.562  16.438  65.285  1.00  0.00    -0.299 C  
ENDBRANCH  24  31
BRANCH  25  33
HETATM   33  O   UNL     1      -7.748  18.430  67.434  1.00  0.00    -0.220 OA 
HETATM   34  C   UNL     1      -8.053  19.082  68.660  1.00  0.00    -0.361 C  
ENDBRANCH  25  33
ENDBRANCH  18  19
ENDBRANCH  17  18
ENDBRANCH  16  17
ENDBRANCH  14  16
ENDBRANCH  13  14
ENDBRANCH   9  13
ENDBRANCH   2   3
TORSDOF 10
ENDMDL
MODEL       90
REMARK 921   NORMALIZED FREE ENERGY PREDICTED BY IDOCK:   -5.05 KCAL/MOL
REMARK 922        TOTAL FREE ENERGY PREDICTED BY IDOCK:   -9.97 KCAL/MOL
REMARK 923 INTER-LIGAND FREE ENERGY PREDICTED BY IDOCK:   -9.12 KCAL/MOL
REMARK 924 INTRA-LIGAND FREE ENERGY PREDICTED BY IDOCK:   -0.84 KCAL/MOL
REMARK 927      BINDING AFFINITY PREDICTED BY RF-SCORE:    0.00 PKD
ROOT
HETATM    1  C   UNL     1     -10.400  19.427  66.062  1.00  0.00    -0.497 C  
HETATM    2  O   UNL     1      -9.380  18.440  66.176  1.00  0.00    -0.465 OA 
ENDROOT
BRANCH   2   3
HETATM    3  C   UNL     1      -9.743  17.127  66.010  1.00  0.00    -0.189 A  
HETATM    4  C   UNL     1      -9.199  15.993  66.671  1.00  0.00    -0.249 A  
HETATM    5  C   UNL     1     -10.791  16.962  65.063  1.00  0.00    -0.077 A  
HETATM    6  C   UNL     1      -9.652  14.719  66.327  1.00  0.00    -0.339 A  
HETATM    7  C   UNL     1     -11.219  15.679  64.778  1.00  0.00    -0.391 A  
HETATM    8  C   UNL     1     -10.597  14.611  65.344  1.00  0.00    -0.390 A  
HETATM    9  C   UNL     1     -11.340  13.572  64.544  1.00  0.00    -0.386 C  
HETATM   10  C   UNL     1     -12.240  14.805  64.086  1.00  0.00    -0.321 C  
BRANCH   4  11
HETATM   11  O   UNL     1      -8.266  16.147  67.662  1.00  0.00    -0.143 OA 
HETATM   12  C   UNL     1      -8.732  15.977  69.000  1.00  0.00    -0.245 C  
ENDBRANCH   4  11
BRANCH   9  13
HETATM   13  C   UNL     1     -11.651  12.413  65.501  1.00  0.00    -0.385 C  
BRANCH  13  14
HETATM   14  N   UNL     1     -10.855  11.191  65.373  1.00  0.00    -0.194 NA 
HETATM   15  C   UNL     1     -10.245  11.077  64.060  1.00  0.00    -0.358 C  
BRANCH  14  16
HETATM   16  C   UNL     1      -9.975  10.933  66.520  1.00  0.00    -0.211 C  
BRANCH  16  17
HETATM   17  C   UNL     1     -10.393   9.681  67.286  1.00  0.00    -0.310 C  
BRANCH  17  18
HETATM   18  C   UNL     1     -10.852   9.972  68.721  1.00  0.00    -0.219 C  
BRANCH  18  19
HETATM   19  N   UNL     1     -10.741   8.752  69.524  1.00  0.00    -0.217 N  
HETATM   20  C   UNL     1      -9.923   7.670  68.985  1.00  0.00    -0.181 C  
HETATM   21  C   UNL     1     -10.720   6.391  68.796  1.00  0.00    -0.339 C  
HETATM   22  C   UNL     1     -10.662   5.608  70.078  1.00  0.00    -0.390 A  
HETATM   23  C   UNL     1     -10.036   4.356  70.067  1.00  0.00    -0.245 A  
HETATM   24  C   UNL     1      -9.899   3.605  71.234  1.00  0.00    -0.141 A  
HETATM   25  C   UNL     1     -10.397   4.118  72.444  1.00  0.00    -0.147 A  
HETATM   26  O   UNL     1     -11.325   9.770  71.486  1.00  0.00    -0.367 OA 
HETATM   27  C   UNL     1     -11.224   8.733  70.824  1.00  0.00    -0.266 C  
HETATM   28  C   UNL     1     -11.021   5.376  72.453  1.00  0.00    -0.298 A  
HETATM   29  C   UNL     1     -11.895   7.455  71.319  1.00  0.00    -0.330 C  
HETATM   30  C   UNL     1     -11.149   6.141  71.279  1.00  0.00    -0.351 A  
BRANCH  24  31
HETATM   31  O   UNL     1      -9.260   2.389  71.274  1.00  0.00    -0.094 OA 
HETATM   32  C   UNL     1      -9.017   1.761  70.020  1.00  0.00    -0.072 C  
ENDBRANCH  24  31
BRANCH  25  33
HETATM   33  O   UNL     1     -10.236   3.322  73.551  1.00  0.00    -0.116 OA 
HETATM   34  C   UNL     1     -11.250   2.365  73.825  1.00  0.00    -0.201 C  
ENDBRANCH  25  33
ENDBRANCH  18  19
ENDBRANCH  17  18
ENDBRANCH  16  17
ENDBRANCH  14  16
ENDBRANCH  13  14
ENDBRANCH   9  13
ENDBRANCH   2   3
TORSDOF 10
ENDMDL
MODEL       91
REMARK 921   NORMALIZED FREE ENERGY PREDICTED BY IDOCK:   -5.04 KCAL/MOL
REMARK 922        TOTAL FREE ENERGY PREDICTED BY IDOCK:   -9.96 KCAL/MOL
REMARK 923 INTER-LIGAND FREE ENERGY PREDICTED BY IDOCK:   -8.15 KCAL/MOL
REMARK 924 INTRA-LIGAND FREE ENERGY PREDICTED BY IDOCK:   -1.81 KCAL/MOL
REMARK 927      BINDING AFFINITY PREDICTED BY RF-SCORE:    0.00 PKD
ROOT
HETATM    1  C   UNL     1      -7.477   2.133  66.362  1.00  0.00    -0.062 C  
HETATM    2  O   UNL     1      -8.826   2.096  66.817  1.00  0.00    -0.119 OA 
ENDROOT
BRANCH   2   3
HETATM    3  C   UNL     1      -9.204   3.015  67.763  1.00  0.00    -0.199 A  
HETATM    4  C   UNL     1      -9.547   4.378  67.550  1.00  0.00    -0.172 A  
HETATM    5  C   UNL     1      -9.243   2.470  69.075  1.00  0.00    -0.207 A  
HETATM    6  C   UNL     1      -9.848   5.186  68.647  1.00  0.00    -0.225 A  
HETATM    7  C   UNL     1      -9.571   3.310  70.123  1.00  0.00    -0.191 A  
HETATM    8  C   UNL     1      -9.781   4.634  69.896  1.00  0.00    -0.279 A  
HETATM    9  C   UNL     1      -9.897   5.012  71.351  1.00  0.00    -0.245 C  
HETATM   10  C   UNL     1      -9.917   3.436  71.589  1.00  0.00    -0.177 C  
BRANCH   4  11
HETATM   11  O   UNL     1      -9.619   4.887  66.280  1.00  0.00    -0.147 OA 
HETATM   12  C   UNL     1     -10.766   4.519  65.516  1.00  0.00    -0.130 C  
ENDBRANCH   4  11
BRANCH   9  13
HETATM   13  C   UNL     1     -11.024   6.049  71.452  1.00  0.00    -0.276 C  
BRANCH  13  14
HETATM   14  N   UNL     1     -10.656   7.426  71.784  1.00  0.00    -0.201 NA 
HETATM   15  C   UNL     1     -11.738   8.130  72.450  1.00  0.00    -0.399 C  
BRANCH  14  16
HETATM   16  C   UNL     1      -9.327   7.555  72.395  1.00  0.00    -0.148 C  
BRANCH  16  17
HETATM   17  C   UNL     1      -8.425   8.495  71.600  1.00  0.00    -0.235 C  
BRANCH  17  18
HETATM   18  C   UNL     1      -8.130   7.997  70.179  1.00  0.00    -0.114 C  
BRANCH  18  19
HETATM   19  N   UNL     1      -8.762   8.893  69.208  1.00  0.00    -0.136 N  
HETATM   20  C   UNL     1      -9.328  10.137  69.717  1.00  0.00    -0.150 C  
HETATM   21  C   UNL     1     -10.816  10.249  69.429  1.00  0.00    -0.282 C  
HETATM   22  C   UNL     1     -10.984  10.888  68.079  1.00  0.00    -0.317 A  
HETATM   23  C   UNL     1     -11.620  12.135  68.006  1.00  0.00    -0.411 A  
HETATM   24  C   UNL     1     -11.758  12.806  66.792  1.00  0.00    -0.392 A  
HETATM   25  C   UNL     1     -11.245  12.222  65.621  1.00  0.00    -0.333 A  
HETATM   26  O   UNL     1      -7.666   8.012  67.406  1.00  0.00    -0.099 OA 
HETATM   27  C   UNL     1      -8.627   8.647  67.850  1.00  0.00    -0.137 C  
HETATM   28  C   UNL     1     -10.605  10.975  65.697  1.00  0.00    -0.263 A  
HETATM   29  C   UNL     1      -9.827   8.926  66.950  1.00  0.00    -0.288 C  
HETATM   30  C   UNL     1     -10.454  10.301  66.923  1.00  0.00    -0.291 A  
BRANCH  24  31
HETATM   31  O   UNL     1     -12.341  14.045  66.682  1.00  0.00    -0.451 OA 
HETATM   32  C   UNL     1     -11.754  15.091  67.449  1.00  0.00    -0.239 C  
ENDBRANCH  24  31
BRANCH  25  33
HETATM   33  O   UNL     1     -11.424  12.934  64.461  1.00  0.00    -0.316 OA 
HETATM   34  C   UNL     1     -12.143  12.306  63.408  1.00  0.00    -0.516 C  
ENDBRANCH  25  33
ENDBRANCH  18  19
ENDBRANCH  17  18
ENDBRANCH  16  17
ENDBRANCH  14  16
ENDBRANCH  13  14
ENDBRANCH   9  13
ENDBRANCH   2   3
TORSDOF 10
ENDMDL
MODEL       92
REMARK 921   NORMALIZED FREE ENERGY PREDICTED BY IDOCK:   -5.04 KCAL/MOL
REMARK 922        TOTAL FREE ENERGY PREDICTED BY IDOCK:   -9.95 KCAL/MOL
REMARK 923 INTER-LIGAND FREE ENERGY PREDICTED BY IDOCK:   -8.88 KCAL/MOL
REMARK 924 INTRA-LIGAND FREE ENERGY PREDICTED BY IDOCK:   -1.07 KCAL/MOL
REMARK 927      BINDING AFFINITY PREDICTED BY RF-SCORE:    0.00 PKD
ROOT
HETATM    1  C   UNL     1     -11.265   5.162  73.416  1.00  0.00    -0.290 C  
HETATM    2  O   UNL     1     -12.052   5.727  72.371  1.00  0.00    -0.249 OA 
ENDROOT
BRANCH   2   3
HETATM    3  C   UNL     1     -11.395   6.389  71.366  1.00  0.00    -0.301 A  
HETATM    4  C   UNL     1     -11.265   7.794  71.201  1.00  0.00    -0.264 A  
HETATM    5  C   UNL     1     -10.795   5.505  70.427  1.00  0.00    -0.274 A  
HETATM    6  C   UNL     1     -10.608   8.292  70.075  1.00  0.00    -0.235 A  
HETATM    7  C   UNL     1     -10.135   6.053  69.343  1.00  0.00    -0.243 A  
HETATM    8  C   UNL     1     -10.130   7.400  69.157  1.00  0.00    -0.189 A  
HETATM    9  C   UNL     1      -9.468   7.355  67.802  1.00  0.00    -0.154 C  
HETATM   10  C   UNL     1      -9.242   5.815  68.146  1.00  0.00    -0.110 C  
BRANCH   4  11
HETATM   11  O   UNL     1     -11.744   8.653  72.155  1.00  0.00    -0.341 OA 
HETATM   12  C   UNL     1     -13.088   9.101  71.984  1.00  0.00    -0.429 C  
ENDBRANCH   4  11
BRANCH   9  13
HETATM   13  C   UNL     1      -8.473   8.522  67.755  1.00  0.00    -0.130 C  
BRANCH  13  14
HETATM   14  N   UNL     1      -8.592   9.476  66.651  1.00  0.00    -0.133 NA 
HETATM   15  C   UNL     1      -7.602   9.231  65.615  1.00  0.00    -0.094 C  
BRANCH  14  16
HETATM   16  C   UNL     1      -9.971   9.684  66.192  1.00  0.00    -0.276 C  
BRANCH  16  17
HETATM   17  C   UNL     1     -10.627  10.874  66.887  1.00  0.00    -0.312 C  
BRANCH  17  18
HETATM   18  C   UNL     1     -11.433  11.765  65.934  1.00  0.00    -0.207 C  
BRANCH  18  19
HETATM   19  N   UNL     1     -10.980  13.152  66.065  1.00  0.00    -0.277 N  
HETATM   20  C   UNL     1     -10.684  13.634  67.410  1.00  0.00    -0.267 C  
HETATM   21  C   UNL     1     -11.539  14.831  67.789  1.00  0.00    -0.378 C  
HETATM   22  C   UNL     1     -10.829  16.077  67.338  1.00  0.00    -0.277 A  
HETATM   23  C   UNL     1     -10.409  16.993  68.310  1.00  0.00    -0.347 A  
HETATM   24  C   UNL     1      -9.696  18.140  67.962  1.00  0.00    -0.311 A  
HETATM   25  C   UNL     1      -9.392  18.377  66.611  1.00  0.00    -0.305 A  
HETATM   26  O   UNL     1     -10.290  13.324  63.892  1.00  0.00    -0.326 OA 
HETATM   27  C   UNL     1     -10.651  13.882  64.932  1.00  0.00    -0.419 C  
HETATM   28  C   UNL     1      -9.811  17.455  65.639  1.00  0.00     0.109 A  
HETATM   29  C   UNL     1     -11.019  15.363  64.905  1.00  0.00    -0.453 C  
HETATM   30  C   UNL     1     -10.520  16.290  65.989  1.00  0.00    -0.342 A  
BRANCH  24  31
HETATM   31  O   UNL     1      -9.233  19.045  68.886  1.00  0.00    -0.347 OA 
HETATM   32  C   UNL     1     -10.136  20.078  69.265  1.00  0.00    -0.116 C  
ENDBRANCH  24  31
BRANCH  25  33
HETATM   33  O   UNL     1      -8.696  19.529  66.340  1.00  0.00    -0.334 OA 
HETATM   34  C   UNL     1      -7.387  19.395  65.801  1.00  0.00    -0.258 C  
ENDBRANCH  25  33
ENDBRANCH  18  19
ENDBRANCH  17  18
ENDBRANCH  16  17
ENDBRANCH  14  16
ENDBRANCH  13  14
ENDBRANCH   9  13
ENDBRANCH   2   3
TORSDOF 10
ENDMDL
MODEL       93
REMARK 921   NORMALIZED FREE ENERGY PREDICTED BY IDOCK:   -5.04 KCAL/MOL
REMARK 922        TOTAL FREE ENERGY PREDICTED BY IDOCK:   -9.95 KCAL/MOL
REMARK 923 INTER-LIGAND FREE ENERGY PREDICTED BY IDOCK:   -7.55 KCAL/MOL
REMARK 924 INTRA-LIGAND FREE ENERGY PREDICTED BY IDOCK:   -2.39 KCAL/MOL
REMARK 927      BINDING AFFINITY PREDICTED BY RF-SCORE:    0.00 PKD
ROOT
HETATM    1  C   UNL     1     -14.410   8.264  72.201  1.00  0.00    -0.404 C  
HETATM    2  O   UNL     1     -13.236   8.894  72.704  1.00  0.00    -0.427 OA 
ENDROOT
BRANCH   2   3
HETATM    3  C   UNL     1     -12.272   9.259  71.800  1.00  0.00    -0.385 A  
HETATM    4  C   UNL     1     -10.906   8.866  71.790  1.00  0.00    -0.365 A  
HETATM    5  C   UNL     1     -12.770  10.120  70.783  1.00  0.00    -0.397 A  
HETATM    6  C   UNL     1     -10.051   9.390  70.820  1.00  0.00    -0.366 A  
HETATM    7  C   UNL     1     -11.883  10.590  69.832  1.00  0.00    -0.358 A  
HETATM    8  C   UNL     1     -10.562  10.285  69.922  1.00  0.00    -0.324 A  
HETATM    9  C   UNL     1     -10.129  11.187  68.793  1.00  0.00    -0.211 C  
HETATM   10  C   UNL     1     -11.694  11.331  68.528  1.00  0.00    -0.378 C  
BRANCH   4  11
HETATM   11  O   UNL     1     -10.440   7.953  72.699  1.00  0.00    -0.267 OA 
HETATM   12  C   UNL     1      -9.077   8.098  73.098  1.00  0.00    -0.265 C  
ENDBRANCH   4  11
BRANCH   9  13
HETATM   13  C   UNL     1      -9.051  10.428  68.007  1.00  0.00    -0.136 C  
BRANCH  13  14
HETATM   14  N   UNL     1      -9.047  10.566  66.549  1.00  0.00    -0.155 NA 
HETATM   15  C   UNL     1      -7.700  10.711  66.023  1.00  0.00    -0.151 C  
BRANCH  14  16
HETATM   16  C   UNL     1      -9.911   9.600  65.859  1.00  0.00    -0.288 C  
BRANCH  16  17
HETATM   17  C   UNL     1     -10.254   8.409  66.749  1.00  0.00    -0.376 C  
BRANCH  17  18
HETATM   18  C   UNL     1      -9.410   7.163  66.449  1.00  0.00    -0.143 C  
BRANCH  18  19
HETATM   19  N   UNL     1      -9.087   6.481  67.704  1.00  0.00    -0.113 N  
HETATM   20  C   UNL     1     -10.084   5.562  68.241  1.00  0.00    -0.173 C  
HETATM   21  C   UNL     1     -10.545   5.966  69.631  1.00  0.00    -0.383 C  
HETATM   22  C   UNL     1      -9.623   5.330  70.634  1.00  0.00    -0.235 A  
HETATM   23  C   UNL     1     -10.155   4.390  71.526  1.00  0.00    -0.221 A  
HETATM   24  C   UNL     1      -9.343   3.723  72.443  1.00  0.00    -0.119 A  
HETATM   25  C   UNL     1      -7.965   3.997  72.468  1.00  0.00    -0.082 A  
HETATM   26  O   UNL     1      -6.829   6.777  67.497  1.00  0.00    -0.071 OA 
HETATM   27  C   UNL     1      -7.803   6.561  68.224  1.00  0.00    -0.106 C  
HETATM   28  C   UNL     1      -7.433   4.936  71.570  1.00  0.00    -0.082 A  
HETATM   29  C   UNL     1      -7.650   6.661  69.739  1.00  0.00    -0.104 C  
HETATM   30  C   UNL     1      -8.249   5.602  70.635  1.00  0.00    -0.118 A  
BRANCH  24  31
HETATM   31  O   UNL     1      -9.817   2.768  73.310  1.00  0.00    -0.096 OA 
HETATM   32  C   UNL     1     -11.219   2.779  73.557  1.00  0.00    -0.197 C  
ENDBRANCH  24  31
BRANCH  25  33
HETATM   33  O   UNL     1      -7.228   3.311  73.401  1.00  0.00    -0.047 OA 
HETATM   34  C   UNL     1      -5.852   3.092  73.120  1.00  0.00    -0.007 C  
ENDBRANCH  25  33
ENDBRANCH  18  19
ENDBRANCH  17  18
ENDBRANCH  16  17
ENDBRANCH  14  16
ENDBRANCH  13  14
ENDBRANCH   9  13
ENDBRANCH   2   3
TORSDOF 10
ENDMDL
MODEL       94
REMARK 921   NORMALIZED FREE ENERGY PREDICTED BY IDOCK:   -5.04 KCAL/MOL
REMARK 922        TOTAL FREE ENERGY PREDICTED BY IDOCK:   -9.95 KCAL/MOL
REMARK 923 INTER-LIGAND FREE ENERGY PREDICTED BY IDOCK:   -9.55 KCAL/MOL
REMARK 924 INTRA-LIGAND FREE ENERGY PREDICTED BY IDOCK:   -0.40 KCAL/MOL
REMARK 927      BINDING AFFINITY PREDICTED BY RF-SCORE:    0.00 PKD
ROOT
HETATM    1  C   UNL     1      -6.562  18.458  65.772  1.00  0.00    -0.278 C  
HETATM    2  O   UNL     1      -7.816  17.809  65.586  1.00  0.00    -0.538 OA 
ENDROOT
BRANCH   2   3
HETATM    3  C   UNL     1      -8.521  17.453  66.707  1.00  0.00    -0.254 A  
HETATM    4  C   UNL     1      -9.132  18.321  67.653  1.00  0.00    -0.263 A  
HETATM    5  C   UNL     1      -8.618  16.043  66.871  1.00  0.00    -0.263 A  
HETATM    6  C   UNL     1      -9.759  17.777  68.773  1.00  0.00    -0.314 A  
HETATM    7  C   UNL     1      -9.272  15.559  67.987  1.00  0.00    -0.187 A  
HETATM    8  C   UNL     1      -9.744  16.418  68.929  1.00  0.00    -0.257 A  
HETATM    9  C   UNL     1     -10.145  15.348  69.912  1.00  0.00    -0.253 C  
HETATM   10  C   UNL     1      -9.839  14.354  68.705  1.00  0.00    -0.231 C  
BRANCH   4  11
HETATM   11  O   UNL     1      -9.139  19.675  67.449  1.00  0.00    -0.297 OA 
HETATM   12  C   UNL     1     -10.149  20.178  66.576  1.00  0.00    -0.449 C  
ENDBRANCH   4  11
BRANCH   9  13
HETATM   13  C   UNL     1     -11.481  15.787  70.526  1.00  0.00    -0.381 C  
BRANCH  13  14
HETATM   14  N   UNL     1     -11.845  15.236  71.833  1.00  0.00    -0.385 NA 
HETATM   15  C   UNL     1     -12.071  16.280  72.818  1.00  0.00    -0.540 C  
BRANCH  14  16
HETATM   16  C   UNL     1     -12.860  14.177  71.769  1.00  0.00    -0.347 C  
BRANCH  16  17
HETATM   17  C   UNL     1     -12.411  13.013  70.891  1.00  0.00    -0.376 C  
BRANCH  17  18
HETATM   18  C   UNL     1     -13.008  11.665  71.316  1.00  0.00    -0.269 C  
BRANCH  18  19
HETATM   19  N   UNL     1     -12.198  10.578  70.761  1.00  0.00    -0.336 N  
HETATM   20  C   UNL     1     -12.128   9.339  71.528  1.00  0.00    -0.361 C  
HETATM   21  C   UNL     1     -10.703   8.987  71.917  1.00  0.00    -0.401 C  
HETATM   22  C   UNL     1     -10.101   8.170  70.808  1.00  0.00    -0.211 A  
HETATM   23  C   UNL     1      -9.727   6.848  71.081  1.00  0.00    -0.177 A  
HETATM   24  C   UNL     1      -9.215   6.021  70.082  1.00  0.00    -0.154 A  
HETATM   25  C   UNL     1      -9.077   6.523  68.777  1.00  0.00    -0.126 A  
HETATM   26  O   UNL     1     -12.263  11.376  68.620  1.00  0.00    -0.532 OA 
HETATM   27  C   UNL     1     -11.706  10.672  69.468  1.00  0.00    -0.284 C  
HETATM   28  C   UNL     1      -9.458   7.847  68.505  1.00  0.00    -0.148 A  
HETATM   29  C   UNL     1     -10.310  10.122  69.191  1.00  0.00    -0.237 C  
HETATM   30  C   UNL     1      -9.986   8.680  69.509  1.00  0.00    -0.196 A  
BRANCH  24  31
HETATM   31  O   UNL     1      -8.870   4.708  70.298  1.00  0.00    -0.080 OA 
HETATM   32  C   UNL     1      -9.746   3.953  71.128  1.00  0.00    -0.178 C  
ENDBRANCH  24  31
BRANCH  25  33
HETATM   33  O   UNL     1      -8.559   5.656  67.846  1.00  0.00    -0.103 OA 
HETATM   34  C   UNL     1      -9.152   5.648  66.555  1.00  0.00    -0.138 C  
ENDBRANCH  25  33
ENDBRANCH  18  19
ENDBRANCH  17  18
ENDBRANCH  16  17
ENDBRANCH  14  16
ENDBRANCH  13  14
ENDBRANCH   9  13
ENDBRANCH   2   3
TORSDOF 10
ENDMDL
MODEL       95
REMARK 921   NORMALIZED FREE ENERGY PREDICTED BY IDOCK:   -5.00 KCAL/MOL
REMARK 922        TOTAL FREE ENERGY PREDICTED BY IDOCK:   -9.89 KCAL/MOL
REMARK 923 INTER-LIGAND FREE ENERGY PREDICTED BY IDOCK:   -8.78 KCAL/MOL
REMARK 924 INTRA-LIGAND FREE ENERGY PREDICTED BY IDOCK:   -1.11 KCAL/MOL
REMARK 927      BINDING AFFINITY PREDICTED BY RF-SCORE:    0.00 PKD
ROOT
HETATM    1  C   UNL     1      -5.709  21.379  67.508  1.00  0.00    -0.348 C  
HETATM    2  O   UNL     1      -7.069  20.957  67.449  1.00  0.00    -0.342 OA 
ENDROOT
BRANCH   2   3
HETATM    3  C   UNL     1      -7.364  19.696  67.899  1.00  0.00    -0.280 A  
HETATM    4  C   UNL     1      -8.650  19.158  68.173  1.00  0.00    -0.324 A  
HETATM    5  C   UNL     1      -6.205  18.891  68.080  1.00  0.00    -0.224 A  
HETATM    6  C   UNL     1      -8.755  17.866  68.687  1.00  0.00    -0.270 A  
HETATM    7  C   UNL     1      -6.369  17.609  68.569  1.00  0.00    -0.185 A  
HETATM    8  C   UNL     1      -7.604  17.169  68.928  1.00  0.00    -0.234 A  
HETATM    9  C   UNL     1      -7.125  15.868  69.522  1.00  0.00    -0.184 C  
HETATM   10  C   UNL     1      -5.730  16.271  68.864  1.00  0.00    -0.118 C  
BRANCH   4  11
HETATM   11  O   UNL     1      -9.779  19.885  67.901  1.00  0.00    -0.355 OA 
HETATM   12  C   UNL     1     -10.455  19.570  66.684  1.00  0.00    -0.488 C  
ENDBRANCH   4  11
BRANCH   9  13
HETATM   13  C   UNL     1      -8.144  14.794  69.118  1.00  0.00    -0.119 C  
BRANCH  13  14
HETATM   14  N   UNL     1      -8.242  14.446  67.700  1.00  0.00    -0.162 NA 
HETATM   15  C   UNL     1      -7.380  13.328  67.355  1.00  0.00    -0.114 C  
BRANCH  14  16
HETATM   16  C   UNL     1      -9.620  14.378  67.198  1.00  0.00    -0.250 C  
BRANCH  16  17
HETATM   17  C   UNL     1     -10.639  14.402  68.334  1.00  0.00    -0.248 C  
BRANCH  17  18
HETATM   18  C   UNL     1     -11.783  13.397  68.146  1.00  0.00    -0.362 C  
BRANCH  18  19
HETATM   19  N   UNL     1     -11.549  12.230  69.000  1.00  0.00    -0.293 N  
HETATM   20  C   UNL     1     -10.520  11.287  68.576  1.00  0.00    -0.197 C  
HETATM   21  C   UNL     1     -11.077   9.890  68.365  1.00  0.00    -0.193 C  
HETATM   22  C   UNL     1     -11.011   9.155  69.675  1.00  0.00    -0.168 A  
HETATM   23  C   UNL     1     -10.190   8.024  69.765  1.00  0.00    -0.206 A  
HETATM   24  C   UNL     1     -10.042   7.332  70.966  1.00  0.00    -0.191 A  
HETATM   25  C   UNL     1     -10.727   7.782  72.108  1.00  0.00    -0.248 A  
HETATM   26  O   UNL     1     -12.472  13.179  70.864  1.00  0.00    -0.362 OA 
HETATM   27  C   UNL     1     -12.142  12.159  70.252  1.00  0.00    -0.302 C  
HETATM   28  C   UNL     1     -11.546   8.919  72.016  1.00  0.00    -0.435 A  
HETATM   29  C   UNL     1     -12.638  10.799  70.733  1.00  0.00    -0.476 C  
HETATM   30  C   UNL     1     -11.687   9.626  70.808  1.00  0.00    -0.390 A  
BRANCH  24  31
HETATM   31  O   UNL     1      -9.220   6.240  71.107  1.00  0.00    -0.153 OA 
HETATM   32  C   UNL     1      -9.185   5.330  70.014  1.00  0.00    -0.138 C  
ENDBRANCH  24  31
BRANCH  25  33
HETATM   33  O   UNL     1     -10.542   7.048  73.254  1.00  0.00    -0.281 OA 
HETATM   34  C   UNL     1      -9.477   7.430  74.113  1.00  0.00    -0.141 C  
ENDBRANCH  25  33
ENDBRANCH  18  19
ENDBRANCH  17  18
ENDBRANCH  16  17
ENDBRANCH  14  16
ENDBRANCH  13  14
ENDBRANCH   9  13
ENDBRANCH   2   3
TORSDOF 10
ENDMDL
MODEL       96
REMARK 921   NORMALIZED FREE ENERGY PREDICTED BY IDOCK:   -4.99 KCAL/MOL
REMARK 922        TOTAL FREE ENERGY PREDICTED BY IDOCK:   -9.88 KCAL/MOL
REMARK 923 INTER-LIGAND FREE ENERGY PREDICTED BY IDOCK:   -7.47 KCAL/MOL
REMARK 924 INTRA-LIGAND FREE ENERGY PREDICTED BY IDOCK:   -2.41 KCAL/MOL
REMARK 927      BINDING AFFINITY PREDICTED BY RF-SCORE:    0.00 PKD
ROOT
HETATM    1  C   UNL     1     -14.411   8.699  72.150  1.00  0.00    -0.427 C  
HETATM    2  O   UNL     1     -13.273   9.462  72.542  1.00  0.00    -0.426 OA 
ENDROOT
BRANCH   2   3
HETATM    3  C   UNL     1     -12.599  10.146  71.563  1.00  0.00    -0.434 A  
HETATM    4  C   UNL     1     -11.627   9.629  70.664  1.00  0.00    -0.299 A  
HETATM    5  C   UNL     1     -12.971  11.517  71.494  1.00  0.00    -0.485 A  
HETATM    6  C   UNL     1     -10.996  10.493  69.769  1.00  0.00    -0.350 A  
HETATM    7  C   UNL     1     -12.331  12.323  70.572  1.00  0.00    -0.349 A  
HETATM    8  C   UNL     1     -11.326  11.820  69.808  1.00  0.00    -0.245 A  
HETATM    9  C   UNL     1     -10.936  13.141  69.195  1.00  0.00    -0.194 C  
HETATM   10  C   UNL     1     -12.272  13.669  69.885  1.00  0.00    -0.367 C  
BRANCH   4  11
HETATM   11  O   UNL     1     -11.339   8.290  70.648  1.00  0.00    -0.264 OA 
HETATM   12  C   UNL     1     -10.469   7.818  71.675  1.00  0.00    -0.202 C  
ENDBRANCH   4  11
BRANCH   9  13
HETATM   13  C   UNL     1     -10.617  12.869  67.719  1.00  0.00    -0.222 C  
BRANCH  13  14
HETATM   14  N   UNL     1     -11.724  12.484  66.842  1.00  0.00    -0.432 NA 
HETATM   15  C   UNL     1     -12.408  13.642  66.292  1.00  0.00    -0.412 C  
BRANCH  14  16
HETATM   16  C   UNL     1     -11.384  11.421  65.888  1.00  0.00    -0.020 C  
BRANCH  16  17
HETATM   17  C   UNL     1     -10.074  11.710  65.159  1.00  0.00    -0.304 C  
BRANCH  17  18
HETATM   18  C   UNL     1      -9.402  10.452  64.596  1.00  0.00    -0.254 C  
BRANCH  18  19
HETATM   19  N   UNL     1      -8.947   9.607  65.703  1.00  0.00    -0.157 N  
HETATM   20  C   UNL     1      -9.441   8.235  65.743  1.00  0.00     0.029 C  
HETATM   21  C   UNL     1     -10.203   7.939  67.023  1.00  0.00    -0.382 C  
HETATM   22  C   UNL     1      -9.219   7.466  68.056  1.00  0.00    -0.132 A  
HETATM   23  C   UNL     1      -9.341   6.158  68.544  1.00  0.00    -0.117 A  
HETATM   24  C   UNL     1      -8.427   5.641  69.461  1.00  0.00    -0.110 A  
HETATM   25  C   UNL     1      -7.362   6.446  69.900  1.00  0.00    -0.082 A  
HETATM   26  O   UNL     1      -7.099  10.875  66.153  1.00  0.00    -0.135 OA 
HETATM   27  C   UNL     1      -7.931  10.048  66.537  1.00  0.00    -0.115 C  
HETATM   28  C   UNL     1      -7.239   7.754  69.406  1.00  0.00    -0.080 A  
HETATM   29  C   UNL     1      -8.029   9.713  68.022  1.00  0.00    -0.097 C  
HETATM   30  C   UNL     1      -8.153   8.275  68.470  1.00  0.00    -0.123 A  
BRANCH  24  31
HETATM   31  O   UNL     1      -8.489   4.354  69.938  1.00  0.00    -0.062 OA 
HETATM   32  C   UNL     1      -9.781   3.873  70.293  1.00  0.00    -0.175 C  
ENDBRANCH  24  31
BRANCH  25  33
HETATM   33  O   UNL     1      -6.506   5.875  70.809  1.00  0.00    -0.037 OA 
HETATM   34  C   UNL     1      -5.174   5.616  70.384  1.00  0.00    -0.005 C  
ENDBRANCH  25  33
ENDBRANCH  18  19
ENDBRANCH  17  18
ENDBRANCH  16  17
ENDBRANCH  14  16
ENDBRANCH  13  14
ENDBRANCH   9  13
ENDBRANCH   2   3
TORSDOF 10
ENDMDL
MODEL       97
REMARK 921   NORMALIZED FREE ENERGY PREDICTED BY IDOCK:   -4.99 KCAL/MOL
REMARK 922        TOTAL FREE ENERGY PREDICTED BY IDOCK:   -9.88 KCAL/MOL
REMARK 923 INTER-LIGAND FREE ENERGY PREDICTED BY IDOCK:   -8.09 KCAL/MOL
REMARK 924 INTRA-LIGAND FREE ENERGY PREDICTED BY IDOCK:   -1.78 KCAL/MOL
REMARK 927      BINDING AFFINITY PREDICTED BY RF-SCORE:    0.00 PKD
ROOT
HETATM    1  C   UNL     1     -10.437  11.488  63.628  1.00  0.00    -0.427 C  
HETATM    2  O   UNL     1     -10.681  12.552  64.544  1.00  0.00    -0.294 OA 
ENDROOT
BRANCH   2   3
HETATM    3  C   UNL     1     -11.018  12.219  65.831  1.00  0.00    -0.302 A  
HETATM    4  C   UNL     1     -11.696  13.030  66.781  1.00  0.00    -0.382 A  
HETATM    5  C   UNL     1     -10.622  10.899  66.180  1.00  0.00    -0.270 A  
HETATM    6  C   UNL     1     -11.901  12.544  68.072  1.00  0.00    -0.382 A  
HETATM    7  C   UNL     1     -10.871  10.459  67.466  1.00  0.00    -0.358 A  
HETATM    8  C   UNL     1     -11.418  11.303  68.381  1.00  0.00    -0.377 A  
HETATM    9  C   UNL     1     -11.267  10.363  69.551  1.00  0.00    -0.325 C  
HETATM   10  C   UNL     1     -10.877   9.296  68.432  1.00  0.00    -0.125 C  
BRANCH   4  11
HETATM   11  O   UNL     1     -12.179  14.262  66.424  1.00  0.00    -0.436 OA 
HETATM   12  C   UNL     1     -11.336  15.377  66.708  1.00  0.00    -0.125 C  
ENDBRANCH   4  11
BRANCH   9  13
HETATM   13  C   UNL     1     -12.539  10.499  70.397  1.00  0.00    -0.286 C  
BRANCH  13  14
HETATM   14  N   UNL     1     -12.653   9.667  71.596  1.00  0.00    -0.373 NA 
HETATM   15  C   UNL     1     -13.749   8.718  71.496  1.00  0.00    -0.338 C  
BRANCH  14  16
HETATM   16  C   UNL     1     -11.372   9.127  72.068  1.00  0.00    -0.262 C  
BRANCH  16  17
HETATM   17  C   UNL     1     -11.462   7.633  72.370  1.00  0.00    -0.392 C  
BRANCH  17  18
HETATM   18  C   UNL     1     -10.109   6.914  72.287  1.00  0.00    -0.176 C  
BRANCH  18  19
HETATM   19  N   UNL     1      -9.758   6.701  70.881  1.00  0.00    -0.179 N  
HETATM   20  C   UNL     1     -10.697   5.938  70.066  1.00  0.00    -0.326 C  
HETATM   21  C   UNL     1     -10.060   4.692  69.475  1.00  0.00    -0.212 C  
HETATM   22  C   UNL     1      -9.437   5.063  68.158  1.00  0.00    -0.169 A  
HETATM   23  C   UNL     1      -9.940   4.473  66.992  1.00  0.00    -0.215 A  
HETATM   24  C   UNL     1      -9.443   4.816  65.735  1.00  0.00    -0.167 A  
HETATM   25  C   UNL     1      -8.421   5.777  65.639  1.00  0.00    -0.149 A  
HETATM   26  O   UNL     1      -8.300   8.459  70.788  1.00  0.00    -0.113 OA 
HETATM   27  C   UNL     1      -8.684   7.381  70.325  1.00  0.00    -0.146 C  
HETATM   28  C   UNL     1      -7.922   6.371  66.809  1.00  0.00    -0.109 A  
HETATM   29  C   UNL     1      -7.812   6.640  69.317  1.00  0.00    -0.110 C  
HETATM   30  C   UNL     1      -8.430   6.034  68.078  1.00  0.00    -0.115 A  
BRANCH  24  31
HETATM   31  O   UNL     1      -9.932   4.289  64.565  1.00  0.00    -0.166 OA 
HETATM   32  C   UNL     1      -9.704   2.900  64.354  1.00  0.00    -0.136 C  
ENDBRANCH  24  31
BRANCH  25  33
HETATM   33  O   UNL     1      -7.974   6.060  64.372  1.00  0.00    -0.115 OA 
HETATM   34  C   UNL     1      -6.580   5.938  64.125  1.00  0.00    -0.037 C  
ENDBRANCH  25  33
ENDBRANCH  18  19
ENDBRANCH  17  18
ENDBRANCH  16  17
ENDBRANCH  14  16
ENDBRANCH  13  14
ENDBRANCH   9  13
ENDBRANCH   2   3
TORSDOF 10
ENDMDL
MODEL       98
REMARK 921   NORMALIZED FREE ENERGY PREDICTED BY IDOCK:   -4.99 KCAL/MOL
REMARK 922        TOTAL FREE ENERGY PREDICTED BY IDOCK:   -9.87 KCAL/MOL
REMARK 923 INTER-LIGAND FREE ENERGY PREDICTED BY IDOCK:   -7.49 KCAL/MOL
REMARK 924 INTRA-LIGAND FREE ENERGY PREDICTED BY IDOCK:   -2.37 KCAL/MOL
REMARK 927      BINDING AFFINITY PREDICTED BY RF-SCORE:    0.00 PKD
ROOT
HETATM    1  C   UNL     1     -12.061  13.818  66.881  1.00  0.00    -0.413 C  
HETATM    2  O   UNL     1     -10.780  13.242  67.121  1.00  0.00    -0.257 OA 
ENDROOT
BRANCH   2   3
HETATM    3  C   UNL     1     -10.695  12.255  68.070  1.00  0.00    -0.218 A  
HETATM    4  C   UNL     1      -9.540  11.514  68.440  1.00  0.00    -0.195 A  
HETATM    5  C   UNL     1     -11.936  12.007  68.719  1.00  0.00    -0.299 A  
HETATM    6  C   UNL     1      -9.655  10.498  69.390  1.00  0.00    -0.170 A  
HETATM    7  C   UNL     1     -11.987  11.005  69.669  1.00  0.00    -0.424 A  
HETATM    8  C   UNL     1     -10.891  10.240  69.915  1.00  0.00    -0.355 A  
HETATM    9  C   UNL     1     -11.592   9.275  70.837  1.00  0.00    -0.364 C  
HETATM   10  C   UNL     1     -12.791  10.322  70.752  1.00  0.00    -0.427 C  
BRANCH   4  11
HETATM   11  O   UNL     1      -8.317  11.818  67.901  1.00  0.00    -0.134 OA 
HETATM   12  C   UNL     1      -7.677  12.988  68.406  1.00  0.00    -0.137 C  
ENDBRANCH   4  11
BRANCH   9  13
HETATM   13  C   UNL     1     -10.618   8.967  71.982  1.00  0.00    -0.318 C  
BRANCH  13  14
HETATM   14  N   UNL     1     -10.187   7.578  72.155  1.00  0.00    -0.191 NA 
HETATM   15  C   UNL     1     -10.472   7.085  73.491  1.00  0.00    -0.375 C  
BRANCH  14  16
HETATM   16  C   UNL     1     -10.567   6.696  71.045  1.00  0.00    -0.226 C  
BRANCH  16  17
HETATM   17  C   UNL     1      -9.367   5.932  70.491  1.00  0.00    -0.185 C  
BRANCH  17  18
HETATM   18  C   UNL     1      -9.643   5.267  69.136  1.00  0.00    -0.145 C  
BRANCH  18  19
HETATM   19  N   UNL     1      -9.379   6.226  68.061  1.00  0.00    -0.116 N  
HETATM   20  C   UNL     1      -7.989   6.424  67.667  1.00  0.00    -0.114 C  
HETATM   21  C   UNL     1      -7.547   7.867  67.835  1.00  0.00    -0.109 C  
HETATM   22  C   UNL     1      -7.864   8.606  66.564  1.00  0.00    -0.099 A  
HETATM   23  C   UNL     1      -6.804   9.133  65.817  1.00  0.00    -0.077 A  
HETATM   24  C   UNL     1      -7.027   9.780  64.602  1.00  0.00    -0.124 A  
HETATM   25  C   UNL     1      -8.341   9.900  64.118  1.00  0.00    -0.168 A  
HETATM   26  O   UNL     1     -11.501   6.138  67.214  1.00  0.00    -0.045 OA 
HETATM   27  C   UNL     1     -10.434   6.748  67.326  1.00  0.00    -0.282 C  
HETATM   28  C   UNL     1      -9.402   9.366  64.867  1.00  0.00    -0.218 A  
HETATM   29  C   UNL     1     -10.354   8.211  66.900  1.00  0.00    -0.401 C  
HETATM   30  C   UNL     1      -9.178   8.702  66.088  1.00  0.00    -0.271 A  
BRANCH  24  31
HETATM   31  O   UNL     1      -6.014  10.279  63.820  1.00  0.00    -0.135 OA 
HETATM   32  C   UNL     1      -5.371   9.353  62.951  1.00  0.00    -0.079 C  
ENDBRANCH  24  31
BRANCH  25  33
HETATM   33  O   UNL     1      -8.488  10.555  62.920  1.00  0.00    -0.166 OA 
HETATM   34  C   UNL     1      -9.611  11.414  62.775  1.00  0.00    -0.257 C  
ENDBRANCH  25  33
ENDBRANCH  18  19
ENDBRANCH  17  18
ENDBRANCH  16  17
ENDBRANCH  14  16
ENDBRANCH  13  14
ENDBRANCH   9  13
ENDBRANCH   2   3
TORSDOF 10
ENDMDL
MODEL       99
REMARK 921   NORMALIZED FREE ENERGY PREDICTED BY IDOCK:   -4.98 KCAL/MOL
REMARK 922        TOTAL FREE ENERGY PREDICTED BY IDOCK:   -9.85 KCAL/MOL
REMARK 923 INTER-LIGAND FREE ENERGY PREDICTED BY IDOCK:   -8.08 KCAL/MOL
REMARK 924 INTRA-LIGAND FREE ENERGY PREDICTED BY IDOCK:   -1.78 KCAL/MOL
REMARK 927      BINDING AFFINITY PREDICTED BY RF-SCORE:    0.00 PKD
ROOT
HETATM    1  C   UNL     1     -11.409  14.681  68.324  1.00  0.00    -0.297 C  
HETATM    2  O   UNL     1     -12.231  13.663  67.761  1.00  0.00    -0.321 OA 
ENDROOT
BRANCH   2   3
HETATM    3  C   UNL     1     -11.632  12.747  66.933  1.00  0.00    -0.366 A  
HETATM    4  C   UNL     1     -11.915  12.515  65.559  1.00  0.00    -0.442 A  
HETATM    5  C   UNL     1     -10.622  11.990  67.588  1.00  0.00    -0.239 A  
HETATM    6  C   UNL     1     -11.244  11.493  64.888  1.00  0.00    -0.242 A  
HETATM    7  C   UNL     1      -9.972  11.006  66.868  1.00  0.00    -0.231 A  
HETATM    8  C   UNL     1     -10.348  10.735  65.590  1.00  0.00    -0.297 A  
HETATM    9  C   UNL     1      -9.462   9.525  65.434  1.00  0.00    -0.336 C  
HETATM   10  C   UNL     1      -8.840  10.005  66.820  1.00  0.00    -0.144 C  
BRANCH   4  11
HETATM   11  O   UNL     1     -12.807  13.309  64.889  1.00  0.00    -0.695 OA 
HETATM   12  C   UNL     1     -12.267  14.462  64.245  1.00  0.00    -0.423 C  
ENDBRANCH   4  11
BRANCH   9  13
HETATM   13  C   UNL     1      -8.886   9.577  64.012  1.00  0.00    -0.212 C  
BRANCH  13  14
HETATM   14  N   UNL     1      -7.724   8.737  63.716  1.00  0.00    -0.125 NA 
HETATM   15  C   UNL     1      -6.512   9.524  63.560  1.00  0.00    -0.103 C  
BRANCH  14  16
HETATM   16  C   UNL     1      -7.617   7.548  64.571  1.00  0.00    -0.110 C  
BRANCH  16  17
HETATM   17  C   UNL     1      -8.277   6.329  63.931  1.00  0.00     0.012 C  
BRANCH  17  18
HETATM   18  C   UNL     1      -8.193   5.067  64.800  1.00  0.00    -0.130 C  
BRANCH  18  19
HETATM   19  N   UNL     1      -8.619   5.387  66.165  1.00  0.00    -0.122 N  
HETATM   20  C   UNL     1     -10.035   5.231  66.476  1.00  0.00    -0.204 C  
HETATM   21  C   UNL     1     -10.665   6.533  66.942  1.00  0.00    -0.403 C  
HETATM   22  C   UNL     1     -10.492   6.630  68.433  1.00  0.00    -0.248 A  
HETATM   23  C   UNL     1     -11.638   6.636  69.238  1.00  0.00    -0.147 A  
HETATM   24  C   UNL     1     -11.544   6.668  70.629  1.00  0.00    -0.382 A  
HETATM   25  C   UNL     1     -10.275   6.690  71.232  1.00  0.00    -0.200 A  
HETATM   26  O   UNL     1      -6.533   5.145  67.068  1.00  0.00    -0.042 OA 
HETATM   27  C   UNL     1      -7.669   5.620  67.149  1.00  0.00    -0.101 C  
HETATM   28  C   UNL     1      -9.128   6.680  70.423  1.00  0.00    -0.152 A  
HETATM   29  C   UNL     1      -7.962   6.702  68.183  1.00  0.00    -0.110 C  
HETATM   30  C   UNL     1      -9.220   6.635  69.019  1.00  0.00    -0.131 A  
BRANCH  24  31
HETATM   31  O   UNL     1     -12.640   6.639  71.456  1.00  0.00    -0.336 OA 
HETATM   32  C   UNL     1     -13.278   7.887  71.704  1.00  0.00    -0.334 C  
ENDBRANCH  24  31
BRANCH  25  33
HETATM   33  O   UNL     1     -10.257   6.730  72.604  1.00  0.00    -0.178 OA 
HETATM   34  C   UNL     1      -9.743   7.903  73.221  1.00  0.00    -0.285 C  
ENDBRANCH  25  33
ENDBRANCH  18  19
ENDBRANCH  17  18
ENDBRANCH  16  17
ENDBRANCH  14  16
ENDBRANCH  13  14
ENDBRANCH   9  13
ENDBRANCH   2   3
TORSDOF 10
ENDMDL
MODEL      100
REMARK 921   NORMALIZED FREE ENERGY PREDICTED BY IDOCK:   -4.98 KCAL/MOL
REMARK 922        TOTAL FREE ENERGY PREDICTED BY IDOCK:   -9.85 KCAL/MOL
REMARK 923 INTER-LIGAND FREE ENERGY PREDICTED BY IDOCK:   -8.20 KCAL/MOL
REMARK 924 INTRA-LIGAND FREE ENERGY PREDICTED BY IDOCK:   -1.65 KCAL/MOL
REMARK 927      BINDING AFFINITY PREDICTED BY RF-SCORE:    0.00 PKD
ROOT
HETATM    1  C   UNL     1     -12.282  14.402  64.395  1.00  0.00    -0.458 C  
HETATM    2  O   UNL     1     -12.678  14.170  65.744  1.00  0.00    -0.508 OA 
ENDROOT
BRANCH   2   3
HETATM    3  C   UNL     1     -11.899  13.333  66.501  1.00  0.00    -0.398 A  
HETATM    4  C   UNL     1     -11.380  13.579  67.801  1.00  0.00    -0.296 A  
HETATM    5  C   UNL     1     -11.629  12.097  65.851  1.00  0.00    -0.425 A  
HETATM    6  C   UNL     1     -10.549  12.630  68.396  1.00  0.00    -0.258 A  
HETATM    7  C   UNL     1     -10.819  11.182  66.497  1.00  0.00    -0.302 A  
HETATM    8  C   UNL     1     -10.248  11.499  67.689  1.00  0.00    -0.205 A  
HETATM    9  C   UNL     1      -9.392  10.260  67.772  1.00  0.00    -0.156 C  
HETATM   10  C   UNL     1     -10.256   9.779  66.523  1.00  0.00    -0.289 C  
BRANCH   4  11
HETATM   11  O   UNL     1     -11.722  14.719  68.481  1.00  0.00    -0.306 OA 
HETATM   12  C   UNL     1     -12.194  14.540  69.815  1.00  0.00    -0.312 C  
ENDBRANCH   4  11
BRANCH   9  13
HETATM   13  C   UNL     1      -9.416   9.801  69.236  1.00  0.00    -0.194 C  
BRANCH  13  14
HETATM   14  N   UNL     1      -8.141   9.739  69.953  1.00  0.00    -0.166 NA 
HETATM   15  C   UNL     1      -8.222   8.896  71.133  1.00  0.00    -0.173 C  
BRANCH  14  16
HETATM   16  C   UNL     1      -6.980   9.521  69.081  1.00  0.00    -0.057 C  
BRANCH  16  17
HETATM   17  C   UNL     1      -6.141  10.787  68.925  1.00  0.00    -0.040 C  
BRANCH  17  18
HETATM   18  C   UNL     1      -5.968  11.567  70.235  1.00  0.00    -0.160 C  
BRANCH  18  19
HETATM   19  N   UNL     1      -6.147  12.997  69.975  1.00  0.00    -0.135 N  
HETATM   20  C   UNL     1      -6.886  13.372  68.775  1.00  0.00    -0.101 C  
HETATM   21  C   UNL     1      -6.054  14.229  67.836  1.00  0.00    -0.157 C  
HETATM   22  C   UNL     1      -6.238  15.668  68.228  1.00  0.00    -0.120 A  
HETATM   23  C   UNL     1      -6.842  16.538  67.311  1.00  0.00    -0.212 A  
HETATM   24  C   UNL     1      -7.092  17.871  67.634  1.00  0.00    -0.196 A  
HETATM   25  C   UNL     1      -6.735  18.348  68.907  1.00  0.00    -0.258 A  
HETATM   26  O   UNL     1      -5.792  13.621  72.146  1.00  0.00    -0.419 OA 
HETATM   27  C   UNL     1      -5.806  13.924  70.950  1.00  0.00    -0.199 C  
HETATM   28  C   UNL     1      -6.134  17.474  69.827  1.00  0.00    -0.222 A  
HETATM   29  C   UNL     1      -5.174  15.237  70.497  1.00  0.00    -0.135 C  
HETATM   30  C   UNL     1      -5.892  16.125  69.507  1.00  0.00    -0.150 A  
BRANCH  24  31
HETATM   31  O   UNL     1      -7.714  18.747  66.778  1.00  0.00    -0.228 OA 
HETATM   32  C   UNL     1      -6.978  19.130  65.621  1.00  0.00    -0.260 C  
ENDBRANCH  24  31
BRANCH  25  33
HETATM   33  O   UNL     1      -7.002  19.672  69.154  1.00  0.00    -0.338 OA 
HETATM   34  C   UNL     1      -5.894  20.552  69.289  1.00  0.00    -0.363 C  
ENDBRANCH  25  33
ENDBRANCH  18  19
ENDBRANCH  17  18
ENDBRANCH  16  17
ENDBRANCH  14  16
ENDBRANCH  13  14
ENDBRANCH   9  13
ENDBRANCH   2   3
TORSDOF 10
ENDMDL
MODEL      101
REMARK 921   NORMALIZED FREE ENERGY PREDICTED BY IDOCK:   -4.97 KCAL/MOL
REMARK 922        TOTAL FREE ENERGY PREDICTED BY IDOCK:   -9.84 KCAL/MOL
REMARK 923 INTER-LIGAND FREE ENERGY PREDICTED BY IDOCK:   -8.11 KCAL/MOL
REMARK 924 INTRA-LIGAND FREE ENERGY PREDICTED BY IDOCK:   -1.73 KCAL/MOL
REMARK 927      BINDING AFFINITY PREDICTED BY RF-SCORE:    0.00 PKD
ROOT
HETATM    1  C   UNL     1     -11.771  12.343  67.457  1.00  0.00    -0.357 C  
HETATM    2  O   UNL     1     -11.795  12.518  68.870  1.00  0.00    -0.304 OA 
ENDROOT
BRANCH   2   3
HETATM    3  C   UNL     1     -11.547  11.418  69.652  1.00  0.00    -0.330 A  
HETATM    4  C   UNL     1     -10.345  10.663  69.720  1.00  0.00    -0.100 A  
HETATM    5  C   UNL     1     -12.659  11.059  70.463  1.00  0.00    -0.390 A  
HETATM    6  C   UNL     1     -10.296   9.530  70.532  1.00  0.00    -0.350 A  
HETATM    7  C   UNL     1     -12.546   9.941  71.267  1.00  0.00    -0.480 A  
HETATM    8  C   UNL     1     -11.423   9.177  71.221  1.00  0.00    -0.405 A  
HETATM    9  C   UNL     1     -11.955   8.084  72.113  1.00  0.00    -0.399 C  
HETATM   10  C   UNL     1     -13.152   9.104  72.372  1.00  0.00    -0.493 C  
BRANCH   4  11
HETATM   11  O   UNL     1      -9.234  11.062  69.026  1.00  0.00    -0.151 OA 
HETATM   12  C   UNL     1      -8.099  10.200  69.100  1.00  0.00    -0.134 C  
ENDBRANCH   4  11
BRANCH   9  13
HETATM   13  C   UNL     1     -10.799   7.652  73.025  1.00  0.00    -0.400 C  
BRANCH  13  14
HETATM   14  N   UNL     1      -9.735   6.837  72.437  1.00  0.00    -0.155 NA 
HETATM   15  C   UNL     1      -8.454   7.072  73.080  1.00  0.00    -0.117 C  
BRANCH  14  16
HETATM   16  C   UNL     1     -10.107   5.431  72.233  1.00  0.00    -0.186 C  
BRANCH  16  17
HETATM   17  C   UNL     1      -9.173   4.733  71.248  1.00  0.00    -0.191 C  
BRANCH  17  18
HETATM   18  C   UNL     1      -9.863   4.324  69.941  1.00  0.00    -0.197 C  
BRANCH  18  19
HETATM   19  N   UNL     1      -9.517   5.283  68.888  1.00  0.00    -0.121 N  
HETATM   20  C   UNL     1     -10.110   6.613  68.975  1.00  0.00    -0.162 C  
HETATM   21  C   UNL     1     -10.945   6.948  67.751  1.00  0.00    -0.280 C  
HETATM   22  C   UNL     1     -10.041   7.571  66.723  1.00  0.00    -0.313 A  
HETATM   23  C   UNL     1     -10.278   8.898  66.345  1.00  0.00    -0.273 A  
HETATM   24  C   UNL     1      -9.443   9.552  65.439  1.00  0.00    -0.269 A  
HETATM   25  C   UNL     1      -8.341   8.865  64.900  1.00  0.00    -0.172 A  
HETATM   26  O   UNL     1      -7.603   4.195  68.272  1.00  0.00    -0.066 OA 
HETATM   27  C   UNL     1      -8.508   4.983  67.985  1.00  0.00    -0.103 C  
HETATM   28  C   UNL     1      -8.104   7.535  65.284  1.00  0.00    -0.130 A  
HETATM   29  C   UNL     1      -8.693   5.423  66.536  1.00  0.00    -0.117 C  
HETATM   30  C   UNL     1      -8.938   6.877  66.208  1.00  0.00    -0.172 A  
BRANCH  24  31
HETATM   31  O   UNL     1      -9.617  10.863  65.069  1.00  0.00    -0.220 OA 
HETATM   32  C   UNL     1     -10.562  11.107  64.033  1.00  0.00    -0.368 C  
ENDBRANCH  24  31
BRANCH  25  33
HETATM   33  O   UNL     1      -7.568   9.565  64.008  1.00  0.00    -0.113 OA 
HETATM   34  C   UNL     1      -6.163   9.355  64.051  1.00  0.00    -0.092 C  
ENDBRANCH  25  33
ENDBRANCH  18  19
ENDBRANCH  17  18
ENDBRANCH  16  17
ENDBRANCH  14  16
ENDBRANCH  13  14
ENDBRANCH   9  13
ENDBRANCH   2   3
TORSDOF 10
ENDMDL
MODEL      102
REMARK 921   NORMALIZED FREE ENERGY PREDICTED BY IDOCK:   -4.96 KCAL/MOL
REMARK 922        TOTAL FREE ENERGY PREDICTED BY IDOCK:   -9.82 KCAL/MOL
REMARK 923 INTER-LIGAND FREE ENERGY PREDICTED BY IDOCK:   -7.19 KCAL/MOL
REMARK 924 INTRA-LIGAND FREE ENERGY PREDICTED BY IDOCK:   -2.63 KCAL/MOL
REMARK 927      BINDING AFFINITY PREDICTED BY RF-SCORE:    0.00 PKD
ROOT
HETATM    1  C   UNL     1     -10.365  10.670  64.421  1.00  0.00    -0.276 C  
HETATM    2  O   UNL     1      -9.176  10.309  65.117  1.00  0.00    -0.174 OA 
ENDROOT
BRANCH   2   3
HETATM    3  C   UNL     1      -9.113   9.051  65.661  1.00  0.00    -0.223 A  
HETATM    4  C   UNL     1      -8.039   8.124  65.566  1.00  0.00    -0.130 A  
HETATM    5  C   UNL     1     -10.284   8.709  66.392  1.00  0.00    -0.224 A  
HETATM    6  C   UNL     1      -8.178   6.858  66.134  1.00  0.00    -0.121 A  
HETATM    7  C   UNL     1     -10.358   7.449  66.955  1.00  0.00    -0.384 A  
HETATM    8  C   UNL     1      -9.361   6.549  66.747  1.00  0.00    -0.179 A  
HETATM    9  C   UNL     1     -10.071   5.394  67.406  1.00  0.00    -0.223 C  
HETATM   10  C   UNL     1     -11.107   6.511  67.874  1.00  0.00    -0.352 C  
BRANCH   4  11
HETATM   11  O   UNL     1      -6.865   8.482  64.958  1.00  0.00    -0.070 OA 
HETATM   12  C   UNL     1      -6.427   7.644  63.889  1.00  0.00    -0.053 C  
ENDBRANCH   4  11
BRANCH   9  13
HETATM   13  C   UNL     1      -9.013   4.619  68.204  1.00  0.00    -0.114 C  
BRANCH  13  14
HETATM   14  N   UNL     1      -9.481   3.667  69.212  1.00  0.00    -0.182 NA 
HETATM   15  C   UNL     1      -9.127   2.299  68.872  1.00  0.00    -0.135 C  
BRANCH  14  16
HETATM   16  C   UNL     1      -9.207   4.081  70.594  1.00  0.00    -0.126 C  
BRANCH  16  17
HETATM   17  C   UNL     1     -10.389   4.826  71.208  1.00  0.00    -0.184 C  
BRANCH  17  18
HETATM   18  C   UNL     1      -9.971   6.037  72.052  1.00  0.00    -0.170 C  
BRANCH  18  19
HETATM   19  N   UNL     1     -10.106   7.257  71.252  1.00  0.00    -0.189 N  
HETATM   20  C   UNL     1      -8.974   7.634  70.413  1.00  0.00    -0.152 C  
HETATM   21  C   UNL     1      -8.434   9.009  70.767  1.00  0.00    -0.238 C  
HETATM   22  C   UNL     1      -9.190  10.031  69.964  1.00  0.00    -0.146 A  
HETATM   23  C   UNL     1      -8.484  10.798  69.028  1.00  0.00    -0.137 A  
HETATM   24  C   UNL     1      -9.136  11.723  68.213  1.00  0.00    -0.187 A  
HETATM   25  C   UNL     1     -10.527  11.884  68.331  1.00  0.00    -0.217 A  
HETATM   26  O   UNL     1     -12.392   7.262  71.312  1.00  0.00    -0.336 OA 
HETATM   27  C   UNL     1     -11.339   7.886  71.154  1.00  0.00    -0.266 C  
HETATM   28  C   UNL     1     -11.233  11.111  69.267  1.00  0.00    -0.331 A  
HETATM   29  C   UNL     1     -11.363   9.411  71.130  1.00  0.00    -0.422 C  
HETATM   30  C   UNL     1     -10.579  10.168  70.083  1.00  0.00    -0.337 A  
BRANCH  24  31
HETATM   31  O   UNL     1      -8.489  12.469  67.258  1.00  0.00    -0.170 OA 
HETATM   32  C   UNL     1      -7.072  12.551  67.372  1.00  0.00    -0.146 C  
ENDBRANCH  24  31
BRANCH  25  33
HETATM   33  O   UNL     1     -11.101  12.817  67.504  1.00  0.00    -0.244 OA 
HETATM   34  C   UNL     1     -11.956  13.785  68.099  1.00  0.00    -0.358 C  
ENDBRANCH  25  33
ENDBRANCH  18  19
ENDBRANCH  17  18
ENDBRANCH  16  17
ENDBRANCH  14  16
ENDBRANCH  13  14
ENDBRANCH   9  13
ENDBRANCH   2   3
TORSDOF 10
ENDMDL
MODEL      103
REMARK 921   NORMALIZED FREE ENERGY PREDICTED BY IDOCK:   -4.95 KCAL/MOL
REMARK 922        TOTAL FREE ENERGY PREDICTED BY IDOCK:   -9.80 KCAL/MOL
REMARK 923 INTER-LIGAND FREE ENERGY PREDICTED BY IDOCK:   -8.86 KCAL/MOL
REMARK 924 INTRA-LIGAND FREE ENERGY PREDICTED BY IDOCK:   -0.94 KCAL/MOL
REMARK 927      BINDING AFFINITY PREDICTED BY RF-SCORE:    0.00 PKD
ROOT
HETATM    1  C   UNL     1     -14.347   8.097  71.925  1.00  0.00    -0.472 C  
HETATM    2  O   UNL     1     -12.993   8.441  72.203  1.00  0.00    -0.339 OA 
ENDROOT
BRANCH   2   3
HETATM    3  C   UNL     1     -12.052   8.148  71.249  1.00  0.00    -0.288 A  
HETATM    4  C   UNL     1     -11.235   9.065  70.534  1.00  0.00    -0.260 A  
HETATM    5  C   UNL     1     -11.931   6.751  71.007  1.00  0.00    -0.431 A  
HETATM    6  C   UNL     1     -10.371   8.587  69.549  1.00  0.00    -0.218 A  
HETATM    7  C   UNL     1     -11.043   6.331  70.035  1.00  0.00    -0.455 A  
HETATM    8  C   UNL     1     -10.362   7.244  69.293  1.00  0.00    -0.208 A  
HETATM    9  C   UNL     1      -9.754   6.236  68.350  1.00  0.00    -0.130 C  
HETATM   10  C   UNL     1     -10.336   5.167  69.378  1.00  0.00    -0.265 C  
BRANCH   4  11
HETATM   11  O   UNL     1     -11.264  10.401  70.835  1.00  0.00    -0.311 OA 
HETATM   12  C   UNL     1     -12.123  11.211  70.033  1.00  0.00    -0.359 C  
ENDBRANCH   4  11
BRANCH   9  13
HETATM   13  C   UNL     1      -8.309   6.685  68.090  1.00  0.00    -0.117 C  
BRANCH  13  14
HETATM   14  N   UNL     1      -7.957   7.098  66.731  1.00  0.00    -0.106 NA 
HETATM   15  C   UNL     1      -8.760   6.413  65.732  1.00  0.00    -0.127 C  
BRANCH  14  16
HETATM   16  C   UNL     1      -7.823   8.551  66.567  1.00  0.00    -0.096 C  
BRANCH  16  17
HETATM   17  C   UNL     1      -8.433   9.033  65.253  1.00  0.00    -0.181 C  
BRANCH  17  18
HETATM   18  C   UNL     1      -9.831   9.641  65.419  1.00  0.00    -0.252 C  
BRANCH  18  19
HETATM   19  N   UNL     1      -9.718  11.097  65.536  1.00  0.00    -0.217 N  
HETATM   20  C   UNL     1      -8.472  11.629  66.077  1.00  0.00     0.059 C  
HETATM   21  C   UNL     1      -8.700  12.453  67.332  1.00  0.00    -0.183 C  
HETATM   22  C   UNL     1      -8.963  13.874  66.919  1.00  0.00    -0.236 A  
HETATM   23  C   UNL     1      -8.054  14.863  67.315  1.00  0.00    -0.234 A  
HETATM   24  C   UNL     1      -8.211  16.190  66.917  1.00  0.00    -0.238 A  
HETATM   25  C   UNL     1      -9.300  16.540  66.101  1.00  0.00    -0.304 A  
HETATM   26  O   UNL     1     -11.349  11.531  63.994  1.00  0.00    -0.368 OA 
HETATM   27  C   UNL     1     -10.678  11.914  64.956  1.00  0.00    -0.292 C  
HETATM   28  C   UNL     1     -10.208  15.546  65.702  1.00  0.00    -0.403 A  
HETATM   29  C   UNL     1     -11.087  13.178  65.705  1.00  0.00    -0.296 C  
HETATM   30  C   UNL     1     -10.045  14.203  66.092  1.00  0.00    -0.324 A  
BRANCH  24  31
HETATM   31  O   UNL     1      -7.324  17.184  67.252  1.00  0.00    -0.144 OA 
HETATM   32  C   UNL     1      -6.175  16.783  67.991  1.00  0.00    -0.136 C  
ENDBRANCH  24  31
BRANCH  25  33
HETATM   33  O   UNL     1      -9.398  17.865  65.755  1.00  0.00    -0.507 OA 
HETATM   34  C   UNL     1     -10.485  18.606  66.293  1.00  0.00    -0.424 C  
ENDBRANCH  25  33
ENDBRANCH  18  19
ENDBRANCH  17  18
ENDBRANCH  16  17
ENDBRANCH  14  16
ENDBRANCH  13  14
ENDBRANCH   9  13
ENDBRANCH   2   3
TORSDOF 10
ENDMDL
MODEL      104
REMARK 921   NORMALIZED FREE ENERGY PREDICTED BY IDOCK:   -4.94 KCAL/MOL
REMARK 922        TOTAL FREE ENERGY PREDICTED BY IDOCK:   -9.80 KCAL/MOL
REMARK 923 INTER-LIGAND FREE ENERGY PREDICTED BY IDOCK:   -8.01 KCAL/MOL
REMARK 924 INTRA-LIGAND FREE ENERGY PREDICTED BY IDOCK:   -1.78 KCAL/MOL
REMARK 927      BINDING AFFINITY PREDICTED BY RF-SCORE:    0.00 PKD
ROOT
HETATM    1  C   UNL     1     -11.142  16.403  64.710  1.00  0.00    -0.235 C  
HETATM    2  O   UNL     1     -11.700  15.107  64.900  1.00  0.00    -0.356 OA 
ENDROOT
BRANCH   2   3
HETATM    3  C   UNL     1     -10.917  14.160  65.511  1.00  0.00    -0.310 A  
HETATM    4  C   UNL     1     -11.135  12.756  65.550  1.00  0.00    -0.285 A  
HETATM    5  C   UNL     1      -9.774  14.719  66.147  1.00  0.00    -0.338 A  
HETATM    6  C   UNL     1     -10.260  11.949  66.276  1.00  0.00    -0.247 A  
HETATM    7  C   UNL     1      -8.927  13.870  66.833  1.00  0.00    -0.236 A  
HETATM    8  C   UNL     1      -9.229  12.549  66.946  1.00  0.00    -0.211 A  
HETATM    9  C   UNL     1      -8.107  12.226  67.900  1.00  0.00    -0.155 C  
HETATM   10  C   UNL     1      -7.609  13.700  67.555  1.00  0.00    -0.180 C  
BRANCH   4  11
HETATM   11  O   UNL     1     -12.170  12.195  64.850  1.00  0.00    -0.358 OA 
HETATM   12  C   UNL     1     -11.922  11.909  63.475  1.00  0.00    -0.466 C  
ENDBRANCH   4  11
BRANCH   9  13
HETATM   13  C   UNL     1      -7.546  10.861  67.479  1.00  0.00    -0.101 C  
BRANCH  13  14
HETATM   14  N   UNL     1      -6.780  10.793  66.234  1.00  0.00    -0.128 NA 
HETATM   15  C   UNL     1      -5.393  11.182  66.429  1.00  0.00    -0.130 C  
BRANCH  14  16
HETATM   16  C   UNL     1      -7.004   9.563  65.464  1.00  0.00    -0.089 C  
BRANCH  16  17
HETATM   17  C   UNL     1      -8.475   9.156  65.460  1.00  0.00    -0.160 C  
BRANCH  17  18
HETATM   18  C   UNL     1      -8.707   7.709  65.913  1.00  0.00    -0.152 C  
BRANCH  18  19
HETATM   19  N   UNL     1      -9.113   7.698  67.320  1.00  0.00    -0.126 N  
HETATM   20  C   UNL     1     -10.484   8.092  67.623  1.00  0.00    -0.231 C  
HETATM   21  C   UNL     1     -10.542   9.291  68.554  1.00  0.00    -0.222 C  
HETATM   22  C   UNL     1     -10.522   8.787  69.970  1.00  0.00    -0.222 A  
HETATM   23  C   UNL     1     -11.641   9.027  70.779  1.00  0.00    -0.313 A  
HETATM   24  C   UNL     1     -11.708   8.538  72.083  1.00  0.00    -0.378 A  
HETATM   25  C   UNL     1     -10.635   7.787  72.592  1.00  0.00    -0.317 A  
HETATM   26  O   UNL     1      -7.459   6.262  67.976  1.00  0.00    -0.086 OA 
HETATM   27  C   UNL     1      -8.280   7.134  68.275  1.00  0.00    -0.124 C  
HETATM   28  C   UNL     1      -9.517   7.544  71.778  1.00  0.00    -0.170 A  
HETATM   29  C   UNL     1      -8.199   7.808  69.641  1.00  0.00    -0.127 C  
HETATM   30  C   UNL     1      -9.452   8.026  70.457  1.00  0.00    -0.166 A  
BRANCH  24  31
HETATM   31  O   UNL     1     -12.800   8.719  72.897  1.00  0.00    -0.313 OA 
HETATM   32  C   UNL     1     -14.019   9.072  72.251  1.00  0.00    -0.455 C  
ENDBRANCH  24  31
BRANCH  25  33
HETATM   33  O   UNL     1     -10.766   7.344  73.885  1.00  0.00    -0.319 OA 
HETATM   34  C   UNL     1      -9.697   6.580  74.429  1.00  0.00    -0.306 C  
ENDBRANCH  25  33
ENDBRANCH  18  19
ENDBRANCH  17  18
ENDBRANCH  16  17
ENDBRANCH  14  16
ENDBRANCH  13  14
ENDBRANCH   9  13
ENDBRANCH   2   3
TORSDOF 10
ENDMDL
MODEL      105
REMARK 921   NORMALIZED FREE ENERGY PREDICTED BY IDOCK:   -4.94 KCAL/MOL
REMARK 922        TOTAL FREE ENERGY PREDICTED BY IDOCK:   -9.80 KCAL/MOL
REMARK 923 INTER-LIGAND FREE ENERGY PREDICTED BY IDOCK:   -7.93 KCAL/MOL
REMARK 924 INTRA-LIGAND FREE ENERGY PREDICTED BY IDOCK:   -1.87 KCAL/MOL
REMARK 927      BINDING AFFINITY PREDICTED BY RF-SCORE:    0.00 PKD
ROOT
HETATM    1  C   UNL     1     -10.326   4.081  64.968  1.00  0.00    -0.160 C  
HETATM    2  O   UNL     1      -9.055   4.497  65.460  1.00  0.00    -0.131 OA 
ENDROOT
BRANCH   2   3
HETATM    3  C   UNL     1      -8.923   4.674  66.813  1.00  0.00    -0.112 A  
HETATM    4  C   UNL     1      -8.469   5.839  67.489  1.00  0.00    -0.103 A  
HETATM    5  C   UNL     1      -9.310   3.526  67.558  1.00  0.00    -0.249 A  
HETATM    6  C   UNL     1      -8.340   5.816  68.878  1.00  0.00    -0.101 A  
HETATM    7  C   UNL     1      -9.185   3.567  68.934  1.00  0.00    -0.227 A  
HETATM    8  C   UNL     1      -8.639   4.656  69.537  1.00  0.00    -0.103 A  
HETATM    9  C   UNL     1      -8.601   4.052  70.918  1.00  0.00    -0.108 C  
HETATM   10  C   UNL     1      -9.476   2.895  70.257  1.00  0.00    -0.200 C  
BRANCH   4  11
HETATM   11  O   UNL     1      -8.196   6.986  66.791  1.00  0.00    -0.107 OA 
HETATM   12  C   UNL     1      -6.861   7.479  66.883  1.00  0.00    -0.070 C  
ENDBRANCH   4  11
BRANCH   9  13
HETATM   13  C   UNL     1      -8.997   5.162  71.900  1.00  0.00    -0.134 C  
BRANCH  13  14
HETATM   14  N   UNL     1      -9.598   4.764  73.174  1.00  0.00    -0.133 NA 
HETATM   15  C   UNL     1      -8.670   4.916  74.282  1.00  0.00    -0.113 C  
BRANCH  14  16
HETATM   16  C   UNL     1     -10.950   5.296  73.386  1.00  0.00    -0.316 C  
BRANCH  16  17
HETATM   17  C   UNL     1     -11.375   6.231  72.257  1.00  0.00    -0.337 C  
BRANCH  17  18
HETATM   18  C   UNL     1     -11.448   7.703  72.683  1.00  0.00    -0.349 C  
BRANCH  18  19
HETATM   19  N   UNL     1     -11.522   8.551  71.490  1.00  0.00    -0.270 N  
HETATM   20  C   UNL     1     -11.004   7.998  70.244  1.00  0.00    -0.242 C  
HETATM   21  C   UNL     1      -9.881   8.843  69.667  1.00  0.00    -0.182 C  
HETATM   22  C   UNL     1     -10.492   9.894  68.783  1.00  0.00    -0.234 A  
HETATM   23  C   UNL     1     -10.193   9.870  67.415  1.00  0.00    -0.275 A  
HETATM   24  C   UNL     1     -10.771  10.783  66.532  1.00  0.00    -0.181 A  
HETATM   25  C   UNL     1     -11.674  11.740  67.026  1.00  0.00    -0.167 A  
HETATM   26  O   UNL     1     -13.179   9.890  72.321  1.00  0.00    -0.431 OA 
HETATM   27  C   UNL     1     -12.248   9.733  71.526  1.00  0.00    -0.406 C  
HETATM   28  C   UNL     1     -11.975  11.759  68.398  1.00  0.00    -0.250 A  
HETATM   29  C   UNL     1     -11.694  10.935  70.768  1.00  0.00    -0.355 C  
HETATM   30  C   UNL     1     -11.402  10.832  69.288  1.00  0.00    -0.352 A  
BRANCH  24  31
HETATM   31  O   UNL     1     -10.534  10.772  65.179  1.00  0.00    -0.285 OA 
HETATM   32  C   UNL     1      -9.172  10.672  64.777  1.00  0.00    -0.220 C  
ENDBRANCH  24  31
BRANCH  25  33
HETATM   33  O   UNL     1     -12.198  12.612  66.104  1.00  0.00    -0.568 OA 
HETATM   34  C   UNL     1     -12.038  14.002  66.349  1.00  0.00    -0.455 C  
ENDBRANCH  25  33
ENDBRANCH  18  19
ENDBRANCH  17  18
ENDBRANCH  16  17
ENDBRANCH  14  16
ENDBRANCH  13  14
ENDBRANCH   9  13
ENDBRANCH   2   3
TORSDOF 10
ENDMDL
MODEL      106
REMARK 921   NORMALIZED FREE ENERGY PREDICTED BY IDOCK:   -4.93 KCAL/MOL
REMARK 922        TOTAL FREE ENERGY PREDICTED BY IDOCK:   -9.78 KCAL/MOL
REMARK 923 INTER-LIGAND FREE ENERGY PREDICTED BY IDOCK:   -7.92 KCAL/MOL
REMARK 924 INTRA-LIGAND FREE ENERGY PREDICTED BY IDOCK:   -1.85 KCAL/MOL
REMARK 927      BINDING AFFINITY PREDICTED BY RF-SCORE:    0.00 PKD
ROOT
HETATM    1  C   UNL     1     -10.856  12.523  64.250  1.00  0.00    -0.364 C  
HETATM    2  O   UNL     1     -11.444  13.291  65.296  1.00  0.00    -0.290 OA 
ENDROOT
BRANCH   2   3
HETATM    3  C   UNL     1     -11.466  12.743  66.553  1.00  0.00    -0.355 A  
HETATM    4  C   UNL     1     -11.813  13.391  67.769  1.00  0.00    -0.358 A  
HETATM    5  C   UNL     1     -11.097  11.369  66.560  1.00  0.00    -0.312 A  
HETATM    6  C   UNL     1     -11.718  12.687  68.970  1.00  0.00    -0.367 A  
HETATM    7  C   UNL     1     -11.043  10.714  67.776  1.00  0.00    -0.385 A  
HETATM    8  C   UNL     1     -11.270  11.396  68.929  1.00  0.00    -0.310 A  
HETATM    9  C   UNL     1     -10.898  10.257  69.845  1.00  0.00    -0.355 C  
HETATM   10  C   UNL     1     -10.892   9.397  68.503  1.00  0.00    -0.149 C  
BRANCH   4  11
HETATM   11  O   UNL     1     -12.274  14.681  67.762  1.00  0.00    -0.254 OA 
HETATM   12  C   UNL     1     -11.703  15.562  68.728  1.00  0.00    -0.357 C  
ENDBRANCH   4  11
BRANCH   9  13
HETATM   13  C   UNL     1     -11.898  10.279  71.010  1.00  0.00    -0.377 C  
BRANCH  13  14
HETATM   14  N   UNL     1     -11.856   9.170  71.964  1.00  0.00    -0.360 NA 
HETATM   15  C   UNL     1     -12.817   8.132  71.631  1.00  0.00    -0.326 C  
BRANCH  14  16
HETATM   16  C   UNL     1     -10.499   8.714  72.288  1.00  0.00    -0.306 C  
BRANCH  16  17
HETATM   17  C   UNL     1     -10.513   7.485  73.192  1.00  0.00    -0.419 C  
BRANCH  17  18
HETATM   18  C   UNL     1      -9.309   6.558  72.976  1.00  0.00    -0.135 C  
BRANCH  18  19
HETATM   19  N   UNL     1      -9.190   6.240  71.551  1.00  0.00    -0.146 N  
HETATM   20  C   UNL     1      -7.914   6.531  70.907  1.00  0.00    -0.111 C  
HETATM   21  C   UNL     1      -8.067   7.504  69.749  1.00  0.00    -0.126 C  
HETATM   22  C   UNL     1      -8.356   6.711  68.505  1.00  0.00    -0.122 A  
HETATM   23  C   UNL     1      -7.425   6.750  67.460  1.00  0.00    -0.097 A  
HETATM   24  C   UNL     1      -7.606   5.993  66.302  1.00  0.00    -0.090 A  
HETATM   25  C   UNL     1      -8.742   5.173  66.187  1.00  0.00    -0.123 A  
HETATM   26  O   UNL     1     -10.909   4.733  71.556  1.00  0.00     0.002 OA 
HETATM   27  C   UNL     1     -10.182   5.503  70.922  1.00  0.00    -0.227 C  
HETATM   28  C   UNL     1      -9.671   5.133  67.238  1.00  0.00    -0.172 A  
HETATM   29  C   UNL     1     -10.547   5.873  69.488  1.00  0.00    -0.378 C  
HETATM   30  C   UNL     1      -9.485   5.887  68.413  1.00  0.00    -0.130 A  
BRANCH  24  31
HETATM   31  O   UNL     1      -6.700   5.974  65.269  1.00  0.00    -0.042 OA 
HETATM   32  C   UNL     1      -6.458   7.216  64.618  1.00  0.00    -0.037 C  
ENDBRANCH  24  31
BRANCH  25  33
HETATM   33  O   UNL     1      -8.860   4.464  65.018  1.00  0.00    -0.129 OA 
HETATM   34  C   UNL     1     -10.163   4.050  64.629  1.00  0.00    -0.214 C  
ENDBRANCH  25  33
ENDBRANCH  18  19
ENDBRANCH  17  18
ENDBRANCH  16  17
ENDBRANCH  14  16
ENDBRANCH  13  14
ENDBRANCH   9  13
ENDBRANCH   2   3
TORSDOF 10
ENDMDL
MODEL      107
REMARK 921   NORMALIZED FREE ENERGY PREDICTED BY IDOCK:   -4.93 KCAL/MOL
REMARK 922        TOTAL FREE ENERGY PREDICTED BY IDOCK:   -9.77 KCAL/MOL
REMARK 923 INTER-LIGAND FREE ENERGY PREDICTED BY IDOCK:   -7.69 KCAL/MOL
REMARK 924 INTRA-LIGAND FREE ENERGY PREDICTED BY IDOCK:   -2.08 KCAL/MOL
REMARK 927      BINDING AFFINITY PREDICTED BY RF-SCORE:    0.00 PKD
ROOT
HETATM    1  C   UNL     1     -11.773  12.969  63.572  1.00  0.00    -0.471 C  
HETATM    2  O   UNL     1     -10.907  11.864  63.330  1.00  0.00    -0.398 OA 
ENDROOT
BRANCH   2   3
HETATM    3  C   UNL     1     -10.535  11.099  64.406  1.00  0.00    -0.353 A  
HETATM    4  C   UNL     1      -9.605  10.024  64.418  1.00  0.00    -0.258 A  
HETATM    5  C   UNL     1     -11.186  11.489  65.609  1.00  0.00    -0.212 A  
HETATM    6  C   UNL     1      -9.397   9.315  65.601  1.00  0.00    -0.308 A  
HETATM    7  C   UNL     1     -10.924  10.766  66.758  1.00  0.00    -0.214 A  
HETATM    8  C   UNL     1     -10.117   9.673  66.707  1.00  0.00    -0.301 A  
HETATM    9  C   UNL     1     -10.368   9.244  68.131  1.00  0.00    -0.261 C  
HETATM   10  C   UNL     1     -11.091  10.659  68.257  1.00  0.00    -0.334 C  
BRANCH   4  11
HETATM   11  O   UNL     1      -8.892   9.710  63.292  1.00  0.00    -0.220 OA 
HETATM   12  C   UNL     1      -7.581   9.186  63.500  1.00  0.00    -0.109 C  
ENDBRANCH   4  11
BRANCH   9  13
HETATM   13  C   UNL     1      -9.024   8.759  68.691  1.00  0.00    -0.138 C  
BRANCH  13  14
HETATM   14  N   UNL     1      -8.422   9.529  69.781  1.00  0.00    -0.159 NA 
HETATM   15  C   UNL     1      -8.960   9.148  71.075  1.00  0.00    -0.214 C  
BRANCH  14  16
HETATM   16  C   UNL     1      -6.960   9.637  69.694  1.00  0.00    -0.071 C  
BRANCH  16  17
HETATM   17  C   UNL     1      -6.464  11.006  70.153  1.00  0.00    -0.128 C  
BRANCH  17  18
HETATM   18  C   UNL     1      -5.650  11.747  69.085  1.00  0.00    -0.052 C  
BRANCH  18  19
HETATM   19  N   UNL     1      -6.490  12.768  68.455  1.00  0.00    -0.073 N  
HETATM   20  C   UNL     1      -6.318  14.145  68.903  1.00  0.00    -0.091 C  
HETATM   21  C   UNL     1      -7.603  14.729  69.465  1.00  0.00    -0.092 C  
HETATM   22  C   UNL     1      -8.375  15.343  68.331  1.00  0.00    -0.147 A  
HETATM   23  C   UNL     1      -8.599  16.725  68.349  1.00  0.00    -0.235 A  
HETATM   24  C   UNL     1      -9.259  17.364  67.300  1.00  0.00    -0.234 A  
HETATM   25  C   UNL     1      -9.703  16.605  66.202  1.00  0.00    -0.303 A  
HETATM   26  O   UNL     1      -6.932  11.516  66.593  1.00  0.00    -0.131 OA 
HETATM   27  C   UNL     1      -7.251  12.446  67.340  1.00  0.00    -0.148 C  
HETATM   28  C   UNL     1      -9.472  15.220  66.185  1.00  0.00    -0.361 A  
HETATM   29  C   UNL     1      -8.636  13.072  67.215  1.00  0.00    -0.206 C  
HETATM   30  C   UNL     1      -8.796  14.575  67.237  1.00  0.00    -0.221 A  
BRANCH  24  31
HETATM   31  O   UNL     1      -9.469  18.721  67.260  1.00  0.00    -0.294 OA 
HETATM   32  C   UNL     1     -10.243  19.272  68.319  1.00  0.00    -0.418 C  
ENDBRANCH  24  31
BRANCH  25  33
HETATM   33  O   UNL     1     -10.352  17.297  65.210  1.00  0.00    -0.626 OA 
HETATM   34  C   UNL     1     -11.288  16.582  64.415  1.00  0.00     0.094 C  
ENDBRANCH  25  33
ENDBRANCH  18  19
ENDBRANCH  17  18
ENDBRANCH  16  17
ENDBRANCH  14  16
ENDBRANCH  13  14
ENDBRANCH   9  13
ENDBRANCH   2   3
TORSDOF 10
ENDMDL
MODEL      108
REMARK 921   NORMALIZED FREE ENERGY PREDICTED BY IDOCK:   -4.92 KCAL/MOL
REMARK 922        TOTAL FREE ENERGY PREDICTED BY IDOCK:   -9.76 KCAL/MOL
REMARK 923 INTER-LIGAND FREE ENERGY PREDICTED BY IDOCK:   -6.78 KCAL/MOL
REMARK 924 INTRA-LIGAND FREE ENERGY PREDICTED BY IDOCK:   -2.99 KCAL/MOL
REMARK 927      BINDING AFFINITY PREDICTED BY RF-SCORE:    0.00 PKD
ROOT
HETATM    1  C   UNL     1     -11.366   6.486  69.667  1.00  0.00    -0.380 C  
HETATM    2  O   UNL     1     -10.914   7.673  70.312  1.00  0.00    -0.251 OA 
ENDROOT
BRANCH   2   3
HETATM    3  C   UNL     1     -11.034   8.855  69.627  1.00  0.00    -0.123 A  
HETATM    4  C   UNL     1     -11.504  10.099  70.130  1.00  0.00    -0.296 A  
HETATM    5  C   UNL     1     -10.616   8.750  68.272  1.00  0.00    -0.194 A  
HETATM    6  C   UNL     1     -11.617  11.187  69.265  1.00  0.00    -0.388 A  
HETATM    7  C   UNL     1     -10.726   9.867  67.465  1.00  0.00    -0.333 A  
HETATM    8  C   UNL     1     -11.287  11.007  67.950  1.00  0.00    -0.381 A  
HETATM    9  C   UNL     1     -11.296  11.735  66.630  1.00  0.00    -0.381 C  
HETATM   10  C   UNL     1     -10.406  10.510  66.134  1.00  0.00    -0.276 C  
BRANCH   4  11
HETATM   11  O   UNL     1     -11.808  10.240  71.459  1.00  0.00    -0.336 OA 
HETATM   12  C   UNL     1     -13.113  10.732  71.760  1.00  0.00    -0.468 C  
ENDBRANCH   4  11
BRANCH   9  13
HETATM   13  C   UNL     1     -10.912  13.192  66.924  1.00  0.00    -0.276 C  
BRANCH  13  14
HETATM   14  N   UNL     1      -9.953  13.838  66.026  1.00  0.00    -0.305 NA 
HETATM   15  C   UNL     1     -10.617  14.555  64.951  1.00  0.00    -0.427 C  
BRANCH  14  16
HETATM   16  C   UNL     1      -8.883  14.563  66.722  1.00  0.00    -0.220 C  
BRANCH  16  17
HETATM   17  C   UNL     1      -8.257  13.723  67.832  1.00  0.00    -0.166 C  
BRANCH  17  18
HETATM   18  C   UNL     1      -7.008  12.954  67.382  1.00  0.00    -0.124 C  
BRANCH  18  19
HETATM   19  N   UNL     1      -7.159  11.538  67.726  1.00  0.00    -0.075 N  
HETATM   20  C   UNL     1      -7.705  11.224  69.041  1.00  0.00    -0.095 C  
HETATM   21  C   UNL     1      -6.747  10.391  69.875  1.00  0.00    -0.134 C  
HETATM   22  C   UNL     1      -7.005   8.940  69.576  1.00  0.00    -0.051 A  
HETATM   23  C   UNL     1      -7.467   8.119  70.612  1.00  0.00    -0.064 A  
HETATM   24  C   UNL     1      -7.778   6.778  70.388  1.00  0.00    -0.100 A  
HETATM   25  C   UNL     1      -7.628   6.244  69.096  1.00  0.00    -0.099 A  
HETATM   26  O   UNL     1      -7.153  10.822  65.554  1.00  0.00    -0.089 OA 
HETATM   27  C   UNL     1      -6.983  10.567  66.750  1.00  0.00    -0.104 C  
HETATM   28  C   UNL     1      -7.169   7.071  68.058  1.00  0.00    -0.095 A  
HETATM   29  C   UNL     1      -6.302   9.263  67.154  1.00  0.00    -0.062 C  
HETATM   30  C   UNL     1      -6.866   8.428  68.280  1.00  0.00    -0.066 A  
BRANCH  24  31
HETATM   31  O   UNL     1      -8.267   5.947  71.366  1.00  0.00    -0.119 OA 
HETATM   32  C   UNL     1      -8.482   6.534  72.644  1.00  0.00    -0.121 C  
ENDBRANCH  24  31
BRANCH  25  33
HETATM   33  O   UNL     1      -7.944   4.916  68.949  1.00  0.00    -0.076 OA 
HETATM   34  C   UNL     1      -8.088   4.418  67.626  1.00  0.00    -0.099 C  
ENDBRANCH  25  33
ENDBRANCH  18  19
ENDBRANCH  17  18
ENDBRANCH  16  17
ENDBRANCH  14  16
ENDBRANCH  13  14
ENDBRANCH   9  13
ENDBRANCH   2   3
TORSDOF 10
ENDMDL
MODEL      109
REMARK 921   NORMALIZED FREE ENERGY PREDICTED BY IDOCK:   -4.92 KCAL/MOL
REMARK 922        TOTAL FREE ENERGY PREDICTED BY IDOCK:   -9.76 KCAL/MOL
REMARK 923 INTER-LIGAND FREE ENERGY PREDICTED BY IDOCK:   -9.06 KCAL/MOL
REMARK 924 INTRA-LIGAND FREE ENERGY PREDICTED BY IDOCK:   -0.69 KCAL/MOL
REMARK 927      BINDING AFFINITY PREDICTED BY RF-SCORE:    0.00 PKD
ROOT
HETATM    1  C   UNL     1      -8.255   4.042  65.232  1.00  0.00    -0.101 C  
HETATM    2  O   UNL     1      -8.922   3.248  66.208  1.00  0.00    -0.134 OA 
ENDROOT
BRANCH   2   3
HETATM    3  C   UNL     1      -9.350   3.871  67.352  1.00  0.00    -0.191 A  
HETATM    4  C   UNL     1      -9.282   3.373  68.682  1.00  0.00    -0.168 A  
HETATM    5  C   UNL     1      -9.904   5.158  67.103  1.00  0.00    -0.191 A  
HETATM    6  C   UNL     1      -9.828   4.126  69.722  1.00  0.00    -0.220 A  
HETATM    7  C   UNL     1     -10.408   5.871  68.175  1.00  0.00    -0.259 A  
HETATM    8  C   UNL     1     -10.430   5.315  69.415  1.00  0.00    -0.284 A  
HETATM    9  C   UNL     1     -11.217   6.429  70.058  1.00  0.00    -0.475 C  
HETATM   10  C   UNL     1     -10.957   7.186  68.679  1.00  0.00    -0.083 C  
BRANCH   4  11
HETATM   11  O   UNL     1      -8.655   2.185  68.947  1.00  0.00    -0.060 OA 
HETATM   12  C   UNL     1      -7.261   2.259  69.243  1.00  0.00    -0.043 C  
ENDBRANCH   4  11
BRANCH   9  13
HETATM   13  C   UNL     1     -10.611   6.656  71.449  1.00  0.00    -0.224 C  
BRANCH  13  14
HETATM   14  N   UNL     1     -10.745   7.987  72.042  1.00  0.00    -0.240 NA 
HETATM   15  C   UNL     1      -9.486   8.711  72.040  1.00  0.00    -0.300 C  
BRANCH  14  16
HETATM   16  C   UNL     1     -11.920   8.731  71.571  1.00  0.00    -0.324 C  
BRANCH  16  17
HETATM   17  C   UNL     1     -11.535  10.086  70.983  1.00  0.00    -0.463 C  
BRANCH  17  18
HETATM   18  C   UNL     1     -12.528  10.597  69.931  1.00  0.00    -0.173 C  
BRANCH  18  19
HETATM   19  N   UNL     1     -11.955  11.757  69.244  1.00  0.00    -0.307 N  
HETATM   20  C   UNL     1     -11.613  12.915  70.061  1.00  0.00    -0.116 C  
HETATM   21  C   UNL     1     -12.359  14.164  69.623  1.00  0.00    -0.304 C  
HETATM   22  C   UNL     1     -11.545  14.849  68.561  1.00  0.00    -0.347 A  
HETATM   23  C   UNL     1     -11.042  16.128  68.828  1.00  0.00    -0.354 A  
HETATM   24  C   UNL     1     -10.234  16.794  67.907  1.00  0.00    -0.300 A  
HETATM   25  C   UNL     1      -9.915  16.166  66.691  1.00  0.00    -0.260 A  
HETATM   26  O   UNL     1     -11.262  10.564  67.421  1.00  0.00    -0.313 OA 
HETATM   27  C   UNL     1     -11.569  11.652  67.916  1.00  0.00    -0.298 C  
HETATM   28  C   UNL     1     -10.418  14.881  66.428  1.00  0.00    -0.301 A  
HETATM   29  C   UNL     1     -11.806  12.854  67.006  1.00  0.00    -0.437 C  
HETATM   30  C   UNL     1     -11.224  14.202  67.361  1.00  0.00    -0.334 A  
BRANCH  24  31
HETATM   31  O   UNL     1      -9.690  18.033  68.144  1.00  0.00    -0.294 OA 
HETATM   32  C   UNL     1     -10.493  19.154  67.790  1.00  0.00    -0.419 C  
ENDBRANCH  24  31
BRANCH  25  33
HETATM   33  O   UNL     1      -9.123  16.882  65.829  1.00  0.00    -0.523 OA 
HETATM   34  C   UNL     1      -7.726  16.906  66.087  1.00  0.00    -0.224 C  
ENDBRANCH  25  33
ENDBRANCH  18  19
ENDBRANCH  17  18
ENDBRANCH  16  17
ENDBRANCH  14  16
ENDBRANCH  13  14
ENDBRANCH   9  13
ENDBRANCH   2   3
TORSDOF 10
ENDMDL
MODEL      110
REMARK 921   NORMALIZED FREE ENERGY PREDICTED BY IDOCK:   -4.90 KCAL/MOL
REMARK 922        TOTAL FREE ENERGY PREDICTED BY IDOCK:   -9.73 KCAL/MOL
REMARK 923 INTER-LIGAND FREE ENERGY PREDICTED BY IDOCK:   -7.58 KCAL/MOL
REMARK 924 INTRA-LIGAND FREE ENERGY PREDICTED BY IDOCK:   -2.16 KCAL/MOL
REMARK 927      BINDING AFFINITY PREDICTED BY RF-SCORE:    0.00 PKD
ROOT
HETATM    1  C   UNL     1     -11.295  16.397  69.304  1.00  0.00    -0.225 C  
HETATM    2  O   UNL     1     -11.494  15.402  68.304  1.00  0.00    -0.332 OA 
ENDROOT
BRANCH   2   3
HETATM    3  C   UNL     1     -11.646  14.104  68.719  1.00  0.00    -0.327 A  
HETATM    4  C   UNL     1     -11.422  12.925  67.957  1.00  0.00    -0.319 A  
HETATM    5  C   UNL     1     -12.067  14.005  70.074  1.00  0.00    -0.412 A  
HETATM    6  C   UNL     1     -11.689  11.681  68.530  1.00  0.00    -0.378 A  
HETATM    7  C   UNL     1     -12.293  12.746  70.597  1.00  0.00    -0.381 A  
HETATM    8  C   UNL     1     -12.179  11.647  69.805  1.00  0.00    -0.285 A  
HETATM    9  C   UNL     1     -12.704  10.675  70.833  1.00  0.00    -0.498 C  
HETATM   10  C   UNL     1     -12.582  11.915  71.827  1.00  0.00    -0.158 C  
BRANCH   4  11
HETATM   11  O   UNL     1     -10.913  13.004  66.688  1.00  0.00    -0.272 OA 
HETATM   12  C   UNL     1     -10.722  11.765  66.005  1.00  0.00    -0.279 C  
ENDBRANCH   4  11
BRANCH   9  13
HETATM   13  C   UNL     1     -11.852   9.404  70.717  1.00  0.00    -0.256 C  
BRANCH  13  14
HETATM   14  N   UNL     1     -12.114   8.319  71.663  1.00  0.00    -0.292 NA 
HETATM   15  C   UNL     1     -12.650   7.141  71.002  1.00  0.00    -0.290 C  
BRANCH  14  16
HETATM   16  C   UNL     1     -11.022   8.085  72.617  1.00  0.00    -0.382 C  
BRANCH  16  17
HETATM   17  C   UNL     1      -9.673   8.522  72.052  1.00  0.00    -0.377 C  
BRANCH  17  18
HETATM   18  C   UNL     1      -8.865   7.368  71.445  1.00  0.00    -0.126 C  
BRANCH  18  19
HETATM   19  N   UNL     1      -8.688   7.600  70.010  1.00  0.00    -0.141 N  
HETATM   20  C   UNL     1      -7.701   8.597  69.612  1.00  0.00    -0.089 C  
HETATM   21  C   UNL     1      -8.319   9.721  68.797  1.00  0.00    -0.113 C  
HETATM   22  C   UNL     1      -8.292   9.319  67.348  1.00  0.00    -0.122 A  
HETATM   23  C   UNL     1      -7.523  10.082  66.460  1.00  0.00    -0.105 A  
HETATM   24  C   UNL     1      -7.411   9.730  65.115  1.00  0.00    -0.122 A  
HETATM   25  C   UNL     1      -8.079   8.586  64.646  1.00  0.00    -0.153 A  
HETATM   26  O   UNL     1      -9.574   5.587  69.388  1.00  0.00    -0.133 OA 
HETATM   27  C   UNL     1      -9.288   6.750  69.092  1.00  0.00    -0.135 C  
HETATM   28  C   UNL     1      -8.846   7.821  65.539  1.00  0.00    -0.048 A  
HETATM   29  C   UNL     1      -9.847   7.361  67.811  1.00  0.00    -0.187 C  
HETATM   30  C   UNL     1      -8.950   8.168  66.900  1.00  0.00    -0.163 A  
BRANCH  24  31
HETATM   31  O   UNL     1      -6.639  10.428  64.218  1.00  0.00    -0.103 OA 
HETATM   32  C   UNL     1      -5.230  10.349  64.401  1.00  0.00    -0.141 C  
ENDBRANCH  24  31
BRANCH  25  33
HETATM   33  O   UNL     1      -7.932   8.305  63.310  1.00  0.00    -0.150 OA 
HETATM   34  C   UNL     1      -7.295   7.083  62.963  1.00  0.00    -0.083 C  
ENDBRANCH  25  33
ENDBRANCH  18  19
ENDBRANCH  17  18
ENDBRANCH  16  17
ENDBRANCH  14  16
ENDBRANCH  13  14
ENDBRANCH   9  13
ENDBRANCH   2   3
TORSDOF 10
ENDMDL
MODEL      111
REMARK 921   NORMALIZED FREE ENERGY PREDICTED BY IDOCK:   -4.90 KCAL/MOL
REMARK 922        TOTAL FREE ENERGY PREDICTED BY IDOCK:   -9.73 KCAL/MOL
REMARK 923 INTER-LIGAND FREE ENERGY PREDICTED BY IDOCK:   -7.96 KCAL/MOL
REMARK 924 INTRA-LIGAND FREE ENERGY PREDICTED BY IDOCK:   -1.77 KCAL/MOL
REMARK 927      BINDING AFFINITY PREDICTED BY RF-SCORE:    0.00 PKD
ROOT
HETATM    1  C   UNL     1      -5.643  15.667  70.576  1.00  0.00    -0.119 C  
HETATM    2  O   UNL     1      -6.599  14.687  70.183  1.00  0.00    -0.172 OA 
ENDROOT
BRANCH   2   3
HETATM    3  C   UNL     1      -7.376  14.960  69.086  1.00  0.00    -0.158 A  
HETATM    4  C   UNL     1      -7.094  14.638  67.730  1.00  0.00    -0.177 A  
HETATM    5  C   UNL     1      -8.584  15.632  69.420  1.00  0.00    -0.248 A  
HETATM    6  C   UNL     1      -7.977  15.051  66.732  1.00  0.00     0.009 A  
HETATM    7  C   UNL     1      -9.434  15.997  68.393  1.00  0.00    -0.207 A  
HETATM    8  C   UNL     1      -9.077  15.774  67.100  1.00  0.00    -0.228 A  
HETATM    9  C   UNL     1     -10.245  16.516  66.500  1.00  0.00    -0.305 C  
HETATM   10  C   UNL     1     -10.788  16.541  67.998  1.00  0.00    -0.337 C  
BRANCH   4  11
HETATM   11  O   UNL     1      -5.988  13.896  67.407  1.00  0.00    -0.351 OA 
HETATM   12  C   UNL     1      -6.149  12.479  67.430  1.00  0.00    -0.155 C  
ENDBRANCH   4  11
BRANCH   9  13
HETATM   13  C   UNL     1     -10.711  15.703  65.284  1.00  0.00    -0.425 C  
BRANCH  13  14
HETATM   14  N   UNL     1     -11.116  14.314  65.508  1.00  0.00    -0.313 NA 
HETATM   15  C   UNL     1     -12.470  14.223  66.028  1.00  0.00    -0.369 C  
BRANCH  14  16
HETATM   16  C   UNL     1     -10.788  13.413  64.396  1.00  0.00    -0.406 C  
BRANCH  16  17
HETATM   17  C   UNL     1     -10.718  11.957  64.848  1.00  0.00    -0.350 C  
BRANCH  17  18
HETATM   18  C   UNL     1      -9.359  11.571  65.446  1.00  0.00    -0.159 C  
BRANCH  18  19
HETATM   19  N   UNL     1      -9.566  10.667  66.580  1.00  0.00    -0.176 N  
HETATM   20  C   UNL     1      -9.129   9.284  66.420  1.00  0.00    -0.160 C  
HETATM   21  C   UNL     1     -10.273   8.300  66.591  1.00  0.00    -0.333 C  
HETATM   22  C   UNL     1     -10.378   7.951  68.050  1.00  0.00    -0.264 A  
HETATM   23  C   UNL     1     -10.145   6.625  68.436  1.00  0.00    -0.163 A  
HETATM   24  C   UNL     1     -10.171   6.248  69.778  1.00  0.00    -0.187 A  
HETATM   25  C   UNL     1     -10.432   7.218  70.761  1.00  0.00    -0.212 A  
HETATM   26  O   UNL     1      -9.723  12.344  68.125  1.00  0.00    -0.204 OA 
HETATM   27  C   UNL     1      -9.964  11.176  67.807  1.00  0.00    -0.175 C  
HETATM   28  C   UNL     1     -10.661   8.548  70.371  1.00  0.00    -0.242 A  
HETATM   29  C   UNL     1     -10.950  10.358  68.635  1.00  0.00    -0.288 C  
HETATM   30  C   UNL     1     -10.623   8.933  69.017  1.00  0.00    -0.203 A  
BRANCH  24  31
HETATM   31  O   UNL     1      -9.913   4.967  70.203  1.00  0.00    -0.216 OA 
HETATM   32  C   UNL     1      -8.721   4.366  69.710  1.00  0.00    -0.073 C  
ENDBRANCH  24  31
BRANCH  25  33
HETATM   33  O   UNL     1     -10.451   6.776  72.060  1.00  0.00    -0.201 OA 
HETATM   34  C   UNL     1     -10.958   7.662  73.049  1.00  0.00    -0.400 C  
ENDBRANCH  25  33
ENDBRANCH  18  19
ENDBRANCH  17  18
ENDBRANCH  16  17
ENDBRANCH  14  16
ENDBRANCH  13  14
ENDBRANCH   9  13
ENDBRANCH   2   3
TORSDOF 10
ENDMDL
MODEL      112
REMARK 921   NORMALIZED FREE ENERGY PREDICTED BY IDOCK:   -4.90 KCAL/MOL
REMARK 922        TOTAL FREE ENERGY PREDICTED BY IDOCK:   -9.73 KCAL/MOL
REMARK 923 INTER-LIGAND FREE ENERGY PREDICTED BY IDOCK:   -8.87 KCAL/MOL
REMARK 924 INTRA-LIGAND FREE ENERGY PREDICTED BY IDOCK:   -0.86 KCAL/MOL
REMARK 927      BINDING AFFINITY PREDICTED BY RF-SCORE:    0.00 PKD
ROOT
HETATM    1  C   UNL     1     -10.499   3.628  74.432  1.00  0.00    -0.207 C  
HETATM    2  O   UNL     1     -10.793   3.901  73.066  1.00  0.00    -0.177 OA 
ENDROOT
BRANCH   2   3
HETATM    3  C   UNL     1     -10.369   5.099  72.550  1.00  0.00    -0.204 A  
HETATM    4  C   UNL     1      -9.045   5.456  72.177  1.00  0.00    -0.136 A  
HETATM    5  C   UNL     1     -11.429   6.035  72.392  1.00  0.00    -0.357 A  
HETATM    6  C   UNL     1      -8.789   6.751  71.725  1.00  0.00    -0.128 A  
HETATM    7  C   UNL     1     -11.121   7.296  71.918  1.00  0.00    -0.270 A  
HETATM    8  C   UNL     1      -9.828   7.639  71.680  1.00  0.00    -0.193 A  
HETATM    9  C   UNL     1     -10.115   9.091  71.391  1.00  0.00    -0.399 C  
HETATM   10  C   UNL     1     -11.639   8.623  71.411  1.00  0.00    -0.354 C  
BRANCH   4  11
HETATM   11  O   UNL     1      -8.037   4.530  72.222  1.00  0.00    -0.097 OA 
HETATM   12  C   UNL     1      -7.858   3.734  71.052  1.00  0.00    -0.062 C  
ENDBRANCH   4  11
BRANCH   9  13
HETATM   13  C   UNL     1      -9.213   9.497  70.218  1.00  0.00    -0.258 C  
BRANCH  13  14
HETATM   14  N   UNL     1      -9.857   9.841  68.949  1.00  0.00    -0.166 NA 
HETATM   15  C   UNL     1     -10.380   8.666  68.272  1.00  0.00    -0.207 C  
BRANCH  14  16
HETATM   16  C   UNL     1     -10.762  10.994  69.035  1.00  0.00    -0.219 C  
BRANCH  16  17
HETATM   17  C   UNL     1     -11.616  11.140  67.779  1.00  0.00    -0.303 C  
BRANCH  17  18
HETATM   18  C   UNL     1     -10.872  11.803  66.612  1.00  0.00    -0.276 C  
BRANCH  18  19
HETATM   19  N   UNL     1     -10.610  13.207  66.939  1.00  0.00    -0.261 N  
HETATM   20  C   UNL     1      -9.215  13.615  67.062  1.00  0.00    -0.250 C  
HETATM   21  C   UNL     1      -8.903  14.178  68.438  1.00  0.00    -0.187 C  
HETATM   22  C   UNL     1      -9.186  15.654  68.416  1.00  0.00    -0.191 A  
HETATM   23  C   UNL     1      -8.120  16.541  68.614  1.00  0.00    -0.233 A  
HETATM   24  C   UNL     1      -8.307  17.921  68.550  1.00  0.00    -0.300 A  
HETATM   25  C   UNL     1      -9.588  18.431  68.276  1.00  0.00    -0.334 A  
HETATM   26  O   UNL     1     -12.651  13.945  66.221  1.00  0.00    -0.435 OA 
HETATM   27  C   UNL     1     -11.647  14.128  66.916  1.00  0.00    -0.391 C  
HETATM   28  C   UNL     1     -10.654  17.539  68.073  1.00  0.00    -0.384 A  
HETATM   29  C   UNL     1     -11.654  15.223  67.977  1.00  0.00    -0.325 C  
HETATM   30  C   UNL     1     -10.466  16.145  68.126  1.00  0.00    -0.279 A  
BRANCH  24  31
HETATM   31  O   UNL     1      -7.283  18.825  68.703  1.00  0.00    -0.283 OA 
HETATM   32  C   UNL     1      -6.310  18.859  67.665  1.00  0.00    -0.205 C  
ENDBRANCH  24  31
BRANCH  25  33
HETATM   33  O   UNL     1      -9.700  19.798  68.237  1.00  0.00    -0.366 OA 
HETATM   34  C   UNL     1      -9.962  20.399  66.976  1.00  0.00    -0.428 C  
ENDBRANCH  25  33
ENDBRANCH  18  19
ENDBRANCH  17  18
ENDBRANCH  16  17
ENDBRANCH  14  16
ENDBRANCH  13  14
ENDBRANCH   9  13
ENDBRANCH   2   3
TORSDOF 10
ENDMDL
MODEL      113
REMARK 921   NORMALIZED FREE ENERGY PREDICTED BY IDOCK:   -4.87 KCAL/MOL
REMARK 922        TOTAL FREE ENERGY PREDICTED BY IDOCK:   -9.69 KCAL/MOL
REMARK 923 INTER-LIGAND FREE ENERGY PREDICTED BY IDOCK:   -7.74 KCAL/MOL
REMARK 924 INTRA-LIGAND FREE ENERGY PREDICTED BY IDOCK:   -1.95 KCAL/MOL
REMARK 927      BINDING AFFINITY PREDICTED BY RF-SCORE:    0.00 PKD
ROOT
HETATM    1  C   UNL     1      -5.148  11.462  70.462  1.00  0.00    -0.096 C  
HETATM    2  O   UNL     1      -6.252  12.326  70.710  1.00  0.00    -0.189 OA 
ENDROOT
BRANCH   2   3
HETATM    3  C   UNL     1      -6.660  13.147  69.689  1.00  0.00     0.010 A  
HETATM    4  C   UNL     1      -7.147  12.757  68.413  1.00  0.00    -0.102 A  
HETATM    5  C   UNL     1      -6.563  14.527  70.022  1.00  0.00    -0.140 A  
HETATM    6  C   UNL     1      -7.459  13.738  67.471  1.00  0.00    -0.182 A  
HETATM    7  C   UNL     1      -6.908  15.456  69.059  1.00  0.00    -0.136 A  
HETATM    8  C   UNL     1      -7.261  15.048  67.811  1.00  0.00    -0.186 A  
HETATM    9  C   UNL     1      -7.324  16.433  67.219  1.00  0.00    -0.209 C  
HETATM   10  C   UNL     1      -7.173  16.909  68.733  1.00  0.00    -0.220 C  
BRANCH   4  11
HETATM   11  O   UNL     1      -7.347  11.433  68.120  1.00  0.00    -0.084 OA 
HETATM   12  C   UNL     1      -6.350  10.808  67.313  1.00  0.00    -0.065 C  
ENDBRANCH   4  11
BRANCH   9  13
HETATM   13  C   UNL     1      -8.539  16.461  66.282  1.00  0.00    -0.340 C  
BRANCH  13  14
HETATM   14  N   UNL     1      -9.690  17.273  66.682  1.00  0.00    -0.275 NA 
HETATM   15  C   UNL     1      -9.496  18.678  66.369  1.00  0.00    -0.311 C  
BRANCH  14  16
HETATM   16  C   UNL     1     -10.985  16.697  66.297  1.00  0.00     0.123 C  
BRANCH  16  17
HETATM   17  C   UNL     1     -10.941  16.084  64.900  1.00  0.00    -0.399 C  
BRANCH  17  18
HETATM   18  C   UNL     1     -12.079  15.089  64.637  1.00  0.00    -0.323 C  
BRANCH  18  19
HETATM   19  N   UNL     1     -11.754  13.803  65.261  1.00  0.00    -0.326 N  
HETATM   20  C   UNL     1     -12.156  13.614  66.650  1.00  0.00    -0.411 C  
HETATM   21  C   UNL     1     -10.970  13.324  67.554  1.00  0.00    -0.281 C  
HETATM   22  C   UNL     1     -10.740  11.839  67.565  1.00  0.00    -0.262 A  
HETATM   23  C   UNL     1     -10.898  11.149  68.773  1.00  0.00    -0.256 A  
HETATM   24  C   UNL     1     -10.754   9.763  68.838  1.00  0.00    -0.217 A  
HETATM   25  C   UNL     1     -10.449   9.047  67.668  1.00  0.00    -0.260 A  
HETATM   26  O   UNL     1     -11.531  12.690  63.276  1.00  0.00    -0.483 OA 
HETATM   27  C   UNL     1     -11.278  12.758  64.482  1.00  0.00    -0.333 C  
HETATM   28  C   UNL     1     -10.295   9.741  66.457  1.00  0.00    -0.262 A  
HETATM   29  C   UNL     1     -10.203  11.855  65.079  1.00  0.00    -0.316 C  
HETATM   30  C   UNL     1     -10.452  11.138  66.386  1.00  0.00    -0.311 A  
BRANCH  24  31
HETATM   31  O   UNL     1     -10.936   9.043  69.994  1.00  0.00    -0.235 OA 
HETATM   32  C   UNL     1     -11.158   9.798  71.181  1.00  0.00    -0.344 C  
ENDBRANCH  24  31
BRANCH  25  33
HETATM   33  O   UNL     1     -10.313   7.688  67.807  1.00  0.00    -0.194 OA 
HETATM   34  C   UNL     1      -9.034   7.126  67.548  1.00  0.00    -0.121 C  
ENDBRANCH  25  33
ENDBRANCH  18  19
ENDBRANCH  17  18
ENDBRANCH  16  17
ENDBRANCH  14  16
ENDBRANCH  13  14
ENDBRANCH   9  13
ENDBRANCH   2   3
TORSDOF 10
ENDMDL
MODEL      114
REMARK 921   NORMALIZED FREE ENERGY PREDICTED BY IDOCK:   -4.87 KCAL/MOL
REMARK 922        TOTAL FREE ENERGY PREDICTED BY IDOCK:   -9.68 KCAL/MOL
REMARK 923 INTER-LIGAND FREE ENERGY PREDICTED BY IDOCK:   -8.58 KCAL/MOL
REMARK 924 INTRA-LIGAND FREE ENERGY PREDICTED BY IDOCK:   -1.10 KCAL/MOL
REMARK 927      BINDING AFFINITY PREDICTED BY RF-SCORE:    0.00 PKD
ROOT
HETATM    1  C   UNL     1      -8.135   7.974  71.414  1.00  0.00    -0.107 C  
HETATM    2  O   UNL     1      -9.369   7.713  70.752  1.00  0.00    -0.161 OA 
ENDROOT
BRANCH   2   3
HETATM    3  C   UNL     1      -9.511   8.172  69.468  1.00  0.00    -0.156 A  
HETATM    4  C   UNL     1     -10.387   7.672  68.467  1.00  0.00    -0.198 A  
HETATM    5  C   UNL     1      -8.663   9.277  69.181  1.00  0.00    -0.139 A  
HETATM    6  C   UNL     1     -10.351   8.227  67.188  1.00  0.00    -0.387 A  
HETATM    7  C   UNL     1      -8.685   9.804  67.904  1.00  0.00    -0.125 A  
HETATM    8  C   UNL     1      -9.452   9.227  66.941  1.00  0.00    -0.211 A  
HETATM    9  C   UNL     1      -8.930  10.080  65.812  1.00  0.00    -0.187 C  
HETATM   10  C   UNL     1      -8.242  10.917  66.981  1.00  0.00    -0.134 C  
BRANCH   4  11
HETATM   11  O   UNL     1     -11.285   6.680  68.762  1.00  0.00    -0.248 OA 
HETATM   12  C   UNL     1     -10.741   5.470  69.287  1.00  0.00    -0.217 C  
ENDBRANCH   4  11
BRANCH   9  13
HETATM   13  C   UNL     1     -10.131  10.417  64.918  1.00  0.00    -0.312 C  
BRANCH  13  14
HETATM   14  N   UNL     1     -10.537  11.821  64.824  1.00  0.00    -0.286 NA 
HETATM   15  C   UNL     1     -10.414  12.330  63.468  1.00  0.00    -0.424 C  
BRANCH  14  16
HETATM   16  C   UNL     1     -11.796  12.123  65.516  1.00  0.00    -0.286 C  
BRANCH  16  17
HETATM   17  C   UNL     1     -11.565  12.949  66.778  1.00  0.00    -0.416 C  
BRANCH  17  18
HETATM   18  C   UNL     1     -12.159  14.361  66.697  1.00  0.00    -0.367 C  
BRANCH  18  19
HETATM   19  N   UNL     1     -11.077  15.347  66.758  1.00  0.00    -0.287 N  
HETATM   20  C   UNL     1     -10.233  15.340  67.948  1.00  0.00    -0.235 C  
HETATM   21  C   UNL     1     -10.265  16.670  68.680  1.00  0.00    -0.284 C  
HETATM   22  C   UNL     1      -9.197  17.553  68.098  1.00  0.00    -0.277 A  
HETATM   23  C   UNL     1      -8.140  17.954  68.926  1.00  0.00    -0.161 A  
HETATM   24  C   UNL     1      -7.089  18.725  68.432  1.00  0.00    -0.265 A  
HETATM   25  C   UNL     1      -7.089  19.103  67.079  1.00  0.00    -0.203 A  
HETATM   26  O   UNL     1     -11.011  15.685  64.498  1.00  0.00    -0.378 OA 
HETATM   27  C   UNL     1     -10.761  16.097  65.635  1.00  0.00    -0.310 C  
HETATM   28  C   UNL     1      -8.147  18.696  66.251  1.00  0.00    -0.267 A  
HETATM   29  C   UNL     1     -10.361  17.555  65.838  1.00  0.00    -0.265 C  
HETATM   30  C   UNL     1      -9.203  17.907  66.743  1.00  0.00    -0.278 A  
BRANCH  24  31
HETATM   31  O   UNL     1      -6.015  19.110  69.199  1.00  0.00    -0.221 OA 
HETATM   32  C   UNL     1      -6.268  20.104  70.186  1.00  0.00    -0.352 C  
ENDBRANCH  24  31
BRANCH  25  33
HETATM   33  O   UNL     1      -6.028  19.869  66.663  1.00  0.00    -0.172 OA 
HETATM   34  C   UNL     1      -6.263  21.254  66.444  1.00  0.00    -0.262 C  
ENDBRANCH  25  33
ENDBRANCH  18  19
ENDBRANCH  17  18
ENDBRANCH  16  17
ENDBRANCH  14  16
ENDBRANCH  13  14
ENDBRANCH   9  13
ENDBRANCH   2   3
TORSDOF 10
ENDMDL
MODEL      115
REMARK 921   NORMALIZED FREE ENERGY PREDICTED BY IDOCK:   -4.85 KCAL/MOL
REMARK 922        TOTAL FREE ENERGY PREDICTED BY IDOCK:   -9.66 KCAL/MOL
REMARK 923 INTER-LIGAND FREE ENERGY PREDICTED BY IDOCK:   -7.41 KCAL/MOL
REMARK 924 INTRA-LIGAND FREE ENERGY PREDICTED BY IDOCK:   -2.25 KCAL/MOL
REMARK 927      BINDING AFFINITY PREDICTED BY RF-SCORE:    0.00 PKD
ROOT
HETATM    1  C   UNL     1      -9.761  11.473  65.304  1.00  0.00    -0.238 C  
HETATM    2  O   UNL     1      -9.375  10.924  66.561  1.00  0.00    -0.167 OA 
ENDROOT
BRANCH   2   3
HETATM    3  C   UNL     1      -9.107   9.580  66.612  1.00  0.00    -0.148 A  
HETATM    4  C   UNL     1      -7.830   8.957  66.652  1.00  0.00    -0.100 A  
HETATM    5  C   UNL     1     -10.286   8.785  66.635  1.00  0.00    -0.298 A  
HETATM    6  C   UNL     1      -7.749   7.564  66.640  1.00  0.00    -0.101 A  
HETATM    7  C   UNL     1     -10.147   7.410  66.647  1.00  0.00    -0.253 A  
HETATM    8  C   UNL     1      -8.912   6.848  66.568  1.00  0.00    -0.166 A  
HETATM    9  C   UNL     1      -9.407   5.430  66.437  1.00  0.00    -0.157 C  
HETATM   10  C   UNL     1     -10.824   6.066  66.794  1.00  0.00    -0.356 C  
BRANCH   4  11
HETATM   11  O   UNL     1      -6.691   9.712  66.740  1.00  0.00    -0.073 OA 
HETATM   12  C   UNL     1      -5.956   9.891  65.531  1.00  0.00    -0.076 C  
ENDBRANCH   4  11
BRANCH   9  13
HETATM   13  C   UNL     1      -8.469   4.552  67.277  1.00  0.00    -0.104 C  
BRANCH  13  14
HETATM   14  N   UNL     1      -9.061   3.442  68.025  1.00  0.00    -0.145 NA 
HETATM   15  C   UNL     1      -8.982   2.191  67.290  1.00  0.00    -0.144 C  
BRANCH  14  16
HETATM   16  C   UNL     1      -8.654   3.391  69.435  1.00  0.00    -0.069 C  
BRANCH  16  17
HETATM   17  C   UNL     1      -9.725   3.970  70.356  1.00  0.00    -0.263 C  
BRANCH  17  18
HETATM   18  C   UNL     1      -9.161   4.920  71.420  1.00  0.00    -0.145 C  
BRANCH  18  19
HETATM   19  N   UNL     1      -9.856   6.208  71.338  1.00  0.00    -0.174 N  
HETATM   20  C   UNL     1      -9.734   6.954  70.091  1.00  0.00    -0.171 C  
HETATM   21  C   UNL     1      -9.118   8.326  70.304  1.00  0.00    -0.150 C  
HETATM   22  C   UNL     1     -10.225   9.295  70.612  1.00  0.00    -0.335 A  
HETATM   23  C   UNL     1     -10.461  10.345  69.716  1.00  0.00    -0.284 A  
HETATM   24  C   UNL     1     -11.508  11.245  69.915  1.00  0.00    -0.293 A  
HETATM   25  C   UNL     1     -12.344  11.090  71.035  1.00  0.00    -0.385 A  
HETATM   26  O   UNL     1     -11.328   5.728  73.020  1.00  0.00    -0.268 OA 
HETATM   27  C   UNL     1     -10.751   6.575  72.332  1.00  0.00    -0.224 C  
HETATM   28  C   UNL     1     -12.108  10.034  71.929  1.00  0.00    -0.186 A  
HETATM   29  C   UNL     1     -10.792   8.041  72.751  1.00  0.00    -0.438 C  
HETATM   30  C   UNL     1     -11.059   9.118  71.724  1.00  0.00    -0.437 A  
BRANCH  24  31
HETATM   31  O   UNL     1     -11.797  12.266  69.043  1.00  0.00    -0.306 OA 
HETATM   32  C   UNL     1     -10.713  13.115  68.683  1.00  0.00    -0.250 C  
ENDBRANCH  24  31
BRANCH  25  33
HETATM   33  O   UNL     1     -13.348  12.015  71.173  1.00  0.00    -0.009 OA 
HETATM   34  C   UNL     1     -13.300  12.873  72.306  1.00  0.00    -0.494 C  
ENDBRANCH  25  33
ENDBRANCH  18  19
ENDBRANCH  17  18
ENDBRANCH  16  17
ENDBRANCH  14  16
ENDBRANCH  13  14
ENDBRANCH   9  13
ENDBRANCH   2   3
TORSDOF 10
ENDMDL
MODEL      116
REMARK 921   NORMALIZED FREE ENERGY PREDICTED BY IDOCK:   -4.85 KCAL/MOL
REMARK 922        TOTAL FREE ENERGY PREDICTED BY IDOCK:   -9.65 KCAL/MOL
REMARK 923 INTER-LIGAND FREE ENERGY PREDICTED BY IDOCK:   -7.64 KCAL/MOL
REMARK 924 INTRA-LIGAND FREE ENERGY PREDICTED BY IDOCK:   -2.00 KCAL/MOL
REMARK 927      BINDING AFFINITY PREDICTED BY RF-SCORE:    0.00 PKD
ROOT
HETATM    1  C   UNL     1      -7.727   7.422  63.784  1.00  0.00    -0.125 C  
HETATM    2  O   UNL     1      -8.149   6.302  64.556  1.00  0.00    -0.124 OA 
ENDROOT
BRANCH   2   3
HETATM    3  C   UNL     1      -8.085   6.409  65.922  1.00  0.00    -0.124 A  
HETATM    4  C   UNL     1      -8.960   5.821  66.874  1.00  0.00    -0.114 A  
HETATM    5  C   UNL     1      -6.991   7.206  66.360  1.00  0.00    -0.069 A  
HETATM    6  C   UNL     1      -8.777   6.092  68.230  1.00  0.00    -0.113 A  
HETATM    7  C   UNL     1      -6.842   7.422  67.717  1.00  0.00    -0.074 A  
HETATM    8  C   UNL     1      -7.765   6.938  68.590  1.00  0.00    -0.113 A  
HETATM    9  C   UNL     1      -7.188   7.624  69.803  1.00  0.00    -0.079 C  
HETATM   10  C   UNL     1      -5.973   7.965  68.829  1.00  0.00    -0.035 C  
BRANCH   4  11
HETATM   11  O   UNL     1      -9.951   4.965  66.471  1.00  0.00    -0.183 OA 
HETATM   12  C   UNL     1      -9.588   3.590  66.350  1.00  0.00    -0.094 C  
ENDBRANCH   4  11
BRANCH   9  13
HETATM   13  C   UNL     1      -7.284   6.626  70.965  1.00  0.00    -0.078 C  
BRANCH  13  14
HETATM   14  N   UNL     1      -7.962   7.065  72.186  1.00  0.00    -0.093 NA 
HETATM   15  C   UNL     1      -7.203   8.085  72.890  1.00  0.00    -0.103 C  
BRANCH  14  16
HETATM   16  C   UNL     1      -9.394   7.333  72.007  1.00  0.00    -0.133 C  
BRANCH  16  17
HETATM   17  C   UNL     1      -9.686   8.829  71.931  1.00  0.00    -0.386 C  
BRANCH  17  18
HETATM   18  C   UNL     1     -11.171   9.148  71.709  1.00  0.00    -0.381 C  
BRANCH  18  19
HETATM   19  N   UNL     1     -11.330   9.860  70.439  1.00  0.00    -0.286 N  
HETATM   20  C   UNL     1     -10.853   9.191  69.234  1.00  0.00    -0.132 C  
HETATM   21  C   UNL     1      -9.788  10.000  68.514  1.00  0.00    -0.168 C  
HETATM   22  C   UNL     1     -10.475  10.932  67.555  1.00  0.00    -0.252 A  
HETATM   23  C   UNL     1     -10.241  10.770  66.184  1.00  0.00    -0.308 A  
HETATM   24  C   UNL     1     -10.890  11.565  65.240  1.00  0.00    -0.259 A  
HETATM   25  C   UNL     1     -11.800  12.545  65.675  1.00  0.00    -0.438 A  
HETATM   26  O   UNL     1     -12.989  11.233  71.206  1.00  0.00    -0.381 OA 
HETATM   27  C   UNL     1     -12.092  11.018  70.386  1.00  0.00    -0.373 C  
HETATM   28  C   UNL     1     -12.036  12.702  67.050  1.00  0.00    -0.330 A  
HETATM   29  C   UNL     1     -11.615  12.146  69.477  1.00  0.00    -0.382 C  
HETATM   30  C   UNL     1     -11.391  11.893  68.004  1.00  0.00    -0.352 A  
BRANCH  24  31
HETATM   31  O   UNL     1     -10.717  11.416  63.886  1.00  0.00    -0.350 OA 
HETATM   32  C   UNL     1      -9.559  10.699  63.472  1.00  0.00    -0.323 C  
ENDBRANCH  24  31
BRANCH  25  33
HETATM   33  O   UNL     1     -12.396  13.297  64.693  1.00  0.00    -0.432 OA 
HETATM   34  C   UNL     1     -11.916  14.620  64.497  1.00  0.00    -0.460 C  
ENDBRANCH  25  33
ENDBRANCH  18  19
ENDBRANCH  17  18
ENDBRANCH  16  17
ENDBRANCH  14  16
ENDBRANCH  13  14
ENDBRANCH   9  13
ENDBRANCH   2   3
TORSDOF 10
ENDMDL
MODEL      117
REMARK 921   NORMALIZED FREE ENERGY PREDICTED BY IDOCK:   -4.85 KCAL/MOL
REMARK 922        TOTAL FREE ENERGY PREDICTED BY IDOCK:   -9.65 KCAL/MOL
REMARK 923 INTER-LIGAND FREE ENERGY PREDICTED BY IDOCK:   -8.62 KCAL/MOL
REMARK 924 INTRA-LIGAND FREE ENERGY PREDICTED BY IDOCK:   -1.03 KCAL/MOL
REMARK 927      BINDING AFFINITY PREDICTED BY RF-SCORE:    0.00 PKD
ROOT
HETATM    1  C   UNL     1     -10.436  18.887  66.080  1.00  0.00    -0.446 C  
HETATM    2  O   UNL     1      -9.376  17.939  66.162  1.00  0.00    -0.466 OA 
ENDROOT
BRANCH   2   3
HETATM    3  C   UNL     1      -9.679  16.623  65.924  1.00  0.00    -0.237 A  
HETATM    4  C   UNL     1      -9.002  15.479  66.426  1.00  0.00    -0.324 A  
HETATM    5  C   UNL     1     -10.814  16.464  65.082  1.00  0.00    -0.289 A  
HETATM    6  C   UNL     1      -9.417  14.209  66.026  1.00  0.00    -0.189 A  
HETATM    7  C   UNL     1     -11.196  15.181  64.736  1.00  0.00    -0.396 A  
HETATM    8  C   UNL     1     -10.456  14.116  65.142  1.00  0.00    -0.422 A  
HETATM    9  C   UNL     1     -11.223  13.095  64.339  1.00  0.00    -0.403 C  
HETATM   10  C   UNL     1     -12.236  14.298  64.083  1.00  0.00    -0.410 C  
BRANCH   4  11
HETATM   11  O   UNL     1      -7.976  15.617  67.324  1.00  0.00    -0.161 OA 
HETATM   12  C   UNL     1      -7.850  14.586  68.302  1.00  0.00    -0.131 C  
ENDBRANCH   4  11
BRANCH   9  13
HETATM   13  C   UNL     1     -11.360  11.847  65.222  1.00  0.00    -0.275 C  
BRANCH  13  14
HETATM   14  N   UNL     1     -10.513  10.695  64.910  1.00  0.00    -0.280 NA 
HETATM   15  C   UNL     1      -9.917  10.802  63.589  1.00  0.00    -0.345 C  
BRANCH  14  16
HETATM   16  C   UNL     1      -9.607  10.311  65.999  1.00  0.00    -0.206 C  
BRANCH  16  17
HETATM   17  C   UNL     1     -10.135   9.110  66.781  1.00  0.00    -0.341 C  
BRANCH  17  18
HETATM   18  C   UNL     1     -10.971   9.503  68.006  1.00  0.00    -0.096 C  
BRANCH  18  19
HETATM   19  N   UNL     1     -10.530   8.725  69.165  1.00  0.00    -0.224 N  
HETATM   20  C   UNL     1     -10.756   7.284  69.129  1.00  0.00    -0.185 C  
HETATM   21  C   UNL     1     -11.625   6.813  70.282  1.00  0.00    -0.417 C  
HETATM   22  C   UNL     1     -10.729   6.500  71.448  1.00  0.00    -0.280 A  
HETATM   23  C   UNL     1     -10.671   5.179  71.909  1.00  0.00    -0.219 A  
HETATM   24  C   UNL     1      -9.817   4.814  72.949  1.00  0.00    -0.151 A  
HETATM   25  C   UNL     1      -8.998   5.789  73.542  1.00  0.00    -0.128 A  
HETATM   26  O   UNL     1      -9.039  10.301  69.886  1.00  0.00    -0.143 OA 
HETATM   27  C   UNL     1      -9.747   9.323  70.142  1.00  0.00    -0.218 C  
HETATM   28  C   UNL     1      -9.054   7.112  73.075  1.00  0.00    -0.166 A  
HETATM   29  C   UNL     1      -9.993   8.930  71.595  1.00  0.00    -0.397 C  
HETATM   30  C   UNL     1      -9.906   7.481  72.017  1.00  0.00    -0.200 A  
BRANCH  24  31
HETATM   31  O   UNL     1      -9.703   3.524  73.408  1.00  0.00    -0.106 OA 
HETATM   32  C   UNL     1     -10.842   2.985  74.070  1.00  0.00    -0.186 C  
ENDBRANCH  24  31
BRANCH  25  33
HETATM   33  O   UNL     1      -8.189   5.361  74.566  1.00  0.00    -0.103 OA 
HETATM   34  C   UNL     1      -6.784   5.415  74.360  1.00  0.00    -0.077 C  
ENDBRANCH  25  33
ENDBRANCH  18  19
ENDBRANCH  17  18
ENDBRANCH  16  17
ENDBRANCH  14  16
ENDBRANCH  13  14
ENDBRANCH   9  13
ENDBRANCH   2   3
TORSDOF 10
ENDMDL
MODEL      118
REMARK 921   NORMALIZED FREE ENERGY PREDICTED BY IDOCK:   -4.84 KCAL/MOL
REMARK 922        TOTAL FREE ENERGY PREDICTED BY IDOCK:   -9.64 KCAL/MOL
REMARK 923 INTER-LIGAND FREE ENERGY PREDICTED BY IDOCK:   -6.62 KCAL/MOL
REMARK 924 INTRA-LIGAND FREE ENERGY PREDICTED BY IDOCK:   -3.01 KCAL/MOL
REMARK 927      BINDING AFFINITY PREDICTED BY RF-SCORE:    0.00 PKD
ROOT
HETATM    1  C   UNL     1      -7.913  13.957  67.526  1.00  0.00    -0.179 C  
HETATM    2  O   UNL     1      -6.777  13.174  67.173  1.00  0.00    -0.152 OA 
ENDROOT
BRANCH   2   3
HETATM    3  C   UNL     1      -6.744  11.871  67.598  1.00  0.00    -0.105 A  
HETATM    4  C   UNL     1      -6.524  10.711  66.807  1.00  0.00    -0.086 A  
HETATM    5  C   UNL     1      -6.954  11.744  68.999  1.00  0.00    -0.107 A  
HETATM    6  C   UNL     1      -6.588   9.453  67.405  1.00  0.00    -0.064 A  
HETATM    7  C   UNL     1      -6.984  10.474  69.544  1.00  0.00    -0.114 A  
HETATM    8  C   UNL     1      -6.883   9.384  68.738  1.00  0.00    -0.053 A  
HETATM    9  C   UNL     1      -7.161   8.376  69.825  1.00  0.00    -0.051 C  
HETATM   10  C   UNL     1      -7.013   9.630  70.798  1.00  0.00    -0.087 C  
BRANCH   4  11
HETATM   11  O   UNL     1      -6.213  10.826  65.477  1.00  0.00    -0.117 OA 
HETATM   12  C   UNL     1      -6.954   9.999  64.581  1.00  0.00    -0.137 C  
ENDBRANCH   4  11
BRANCH   9  13
HETATM   13  C   UNL     1      -6.219   7.189  69.581  1.00  0.00    -0.034 C  
BRANCH  13  14
HETATM   14  N   UNL     1      -6.773   5.841  69.716  1.00  0.00    -0.050 NA 
HETATM   15  C   UNL     1      -6.784   5.395  71.098  1.00  0.00    -0.044 C  
BRANCH  14  16
HETATM   16  C   UNL     1      -8.014   5.630  68.959  1.00  0.00    -0.096 C  
BRANCH  16  17
HETATM   17  C   UNL     1      -9.209   5.400  69.880  1.00  0.00    -0.174 C  
BRANCH  17  18
HETATM   18  C   UNL     1     -10.561   5.598  69.182  1.00  0.00    -0.264 C  
BRANCH  18  19
HETATM   19  N   UNL     1     -10.802   7.029  68.986  1.00  0.00    -0.209 N  
HETATM   20  C   UNL     1     -10.898   7.508  67.611  1.00  0.00    -0.127 C  
HETATM   21  C   UNL     1      -9.852   8.564  67.298  1.00  0.00    -0.259 C  
HETATM   22  C   UNL     1     -10.420   9.908  67.658  1.00  0.00    -0.296 A  
HETATM   23  C   UNL     1     -10.615  10.845  66.635  1.00  0.00    -0.305 A  
HETATM   24  C   UNL     1     -11.190  12.089  66.894  1.00  0.00    -0.320 A  
HETATM   25  C   UNL     1     -11.584  12.405  68.205  1.00  0.00    -0.333 A  
HETATM   26  O   UNL     1     -11.663   7.358  71.078  1.00  0.00    -0.284 OA 
HETATM   27  C   UNL     1     -11.130   7.830  70.069  1.00  0.00    -0.175 C  
HETATM   28  C   UNL     1     -11.392  11.462  69.228  1.00  0.00    -0.355 A  
HETATM   29  C   UNL     1     -10.563   9.246  70.109  1.00  0.00    -0.266 C  
HETATM   30  C   UNL     1     -10.823  10.202  68.967  1.00  0.00    -0.257 A  
BRANCH  24  31
HETATM   31  O   UNL     1     -11.432  13.022  65.915  1.00  0.00    -0.313 OA 
HETATM   32  C   UNL     1     -12.509  12.742  65.027  1.00  0.00    -0.506 C  
ENDBRANCH  24  31
BRANCH  25  33
HETATM   33  O   UNL     1     -12.135  13.649  68.389  1.00  0.00    -0.361 OA 
HETATM   34  C   UNL     1     -12.266  14.119  69.724  1.00  0.00    -0.344 C  
ENDBRANCH  25  33
ENDBRANCH  18  19
ENDBRANCH  17  18
ENDBRANCH  16  17
ENDBRANCH  14  16
ENDBRANCH  13  14
ENDBRANCH   9  13
ENDBRANCH   2   3
TORSDOF 10
ENDMDL
MODEL      119
REMARK 921   NORMALIZED FREE ENERGY PREDICTED BY IDOCK:   -4.83 KCAL/MOL
REMARK 922        TOTAL FREE ENERGY PREDICTED BY IDOCK:   -9.62 KCAL/MOL
REMARK 923 INTER-LIGAND FREE ENERGY PREDICTED BY IDOCK:   -8.15 KCAL/MOL
REMARK 924 INTRA-LIGAND FREE ENERGY PREDICTED BY IDOCK:   -1.47 KCAL/MOL
REMARK 927      BINDING AFFINITY PREDICTED BY RF-SCORE:    0.00 PKD
ROOT
HETATM    1  C   UNL     1      -6.191   8.107  66.289  1.00  0.00    -0.046 C  
HETATM    2  O   UNL     1      -6.407   6.736  66.613  1.00  0.00    -0.039 OA 
ENDROOT
BRANCH   2   3
HETATM    3  C   UNL     1      -7.122   6.456  67.749  1.00  0.00    -0.085 A  
HETATM    4  C   UNL     1      -8.492   6.089  67.836  1.00  0.00    -0.115 A  
HETATM    5  C   UNL     1      -6.337   6.555  68.931  1.00  0.00    -0.035 A  
HETATM    6  C   UNL     1      -9.071   5.900  69.091  1.00  0.00    -0.125 A  
HETATM    7  C   UNL     1      -6.956   6.334  70.147  1.00  0.00    -0.066 A  
HETATM    8  C   UNL     1      -8.293   6.098  70.199  1.00  0.00    -0.128 A  
HETATM    9  C   UNL     1      -8.387   6.132  71.703  1.00  0.00    -0.126 C  
HETATM   10  C   UNL     1      -6.794   6.142  71.638  1.00  0.00    -0.068 C  
BRANCH   4  11
HETATM   11  O   UNL     1      -9.230   5.885  66.700  1.00  0.00    -0.131 OA 
HETATM   12  C   UNL     1     -10.558   6.407  66.706  1.00  0.00    -0.258 C  
ENDBRANCH   4  11
BRANCH   9  13
HETATM   13  C   UNL     1      -9.360   5.018  72.113  1.00  0.00    -0.136 C  
BRANCH  13  14
HETATM   14  N   UNL     1     -10.707   5.410  72.533  1.00  0.00    -0.226 NA 
HETATM   15  C   UNL     1     -11.296   4.438  73.438  1.00  0.00    -0.261 C  
BRANCH  14  16
HETATM   16  C   UNL     1     -10.818   6.818  72.934  1.00  0.00    -0.272 C  
BRANCH  16  17
HETATM   17  C   UNL     1     -11.915   7.544  72.160  1.00  0.00    -0.323 C  
BRANCH  17  18
HETATM   18  C   UNL     1     -11.523   7.871  70.713  1.00  0.00    -0.263 C  
BRANCH  18  19
HETATM   19  N   UNL     1     -11.532   9.324  70.524  1.00  0.00    -0.265 N  
HETATM   20  C   UNL     1     -11.935  10.143  71.662  1.00  0.00    -0.229 C  
HETATM   21  C   UNL     1     -13.146  11.004  71.346  1.00  0.00    -0.441 C  
HETATM   22  C   UNL     1     -12.660  12.302  70.763  1.00  0.00    -0.302 A  
HETATM   23  C   UNL     1     -12.915  13.485  71.467  1.00  0.00    -0.440 A  
HETATM   24  C   UNL     1     -12.443  14.715  71.009  1.00  0.00    -0.329 A  
HETATM   25  C   UNL     1     -11.694  14.764  69.821  1.00  0.00    -0.310 A  
HETATM   26  O   UNL     1     -10.098   9.285  68.744  1.00  0.00    -0.182 OA 
HETATM   27  C   UNL     1     -10.976   9.876  69.380  1.00  0.00    -0.230 C  
HETATM   28  C   UNL     1     -11.436  13.576  69.119  1.00  0.00    -0.345 A  
HETATM   29  C   UNL     1     -11.668  11.087  68.761  1.00  0.00    -0.383 C  
HETATM   30  C   UNL     1     -11.901  12.332  69.586  1.00  0.00    -0.393 A  
BRANCH  24  31
HETATM   31  O   UNL     1     -12.639  15.894  71.686  1.00  0.00    -0.442 OA 
HETATM   32  C   UNL     1     -13.627  15.878  72.711  1.00  0.00    -0.510 C  
ENDBRANCH  24  31
BRANCH  25  33
HETATM   33  O   UNL     1     -11.268  16.008  69.424  1.00  0.00    -0.305 OA 
HETATM   34  C   UNL     1     -10.961  16.190  68.049  1.00  0.00    -0.338 C  
ENDBRANCH  25  33
ENDBRANCH  18  19
ENDBRANCH  17  18
ENDBRANCH  16  17
ENDBRANCH  14  16
ENDBRANCH  13  14
ENDBRANCH   9  13
ENDBRANCH   2   3
TORSDOF 10
ENDMDL
MODEL      120
REMARK 921   NORMALIZED FREE ENERGY PREDICTED BY IDOCK:   -4.83 KCAL/MOL
REMARK 922        TOTAL FREE ENERGY PREDICTED BY IDOCK:   -9.62 KCAL/MOL
REMARK 923 INTER-LIGAND FREE ENERGY PREDICTED BY IDOCK:   -8.60 KCAL/MOL
REMARK 924 INTRA-LIGAND FREE ENERGY PREDICTED BY IDOCK:   -1.02 KCAL/MOL
REMARK 927      BINDING AFFINITY PREDICTED BY RF-SCORE:    0.00 PKD
ROOT
HETATM    1  C   UNL     1     -10.384  12.449  63.557  1.00  0.00    -0.362 C  
HETATM    2  O   UNL     1     -10.807  13.406  64.523  1.00  0.00    -0.365 OA 
ENDROOT
BRANCH   2   3
HETATM    3  C   UNL     1     -11.038  12.963  65.800  1.00  0.00    -0.284 A  
HETATM    4  C   UNL     1     -11.392  13.745  66.933  1.00  0.00    -0.328 A  
HETATM    5  C   UNL     1     -10.897  11.553  65.927  1.00  0.00    -0.316 A  
HETATM    6  C   UNL     1     -11.527  13.125  68.176  1.00  0.00    -0.349 A  
HETATM    7  C   UNL     1     -11.065  10.989  67.177  1.00  0.00    -0.333 A  
HETATM    8  C   UNL     1     -11.290  11.781  68.258  1.00  0.00    -0.343 A  
HETATM    9  C   UNL     1     -11.196  10.669  69.273  1.00  0.00    -0.332 C  
HETATM   10  C   UNL     1     -11.199   9.722  67.991  1.00  0.00    -0.059 C  
BRANCH   4  11
HETATM   11  O   UNL     1     -11.636  15.086  66.802  1.00  0.00    -0.312 OA 
HETATM   12  C   UNL     1     -10.830  15.956  67.595  1.00  0.00    -0.312 C  
ENDBRANCH   4  11
BRANCH   9  13
HETATM   13  C   UNL     1     -12.286  10.931  70.321  1.00  0.00    -0.348 C  
BRANCH  13  14
HETATM   14  N   UNL     1     -12.375  10.010  71.456  1.00  0.00    -0.395 NA 
HETATM   15  C   UNL     1     -13.571   9.187  71.393  1.00  0.00    -0.288 C  
BRANCH  14  16
HETATM   16  C   UNL     1     -11.121   9.307  71.751  1.00  0.00    -0.327 C  
BRANCH  16  17
HETATM   17  C   UNL     1     -11.369   7.871  72.206  1.00  0.00    -0.393 C  
BRANCH  17  18
HETATM   18  C   UNL     1     -10.078   7.071  72.422  1.00  0.00    -0.174 C  
BRANCH  18  19
HETATM   19  N   UNL     1      -9.817   6.241  71.243  1.00  0.00    -0.175 N  
HETATM   20  C   UNL     1      -9.992   6.865  69.936  1.00  0.00    -0.176 C  
HETATM   21  C   UNL     1     -11.029   6.143  69.093  1.00  0.00    -0.450 C  
HETATM   22  C   UNL     1     -10.334   5.054  68.325  1.00  0.00    -0.089 A  
HETATM   23  C   UNL     1     -10.317   5.131  66.927  1.00  0.00    -0.288 A  
HETATM   24  C   UNL     1      -9.642   4.183  66.158  1.00  0.00    -0.196 A  
HETATM   25  C   UNL     1      -8.963   3.133  66.801  1.00  0.00    -0.158 A  
HETATM   26  O   UNL     1      -8.516   4.733  72.366  1.00  0.00    -0.113 OA 
HETATM   27  C   UNL     1      -9.228   4.994  71.392  1.00  0.00    -0.146 C  
HETATM   28  C   UNL     1      -8.979   3.061  68.204  1.00  0.00    -0.190 A  
HETATM   29  C   UNL     1      -9.706   3.865  70.484  1.00  0.00    -0.247 C  
HETATM   30  C   UNL     1      -9.649   4.023  68.982  1.00  0.00    -0.223 A  
BRANCH  24  31
HETATM   31  O   UNL     1      -9.569   4.241  64.788  1.00  0.00    -0.161 OA 
HETATM   32  C   UNL     1     -10.721   3.803  64.075  1.00  0.00    -0.242 C  
ENDBRANCH  24  31
BRANCH  25  33
HETATM   33  O   UNL     1      -8.328   2.232  65.984  1.00  0.00    -0.086 OA 
HETATM   34  C   UNL     1      -6.907   2.211  66.008  1.00  0.00    -0.039 C  
ENDBRANCH  25  33
ENDBRANCH  18  19
ENDBRANCH  17  18
ENDBRANCH  16  17
ENDBRANCH  14  16
ENDBRANCH  13  14
ENDBRANCH   9  13
ENDBRANCH   2   3
TORSDOF 10
ENDMDL
MODEL      121
REMARK 921   NORMALIZED FREE ENERGY PREDICTED BY IDOCK:   -4.82 KCAL/MOL
REMARK 922        TOTAL FREE ENERGY PREDICTED BY IDOCK:   -9.60 KCAL/MOL
REMARK 923 INTER-LIGAND FREE ENERGY PREDICTED BY IDOCK:   -8.21 KCAL/MOL
REMARK 924 INTRA-LIGAND FREE ENERGY PREDICTED BY IDOCK:   -1.39 KCAL/MOL
REMARK 927      BINDING AFFINITY PREDICTED BY RF-SCORE:    0.00 PKD
ROOT
HETATM    1  C   UNL     1     -13.694   9.408  72.226  1.00  0.00    -0.426 C  
HETATM    2  O   UNL     1     -13.130   8.102  72.153  1.00  0.00    -0.304 OA 
ENDROOT
BRANCH   2   3
HETATM    3  C   UNL     1     -11.878   7.978  71.608  1.00  0.00    -0.289 A  
HETATM    4  C   UNL     1     -11.034   6.835  71.639  1.00  0.00    -0.235 A  
HETATM    5  C   UNL     1     -11.447   9.162  70.947  1.00  0.00    -0.357 A  
HETATM    6  C   UNL     1      -9.758   6.913  71.080  1.00  0.00    -0.177 A  
HETATM    7  C   UNL     1     -10.183   9.175  70.390  1.00  0.00    -0.268 A  
HETATM    8  C   UNL     1      -9.360   8.104  70.539  1.00  0.00    -0.159 A  
HETATM    9  C   UNL     1      -8.152   8.764  69.923  1.00  0.00    -0.109 C  
HETATM   10  C   UNL     1      -9.187   9.906  69.517  1.00  0.00    -0.238 C  
BRANCH   4  11
HETATM   11  O   UNL     1     -11.479   5.657  72.177  1.00  0.00    -0.258 OA 
HETATM   12  C   UNL     1     -10.501   4.633  72.354  1.00  0.00    -0.185 C  
ENDBRANCH   4  11
BRANCH   9  13
HETATM   13  C   UNL     1      -7.453   7.701  69.065  1.00  0.00    -0.095 C  
BRANCH  13  14
HETATM   14  N   UNL     1      -6.541   8.162  68.017  1.00  0.00    -0.056 NA 
HETATM   15  C   UNL     1      -5.270   8.608  68.564  1.00  0.00    -0.033 C  
BRANCH  14  16
HETATM   16  C   UNL     1      -6.466   7.266  66.857  1.00  0.00    -0.055 C  
BRANCH  16  17
HETATM   17  C   UNL     1      -7.700   7.386  65.966  1.00  0.00    -0.095 C  
BRANCH  17  18
HETATM   18  C   UNL     1      -7.460   8.230  64.708  1.00  0.00    -0.093 C  
BRANCH  18  19
HETATM   19  N   UNL     1      -8.347   9.396  64.728  1.00  0.00    -0.143 N  
HETATM   20  C   UNL     1      -8.744   9.911  66.034  1.00  0.00    -0.137 C  
HETATM   21  C   UNL     1     -10.251   9.895  66.221  1.00  0.00    -0.282 C  
HETATM   22  C   UNL     1     -10.803  11.192  65.698  1.00  0.00    -0.206 A  
HETATM   23  C   UNL     1     -11.433  12.059  66.599  1.00  0.00    -0.411 A  
HETATM   24  C   UNL     1     -11.917  13.301  66.189  1.00  0.00    -0.418 A  
HETATM   25  C   UNL     1     -11.763  13.690  64.846  1.00  0.00    -0.360 A  
HETATM   26  O   UNL     1      -7.817  10.065  62.607  1.00  0.00    -0.121 OA 
HETATM   27  C   UNL     1      -8.609  10.086  63.553  1.00  0.00    -0.208 C  
HETATM   28  C   UNL     1     -11.127  12.820  63.946  1.00  0.00    -0.477 A  
HETATM   29  C   UNL     1     -10.018  10.633  63.345  1.00  0.00    -0.329 C  
HETATM   30  C   UNL     1     -10.627  11.571  64.361  1.00  0.00    -0.392 A  
BRANCH  24  31
HETATM   31  O   UNL     1     -12.508  14.197  67.046  1.00  0.00    -0.325 OA 
HETATM   32  C   UNL     1     -12.102  14.131  68.408  1.00  0.00    -0.273 C  
ENDBRANCH  24  31
BRANCH  25  33
HETATM   33  O   UNL     1     -12.270  14.921  64.511  1.00  0.00    -0.456 OA 
HETATM   34  C   UNL     1     -11.346  15.986  64.337  1.00  0.00    -0.245 C  
ENDBRANCH  25  33
ENDBRANCH  18  19
ENDBRANCH  17  18
ENDBRANCH  16  17
ENDBRANCH  14  16
ENDBRANCH  13  14
ENDBRANCH   9  13
ENDBRANCH   2   3
TORSDOF 10
ENDMDL
MODEL      122
REMARK 921   NORMALIZED FREE ENERGY PREDICTED BY IDOCK:   -4.82 KCAL/MOL
REMARK 922        TOTAL FREE ENERGY PREDICTED BY IDOCK:   -9.60 KCAL/MOL
REMARK 923 INTER-LIGAND FREE ENERGY PREDICTED BY IDOCK:   -8.27 KCAL/MOL
REMARK 924 INTRA-LIGAND FREE ENERGY PREDICTED BY IDOCK:   -1.33 KCAL/MOL
REMARK 927      BINDING AFFINITY PREDICTED BY RF-SCORE:    0.00 PKD
ROOT
HETATM    1  C   UNL     1      -6.094   4.811  70.580  1.00  0.00    -0.018 C  
HETATM    2  O   UNL     1      -6.467   5.812  69.637  1.00  0.00    -0.038 OA 
ENDROOT
BRANCH   2   3
HETATM    3  C   UNL     1      -7.579   6.565  69.915  1.00  0.00    -0.100 A  
HETATM    4  C   UNL     1      -8.522   7.083  68.986  1.00  0.00    -0.129 A  
HETATM    5  C   UNL     1      -7.746   6.807  71.306  1.00  0.00    -0.093 A  
HETATM    6  C   UNL     1      -9.565   7.886  69.448  1.00  0.00    -0.160 A  
HETATM    7  C   UNL     1      -8.811   7.590  71.710  1.00  0.00    -0.131 A  
HETATM    8  C   UNL     1      -9.626   8.162  70.786  1.00  0.00    -0.185 A  
HETATM    9  C   UNL     1     -10.410   8.986  71.777  1.00  0.00    -0.407 C  
HETATM   10  C   UNL     1      -9.634   8.116  72.864  1.00  0.00    -0.345 C  
BRANCH   4  11
HETATM   11  O   UNL     1      -8.433   6.767  67.656  1.00  0.00    -0.121 OA 
HETATM   12  C   UNL     1      -9.380   7.395  66.793  1.00  0.00    -0.160 C  
ENDBRANCH   4  11
BRANCH   9  13
HETATM   13  C   UNL     1     -11.877   8.942  71.328  1.00  0.00    -0.310 C  
BRANCH  13  14
HETATM   14  N   UNL     1     -12.479  10.185  70.842  1.00  0.00    -0.338 NA 
HETATM   15  C   UNL     1     -13.160  10.907  71.902  1.00  0.00    -0.432 C  
BRANCH  14  16
HETATM   16  C   UNL     1     -11.590  10.980  69.986  1.00  0.00    -0.344 C  
BRANCH  16  17
HETATM   17  C   UNL     1     -11.973  10.870  68.512  1.00  0.00    -0.137 C  
BRANCH  17  18
HETATM   18  C   UNL     1     -10.776  10.995  67.562  1.00  0.00    -0.244 C  
BRANCH  18  19
HETATM   19  N   UNL     1     -10.490  12.412  67.324  1.00  0.00    -0.221 N  
HETATM   20  C   UNL     1      -9.226  12.933  67.832  1.00  0.00    -0.208 C  
HETATM   21  C   UNL     1      -9.431  14.072  68.816  1.00  0.00    -0.076 C  
HETATM   22  C   UNL     1      -9.488  15.358  68.040  1.00  0.00    -0.201 A  
HETATM   23  C   UNL     1      -8.490  16.315  68.263  1.00  0.00    -0.187 A  
HETATM   24  C   UNL     1      -8.454  17.505  67.536  1.00  0.00    -0.213 A  
HETATM   25  C   UNL     1      -9.435  17.743  66.558  1.00  0.00    -0.290 A  
HETATM   26  O   UNL     1     -11.949  12.601  65.574  1.00  0.00    -0.413 OA 
HETATM   27  C   UNL     1     -11.300  13.147  66.471  1.00  0.00    -0.315 C  
HETATM   28  C   UNL     1     -10.432  16.780  66.334  1.00  0.00    -0.269 A  
HETATM   29  C   UNL     1     -11.597  14.597  66.840  1.00  0.00    -0.374 C  
HETATM   30  C   UNL     1     -10.463  15.573  67.058  1.00  0.00    -0.304 A  
BRANCH  24  31
HETATM   31  O   UNL     1      -7.474  18.453  67.696  1.00  0.00    -0.220 OA 
HETATM   32  C   UNL     1      -7.557  19.256  68.869  1.00  0.00    -0.349 C  
ENDBRANCH  24  31
BRANCH  25  33
HETATM   33  O   UNL     1      -9.344  18.937  65.887  1.00  0.00    -0.454 OA 
HETATM   34  C   UNL     1     -10.481  19.790  65.906  1.00  0.00    -0.486 C  
ENDBRANCH  25  33
ENDBRANCH  18  19
ENDBRANCH  17  18
ENDBRANCH  16  17
ENDBRANCH  14  16
ENDBRANCH  13  14
ENDBRANCH   9  13
ENDBRANCH   2   3
TORSDOF 10
ENDMDL
MODEL      123
REMARK 921   NORMALIZED FREE ENERGY PREDICTED BY IDOCK:   -4.81 KCAL/MOL
REMARK 922        TOTAL FREE ENERGY PREDICTED BY IDOCK:   -9.58 KCAL/MOL
REMARK 923 INTER-LIGAND FREE ENERGY PREDICTED BY IDOCK:   -8.28 KCAL/MOL
REMARK 924 INTRA-LIGAND FREE ENERGY PREDICTED BY IDOCK:   -1.31 KCAL/MOL
REMARK 927      BINDING AFFINITY PREDICTED BY RF-SCORE:    0.00 PKD
ROOT
HETATM    1  C   UNL     1     -14.015  15.402  72.311  1.00  0.00    -0.562 C  
HETATM    2  O   UNL     1     -12.786  14.684  72.255  1.00  0.00    -0.315 OA 
ENDROOT
BRANCH   2   3
HETATM    3  C   UNL     1     -12.432  14.119  71.057  1.00  0.00    -0.367 A  
HETATM    4  C   UNL     1     -12.508  12.746  70.696  1.00  0.00    -0.246 A  
HETATM    5  C   UNL     1     -11.955  15.074  70.117  1.00  0.00    -0.366 A  
HETATM    6  C   UNL     1     -12.043  12.342  69.445  1.00  0.00    -0.234 A  
HETATM    7  C   UNL     1     -11.530  14.621  68.883  1.00  0.00    -0.323 A  
HETATM    8  C   UNL     1     -11.509  13.289  68.615  1.00  0.00    -0.339 A  
HETATM    9  C   UNL     1     -10.814  13.421  67.283  1.00  0.00    -0.278 C  
HETATM   10  C   UNL     1     -11.081  14.979  67.484  1.00  0.00    -0.317 C  
BRANCH   4  11
HETATM   11  O   UNL     1     -13.066  11.833  71.552  1.00  0.00    -0.407 OA 
HETATM   12  C   UNL     1     -13.063  10.475  71.115  1.00  0.00    -0.358 C  
ENDBRANCH   4  11
BRANCH   9  13
HETATM   13  C   UNL     1     -11.475  12.411  66.336  1.00  0.00    -0.373 C  
BRANCH  13  14
HETATM   14  N   UNL     1     -10.646  11.323  65.814  1.00  0.00    -0.260 NA 
HETATM   15  C   UNL     1     -10.579  11.342  64.362  1.00  0.00    -0.345 C  
BRANCH  14  16
HETATM   16  C   UNL     1      -9.369  11.158  66.518  1.00  0.00    -0.180 C  
BRANCH  16  17
HETATM   17  C   UNL     1      -8.931   9.697  66.567  1.00  0.00    -0.171 C  
BRANCH  17  18
HETATM   18  C   UNL     1      -7.899   9.407  67.665  1.00  0.00    -0.095 C  
BRANCH  18  19
HETATM   19  N   UNL     1      -8.487   8.506  68.659  1.00  0.00    -0.130 N  
HETATM   20  C   UNL     1      -8.126   7.095  68.577  1.00  0.00    -0.125 C  
HETATM   21  C   UNL     1      -9.340   6.204  68.380  1.00  0.00    -0.116 C  
HETATM   22  C   UNL     1      -9.882   5.843  69.735  1.00  0.00    -0.217 A  
HETATM   23  C   UNL     1      -9.867   4.496  70.121  1.00  0.00    -0.296 A  
HETATM   24  C   UNL     1     -10.303   4.102  71.386  1.00  0.00     0.087 A  
HETATM   25  C   UNL     1     -10.761   5.076  72.290  1.00  0.00    -0.180 A  
HETATM   26  O   UNL     1      -8.954  10.167  70.158  1.00  0.00    -0.095 OA 
HETATM   27  C   UNL     1      -9.180   9.027  69.741  1.00  0.00    -0.167 C  
HETATM   28  C   UNL     1     -10.771   6.426  71.902  1.00  0.00    -0.262 A  
HETATM   29  C   UNL     1     -10.419   8.280  70.225  1.00  0.00    -0.221 C  
HETATM   30  C   UNL     1     -10.320   6.827  70.630  1.00  0.00    -0.225 A  
BRANCH  24  31
HETATM   31  O   UNL     1     -10.271   2.799  71.819  1.00  0.00    -0.108 OA 
HETATM   32  C   UNL     1      -9.338   1.941  71.172  1.00  0.00    -0.122 C  
ENDBRANCH  24  31
BRANCH  25  33
HETATM   33  O   UNL     1     -11.183   4.617  73.513  1.00  0.00    -0.317 OA 
HETATM   34  C   UNL     1     -10.228   4.578  74.565  1.00  0.00    -0.246 C  
ENDBRANCH  25  33
ENDBRANCH  18  19
ENDBRANCH  17  18
ENDBRANCH  16  17
ENDBRANCH  14  16
ENDBRANCH  13  14
ENDBRANCH   9  13
ENDBRANCH   2   3
TORSDOF 10
ENDMDL
MODEL      124
REMARK 921   NORMALIZED FREE ENERGY PREDICTED BY IDOCK:   -4.77 KCAL/MOL
REMARK 922        TOTAL FREE ENERGY PREDICTED BY IDOCK:   -9.53 KCAL/MOL
REMARK 923 INTER-LIGAND FREE ENERGY PREDICTED BY IDOCK:   -6.57 KCAL/MOL
REMARK 924 INTRA-LIGAND FREE ENERGY PREDICTED BY IDOCK:   -2.96 KCAL/MOL
REMARK 927      BINDING AFFINITY PREDICTED BY RF-SCORE:    0.00 PKD
ROOT
HETATM    1  C   UNL     1      -6.264  13.437  69.476  1.00  0.00    -0.114 C  
HETATM    2  O   UNL     1      -7.253  12.595  68.890  1.00  0.00    -0.101 OA 
ENDROOT
BRANCH   2   3
HETATM    3  C   UNL     1      -6.874  11.330  68.522  1.00  0.00    -0.071 A  
HETATM    4  C   UNL     1      -6.578  10.235  69.379  1.00  0.00    -0.058 A  
HETATM    5  C   UNL     1      -6.798  11.167  67.111  1.00  0.00    -0.107 A  
HETATM    6  C   UNL     1      -6.145   9.031  68.824  1.00  0.00    -0.045 A  
HETATM    7  C   UNL     1      -6.387   9.944  66.615  1.00  0.00    -0.069 A  
HETATM    8  C   UNL     1      -6.003   8.957  67.467  1.00  0.00    -0.047 A  
HETATM    9  C   UNL     1      -5.518   8.020  66.389  1.00  0.00    -0.028 C  
HETATM   10  C   UNL     1      -6.210   9.061  65.401  1.00  0.00    -0.063 C  
BRANCH   4  11
HETATM   11  O   UNL     1      -6.751  10.347  70.733  1.00  0.00    -0.340 OA 
HETATM   12  C   UNL     1      -5.635   9.984  71.545  1.00  0.00    -0.004 C  
ENDBRANCH   4  11
BRANCH   9  13
HETATM   13  C   UNL     1      -5.945   6.606  66.806  1.00  0.00    -0.022 C  
BRANCH  13  14
HETATM   14  N   UNL     1      -7.367   6.269  66.716  1.00  0.00    -0.077 NA 
HETATM   15  C   UNL     1      -7.751   5.898  65.365  1.00  0.00    -0.093 C  
BRANCH  14  16
HETATM   16  C   UNL     1      -7.837   5.383  67.788  1.00  0.00    -0.096 C  
BRANCH  16  17
HETATM   17  C   UNL     1      -8.445   6.167  68.947  1.00  0.00    -0.118 C  
BRANCH  17  18
HETATM   18  C   UNL     1      -9.975   6.266  68.878  1.00  0.00    -0.153 C  
BRANCH  18  19
HETATM   19  N   UNL     1     -10.356   7.623  68.478  1.00  0.00    -0.200 N  
HETATM   20  C   UNL     1     -10.648   7.847  67.067  1.00  0.00    -0.311 C  
HETATM   21  C   UNL     1      -9.737   8.897  66.454  1.00  0.00    -0.332 C  
HETATM   22  C   UNL     1     -10.372  10.244  66.655  1.00  0.00    -0.283 A  
HETATM   23  C   UNL     1     -10.760  10.974  65.524  1.00  0.00    -0.218 A  
HETATM   24  C   UNL     1     -11.405  12.204  65.643  1.00  0.00    -0.347 A  
HETATM   25  C   UNL     1     -11.674  12.719  66.923  1.00  0.00    -0.380 A  
HETATM   26  O   UNL     1     -11.001   8.257  70.579  1.00  0.00    -0.238 OA 
HETATM   27  C   UNL     1     -10.627   8.579  69.447  1.00  0.00    -0.195 C  
HETATM   28  C   UNL     1     -11.288  11.983  68.055  1.00  0.00    -0.358 A  
HETATM   29  C   UNL     1     -10.181  10.013  69.180  1.00  0.00    -0.224 C  
HETATM   30  C   UNL     1     -10.648  10.735  67.938  1.00  0.00    -0.258 A  
BRANCH  24  31
HETATM   31  O   UNL     1     -11.834  12.935  64.562  1.00  0.00    -0.338 OA 
HETATM   32  C   UNL     1     -12.337  12.192  63.457  1.00  0.00    -0.574 C  
ENDBRANCH  24  31
BRANCH  25  33
HETATM   33  O   UNL     1     -12.304  13.938  66.966  1.00  0.00    -0.391 OA 
HETATM   34  C   UNL     1     -11.767  14.924  67.838  1.00  0.00    -0.321 C  
ENDBRANCH  25  33
ENDBRANCH  18  19
ENDBRANCH  17  18
ENDBRANCH  16  17
ENDBRANCH  14  16
ENDBRANCH  13  14
ENDBRANCH   9  13
ENDBRANCH   2   3
TORSDOF 10
ENDMDL
MODEL      125
REMARK 921   NORMALIZED FREE ENERGY PREDICTED BY IDOCK:   -4.77 KCAL/MOL
REMARK 922        TOTAL FREE ENERGY PREDICTED BY IDOCK:   -9.52 KCAL/MOL
REMARK 923 INTER-LIGAND FREE ENERGY PREDICTED BY IDOCK:   -8.31 KCAL/MOL
REMARK 924 INTRA-LIGAND FREE ENERGY PREDICTED BY IDOCK:   -1.21 KCAL/MOL
REMARK 927      BINDING AFFINITY PREDICTED BY RF-SCORE:    0.00 PKD
ROOT
HETATM    1  C   UNL     1      -9.354   3.692  67.675  1.00  0.00    -0.200 C  
HETATM    2  O   UNL     1      -8.655   4.789  68.254  1.00  0.00    -0.100 OA 
ENDROOT
BRANCH   2   3
HETATM    3  C   UNL     1      -8.952   6.047  67.794  1.00  0.00    -0.111 A  
HETATM    4  C   UNL     1      -9.709   7.050  68.458  1.00  0.00    -0.141 A  
HETATM    5  C   UNL     1      -8.402   6.307  66.509  1.00  0.00    -0.114 A  
HETATM    6  C   UNL     1      -9.964   8.257  67.807  1.00  0.00    -0.235 A  
HETATM    7  C   UNL     1      -8.666   7.529  65.920  1.00  0.00    -0.170 A  
HETATM    8  C   UNL     1      -9.489   8.419  66.535  1.00  0.00    -0.284 A  
HETATM    9  C   UNL     1      -9.529   9.395  65.386  1.00  0.00    -0.322 C  
HETATM   10  C   UNL     1      -8.366   8.484  64.787  1.00  0.00    -0.163 C  
BRANCH   4  11
HETATM   11  O   UNL     1     -10.153   6.852  69.739  1.00  0.00    -0.180 OA 
HETATM   12  C   UNL     1     -11.485   6.362  69.878  1.00  0.00    -0.415 C  
ENDBRANCH   4  11
BRANCH   9  13
HETATM   13  C   UNL     1      -9.478  10.802  65.996  1.00  0.00    -0.194 C  
BRANCH  13  14
HETATM   14  N   UNL     1     -10.483  11.772  65.559  1.00  0.00    -0.257 NA 
HETATM   15  C   UNL     1     -10.908  11.532  64.191  1.00  0.00    -0.372 C  
BRANCH  14  16
HETATM   16  C   UNL     1     -11.554  12.000  66.538  1.00  0.00    -0.314 C  
BRANCH  16  17
HETATM   17  C   UNL     1     -11.203  11.422  67.907  1.00  0.00    -0.352 C  
BRANCH  17  18
HETATM   18  C   UNL     1     -11.103  12.485  69.008  1.00  0.00    -0.234 C  
BRANCH  18  19
HETATM   19  N   UNL     1     -10.364  13.643  68.499  1.00  0.00    -0.243 N  
HETATM   20  C   UNL     1     -11.053  14.929  68.502  1.00  0.00    -0.266 C  
HETATM   21  C   UNL     1     -11.158  15.525  67.108  1.00  0.00    -0.256 C  
HETATM   22  C   UNL     1      -9.924  16.345  66.855  1.00  0.00    -0.273 A  
HETATM   23  C   UNL     1     -10.069  17.725  66.662  1.00  0.00    -0.350 A  
HETATM   24  C   UNL     1      -8.959  18.549  66.478  1.00  0.00    -0.293 A  
HETATM   25  C   UNL     1      -7.672  17.984  66.491  1.00  0.00    -0.249 A  
HETATM   26  O   UNL     1      -8.306  12.696  68.806  1.00  0.00    -0.020 OA 
HETATM   27  C   UNL     1      -9.007  13.535  68.233  1.00  0.00    -0.180 C  
HETATM   28  C   UNL     1      -7.530  16.601  66.688  1.00  0.00    -0.311 A  
HETATM   29  C   UNL     1      -8.455  14.275  67.019  1.00  0.00    -0.190 C  
HETATM   30  C   UNL     1      -8.647  15.769  66.886  1.00  0.00    -0.279 A  
BRANCH  24  31
HETATM   31  O   UNL     1      -9.053  19.911  66.322  1.00  0.00    -0.366 OA 
HETATM   32  C   UNL     1      -9.552  20.642  67.437  1.00  0.00    -0.404 C  
ENDBRANCH  24  31
BRANCH  25  33
HETATM   33  O   UNL     1      -6.627  18.852  66.295  1.00  0.00    -0.191 OA 
HETATM   34  C   UNL     1      -5.994  18.842  65.022  1.00  0.00    -0.278 C  
ENDBRANCH  25  33
ENDBRANCH  18  19
ENDBRANCH  17  18
ENDBRANCH  16  17
ENDBRANCH  14  16
ENDBRANCH  13  14
ENDBRANCH   9  13
ENDBRANCH   2   3
TORSDOF 10
ENDMDL
MODEL      126
REMARK 921   NORMALIZED FREE ENERGY PREDICTED BY IDOCK:   -4.76 KCAL/MOL
REMARK 922        TOTAL FREE ENERGY PREDICTED BY IDOCK:   -9.50 KCAL/MOL
REMARK 923 INTER-LIGAND FREE ENERGY PREDICTED BY IDOCK:   -7.57 KCAL/MOL
REMARK 924 INTRA-LIGAND FREE ENERGY PREDICTED BY IDOCK:   -1.93 KCAL/MOL
REMARK 927      BINDING AFFINITY PREDICTED BY RF-SCORE:    0.00 PKD
ROOT
HETATM    1  C   UNL     1     -13.358   9.956  72.052  1.00  0.00    -0.432 C  
HETATM    2  O   UNL     1     -12.676   8.797  72.521  1.00  0.00    -0.396 OA 
ENDROOT
BRANCH   2   3
HETATM    3  C   UNL     1     -11.552   8.402  71.843  1.00  0.00    -0.329 A  
HETATM    4  C   UNL     1     -11.151   7.071  71.542  1.00  0.00    -0.243 A  
HETATM    5  C   UNL     1     -10.752   9.498  71.416  1.00  0.00    -0.348 A  
HETATM    6  C   UNL     1      -9.936   6.855  70.892  1.00  0.00    -0.200 A  
HETATM    7  C   UNL     1      -9.570   9.226  70.754  1.00  0.00    -0.341 A  
HETATM    8  C   UNL     1      -9.162   7.940  70.586  1.00  0.00    -0.157 A  
HETATM    9  C   UNL     1      -7.812   8.292  70.013  1.00  0.00    -0.104 C  
HETATM   10  C   UNL     1      -8.399   9.772  69.968  1.00  0.00    -0.211 C  
BRANCH   4  11
HETATM   11  O   UNL     1     -11.964   6.014  71.852  1.00  0.00    -0.271 OA 
HETATM   12  C   UNL     1     -11.524   5.168  72.913  1.00  0.00    -0.254 C  
ENDBRANCH   4  11
BRANCH   9  13
HETATM   13  C   UNL     1      -7.537   7.294  68.880  1.00  0.00    -0.103 C  
BRANCH  13  14
HETATM   14  N   UNL     1      -7.867   7.705  67.515  1.00  0.00    -0.117 NA 
HETATM   15  C   UNL     1      -6.807   7.373  66.578  1.00  0.00    -0.062 C  
BRANCH  14  16
HETATM   16  C   UNL     1      -9.230   7.351  67.101  1.00  0.00    -0.136 C  
BRANCH  16  17
HETATM   17  C   UNL     1     -10.184   8.538  67.216  1.00  0.00    -0.346 C  
BRANCH  17  18
HETATM   18  C   UNL     1     -10.101   9.501  66.025  1.00  0.00    -0.249 C  
BRANCH  18  19
HETATM   19  N   UNL     1      -9.859  10.860  66.516  1.00  0.00    -0.198 N  
HETATM   20  C   UNL     1      -8.688  11.559  65.997  1.00  0.00    -0.095 C  
HETATM   21  C   UNL     1      -7.726  11.961  67.101  1.00  0.00    -0.163 C  
HETATM   22  C   UNL     1      -8.134  13.315  67.610  1.00  0.00    -0.174 A  
HETATM   23  C   UNL     1      -7.245  14.384  67.446  1.00  0.00    -0.148 A  
HETATM   24  C   UNL     1      -7.586  15.676  67.846  1.00  0.00    -0.131 A  
HETATM   25  C   UNL     1      -8.849  15.908  68.418  1.00  0.00    -0.184 A  
HETATM   26  O   UNL     1     -12.019  11.202  67.180  1.00  0.00    -0.366 OA 
HETATM   27  C   UNL     1     -10.826  11.505  67.272  1.00  0.00    -0.256 C  
HETATM   28  C   UNL     1      -9.740  14.835  68.577  1.00  0.00    -0.218 A  
HETATM   29  C   UNL     1     -10.360  12.392  68.423  1.00  0.00    -0.236 C  
HETATM   30  C   UNL     1      -9.402  13.532  68.164  1.00  0.00    -0.213 A  
BRANCH  24  31
HETATM   31  O   UNL     1      -6.760  16.759  67.671  1.00  0.00    -0.128 OA 
HETATM   32  C   UNL     1      -5.363  16.488  67.630  1.00  0.00    -0.137 C  
ENDBRANCH  24  31
BRANCH  25  33
HETATM   33  O   UNL     1      -9.115  17.201  68.796  1.00  0.00    -0.270 OA 
HETATM   34  C   UNL     1     -10.068  17.926  68.030  1.00  0.00    -0.358 C  
ENDBRANCH  25  33
ENDBRANCH  18  19
ENDBRANCH  17  18
ENDBRANCH  16  17
ENDBRANCH  14  16
ENDBRANCH  13  14
ENDBRANCH   9  13
ENDBRANCH   2   3
TORSDOF 10
ENDMDL
MODEL      127
REMARK 921   NORMALIZED FREE ENERGY PREDICTED BY IDOCK:   -4.75 KCAL/MOL
REMARK 922        TOTAL FREE ENERGY PREDICTED BY IDOCK:   -9.49 KCAL/MOL
REMARK 923 INTER-LIGAND FREE ENERGY PREDICTED BY IDOCK:   -8.36 KCAL/MOL
REMARK 924 INTRA-LIGAND FREE ENERGY PREDICTED BY IDOCK:   -1.14 KCAL/MOL
REMARK 927      BINDING AFFINITY PREDICTED BY RF-SCORE:    0.00 PKD
ROOT
HETATM    1  C   UNL     1     -14.399   8.639  72.355  1.00  0.00    -0.340 C  
HETATM    2  O   UNL     1     -13.356   9.607  72.304  1.00  0.00    -0.438 OA 
ENDROOT
BRANCH   2   3
HETATM    3  C   UNL     1     -12.417   9.479  71.312  1.00  0.00    -0.346 A  
HETATM    4  C   UNL     1     -11.909  10.505  70.470  1.00  0.00    -0.347 A  
HETATM    5  C   UNL     1     -11.938   8.147  71.177  1.00  0.00    -0.296 A  
HETATM    6  C   UNL     1     -10.996  10.176  69.468  1.00  0.00    -0.295 A  
HETATM    7  C   UNL     1     -11.016   7.882  70.182  1.00  0.00    -0.235 A  
HETATM    8  C   UNL     1     -10.639   8.864  69.322  1.00  0.00    -0.219 A  
HETATM    9  C   UNL     1      -9.828   7.965  68.423  1.00  0.00    -0.185 C  
HETATM   10  C   UNL     1     -10.055   6.886  69.574  1.00  0.00    -0.183 C  
BRANCH   4  11
HETATM   11  O   UNL     1     -12.281  11.810  70.662  1.00  0.00    -0.371 OA 
HETATM   12  C   UNL     1     -11.840  12.743  69.677  1.00  0.00    -0.317 C  
ENDBRANCH   4  11
BRANCH   9  13
HETATM   13  C   UNL     1      -8.571   8.750  68.027  1.00  0.00    -0.134 C  
BRANCH  13  14
HETATM   14  N   UNL     1      -8.391   9.081  66.612  1.00  0.00    -0.117 NA 
HETATM   15  C   UNL     1      -9.645   9.029  65.880  1.00  0.00    -0.247 C  
BRANCH  14  16
HETATM   16  C   UNL     1      -7.556  10.266  66.381  1.00  0.00    -0.117 C  
BRANCH  16  17
HETATM   17  C   UNL     1      -8.309  11.559  66.683  1.00  0.00    -0.167 C  
BRANCH  17  18
HETATM   18  C   UNL     1      -8.028  12.111  68.087  1.00  0.00    -0.151 C  
BRANCH  18  19
HETATM   19  N   UNL     1      -7.932  13.571  68.025  1.00  0.00    -0.137 N  
HETATM   20  C   UNL     1      -9.137  14.305  67.657  1.00  0.00    -0.192 C  
HETATM   21  C   UNL     1      -8.937  15.143  66.406  1.00  0.00    -0.314 C  
HETATM   22  C   UNL     1      -8.413  16.490  66.822  1.00  0.00    -0.273 A  
HETATM   23  C   UNL     1      -9.202  17.619  66.570  1.00  0.00    -0.286 A  
HETATM   24  C   UNL     1      -8.799  18.889  66.980  1.00  0.00    -0.294 A  
HETATM   25  C   UNL     1      -7.580  19.036  67.665  1.00  0.00    -0.237 A  
HETATM   26  O   UNL     1      -6.083  13.689  69.365  1.00  0.00    -0.093 OA 
HETATM   27  C   UNL     1      -6.797  14.210  68.503  1.00  0.00    -0.102 C  
HETATM   28  C   UNL     1      -6.793  17.902  67.920  1.00  0.00    -0.194 A  
HETATM   29  C   UNL     1      -6.292  15.433  67.745  1.00  0.00    -0.182 C  
HETATM   30  C   UNL     1      -7.204  16.617  67.517  1.00  0.00    -0.169 A  
BRANCH  24  31
HETATM   31  O   UNL     1      -9.558  20.017  66.785  1.00  0.00    -0.365 OA 
HETATM   32  C   UNL     1     -10.580  19.929  65.799  1.00  0.00    -0.385 C  
ENDBRANCH  24  31
BRANCH  25  33
HETATM   33  O   UNL     1      -7.242  20.315  68.031  1.00  0.00    -0.290 OA 
HETATM   34  C   UNL     1      -6.309  21.008  67.213  1.00  0.00    -0.338 C  
ENDBRANCH  25  33
ENDBRANCH  18  19
ENDBRANCH  17  18
ENDBRANCH  16  17
ENDBRANCH  14  16
ENDBRANCH  13  14
ENDBRANCH   9  13
ENDBRANCH   2   3
TORSDOF 10
ENDMDL
MODEL      128
REMARK 921   NORMALIZED FREE ENERGY PREDICTED BY IDOCK:   -4.74 KCAL/MOL
REMARK 922        TOTAL FREE ENERGY PREDICTED BY IDOCK:   -9.47 KCAL/MOL
REMARK 923 INTER-LIGAND FREE ENERGY PREDICTED BY IDOCK:   -8.53 KCAL/MOL
REMARK 924 INTRA-LIGAND FREE ENERGY PREDICTED BY IDOCK:   -0.94 KCAL/MOL
REMARK 927      BINDING AFFINITY PREDICTED BY RF-SCORE:    0.00 PKD
ROOT
HETATM    1  C   UNL     1      -8.055   2.710  64.180  1.00  0.00    -0.082 C  
HETATM    2  O   UNL     1      -9.288   2.547  64.873  1.00  0.00    -0.140 OA 
ENDROOT
BRANCH   2   3
HETATM    3  C   UNL     1      -9.516   3.347  65.964  1.00  0.00    -0.112 A  
HETATM    4  C   UNL     1      -9.181   3.073  67.318  1.00  0.00    -0.182 A  
HETATM    5  C   UNL     1     -10.153   4.572  65.624  1.00  0.00    -0.261 A  
HETATM    6  C   UNL     1      -9.548   3.983  68.310  1.00  0.00    -0.188 A  
HETATM    7  C   UNL     1     -10.473   5.448  66.644  1.00  0.00    -0.356 A  
HETATM    8  C   UNL     1     -10.241   5.102  67.938  1.00  0.00    -0.180 A  
HETATM    9  C   UNL     1     -10.933   6.301  68.534  1.00  0.00    -0.421 C  
HETATM   10  C   UNL     1     -10.966   6.825  67.029  1.00  0.00    -0.439 C  
BRANCH   4  11
HETATM   11  O   UNL     1      -8.471   1.948  67.644  1.00  0.00    -0.069 OA 
HETATM   12  C   UNL     1      -7.065   2.116  67.817  1.00  0.00    -0.047 C  
ENDBRANCH   4  11
BRANCH   9  13
HETATM   13  C   UNL     1     -10.085   6.756  69.729  1.00  0.00    -0.183 C  
BRANCH  13  14
HETATM   14  N   UNL     1      -9.825   8.190  69.875  1.00  0.00    -0.184 NA 
HETATM   15  C   UNL     1      -8.714   8.626  69.046  1.00  0.00    -0.134 C  
BRANCH  14  16
HETATM   16  C   UNL     1     -11.035   9.020  69.825  1.00  0.00    -0.166 C  
BRANCH  16  17
HETATM   17  C   UNL     1     -10.724  10.450  69.390  1.00  0.00    -0.277 C  
BRANCH  17  18
HETATM   18  C   UNL     1     -11.500  10.888  68.141  1.00  0.00    -0.295 C  
BRANCH  18  19
HETATM   19  N   UNL     1     -11.154  12.273  67.815  1.00  0.00    -0.240 N  
HETATM   20  C   UNL     1     -10.117  12.910  68.619  1.00  0.00    -0.128 C  
HETATM   21  C   UNL     1     -10.625  14.157  69.323  1.00  0.00    -0.127 C  
HETATM   22  C   UNL     1     -10.432  15.328  68.401  1.00  0.00    -0.236 A  
HETATM   23  C   UNL     1      -9.557  16.349  68.794  1.00  0.00    -0.249 A  
HETATM   24  C   UNL     1      -9.293  17.435  67.960  1.00  0.00    -0.276 A  
HETATM   25  C   UNL     1      -9.912  17.502  66.700  1.00  0.00    -0.314 A  
HETATM   26  O   UNL     1     -11.980  12.171  65.685  1.00  0.00    -0.503 OA 
HETATM   27  C   UNL     1     -11.651  12.856  66.658  1.00  0.00    -0.372 C  
HETATM   28  C   UNL     1     -10.785  16.475  66.307  1.00  0.00    -0.146 A  
HETATM   29  C   UNL     1     -12.050  14.327  66.713  1.00  0.00    -0.446 C  
HETATM   30  C   UNL     1     -11.045  15.372  67.142  1.00  0.00    -0.291 A  
BRANCH  24  31
HETATM   31  O   UNL     1      -8.415  18.438  68.290  1.00  0.00    -0.287 OA 
HETATM   32  C   UNL     1      -7.053  18.058  68.458  1.00  0.00    -0.256 C  
ENDBRANCH  24  31
BRANCH  25  33
HETATM   33  O   UNL     1      -9.613  18.602  65.935  1.00  0.00    -0.479 OA 
HETATM   34  C   UNL     1     -10.561  19.660  65.907  1.00  0.00    -0.466 C  
ENDBRANCH  25  33
ENDBRANCH  18  19
ENDBRANCH  17  18
ENDBRANCH  16  17
ENDBRANCH  14  16
ENDBRANCH  13  14
ENDBRANCH   9  13
ENDBRANCH   2   3
TORSDOF 10
ENDMDL
MODEL      129
REMARK 921   NORMALIZED FREE ENERGY PREDICTED BY IDOCK:   -4.71 KCAL/MOL
REMARK 922        TOTAL FREE ENERGY PREDICTED BY IDOCK:   -9.43 KCAL/MOL
REMARK 923 INTER-LIGAND FREE ENERGY PREDICTED BY IDOCK:   -8.29 KCAL/MOL
REMARK 924 INTRA-LIGAND FREE ENERGY PREDICTED BY IDOCK:   -1.13 KCAL/MOL
REMARK 927      BINDING AFFINITY PREDICTED BY RF-SCORE:    0.00 PKD
ROOT
HETATM    1  C   UNL     1     -11.315  15.990  69.332  1.00  0.00    -0.355 C  
HETATM    2  O   UNL     1     -11.915  15.024  68.474  1.00  0.00    -0.303 OA 
ENDROOT
BRANCH   2   3
HETATM    3  C   UNL     1     -12.017  13.737  68.937  1.00  0.00    -0.359 A  
HETATM    4  C   UNL     1     -11.677  12.543  68.245  1.00  0.00    -0.340 A  
HETATM    5  C   UNL     1     -12.517  13.669  70.267  1.00  0.00    -0.335 A  
HETATM    6  C   UNL     1     -11.907  11.310  68.856  1.00  0.00    -0.413 A  
HETATM    7  C   UNL     1     -12.702  12.421  70.832  1.00  0.00    -0.273 A  
HETATM    8  C   UNL     1     -12.475  11.299  70.100  1.00  0.00    -0.297 A  
HETATM    9  C   UNL     1     -13.006  10.341  71.136  1.00  0.00    -0.503 C  
HETATM   10  C   UNL     1     -13.020  11.626  72.079  1.00  0.00    -0.365 C  
BRANCH   4  11
HETATM   11  O   UNL     1     -11.094  12.600  67.007  1.00  0.00    -0.259 OA 
HETATM   12  C   UNL     1     -10.592  11.369  66.487  1.00  0.00    -0.263 C  
ENDBRANCH   4  11
BRANCH   9  13
HETATM   13  C   UNL     1     -12.076   9.120  71.130  1.00  0.00    -0.299 C  
BRANCH  13  14
HETATM   14  N   UNL     1     -12.266   8.113  72.175  1.00  0.00    -0.336 NA 
HETATM   15  C   UNL     1     -12.932   6.925  71.667  1.00  0.00    -0.307 C  
BRANCH  14  16
HETATM   16  C   UNL     1     -11.075   7.883  73.002  1.00  0.00    -0.314 C  
BRANCH  16  17
HETATM   17  C   UNL     1      -9.841   7.592  72.152  1.00  0.00    -0.226 C  
BRANCH  17  18
HETATM   18  C   UNL     1      -9.242   6.203  72.405  1.00  0.00    -0.139 C  
BRANCH  18  19
HETATM   19  N   UNL     1      -9.132   5.482  71.134  1.00  0.00    -0.141 N  
HETATM   20  C   UNL     1      -9.376   6.241  69.913  1.00  0.00    -0.150 C  
HETATM   21  C   UNL     1     -10.523   5.664  69.101  1.00  0.00    -0.339 C  
HETATM   22  C   UNL     1      -9.964   4.621  68.174  1.00  0.00    -0.127 A  
HETATM   23  C   UNL     1     -10.059   4.836  66.794  1.00  0.00    -0.261 A  
HETATM   24  C   UNL     1      -9.511   3.934  65.882  1.00  0.00    -0.181 A  
HETATM   25  C   UNL     1      -8.847   2.791  66.360  1.00  0.00    -0.145 A  
HETATM   26  O   UNL     1      -7.839   3.802  71.989  1.00  0.00    -0.061 OA 
HETATM   27  C   UNL     1      -8.612   4.197  71.111  1.00  0.00    -0.085 C  
HETATM   28  C   UNL     1      -8.750   2.580  67.745  1.00  0.00    -0.139 A  
HETATM   29  C   UNL     1      -9.233   3.191  70.146  1.00  0.00    -0.219 C  
HETATM   30  C   UNL     1      -9.292   3.495  68.667  1.00  0.00    -0.230 A  
BRANCH  24  31
HETATM   31  O   UNL     1      -9.549   4.125  64.522  1.00  0.00    -0.158 OA 
HETATM   32  C   UNL     1     -10.773   3.797  63.872  1.00  0.00    -0.243 C  
ENDBRANCH  24  31
BRANCH  25  33
HETATM   33  O   UNL     1      -8.340   1.943  65.407  1.00  0.00    -0.084 OA 
HETATM   34  C   UNL     1      -6.928   1.892  65.258  1.00  0.00    -0.043 C  
ENDBRANCH  25  33
ENDBRANCH  18  19
ENDBRANCH  17  18
ENDBRANCH  16  17
ENDBRANCH  14  16
ENDBRANCH  13  14
ENDBRANCH   9  13
ENDBRANCH   2   3
TORSDOF 10
ENDMDL
MODEL      130
REMARK 921   NORMALIZED FREE ENERGY PREDICTED BY IDOCK:   -4.70 KCAL/MOL
REMARK 922        TOTAL FREE ENERGY PREDICTED BY IDOCK:   -9.41 KCAL/MOL
REMARK 923 INTER-LIGAND FREE ENERGY PREDICTED BY IDOCK:   -8.68 KCAL/MOL
REMARK 924 INTRA-LIGAND FREE ENERGY PREDICTED BY IDOCK:   -0.73 KCAL/MOL
REMARK 927      BINDING AFFINITY PREDICTED BY RF-SCORE:    0.00 PKD
ROOT
HETATM    1  C   UNL     1     -11.159   4.024  73.667  1.00  0.00    -0.247 C  
HETATM    2  O   UNL     1     -10.627   4.150  72.352  1.00  0.00    -0.146 OA 
ENDROOT
BRANCH   2   3
HETATM    3  C   UNL     1     -10.342   5.413  71.899  1.00  0.00    -0.212 A  
HETATM    4  C   UNL     1      -9.081   5.913  71.476  1.00  0.00    -0.143 A  
HETATM    5  C   UNL     1     -11.487   6.257  71.869  1.00  0.00    -0.360 A  
HETATM    6  C   UNL     1      -8.967   7.252  71.102  1.00  0.00    -0.147 A  
HETATM    7  C   UNL     1     -11.321   7.569  71.467  1.00  0.00    -0.283 A  
HETATM    8  C   UNL     1     -10.080   8.043  71.179  1.00  0.00    -0.221 A  
HETATM    9  C   UNL     1     -10.510   9.479  71.011  1.00  0.00    -0.377 C  
HETATM   10  C   UNL     1     -11.983   8.874  71.086  1.00  0.00    -0.344 C  
BRANCH   4  11
HETATM   11  O   UNL     1      -7.995   5.082  71.397  1.00  0.00    -0.105 OA 
HETATM   12  C   UNL     1      -6.872   5.431  72.205  1.00  0.00    -0.078 C  
ENDBRANCH   4  11
BRANCH   9  13
HETATM   13  C   UNL     1      -9.724  10.041  69.819  1.00  0.00    -0.226 C  
BRANCH  13  14
HETATM   14  N   UNL     1     -10.424  10.171  68.540  1.00  0.00    -0.185 NA 
HETATM   15  C   UNL     1     -10.547   8.894  67.858  1.00  0.00    -0.183 C  
BRANCH  14  16
HETATM   16  C   UNL     1     -11.642  10.987  68.610  1.00  0.00    -0.316 C  
BRANCH  16  17
HETATM   17  C   UNL     1     -11.737  11.966  67.442  1.00  0.00    -0.326 C  
BRANCH  17  18
HETATM   18  C   UNL     1     -10.412  12.144  66.690  1.00  0.00    -0.220 C  
BRANCH  18  19
HETATM   19  N   UNL     1     -10.024  13.557  66.717  1.00  0.00    -0.262 N  
HETATM   20  C   UNL     1      -9.250  14.014  67.866  1.00  0.00    -0.195 C  
HETATM   21  C   UNL     1      -9.953  15.128  68.622  1.00  0.00    -0.220 C  
HETATM   22  C   UNL     1      -9.552  16.440  68.006  1.00  0.00    -0.226 A  
HETATM   23  C   UNL     1      -8.835  17.352  68.790  1.00  0.00    -0.220 A  
HETATM   24  C   UNL     1      -8.385  18.562  68.262  1.00  0.00    -0.322 A  
HETATM   25  C   UNL     1      -8.653  18.867  66.916  1.00  0.00    -0.291 A  
HETATM   26  O   UNL     1     -10.259  13.854  64.463  1.00  0.00    -0.405 OA 
HETATM   27  C   UNL     1     -10.212  14.348  65.593  1.00  0.00    -0.350 C  
HETATM   28  C   UNL     1      -9.368  17.948  66.132  1.00  0.00    -0.151 A  
HETATM   29  C   UNL     1     -10.645  15.795  65.803  1.00  0.00    -0.369 C  
HETATM   30  C   UNL     1      -9.813  16.722  66.659  1.00  0.00    -0.287 A  
BRANCH  24  31
HETATM   31  O   UNL     1      -7.648  19.469  68.984  1.00  0.00    -0.362 OA 
HETATM   32  C   UNL     1      -6.319  19.081  69.317  1.00  0.00    -0.287 C  
ENDBRANCH  24  31
BRANCH  25  33
HETATM   33  O   UNL     1      -8.188  20.078  66.465  1.00  0.00    -0.310 OA 
HETATM   34  C   UNL     1      -7.096  20.064  65.556  1.00  0.00    -0.310 C  
ENDBRANCH  25  33
ENDBRANCH  18  19
ENDBRANCH  17  18
ENDBRANCH  16  17
ENDBRANCH  14  16
ENDBRANCH  13  14
ENDBRANCH   9  13
ENDBRANCH   2   3
TORSDOF 10
ENDMDL
MODEL      131
REMARK 921   NORMALIZED FREE ENERGY PREDICTED BY IDOCK:   -4.69 KCAL/MOL
REMARK 922        TOTAL FREE ENERGY PREDICTED BY IDOCK:   -9.39 KCAL/MOL
REMARK 923 INTER-LIGAND FREE ENERGY PREDICTED BY IDOCK:   -7.39 KCAL/MOL
REMARK 924 INTRA-LIGAND FREE ENERGY PREDICTED BY IDOCK:   -2.01 KCAL/MOL
REMARK 927      BINDING AFFINITY PREDICTED BY RF-SCORE:    0.00 PKD
ROOT
HETATM    1  C   UNL     1     -12.009  14.263  69.916  1.00  0.00    -0.339 C  
HETATM    2  O   UNL     1     -11.906  15.093  68.763  1.00  0.00    -0.330 OA 
ENDROOT
BRANCH   2   3
HETATM    3  C   UNL     1     -11.323  14.556  67.643  1.00  0.00    -0.337 A  
HETATM    4  C   UNL     1     -10.101  14.952  67.034  1.00  0.00    -0.244 A  
HETATM    5  C   UNL     1     -12.078  13.486  67.090  1.00  0.00    -0.386 A  
HETATM    6  C   UNL     1      -9.692  14.329  65.855  1.00  0.00    -0.289 A  
HETATM    7  C   UNL     1     -11.614  12.888  65.933  1.00  0.00    -0.423 A  
HETATM    8  C   UNL     1     -10.502  13.368  65.316  1.00  0.00    -0.334 A  
HETATM    9  C   UNL     1     -10.621  12.483  64.100  1.00  0.00    -0.425 C  
HETATM   10  C   UNL     1     -11.756  11.752  64.945  1.00  0.00    -0.187 C  
BRANCH   4  11
HETATM   11  O   UNL     1      -9.312  15.907  67.617  1.00  0.00    -0.214 OA 
HETATM   12  C   UNL     1      -7.974  15.519  67.927  1.00  0.00    -0.136 C  
ENDBRANCH   4  11
BRANCH   9  13
HETATM   13  C   UNL     1      -9.199  12.031  63.740  1.00  0.00     0.357 C  
BRANCH  13  14
HETATM   14  N   UNL     1      -8.970  10.600  63.534  1.00  0.00    -0.197 NA 
HETATM   15  C   UNL     1      -9.693  10.096  62.379  1.00  0.00     0.040 C  
BRANCH  14  16
HETATM   16  C   UNL     1      -7.561  10.203  63.639  1.00  0.00    -0.139 C  
BRANCH  16  17
HETATM   17  C   UNL     1      -7.361   9.084  64.658  1.00  0.00    -0.098 C  
BRANCH  17  18
HETATM   18  C   UNL     1      -6.772   9.571  65.988  1.00  0.00    -0.082 C  
BRANCH  18  19
HETATM   19  N   UNL     1      -7.790   9.471  67.036  1.00  0.00    -0.098 N  
HETATM   20  C   UNL     1      -7.892   8.202  67.749  1.00  0.00    -0.118 C  
HETATM   21  C   UNL     1      -9.270   7.578  67.611  1.00  0.00    -0.135 C  
HETATM   22  C   UNL     1     -10.139   8.109  68.717  1.00  0.00    -0.211 A  
HETATM   23  C   UNL     1     -10.629   7.208  69.671  1.00  0.00    -0.249 A  
HETATM   24  C   UNL     1     -11.393   7.645  70.753  1.00  0.00    -0.281 A  
HETATM   25  C   UNL     1     -11.672   9.016  70.888  1.00  0.00    -0.276 A  
HETATM   26  O   UNL     1      -7.967  11.730  67.335  1.00  0.00    -0.138 OA 
HETATM   27  C   UNL     1      -8.466  10.608  67.455  1.00  0.00    -0.122 C  
HETATM   28  C   UNL     1     -11.177   9.917  69.933  1.00  0.00    -0.298 A  
HETATM   29  C   UNL     1      -9.946  10.473  67.800  1.00  0.00    -0.198 C  
HETATM   30  C   UNL     1     -10.395   9.480  68.847  1.00  0.00    -0.225 A  
BRANCH  24  31
HETATM   31  O   UNL     1     -11.862   6.801  71.730  1.00  0.00    -0.296 OA 
HETATM   32  C   UNL     1     -10.948   5.822  72.212  1.00  0.00    -0.262 C  
ENDBRANCH  24  31
BRANCH  25  33
HETATM   33  O   UNL     1     -12.437   9.374  71.971  1.00  0.00    -0.369 OA 
HETATM   34  C   UNL     1     -13.848   9.266  71.843  1.00  0.00    -0.349 C  
ENDBRANCH  25  33
ENDBRANCH  18  19
ENDBRANCH  17  18
ENDBRANCH  16  17
ENDBRANCH  14  16
ENDBRANCH  13  14
ENDBRANCH   9  13
ENDBRANCH   2   3
TORSDOF 10
ENDMDL
MODEL      132
REMARK 921   NORMALIZED FREE ENERGY PREDICTED BY IDOCK:   -4.66 KCAL/MOL
REMARK 922        TOTAL FREE ENERGY PREDICTED BY IDOCK:   -9.35 KCAL/MOL
REMARK 923 INTER-LIGAND FREE ENERGY PREDICTED BY IDOCK:   -8.09 KCAL/MOL
REMARK 924 INTRA-LIGAND FREE ENERGY PREDICTED BY IDOCK:   -1.26 KCAL/MOL
REMARK 927      BINDING AFFINITY PREDICTED BY RF-SCORE:    0.00 PKD
ROOT
HETATM    1  C   UNL     1      -8.962   8.728  65.196  1.00  0.00    -0.100 C  
HETATM    2  O   UNL     1      -8.316   7.518  65.578  1.00  0.00    -0.130 OA 
ENDROOT
BRANCH   2   3
HETATM    3  C   UNL     1      -8.508   7.071  66.860  1.00  0.00    -0.119 A  
HETATM    4  C   UNL     1      -7.527   6.555  67.750  1.00  0.00    -0.097 A  
HETATM    5  C   UNL     1      -9.863   7.174  67.281  1.00  0.00    -0.217 A  
HETATM    6  C   UNL     1      -7.919   6.087  69.004  1.00  0.00    -0.104 A  
HETATM    7  C   UNL     1     -10.192   6.717  68.543  1.00  0.00    -0.185 A  
HETATM    8  C   UNL     1      -9.248   6.125  69.322  1.00  0.00    -0.134 A  
HETATM    9  C   UNL     1     -10.204   5.703  70.409  1.00  0.00    -0.302 C  
HETATM   10  C   UNL     1     -11.244   6.622  69.625  1.00  0.00    -0.397 C  
BRANCH   4  11
HETATM   11  O   UNL     1      -6.203   6.552  67.397  1.00  0.00    -0.032 OA 
HETATM   12  C   UNL     1      -5.426   7.659  67.850  1.00  0.00    -0.031 C  
ENDBRANCH   4  11
BRANCH   9  13
HETATM   13  C   UNL     1      -9.485   5.929  71.746  1.00  0.00    -0.151 C  
BRANCH  13  14
HETATM   14  N   UNL     1      -9.581   7.256  72.356  1.00  0.00    -0.148 NA 
HETATM   15  C   UNL     1      -8.437   8.088  72.027  1.00  0.00    -0.144 C  
BRANCH  14  16
HETATM   16  C   UNL     1     -10.901   7.883  72.208  1.00  0.00    -0.293 C  
BRANCH  16  17
HETATM   17  C   UNL     1     -10.791   9.330  71.732  1.00  0.00    -0.358 C  
BRANCH  17  18
HETATM   18  C   UNL     1     -12.152  10.018  71.562  1.00  0.00    -0.387 C  
BRANCH  18  19
HETATM   19  N   UNL     1     -12.143  10.815  70.333  1.00  0.00    -0.323 N  
HETATM   20  C   UNL     1     -12.020  10.094  69.070  1.00  0.00     0.314 C  
HETATM   21  C   UNL     1     -10.794  10.525  68.283  1.00  0.00    -0.293 C  
HETATM   22  C   UNL     1     -11.177  11.692  67.418  1.00  0.00    -0.358 A  
HETATM   23  C   UNL     1     -11.115  11.540  66.027  1.00  0.00    -0.289 A  
HETATM   24  C   UNL     1     -11.511  12.566  65.169  1.00  0.00    -0.328 A  
HETATM   25  C   UNL     1     -11.985  13.773  65.713  1.00  0.00    -0.399 A  
HETATM   26  O   UNL     1     -13.154  12.630  71.285  1.00  0.00    -0.274 OA 
HETATM   27  C   UNL     1     -12.452  12.166  70.383  1.00  0.00    -0.144 C  
HETATM   28  C   UNL     1     -12.050  13.921  67.107  1.00  0.00    -0.422 A  
HETATM   29  C   UNL     1     -11.676  13.111  69.469  1.00  0.00    -0.382 C  
HETATM   30  C   UNL     1     -11.663  12.883  67.975  1.00  0.00    -0.401 A  
BRANCH  24  31
HETATM   31  O   UNL     1     -11.500  12.446  63.801  1.00  0.00    -0.389 OA 
HETATM   32  C   UNL     1     -10.294  11.966  63.218  1.00  0.00    -0.391 C  
ENDBRANCH  24  31
BRANCH  25  33
HETATM   33  O   UNL     1     -12.348  14.742  64.811  1.00  0.00    -0.394 OA 
HETATM   34  C   UNL     1     -11.428  15.799  64.575  1.00  0.00    -0.289 C  
ENDBRANCH  25  33
ENDBRANCH  18  19
ENDBRANCH  17  18
ENDBRANCH  16  17
ENDBRANCH  14  16
ENDBRANCH  13  14
ENDBRANCH   9  13
ENDBRANCH   2   3
TORSDOF 10
ENDMDL
MODEL      133
REMARK 921   NORMALIZED FREE ENERGY PREDICTED BY IDOCK:   -4.66 KCAL/MOL
REMARK 922        TOTAL FREE ENERGY PREDICTED BY IDOCK:   -9.35 KCAL/MOL
REMARK 923 INTER-LIGAND FREE ENERGY PREDICTED BY IDOCK:   -8.26 KCAL/MOL
REMARK 924 INTRA-LIGAND FREE ENERGY PREDICTED BY IDOCK:   -1.08 KCAL/MOL
REMARK 927      BINDING AFFINITY PREDICTED BY RF-SCORE:    0.00 PKD
ROOT
HETATM    1  C   UNL     1      -7.954   2.092  65.700  1.00  0.00    -0.078 C  
HETATM    2  O   UNL     1      -9.197   2.182  66.389  1.00  0.00    -0.086 OA 
ENDROOT
BRANCH   2   3
HETATM    3  C   UNL     1      -9.408   3.283  67.181  1.00  0.00    -0.181 A  
HETATM    4  C   UNL     1      -9.095   3.425  68.560  1.00  0.00    -0.151 A  
HETATM    5  C   UNL     1     -10.001   4.364  66.472  1.00  0.00    -0.245 A  
HETATM    6  C   UNL     1      -9.440   4.603  69.221  1.00  0.00    -0.231 A  
HETATM    7  C   UNL     1     -10.300   5.518  67.172  1.00  0.00    -0.301 A  
HETATM    8  C   UNL     1     -10.091   5.576  68.514  1.00  0.00    -0.240 A  
HETATM    9  C   UNL     1     -10.748   6.920  68.704  1.00  0.00    -0.256 C  
HETATM   10  C   UNL     1     -10.749   6.960  67.110  1.00  0.00    -0.436 C  
BRANCH   4  11
HETATM   11  O   UNL     1      -8.426   2.432  69.226  1.00  0.00    -0.054 OA 
HETATM   12  C   UNL     1      -7.011   2.582  69.328  1.00  0.00    -0.036 C  
ENDBRANCH   4  11
BRANCH   9  13
HETATM   13  C   UNL     1      -9.896   7.692  69.720  1.00  0.00    -0.181 C  
BRANCH  13  14
HETATM   14  N   UNL     1     -10.583   8.614  70.625  1.00  0.00    -0.204 NA 
HETATM   15  C   UNL     1     -10.056   8.540  71.977  1.00  0.00    -0.316 C  
BRANCH  14  16
HETATM   16  C   UNL     1     -10.763   9.963  70.074  1.00  0.00    -0.292 C  
BRANCH  16  17
HETATM   17  C   UNL     1      -9.704  10.294  69.025  1.00  0.00    -0.213 C  
BRANCH  17  18
HETATM   18  C   UNL     1     -10.292  10.562  67.633  1.00  0.00    -0.217 C  
BRANCH  18  19
HETATM   19  N   UNL     1     -10.151  11.985  67.313  1.00  0.00    -0.194 N  
HETATM   20  C   UNL     1      -8.872  12.423  66.766  1.00  0.00    -0.189 C  
HETATM   21  C   UNL     1      -8.212  13.482  67.632  1.00  0.00    -0.178 C  
HETATM   22  C   UNL     1      -8.706  14.829  67.185  1.00  0.00    -0.241 A  
HETATM   23  C   UNL     1      -7.780  15.734  66.649  1.00  0.00    -0.140 A  
HETATM   24  C   UNL     1      -8.183  16.979  66.165  1.00  0.00    -0.249 A  
HETATM   25  C   UNL     1      -9.544  17.327  66.212  1.00  0.00    -0.248 A  
HETATM   26  O   UNL     1     -12.401  12.363  67.172  1.00  0.00    -0.380 OA 
HETATM   27  C   UNL     1     -11.264  12.813  67.339  1.00  0.00    -0.294 C  
HETATM   28  C   UNL     1     -10.470  16.416  66.745  1.00  0.00    -0.273 A  
HETATM   29  C   UNL     1     -11.085  14.236  67.860  1.00  0.00    -0.293 C  
HETATM   30  C   UNL     1     -10.068  15.155  67.224  1.00  0.00    -0.235 A  
BRANCH  24  31
HETATM   31  O   UNL     1      -7.316  17.881  65.599  1.00  0.00    -0.533 OA 
HETATM   32  C   UNL     1      -6.083  18.086  66.282  1.00  0.00    -0.199 C  
ENDBRANCH  24  31
BRANCH  25  33
HETATM   33  O   UNL     1      -9.868  18.570  65.726  1.00  0.00    -0.483 OA 
HETATM   34  C   UNL     1     -10.734  19.377  66.513  1.00  0.00    -0.418 C  
ENDBRANCH  25  33
ENDBRANCH  18  19
ENDBRANCH  17  18
ENDBRANCH  16  17
ENDBRANCH  14  16
ENDBRANCH  13  14
ENDBRANCH   9  13
ENDBRANCH   2   3
TORSDOF 10
ENDMDL
MODEL      134
REMARK 921   NORMALIZED FREE ENERGY PREDICTED BY IDOCK:   -4.65 KCAL/MOL
REMARK 922        TOTAL FREE ENERGY PREDICTED BY IDOCK:   -9.34 KCAL/MOL
REMARK 923 INTER-LIGAND FREE ENERGY PREDICTED BY IDOCK:   -7.91 KCAL/MOL
REMARK 924 INTRA-LIGAND FREE ENERGY PREDICTED BY IDOCK:   -1.43 KCAL/MOL
REMARK 927      BINDING AFFINITY PREDICTED BY RF-SCORE:    0.00 PKD
ROOT
HETATM    1  C   UNL     1     -13.586  13.486  72.511  1.00  0.00    -0.569 C  
HETATM    2  O   UNL     1     -13.790  14.146  71.266  1.00  0.00    -0.296 OA 
ENDROOT
BRANCH   2   3
HETATM    3  C   UNL     1     -12.690  14.374  70.478  1.00  0.00    -0.340 A  
HETATM    4  C   UNL     1     -11.911  13.408  69.786  1.00  0.00    -0.326 A  
HETATM    5  C   UNL     1     -12.358  15.754  70.384  1.00  0.00    -0.367 A  
HETATM    6  C   UNL     1     -10.782  13.821  69.078  1.00  0.00    -0.209 A  
HETATM    7  C   UNL     1     -11.243  16.109  69.650  1.00  0.00    -0.331 A  
HETATM    8  C   UNL     1     -10.456  15.149  69.096  1.00  0.00    -0.252 A  
HETATM    9  C   UNL     1      -9.379  16.096  68.630  1.00  0.00    -0.222 C  
HETATM   10  C   UNL     1     -10.425  17.226  69.041  1.00  0.00    -0.309 C  
BRANCH   4  11
HETATM   11  O   UNL     1     -12.283  12.090  69.781  1.00  0.00    -0.244 OA 
HETATM   12  C   UNL     1     -11.946  11.343  68.613  1.00  0.00    -0.249 C  
ENDBRANCH   4  11
BRANCH   9  13
HETATM   13  C   UNL     1      -8.929  15.611  67.246  1.00  0.00    -0.199 C  
BRANCH  13  14
HETATM   14  N   UNL     1      -7.570  15.084  67.117  1.00  0.00    -0.189 NA 
HETATM   15  C   UNL     1      -6.580  16.001  67.655  1.00  0.00    -0.162 C  
BRANCH  14  16
HETATM   16  C   UNL     1      -7.437  13.678  67.521  1.00  0.00    -0.170 C  
BRANCH  16  17
HETATM   17  C   UNL     1      -6.102  13.410  68.210  1.00  0.00    -0.099 C  
BRANCH  17  18
HETATM   18  C   UNL     1      -5.540  12.012  67.922  1.00  0.00    -0.060 C  
BRANCH  18  19
HETATM   19  N   UNL     1      -6.583  11.011  68.155  1.00  0.00    -0.058 N  
HETATM   20  C   UNL     1      -6.893  10.100  67.059  1.00  0.00    -0.083 C  
HETATM   21  C   UNL     1      -8.347  10.196  66.629  1.00  0.00    -0.123 C  
HETATM   22  C   UNL     1      -9.147   9.237  67.465  1.00  0.00    -0.133 A  
HETATM   23  C   UNL     1      -9.788   8.169  66.825  1.00  0.00    -0.329 A  
HETATM   24  C   UNL     1     -10.500   7.213  67.549  1.00  0.00    -0.260 A  
HETATM   25  C   UNL     1     -10.570   7.323  68.949  1.00  0.00    -0.191 A  
HETATM   26  O   UNL     1      -6.420  11.105  70.434  1.00  0.00    -0.269 OA 
HETATM   27  C   UNL     1      -7.087  10.822  69.434  1.00  0.00    -0.122 C  
HETATM   28  C   UNL     1      -9.923   8.393  69.589  1.00  0.00    -0.193 A  
HETATM   29  C   UNL     1      -8.577  10.529  69.580  1.00  0.00    -0.047 C  
HETATM   30  C   UNL     1      -9.194   9.352  68.860  1.00  0.00    -0.140 A  
BRANCH  24  31
HETATM   31  O   UNL     1     -11.113   6.131  66.966  1.00  0.00    -0.335 OA 
HETATM   32  C   UNL     1     -10.258   5.078  66.533  1.00  0.00    -0.271 C  
ENDBRANCH  24  31
BRANCH  25  33
HETATM   33  O   UNL     1     -11.294   6.354  69.597  1.00  0.00    -0.387 OA 
HETATM   34  C   UNL     1     -11.975   6.727  70.787  1.00  0.00    -0.378 C  
ENDBRANCH  25  33
ENDBRANCH  18  19
ENDBRANCH  17  18
ENDBRANCH  16  17
ENDBRANCH  14  16
ENDBRANCH  13  14
ENDBRANCH   9  13
ENDBRANCH   2   3
TORSDOF 10
ENDMDL
MODEL      135
REMARK 921   NORMALIZED FREE ENERGY PREDICTED BY IDOCK:   -4.64 KCAL/MOL
REMARK 922        TOTAL FREE ENERGY PREDICTED BY IDOCK:   -9.32 KCAL/MOL
REMARK 923 INTER-LIGAND FREE ENERGY PREDICTED BY IDOCK:   -7.06 KCAL/MOL
REMARK 924 INTRA-LIGAND FREE ENERGY PREDICTED BY IDOCK:   -2.26 KCAL/MOL
REMARK 927      BINDING AFFINITY PREDICTED BY RF-SCORE:    0.00 PKD
ROOT
HETATM    1  C   UNL     1      -5.529  13.767  72.750  1.00  0.00    -0.044 C  
HETATM    2  O   UNL     1      -5.135  14.154  71.436  1.00  0.00    -0.118 OA 
ENDROOT
BRANCH   2   3
HETATM    3  C   UNL     1      -5.899  13.711  70.387  1.00  0.00    -0.161 A  
HETATM    4  C   UNL     1      -6.535  14.500  69.391  1.00  0.00    -0.132 A  
HETATM    5  C   UNL     1      -6.015  12.294  70.351  1.00  0.00    -0.098 A  
HETATM    6  C   UNL     1      -7.329  13.876  68.428  1.00  0.00    -0.115 A  
HETATM    7  C   UNL     1      -6.794  11.727  69.360  1.00  0.00    -0.067 A  
HETATM    8  C   UNL     1      -7.480  12.519  68.495  1.00  0.00    -0.122 A  
HETATM    9  C   UNL     1      -8.235  11.391  67.836  1.00  0.00    -0.132 C  
HETATM   10  C   UNL     1      -7.240  10.461  68.663  1.00  0.00    -0.082 C  
BRANCH   4  11
HETATM   11  O   UNL     1      -6.343  15.856  69.351  1.00  0.00    -0.140 OA 
HETATM   12  C   UNL     1      -5.168  16.307  68.678  1.00  0.00    -0.101 C  
ENDBRANCH   4  11
BRANCH   9  13
HETATM   13  C   UNL     1      -8.286  11.709  66.335  1.00  0.00    -0.084 C  
BRANCH  13  14
HETATM   14  N   UNL     1      -9.548  11.471  65.631  1.00  0.00    -0.228 NA 
HETATM   15  C   UNL     1      -9.554  10.187  64.950  1.00  0.00    -0.306 C  
BRANCH  14  16
HETATM   16  C   UNL     1     -10.741  11.788  66.426  1.00  0.00    -0.266 C  
BRANCH  16  17
HETATM   17  C   UNL     1     -11.771  12.569  65.616  1.00  0.00    -0.473 C  
BRANCH  17  18
HETATM   18  C   UNL     1     -12.528  13.617  66.444  1.00  0.00    -0.324 C  
BRANCH  18  19
HETATM   19  N   UNL     1     -11.627  14.727  66.763  1.00  0.00    -0.354 N  
HETATM   20  C   UNL     1     -11.024  15.441  65.642  1.00  0.00    -0.326 C  
HETATM   21  C   UNL     1      -9.506  15.389  65.681  1.00  0.00    -0.255 C  
HETATM   22  C   UNL     1      -9.018  16.550  66.502  1.00  0.00    -0.312 A  
HETATM   23  C   UNL     1      -8.240  17.530  65.873  1.00  0.00    -0.023 A  
HETATM   24  C   UNL     1      -7.803  18.659  66.564  1.00  0.00    -0.268 A  
HETATM   25  C   UNL     1      -8.154  18.817  67.916  1.00  0.00    -0.261 A  
HETATM   26  O   UNL     1     -12.465  15.044  68.866  1.00  0.00    -0.047 OA 
HETATM   27  C   UNL     1     -11.536  15.192  68.067  1.00  0.00    -0.328 C  
HETATM   28  C   UNL     1      -8.938  17.835  68.542  1.00  0.00    -0.288 A  
HETATM   29  C   UNL     1     -10.167  15.630  68.576  1.00  0.00    -0.211 C  
HETATM   30  C   UNL     1      -9.390  16.700  67.844  1.00  0.00    -0.221 A  
BRANCH  24  31
HETATM   31  O   UNL     1      -7.069  19.662  65.977  1.00  0.00    -0.248 OA 
HETATM   32  C   UNL     1      -6.131  19.260  64.984  1.00  0.00    -0.276 C  
ENDBRANCH  24  31
BRANCH  25  33
HETATM   33  O   UNL     1      -7.683  19.948  68.536  1.00  0.00    -0.308 OA 
HETATM   34  C   UNL     1      -6.680  19.782  69.530  1.00  0.00    -0.337 C  
ENDBRANCH  25  33
ENDBRANCH  18  19
ENDBRANCH  17  18
ENDBRANCH  16  17
ENDBRANCH  14  16
ENDBRANCH  13  14
ENDBRANCH   9  13
ENDBRANCH   2   3
TORSDOF 10
ENDMDL
MODEL      136
REMARK 921   NORMALIZED FREE ENERGY PREDICTED BY IDOCK:   -4.63 KCAL/MOL
REMARK 922        TOTAL FREE ENERGY PREDICTED BY IDOCK:   -9.30 KCAL/MOL
REMARK 923 INTER-LIGAND FREE ENERGY PREDICTED BY IDOCK:   -7.71 KCAL/MOL
REMARK 924 INTRA-LIGAND FREE ENERGY PREDICTED BY IDOCK:   -1.60 KCAL/MOL
REMARK 927      BINDING AFFINITY PREDICTED BY RF-SCORE:    0.00 PKD
ROOT
HETATM    1  C   UNL     1      -6.769  17.134  69.108  1.00  0.00    -0.238 C  
HETATM    2  O   UNL     1      -7.667  16.082  69.449  1.00  0.00    -0.231 OA 
ENDROOT
BRANCH   2   3
HETATM    3  C   UNL     1      -7.242  14.793  69.250  1.00  0.00    -0.167 A  
HETATM    4  C   UNL     1      -6.419  14.015  70.108  1.00  0.00    -0.055 A  
HETATM    5  C   UNL     1      -7.725  14.237  68.033  1.00  0.00    -0.141 A  
HETATM    6  C   UNL     1      -6.035  12.734  69.710  1.00  0.00    -0.131 A  
HETATM    7  C   UNL     1      -7.333  12.955  67.700  1.00  0.00    -0.145 A  
HETATM    8  C   UNL     1      -6.453  12.283  68.489  1.00  0.00    -0.064 A  
HETATM    9  C   UNL     1      -6.288  11.111  67.554  1.00  0.00    -0.065 C  
HETATM   10  C   UNL     1      -7.508  11.774  66.772  1.00  0.00    -0.057 C  
BRANCH   4  11
HETATM   11  O   UNL     1      -6.037  14.499  71.331  1.00  0.00    -0.086 OA 
HETATM   12  C   UNL     1      -5.276  13.614  72.152  1.00  0.00    -0.167 C  
ENDBRANCH   4  11
BRANCH   9  13
HETATM   13  C   UNL     1      -6.231   9.851  68.428  1.00  0.00    -0.050 C  
BRANCH  13  14
HETATM   14  N   UNL     1      -6.809   8.619  67.887  1.00  0.00    -0.066 NA 
HETATM   15  C   UNL     1      -5.919   7.484  68.055  1.00  0.00    -0.035 C  
BRANCH  14  16
HETATM   16  C   UNL     1      -8.211   8.404  68.269  1.00  0.00    -0.124 C  
BRANCH  16  17
HETATM   17  C   UNL     1      -9.125   8.322  67.049  1.00  0.00    -0.172 C  
BRANCH  17  18
HETATM   18  C   UNL     1     -10.586   8.669  67.360  1.00  0.00    -0.228 C  
BRANCH  18  19
HETATM   19  N   UNL     1     -10.716  10.119  67.529  1.00  0.00    -0.277 N  
HETATM   20  C   UNL     1     -10.693  10.637  68.892  1.00  0.00    -0.219 C  
HETATM   21  C   UNL     1     -11.963  11.395  69.238  1.00  0.00    -0.400 C  
HETATM   22  C   UNL     1     -11.776  12.832  68.838  1.00  0.00    -0.370 A  
HETATM   23  C   UNL     1     -11.790  13.810  69.840  1.00  0.00    -0.394 A  
HETATM   24  C   UNL     1     -11.566  15.154  69.542  1.00  0.00    -0.319 A  
HETATM   25  C   UNL     1     -11.318  15.531  68.211  1.00  0.00    -0.357 A  
HETATM   26  O   UNL     1     -10.051  10.611  65.398  1.00  0.00    -0.264 OA 
HETATM   27  C   UNL     1     -10.648  10.952  66.423  1.00  0.00    -0.229 C  
HETATM   28  C   UNL     1     -11.301  14.548  67.209  1.00  0.00    -0.363 A  
HETATM   29  C   UNL     1     -11.562  12.173  66.391  1.00  0.00    -0.429 C  
HETATM   30  C   UNL     1     -11.514  13.189  67.509  1.00  0.00    -0.371 A  
BRANCH  24  31
HETATM   31  O   UNL     1     -11.536  16.140  70.498  1.00  0.00    -0.367 OA 
HETATM   32  C   UNL     1     -11.722  15.720  71.845  1.00  0.00    -0.483 C  
ENDBRANCH  24  31
BRANCH  25  33
HETATM   33  O   UNL     1     -11.116  16.870  67.989  1.00  0.00    -0.336 OA 
HETATM   34  C   UNL     1     -10.383  17.240  66.828  1.00  0.00    -0.308 C  
ENDBRANCH  25  33
ENDBRANCH  18  19
ENDBRANCH  17  18
ENDBRANCH  16  17
ENDBRANCH  14  16
ENDBRANCH  13  14
ENDBRANCH   9  13
ENDBRANCH   2   3
TORSDOF 10
ENDMDL
MODEL      137
REMARK 921   NORMALIZED FREE ENERGY PREDICTED BY IDOCK:   -4.62 KCAL/MOL
REMARK 922        TOTAL FREE ENERGY PREDICTED BY IDOCK:   -9.28 KCAL/MOL
REMARK 923 INTER-LIGAND FREE ENERGY PREDICTED BY IDOCK:   -7.66 KCAL/MOL
REMARK 924 INTRA-LIGAND FREE ENERGY PREDICTED BY IDOCK:   -1.63 KCAL/MOL
REMARK 927      BINDING AFFINITY PREDICTED BY RF-SCORE:    0.00 PKD
ROOT
HETATM    1  C   UNL     1     -12.420  12.373  63.691  1.00  0.00    -0.508 C  
HETATM    2  O   UNL     1     -12.775  12.367  65.071  1.00  0.00    -0.631 OA 
ENDROOT
BRANCH   2   3
HETATM    3  C   UNL     1     -11.912  12.966  65.952  1.00  0.00    -0.448 A  
HETATM    4  C   UNL     1     -11.668  12.598  67.303  1.00  0.00    -0.370 A  
HETATM    5  C   UNL     1     -11.212  14.063  65.378  1.00  0.00    -0.319 A  
HETATM    6  C   UNL     1     -10.794  13.366  68.074  1.00  0.00    -0.264 A  
HETATM    7  C   UNL     1     -10.340  14.774  66.180  1.00  0.00    -0.314 A  
HETATM    8  C   UNL     1     -10.219  14.464  67.498  1.00  0.00    -0.240 A  
HETATM    9  C   UNL     1      -9.334  15.637  67.840  1.00  0.00    -0.195 C  
HETATM   10  C   UNL     1      -9.267  15.837  66.260  1.00  0.00    -0.368 C  
BRANCH   4  11
HETATM   11  O   UNL     1     -12.253  11.479  67.835  1.00  0.00    -0.586 OA 
HETATM   12  C   UNL     1     -12.154  11.326  69.250  1.00  0.00    -0.303 C  
ENDBRANCH   4  11
BRANCH   9  13
HETATM   13  C   UNL     1      -8.275  15.122  68.824  1.00  0.00    -0.169 C  
BRANCH  13  14
HETATM   14  N   UNL     1      -7.055  14.535  68.268  1.00  0.00    -0.103 NA 
HETATM   15  C   UNL     1      -6.057  15.547  67.965  1.00  0.00    -0.138 C  
BRANCH  14  16
HETATM   16  C   UNL     1      -6.577  13.354  68.998  1.00  0.00    -0.107 C  
BRANCH  16  17
HETATM   17  C   UNL     1      -6.358  12.163  68.069  1.00  0.00    -0.068 C  
BRANCH  17  18
HETATM   18  C   UNL     1      -7.429  12.038  66.979  1.00  0.00    -0.106 C  
BRANCH  18  19
HETATM   19  N   UNL     1      -7.842  10.637  66.861  1.00  0.00    -0.117 N  
HETATM   20  C   UNL     1      -7.036   9.773  66.006  1.00  0.00    -0.101 C  
HETATM   21  C   UNL     1      -7.851   9.164  64.878  1.00  0.00    -0.117 C  
HETATM   22  C   UNL     1      -8.451   7.878  65.374  1.00  0.00    -0.134 A  
HETATM   23  C   UNL     1      -8.063   6.681  64.759  1.00  0.00    -0.099 A  
HETATM   24  C   UNL     1      -8.539   5.450  65.209  1.00  0.00    -0.151 A  
HETATM   25  C   UNL     1      -9.423   5.411  66.302  1.00  0.00    -0.157 A  
HETATM   26  O   UNL     1      -9.048  10.639  68.803  1.00  0.00    -0.155 OA 
HETATM   27  C   UNL     1      -8.826  10.133  67.699  1.00  0.00    -0.125 C  
HETATM   28  C   UNL     1      -9.807   6.613  66.918  1.00  0.00    -0.222 A  
HETATM   29  C   UNL     1      -9.816   9.130  67.117  1.00  0.00    -0.253 C  
HETATM   30  C   UNL     1      -9.318   7.856  66.474  1.00  0.00    -0.255 A  
BRANCH  24  31
HETATM   31  O   UNL     1      -8.156   4.250  64.659  1.00  0.00    -0.088 OA 
HETATM   32  C   UNL     1      -6.765   4.086  64.407  1.00  0.00    -0.044 C  
ENDBRANCH  24  31
BRANCH  25  33
HETATM   33  O   UNL     1      -9.858   4.167  66.685  1.00  0.00    -0.215 OA 
HETATM   34  C   UNL     1      -9.315   3.620  67.879  1.00  0.00    -0.190 C  
ENDBRANCH  25  33
ENDBRANCH  18  19
ENDBRANCH  17  18
ENDBRANCH  16  17
ENDBRANCH  14  16
ENDBRANCH  13  14
ENDBRANCH   9  13
ENDBRANCH   2   3
TORSDOF 10
ENDMDL
MODEL      138
REMARK 921   NORMALIZED FREE ENERGY PREDICTED BY IDOCK:   -4.61 KCAL/MOL
REMARK 922        TOTAL FREE ENERGY PREDICTED BY IDOCK:   -9.27 KCAL/MOL
REMARK 923 INTER-LIGAND FREE ENERGY PREDICTED BY IDOCK:   -8.24 KCAL/MOL
REMARK 924 INTRA-LIGAND FREE ENERGY PREDICTED BY IDOCK:   -1.04 KCAL/MOL
REMARK 927      BINDING AFFINITY PREDICTED BY RF-SCORE:    0.00 PKD
ROOT
HETATM    1  C   UNL     1     -14.411   8.216  71.957  1.00  0.00    -0.430 C  
HETATM    2  O   UNL     1     -13.359   9.112  72.300  1.00  0.00    -0.415 OA 
ENDROOT
BRANCH   2   3
HETATM    3  C   UNL     1     -12.264   9.154  71.474  1.00  0.00    -0.349 A  
HETATM    4  C   UNL     1     -11.808  10.257  70.703  1.00  0.00    -0.347 A  
HETATM    5  C   UNL     1     -11.551   7.924  71.444  1.00  0.00    -0.304 A  
HETATM    6  C   UNL     1     -10.703  10.096  69.867  1.00  0.00    -0.340 A  
HETATM    7  C   UNL     1     -10.449   7.827  70.616  1.00  0.00    -0.213 A  
HETATM    8  C   UNL     1     -10.110   8.866  69.807  1.00  0.00    -0.205 A  
HETATM    9  C   UNL     1      -9.025   8.124  69.068  1.00  0.00    -0.144 C  
HETATM   10  C   UNL     1      -9.247   7.014  70.190  1.00  0.00    -0.152 C  
BRANCH   4  11
HETATM   11  O   UNL     1     -12.422  11.478  70.806  1.00  0.00    -0.362 OA 
HETATM   12  C   UNL     1     -11.782  12.565  70.140  1.00  0.00    -0.175 C  
ENDBRANCH   4  11
BRANCH   9  13
HETATM   13  C   UNL     1      -7.871   9.115  68.863  1.00  0.00    -0.094 C  
BRANCH  13  14
HETATM   14  N   UNL     1      -7.384   9.320  67.497  1.00  0.00    -0.087 NA 
HETATM   15  C   UNL     1      -7.977   8.379  66.563  1.00  0.00    -0.096 C  
BRANCH  14  16
HETATM   16  C   UNL     1      -7.369  10.727  67.077  1.00  0.00    -0.110 C  
BRANCH  16  17
HETATM   17  C   UNL     1      -8.507  11.041  66.109  1.00  0.00    -0.168 C  
BRANCH  17  18
HETATM   18  C   UNL     1      -9.701  11.734  66.778  1.00  0.00    -0.197 C  
BRANCH  18  19
HETATM   19  N   UNL     1      -9.429  13.170  66.890  1.00  0.00    -0.237 N  
HETATM   20  C   UNL     1      -8.376  13.580  67.813  1.00  0.00    -0.181 C  
HETATM   21  C   UNL     1      -8.894  14.514  68.893  1.00  0.00    -0.103 C  
HETATM   22  C   UNL     1      -8.799  15.924  68.378  1.00  0.00    -0.184 A  
HETATM   23  C   UNL     1      -7.946  16.818  69.037  1.00  0.00    -0.188 A  
HETATM   24  C   UNL     1      -7.771  18.123  68.577  1.00  0.00    -0.297 A  
HETATM   25  C   UNL     1      -8.461  18.545  67.428  1.00  0.00    -0.257 A  
HETATM   26  O   UNL     1     -10.366  13.691  64.871  1.00  0.00    -0.377 OA 
HETATM   27  C   UNL     1     -10.011  14.056  65.996  1.00  0.00    -0.315 C  
HETATM   28  C   UNL     1      -9.312  17.645  66.767  1.00  0.00    -0.286 A  
HETATM   29  C   UNL     1     -10.465  15.412  66.527  1.00  0.00    -0.295 C  
HETATM   30  C   UNL     1      -9.481  16.324  67.222  1.00  0.00    -0.231 A  
BRANCH  24  31
HETATM   31  O   UNL     1      -6.917  19.020  69.171  1.00  0.00    -0.316 OA 
HETATM   32  C   UNL     1      -5.587  18.569  69.403  1.00  0.00    -0.220 C  
ENDBRANCH  24  31
BRANCH  25  33
HETATM   33  O   UNL     1      -8.248  19.844  67.037  1.00  0.00    -0.291 OA 
HETATM   34  C   UNL     1      -7.556  20.056  65.814  1.00  0.00    -0.269 C  
ENDBRANCH  25  33
ENDBRANCH  18  19
ENDBRANCH  17  18
ENDBRANCH  16  17
ENDBRANCH  14  16
ENDBRANCH  13  14
ENDBRANCH   9  13
ENDBRANCH   2   3
TORSDOF 10
ENDMDL
MODEL      139
REMARK 921   NORMALIZED FREE ENERGY PREDICTED BY IDOCK:   -4.60 KCAL/MOL
REMARK 922        TOTAL FREE ENERGY PREDICTED BY IDOCK:   -9.25 KCAL/MOL
REMARK 923 INTER-LIGAND FREE ENERGY PREDICTED BY IDOCK:   -8.11 KCAL/MOL
REMARK 924 INTRA-LIGAND FREE ENERGY PREDICTED BY IDOCK:   -1.15 KCAL/MOL
REMARK 927      BINDING AFFINITY PREDICTED BY RF-SCORE:    0.00 PKD
ROOT
HETATM    1  C   UNL     1     -11.910  15.287  72.409  1.00  0.00    -0.434 C  
HETATM    2  O   UNL     1     -11.372  16.147  71.409  1.00  0.00    -0.380 OA 
ENDROOT
BRANCH   2   3
HETATM    3  C   UNL     1     -11.335  15.679  70.121  1.00  0.00    -0.344 A  
HETATM    4  C   UNL     1     -10.974  16.403  68.952  1.00  0.00    -0.332 A  
HETATM    5  C   UNL     1     -11.701  14.309  70.022  1.00  0.00    -0.364 A  
HETATM    6  C   UNL     1     -11.054  15.776  67.708  1.00  0.00    -0.313 A  
HETATM    7  C   UNL     1     -11.740  13.731  68.768  1.00  0.00    -0.391 A  
HETATM    8  C   UNL     1     -11.500  14.484  67.662  1.00  0.00    -0.374 A  
HETATM    9  C   UNL     1     -11.859  13.405  66.672  1.00  0.00    -0.443 C  
HETATM   10  C   UNL     1     -11.880  12.462  67.957  1.00  0.00    -0.376 C  
BRANCH   4  11
HETATM   11  O   UNL     1     -10.515  17.691  69.046  1.00  0.00    -0.342 OA 
HETATM   12  C   UNL     1      -9.338  17.998  68.301  1.00  0.00    -0.295 C  
ENDBRANCH   4  11
BRANCH   9  13
HETATM   13  C   UNL     1     -10.846  13.501  65.523  1.00  0.00    -0.288 C  
BRANCH  13  14
HETATM   14  N   UNL     1     -10.959  12.531  64.432  1.00  0.00    -0.317 NA 
HETATM   15  C   UNL     1     -11.956  12.930  63.453  1.00  0.00    -0.537 C  
BRANCH  14  16
HETATM   16  C   UNL     1      -9.666  12.089  63.895  1.00  0.00    -0.146 C  
BRANCH  16  17
HETATM   17  C   UNL     1      -9.138  10.858  64.628  1.00  0.00    -0.189 C  
BRANCH  17  18
HETATM   18  C   UNL     1     -10.249   9.942  65.156  1.00  0.00     0.043 C  
BRANCH  18  19
HETATM   19  N   UNL     1      -9.728   9.131  66.259  1.00  0.00    -0.254 N  
HETATM   20  C   UNL     1     -10.476   9.145  67.511  1.00  0.00    -0.270 C  
HETATM   21  C   UNL     1      -9.635   9.639  68.675  1.00  0.00    -0.154 C  
HETATM   22  C   UNL     1      -8.924   8.458  69.275  1.00  0.00    -0.150 A  
HETATM   23  C   UNL     1      -9.226   8.100  70.595  1.00  0.00    -0.162 A  
HETATM   24  C   UNL     1      -8.643   6.982  71.192  1.00  0.00    -0.133 A  
HETATM   25  C   UNL     1      -7.741   6.199  70.451  1.00  0.00    -0.098 A  
HETATM   26  O   UNL     1      -8.491   7.762  64.909  1.00  0.00    -0.112 OA 
HETATM   27  C   UNL     1      -8.691   8.238  66.030  1.00  0.00    -0.155 C  
HETATM   28  C   UNL     1      -7.443   6.558  69.127  1.00  0.00    -0.095 A  
HETATM   29  C   UNL     1      -7.634   8.075  67.118  1.00  0.00    -0.097 C  
HETATM   30  C   UNL     1      -8.039   7.679  68.519  1.00  0.00    -0.124 A  
BRANCH  24  31
HETATM   31  O   UNL     1      -8.938   6.574  72.470  1.00  0.00    -0.136 OA 
HETATM   32  C   UNL     1      -9.731   7.462  73.250  1.00  0.00    -0.251 C  
ENDBRANCH  24  31
BRANCH  25  33
HETATM   33  O   UNL     1      -7.199   5.119  71.103  1.00  0.00    -0.064 OA 
HETATM   34  C   UNL     1      -6.490   4.167  70.321  1.00  0.00    -0.032 C  
ENDBRANCH  25  33
ENDBRANCH  18  19
ENDBRANCH  17  18
ENDBRANCH  16  17
ENDBRANCH  14  16
ENDBRANCH  13  14
ENDBRANCH   9  13
ENDBRANCH   2   3
TORSDOF 10
ENDMDL
MODEL      140
REMARK 921   NORMALIZED FREE ENERGY PREDICTED BY IDOCK:   -4.59 KCAL/MOL
REMARK 922        TOTAL FREE ENERGY PREDICTED BY IDOCK:   -9.24 KCAL/MOL
REMARK 923 INTER-LIGAND FREE ENERGY PREDICTED BY IDOCK:   -7.73 KCAL/MOL
REMARK 924 INTRA-LIGAND FREE ENERGY PREDICTED BY IDOCK:   -1.52 KCAL/MOL
REMARK 927      BINDING AFFINITY PREDICTED BY RF-SCORE:    0.00 PKD
ROOT
HETATM    1  C   UNL     1      -8.175   3.282  64.580  1.00  0.00    -0.090 C  
HETATM    2  O   UNL     1      -9.340   3.883  65.137  1.00  0.00    -0.139 OA 
ENDROOT
BRANCH   2   3
HETATM    3  C   UNL     1      -9.270   4.325  66.434  1.00  0.00    -0.147 A  
HETATM    4  C   UNL     1      -9.138   5.668  66.881  1.00  0.00    -0.116 A  
HETATM    5  C   UNL     1      -9.355   3.267  67.380  1.00  0.00    -0.242 A  
HETATM    6  C   UNL     1      -9.020   5.924  68.247  1.00  0.00    -0.112 A  
HETATM    7  C   UNL     1      -9.256   3.581  68.722  1.00  0.00    -0.226 A  
HETATM    8  C   UNL     1      -9.016   4.862  69.107  1.00  0.00    -0.132 A  
HETATM    9  C   UNL     1      -8.836   4.541  70.570  1.00  0.00    -0.140 C  
HETATM   10  C   UNL     1      -9.377   3.101  70.151  1.00  0.00    -0.238 C  
BRANCH   4  11
HETATM   11  O   UNL     1      -9.165   6.704  65.985  1.00  0.00    -0.130 OA 
HETATM   12  C   UNL     1      -8.605   7.938  66.430  1.00  0.00    -0.147 C  
ENDBRANCH   4  11
BRANCH   9  13
HETATM   13  C   UNL     1      -9.514   5.669  71.359  1.00  0.00    -0.147 C  
BRANCH  13  14
HETATM   14  N   UNL     1     -10.965   5.597  71.541  1.00  0.00    -0.234 NA 
HETATM   15  C   UNL     1     -11.325   5.321  72.921  1.00  0.00    -0.301 C  
BRANCH  14  16
HETATM   16  C   UNL     1     -11.700   6.687  70.886  1.00  0.00    -0.375 C  
BRANCH  16  17
HETATM   17  C   UNL     1     -12.426   7.570  71.897  1.00  0.00    -0.335 C  
BRANCH  17  18
HETATM   18  C   UNL     1     -11.546   8.689  72.469  1.00  0.00    -0.240 C  
BRANCH  18  19
HETATM   19  N   UNL     1     -11.158   9.601  71.390  1.00  0.00    -0.365 N  
HETATM   20  C   UNL     1     -12.099  10.657  71.037  1.00  0.00    -0.368 C  
HETATM   21  C   UNL     1     -12.535  10.573  69.584  1.00  0.00    -0.062 C  
HETATM   22  C   UNL     1     -11.558  11.359  68.755  1.00  0.00    -0.378 A  
HETATM   23  C   UNL     1     -12.023  12.488  68.068  1.00  0.00    -0.281 A  
HETATM   24  C   UNL     1     -11.157  13.292  67.328  1.00  0.00    -0.279 A  
HETATM   25  C   UNL     1      -9.792  12.964  67.274  1.00  0.00    -0.218 A  
HETATM   26  O   UNL     1      -8.922   9.161  71.576  1.00  0.00    -0.319 OA 
HETATM   27  C   UNL     1      -9.864   9.570  70.891  1.00  0.00    -0.209 C  
HETATM   28  C   UNL     1      -9.327  11.834  67.967  1.00  0.00    -0.184 A  
HETATM   29  C   UNL     1      -9.670   9.779  69.392  1.00  0.00    -0.214 C  
HETATM   30  C   UNL     1     -10.197  11.029  68.725  1.00  0.00    -0.211 A  
BRANCH  24  31
HETATM   31  O   UNL     1     -11.565  14.427  66.670  1.00  0.00    -0.357 OA 
HETATM   32  C   UNL     1     -12.343  14.230  65.494  1.00  0.00    -0.408 C  
ENDBRANCH  24  31
BRANCH  25  33
HETATM   33  O   UNL     1      -8.999  13.793  66.520  1.00  0.00    -0.179 OA 
HETATM   34  C   UNL     1      -8.064  14.612  67.208  1.00  0.00    -0.206 C  
ENDBRANCH  25  33
ENDBRANCH  18  19
ENDBRANCH  17  18
ENDBRANCH  16  17
ENDBRANCH  14  16
ENDBRANCH  13  14
ENDBRANCH   9  13
ENDBRANCH   2   3
TORSDOF 10
ENDMDL
MODEL      141
REMARK 921   NORMALIZED FREE ENERGY PREDICTED BY IDOCK:   -4.59 KCAL/MOL
REMARK 922        TOTAL FREE ENERGY PREDICTED BY IDOCK:   -9.24 KCAL/MOL
REMARK 923 INTER-LIGAND FREE ENERGY PREDICTED BY IDOCK:   -8.55 KCAL/MOL
REMARK 924 INTRA-LIGAND FREE ENERGY PREDICTED BY IDOCK:   -0.69 KCAL/MOL
REMARK 927      BINDING AFFINITY PREDICTED BY RF-SCORE:    0.00 PKD
ROOT
HETATM    1  C   UNL     1     -10.396  18.994  65.963  1.00  0.00    -0.446 C  
HETATM    2  O   UNL     1     -10.729  17.787  65.285  1.00  0.00    -0.649 OA 
ENDROOT
BRANCH   2   3
HETATM    3  C   UNL     1     -10.108  16.634  65.694  1.00  0.00    -0.217 A  
HETATM    4  C   UNL     1     -10.547  15.299  65.486  1.00  0.00    -0.373 A  
HETATM    5  C   UNL     1      -8.892  16.882  66.389  1.00  0.00    -0.322 A  
HETATM    6  C   UNL     1      -9.813  14.246  66.032  1.00  0.00    -0.336 A  
HETATM    7  C   UNL     1      -8.192  15.800  66.888  1.00  0.00    -0.288 A  
HETATM    8  C   UNL     1      -8.701  14.545  66.770  1.00  0.00    -0.214 A  
HETATM    9  C   UNL     1      -7.646  13.882  67.619  1.00  0.00    -0.188 C  
HETATM   10  C   UNL     1      -6.919  15.298  67.531  1.00  0.00    -0.225 C  
BRANCH   4  11
HETATM   11  O   UNL     1     -11.657  15.042  64.726  1.00  0.00    -0.401 OA 
HETATM   12  C   UNL     1     -12.611  14.140  65.285  1.00  0.00    -0.442 C  
ENDBRANCH   4  11
BRANCH   9  13
HETATM   13  C   UNL     1      -7.309  12.545  66.945  1.00  0.00     0.132 C  
BRANCH  13  14
HETATM   14  N   UNL     1      -7.363  11.335  67.767  1.00  0.00    -0.090 NA 
HETATM   15  C   UNL     1      -6.968  11.595  69.141  1.00  0.00    -0.105 C  
BRANCH  14  16
HETATM   16  C   UNL     1      -8.588  10.547  67.584  1.00  0.00    -0.118 C  
BRANCH  16  17
HETATM   17  C   UNL     1      -9.704  11.009  68.517  1.00  0.00    -0.189 C  
BRANCH  17  18
HETATM   18  C   UNL     1     -10.971  10.148  68.423  1.00  0.00    -0.244 C  
BRANCH  18  19
HETATM   19  N   UNL     1     -10.805   8.948  69.248  1.00  0.00    -0.155 N  
HETATM   20  C   UNL     1      -9.953   7.888  68.722  1.00  0.00    -0.187 C  
HETATM   21  C   UNL     1     -10.703   6.576  68.567  1.00  0.00    -0.329 C  
HETATM   22  C   UNL     1     -10.602   5.822  69.863  1.00  0.00    -0.388 A  
HETATM   23  C   UNL     1      -9.929   4.594  69.869  1.00  0.00    -0.296 A  
HETATM   24  C   UNL     1      -9.752   3.872  71.049  1.00  0.00    -0.182 A  
HETATM   25  C   UNL     1     -10.256   4.390  72.255  1.00  0.00    -0.188 A  
HETATM   26  O   UNL     1     -11.407   9.983  71.196  1.00  0.00    -0.360 OA 
HETATM   27  C   UNL     1     -11.274   8.937  70.553  1.00  0.00    -0.252 C  
HETATM   28  C   UNL     1     -10.926   5.624  72.246  1.00  0.00    -0.312 A  
HETATM   29  C   UNL     1     -11.890   7.645  71.081  1.00  0.00    -0.314 C  
HETATM   30  C   UNL     1     -11.096   6.360  71.059  1.00  0.00    -0.349 A  
BRANCH  24  31
HETATM   31  O   UNL     1      -9.067   2.682  71.106  1.00  0.00    -0.090 OA 
HETATM   32  C   UNL     1      -9.123   1.864  69.942  1.00  0.00    -0.095 C  
ENDBRANCH  24  31
BRANCH  25  33
HETATM   33  O   UNL     1     -10.053   3.623  73.375  1.00  0.00    -0.123 OA 
HETATM   34  C   UNL     1     -11.100   2.746  73.768  1.00  0.00    -0.210 C  
ENDBRANCH  25  33
ENDBRANCH  18  19
ENDBRANCH  17  18
ENDBRANCH  16  17
ENDBRANCH  14  16
ENDBRANCH  13  14
ENDBRANCH   9  13
ENDBRANCH   2   3
TORSDOF 10
ENDMDL
MODEL      142
REMARK 921   NORMALIZED FREE ENERGY PREDICTED BY IDOCK:   -4.59 KCAL/MOL
REMARK 922        TOTAL FREE ENERGY PREDICTED BY IDOCK:   -9.23 KCAL/MOL
REMARK 923 INTER-LIGAND FREE ENERGY PREDICTED BY IDOCK:   -7.49 KCAL/MOL
REMARK 924 INTRA-LIGAND FREE ENERGY PREDICTED BY IDOCK:   -1.75 KCAL/MOL
REMARK 927      BINDING AFFINITY PREDICTED BY RF-SCORE:    0.00 PKD
ROOT
HETATM    1  C   UNL     1      -6.103  14.632  70.571  1.00  0.00    -0.169 C  
HETATM    2  O   UNL     1      -5.344  13.544  70.052  1.00  0.00    -0.088 OA 
ENDROOT
BRANCH   2   3
HETATM    3  C   UNL     1      -6.033  12.492  69.504  1.00  0.00    -0.113 A  
HETATM    4  C   UNL     1      -6.664  12.445  68.232  1.00  0.00    -0.070 A  
HETATM    5  C   UNL     1      -6.069  11.355  70.358  1.00  0.00    -0.110 A  
HETATM    6  C   UNL     1      -7.377  11.304  67.865  1.00  0.00    -0.092 A  
HETATM    7  C   UNL     1      -6.769  10.242  69.933  1.00  0.00    -0.125 A  
HETATM    8  C   UNL     1      -7.457  10.274  68.761  1.00  0.00    -0.089 A  
HETATM    9  C   UNL     1      -8.117   8.931  68.945  1.00  0.00    -0.112 C  
HETATM   10  C   UNL     1      -7.112   8.789  70.174  1.00  0.00    -0.045 C  
BRANCH   4  11
HETATM   11  O   UNL     1      -6.544  13.493  67.357  1.00  0.00    -0.224 OA 
HETATM   12  C   UNL     1      -7.673  14.359  67.250  1.00  0.00    -0.137 C  
ENDBRANCH   4  11
BRANCH   9  13
HETATM   13  C   UNL     1      -8.116   8.244  67.573  1.00  0.00    -0.122 C  
BRANCH  13  14
HETATM   14  N   UNL     1      -9.376   7.668  67.098  1.00  0.00    -0.140 NA 
HETATM   15  C   UNL     1      -9.876   6.642  67.997  1.00  0.00    -0.131 C  
BRANCH  14  16
HETATM   16  C   UNL     1     -10.354   8.667  66.649  1.00  0.00    -0.232 C  
BRANCH  16  17
HETATM   17  C   UNL     1      -9.732   9.680  65.691  1.00  0.00    -0.363 C  
BRANCH  17  18
HETATM   18  C   UNL     1     -10.763  10.604  65.030  1.00  0.00    -0.010 C  
BRANCH  18  19
HETATM   19  N   UNL     1     -10.762  11.900  65.713  1.00  0.00    -0.274 N  
HETATM   20  C   UNL     1     -10.765  11.887  67.172  1.00  0.00    -0.240 C  
HETATM   21  C   UNL     1     -11.974  12.604  67.748  1.00  0.00    -0.303 C  
HETATM   22  C   UNL     1     -11.628  14.058  67.901  1.00  0.00    -0.377 A  
HETATM   23  C   UNL     1     -11.604  14.605  69.191  1.00  0.00    -0.331 A  
HETATM   24  C   UNL     1     -11.237  15.933  69.406  1.00  0.00    -0.336 A  
HETATM   25  C   UNL     1     -10.880  16.735  68.308  1.00  0.00    -0.366 A  
HETATM   26  O   UNL     1      -9.936  13.051  63.919  1.00  0.00    -0.311 OA 
HETATM   27  C   UNL     1     -10.554  13.064  64.987  1.00  0.00    -0.319 C  
HETATM   28  C   UNL     1     -10.901  16.183  67.017  1.00  0.00    -0.194 A  
HETATM   29  C   UNL     1     -11.344  14.307  65.387  1.00  0.00    -0.329 C  
HETATM   30  C   UNL     1     -11.260  14.839  66.798  1.00  0.00    -0.344 A  
BRANCH  24  31
HETATM   31  O   UNL     1     -11.164  16.499  70.656  1.00  0.00    -0.320 OA 
HETATM   32  C   UNL     1     -11.668  15.717  71.733  1.00  0.00    -0.478 C  
ENDBRANCH  24  31
BRANCH  25  33
HETATM   33  O   UNL     1     -10.538  18.034  68.592  1.00  0.00    -0.283 OA 
HETATM   34  C   UNL     1      -9.258  18.484  68.168  1.00  0.00    -0.309 C  
ENDBRANCH  25  33
ENDBRANCH  18  19
ENDBRANCH  17  18
ENDBRANCH  16  17
ENDBRANCH  14  16
ENDBRANCH  13  14
ENDBRANCH   9  13
ENDBRANCH   2   3
TORSDOF 10
ENDMDL
MODEL      143
REMARK 921   NORMALIZED FREE ENERGY PREDICTED BY IDOCK:   -4.56 KCAL/MOL
REMARK 922        TOTAL FREE ENERGY PREDICTED BY IDOCK:   -9.19 KCAL/MOL
REMARK 923 INTER-LIGAND FREE ENERGY PREDICTED BY IDOCK:   -6.75 KCAL/MOL
REMARK 924 INTRA-LIGAND FREE ENERGY PREDICTED BY IDOCK:   -2.45 KCAL/MOL
REMARK 927      BINDING AFFINITY PREDICTED BY RF-SCORE:    0.00 PKD
ROOT
HETATM    1  C   UNL     1     -10.640  11.887  63.326  1.00  0.00    -0.365 C  
HETATM    2  O   UNL     1      -9.399  11.192  63.244  1.00  0.00    -0.261 OA 
ENDROOT
BRANCH   2   3
HETATM    3  C   UNL     1      -9.135  10.247  64.202  1.00  0.00    -0.251 A  
HETATM    4  C   UNL     1      -7.996   9.401  64.285  1.00  0.00    -0.133 A  
HETATM    5  C   UNL     1     -10.152  10.168  65.192  1.00  0.00    -0.329 A  
HETATM    6  C   UNL     1      -7.925   8.449  65.303  1.00  0.00    -0.125 A  
HETATM    7  C   UNL     1     -10.019   9.222  66.192  1.00  0.00    -0.348 A  
HETATM    8  C   UNL     1      -8.974   8.354  66.174  1.00  0.00    -0.218 A  
HETATM    9  C   UNL     1      -9.465   7.516  67.328  1.00  0.00    -0.186 C  
HETATM   10  C   UNL     1     -10.535   8.684  67.507  1.00  0.00    -0.335 C  
BRANCH   4  11
HETATM   11  O   UNL     1      -6.959   9.542  63.401  1.00  0.00    -0.096 OA 
HETATM   12  C   UNL     1      -5.798  10.211  63.890  1.00  0.00    -0.140 C  
ENDBRANCH   4  11
BRANCH   9  13
HETATM   13  C   UNL     1      -8.234   7.155  68.170  1.00  0.00    -0.124 C  
BRANCH  13  14
HETATM   14  N   UNL     1      -8.190   7.632  69.554  1.00  0.00    -0.127 NA 
HETATM   15  C   UNL     1      -9.023   6.828  70.431  1.00  0.00    -0.152 C  
BRANCH  14  16
HETATM   16  C   UNL     1      -6.836   7.927  70.038  1.00  0.00    -0.045 C  
BRANCH  16  17
HETATM   17  C   UNL     1      -6.769   9.272  70.755  1.00  0.00    -0.094 C  
BRANCH  17  18
HETATM   18  C   UNL     1      -5.828  10.276  70.078  1.00  0.00    -0.057 C  
BRANCH  18  19
HETATM   19  N   UNL     1      -6.610  11.399  69.555  1.00  0.00    -0.120 N  
HETATM   20  C   UNL     1      -7.749  11.080  68.702  1.00  0.00    -0.132 C  
HETATM   21  C   UNL     1      -7.622  11.702  67.322  1.00  0.00    -0.147 C  
HETATM   22  C   UNL     1      -8.223  13.079  67.370  1.00  0.00    -0.183 A  
HETATM   23  C   UNL     1      -9.352  13.341  66.584  1.00  0.00    -0.247 A  
HETATM   24  C   UNL     1      -9.990  14.580  66.626  1.00  0.00    -0.270 A  
HETATM   25  C   UNL     1      -9.493  15.582  67.478  1.00  0.00    -0.208 A  
HETATM   26  O   UNL     1      -5.910  12.871  71.158  1.00  0.00    -0.325 OA 
HETATM   27  C   UNL     1      -6.385  12.681  70.035  1.00  0.00     0.013 C  
HETATM   28  C   UNL     1      -8.363  15.314  68.268  1.00  0.00    -0.148 A  
HETATM   29  C   UNL     1      -6.467  13.839  69.045  1.00  0.00    -0.105 C  
HETATM   30  C   UNL     1      -7.725  14.060  68.236  1.00  0.00    -0.141 A  
BRANCH  24  31
HETATM   31  O   UNL     1     -11.120  14.868  65.900  1.00  0.00    -0.330 OA 
HETATM   32  C   UNL     1     -12.161  13.898  65.940  1.00  0.00    -0.467 C  
ENDBRANCH  24  31
BRANCH  25  33
HETATM   33  O   UNL     1     -10.165  16.779  67.462  1.00  0.00    -0.273 OA 
HETATM   34  C   UNL     1     -10.737  17.226  68.683  1.00  0.00    -0.280 C  
ENDBRANCH  25  33
ENDBRANCH  18  19
ENDBRANCH  17  18
ENDBRANCH  16  17
ENDBRANCH  14  16
ENDBRANCH  13  14
ENDBRANCH   9  13
ENDBRANCH   2   3
TORSDOF 10
ENDMDL
MODEL      144
REMARK 921   NORMALIZED FREE ENERGY PREDICTED BY IDOCK:   -4.53 KCAL/MOL
REMARK 922        TOTAL FREE ENERGY PREDICTED BY IDOCK:   -9.15 KCAL/MOL
REMARK 923 INTER-LIGAND FREE ENERGY PREDICTED BY IDOCK:   -8.65 KCAL/MOL
REMARK 924 INTRA-LIGAND FREE ENERGY PREDICTED BY IDOCK:   -0.50 KCAL/MOL
REMARK 927      BINDING AFFINITY PREDICTED BY RF-SCORE:    0.00 PKD
ROOT
HETATM    1  C   UNL     1      -8.754   7.742  65.824  1.00  0.00    -0.133 C  
HETATM    2  O   UNL     1      -8.193   6.657  66.555  1.00  0.00    -0.108 OA 
ENDROOT
BRANCH   2   3
HETATM    3  C   UNL     1      -8.635   6.456  67.838  1.00  0.00    -0.116 A  
HETATM    4  C   UNL     1      -7.860   6.079  68.968  1.00  0.00    -0.096 A  
HETATM    5  C   UNL     1     -10.033   6.678  67.978  1.00  0.00    -0.157 A  
HETATM    6  C   UNL     1      -8.496   5.859  70.190  1.00  0.00    -0.126 A  
HETATM    7  C   UNL     1     -10.607   6.468  69.218  1.00  0.00    -0.292 A  
HETATM    8  C   UNL     1      -9.855   5.997  70.247  1.00  0.00    -0.221 A  
HETATM    9  C   UNL     1     -11.012   5.810  71.196  1.00  0.00    -0.295 C  
HETATM   10  C   UNL     1     -11.836   6.605  70.088  1.00  0.00    -0.347 C  
BRANCH   4  11
HETATM   11  O   UNL     1      -6.498   5.968  68.870  1.00  0.00    -0.045 OA 
HETATM   12  C   UNL     1      -5.883   4.982  69.698  1.00  0.00    -0.020 C  
ENDBRANCH   4  11
BRANCH   9  13
HETATM   13  C   UNL     1     -10.524   6.252  72.583  1.00  0.00    -0.211 C  
BRANCH  13  14
HETATM   14  N   UNL     1     -10.630   7.672  72.923  1.00  0.00    -0.321 NA 
HETATM   15  C   UNL     1      -9.415   8.399  72.599  1.00  0.00    -0.265 C  
BRANCH  14  16
HETATM   16  C   UNL     1     -11.889   8.293  72.493  1.00  0.00    -0.373 C  
BRANCH  16  17
HETATM   17  C   UNL     1     -11.647   9.506  71.599  1.00  0.00    -0.451 C  
BRANCH  17  18
HETATM   18  C   UNL     1     -12.890  10.388  71.422  1.00  0.00    -0.452 C  
BRANCH  18  19
HETATM   19  N   UNL     1     -12.521  11.610  70.704  1.00  0.00    -0.322 N  
HETATM   20  C   UNL     1     -12.145  11.474  69.301  1.00  0.00    -0.278 C  
HETATM   21  C   UNL     1     -10.735  11.972  69.035  1.00  0.00    -0.178 C  
HETATM   22  C   UNL     1     -10.807  13.442  68.728  1.00  0.00    -0.275 A  
HETATM   23  C   UNL     1     -10.417  13.877  67.455  1.00  0.00    -0.263 A  
HETATM   24  C   UNL     1     -10.513  15.219  67.088  1.00  0.00    -0.280 A  
HETATM   25  C   UNL     1     -11.015  16.150  68.013  1.00  0.00    -0.338 A  
HETATM   26  O   UNL     1     -13.597  13.008  72.158  1.00  0.00    -0.523 OA 
HETATM   27  C   UNL     1     -12.731  12.849  71.293  1.00  0.00    -0.278 C  
HETATM   28  C   UNL     1     -11.409  15.711  69.287  1.00  0.00    -0.348 A  
HETATM   29  C   UNL     1     -11.688  13.937  71.062  1.00  0.00     0.029 C  
HETATM   30  C   UNL     1     -11.325  14.355  69.655  1.00  0.00    -0.309 A  
BRANCH  24  31
HETATM   31  O   UNL     1     -10.176  15.682  65.839  1.00  0.00    -0.302 OA 
HETATM   32  C   UNL     1     -10.857  15.087  64.740  1.00  0.00    -0.355 C  
ENDBRANCH  24  31
BRANCH  25  33
HETATM   33  O   UNL     1     -11.073  17.454  67.588  1.00  0.00    -0.214 OA 
HETATM   34  C   UNL     1     -10.264  18.404  68.268  1.00  0.00    -0.384 C  
ENDBRANCH  25  33
ENDBRANCH  18  19
ENDBRANCH  17  18
ENDBRANCH  16  17
ENDBRANCH  14  16
ENDBRANCH  13  14
ENDBRANCH   9  13
ENDBRANCH   2   3
TORSDOF 10
ENDMDL
MODEL      145
REMARK 921   NORMALIZED FREE ENERGY PREDICTED BY IDOCK:   -4.53 KCAL/MOL
REMARK 922        TOTAL FREE ENERGY PREDICTED BY IDOCK:   -9.14 KCAL/MOL
REMARK 923 INTER-LIGAND FREE ENERGY PREDICTED BY IDOCK:   -7.71 KCAL/MOL
REMARK 924 INTRA-LIGAND FREE ENERGY PREDICTED BY IDOCK:   -1.43 KCAL/MOL
REMARK 927      BINDING AFFINITY PREDICTED BY RF-SCORE:    0.00 PKD
ROOT
HETATM    1  C   UNL     1     -11.351   4.102  73.245  1.00  0.00    -0.168 C  
HETATM    2  O   UNL     1     -11.691   5.459  72.976  1.00  0.00    -0.275 OA 
ENDROOT
BRANCH   2   3
HETATM    3  C   UNL     1     -11.009   6.100  71.974  1.00  0.00    -0.258 A  
HETATM    4  C   UNL     1     -11.075   7.477  71.631  1.00  0.00    -0.239 A  
HETATM    5  C   UNL     1     -10.155   5.227  71.245  1.00  0.00    -0.278 A  
HETATM    6  C   UNL     1     -10.352   7.944  70.533  1.00  0.00    -0.205 A  
HETATM    7  C   UNL     1      -9.442   5.748  70.181  1.00  0.00    -0.195 A  
HETATM    8  C   UNL     1      -9.618   7.044  69.811  1.00  0.00    -0.151 A  
HETATM    9  C   UNL     1      -8.774   6.953  68.565  1.00  0.00    -0.125 C  
HETATM   10  C   UNL     1      -8.364   5.526  69.145  1.00  0.00    -0.098 C  
BRANCH   4  11
HETATM   11  O   UNL     1     -11.810   8.348  72.391  1.00  0.00    -0.372 OA 
HETATM   12  C   UNL     1     -13.117   8.660  71.910  1.00  0.00    -0.373 C  
ENDBRANCH   4  11
BRANCH   9  13
HETATM   13  C   UNL     1      -7.974   8.259  68.474  1.00  0.00    -0.122 C  
BRANCH  13  14
HETATM   14  N   UNL     1      -7.270   8.542  67.222  1.00  0.00    -0.083 NA 
HETATM   15  C   UNL     1      -7.342   7.424  66.296  1.00  0.00    -0.082 C  
BRANCH  14  16
HETATM   16  C   UNL     1      -7.564   9.866  66.661  1.00  0.00    -0.103 C  
BRANCH  16  17
HETATM   17  C   UNL     1      -8.278   9.768  65.316  1.00  0.00    -0.137 C  
BRANCH  17  18
HETATM   18  C   UNL     1      -9.807   9.728  65.441  1.00  0.00    -0.295 C  
BRANCH  18  19
HETATM   19  N   UNL     1     -10.252  10.824  66.306  1.00  0.00    -0.238 N  
HETATM   20  C   UNL     1     -10.209  12.172  65.751  1.00  0.00    -0.254 C  
HETATM   21  C   UNL     1      -9.320  13.097  66.565  1.00  0.00    -0.222 C  
HETATM   22  C   UNL     1     -10.157  13.720  67.648  1.00  0.00    -0.242 A  
HETATM   23  C   UNL     1     -10.343  15.108  67.631  1.00  0.00    -0.248 A  
HETATM   24  C   UNL     1     -11.153  15.740  68.573  1.00  0.00    -0.335 A  
HETATM   25  C   UNL     1     -11.799  14.968  69.554  1.00  0.00    -0.330 A  
HETATM   26  O   UNL     1     -11.477   9.478  67.689  1.00  0.00     0.225 OA 
HETATM   27  C   UNL     1     -10.879  10.542  67.511  1.00  0.00    -0.301 C  
HETATM   28  C   UNL     1     -11.614  13.576  69.566  1.00  0.00    -0.355 A  
HETATM   29  C   UNL     1     -10.573  11.444  68.703  1.00  0.00    -0.229 C  
HETATM   30  C   UNL     1     -10.806  12.934  68.609  1.00  0.00    -0.288 A  
BRANCH  24  31
HETATM   31  O   UNL     1     -11.391  17.093  68.572  1.00  0.00    -0.089 OA 
HETATM   32  C   UNL     1     -10.255  17.935  68.735  1.00  0.00    -0.360 C  
ENDBRANCH  24  31
BRANCH  25  33
HETATM   33  O   UNL     1     -12.574  15.657  70.454  1.00  0.00    -0.426 OA 
HETATM   34  C   UNL     1     -11.944  16.127  71.638  1.00  0.00    -0.462 C  
ENDBRANCH  25  33
ENDBRANCH  18  19
ENDBRANCH  17  18
ENDBRANCH  16  17
ENDBRANCH  14  16
ENDBRANCH  13  14
ENDBRANCH   9  13
ENDBRANCH   2   3
TORSDOF 10
ENDMDL
MODEL      146
REMARK 921   NORMALIZED FREE ENERGY PREDICTED BY IDOCK:   -4.50 KCAL/MOL
REMARK 922        TOTAL FREE ENERGY PREDICTED BY IDOCK:   -9.10 KCAL/MOL
REMARK 923 INTER-LIGAND FREE ENERGY PREDICTED BY IDOCK:   -7.35 KCAL/MOL
REMARK 924 INTRA-LIGAND FREE ENERGY PREDICTED BY IDOCK:   -1.75 KCAL/MOL
REMARK 927      BINDING AFFINITY PREDICTED BY RF-SCORE:    0.00 PKD
ROOT
HETATM    1  C   UNL     1      -8.892   9.175  65.024  1.00  0.00    -0.189 C  
HETATM    2  O   UNL     1      -8.191   7.971  65.321  1.00  0.00    -0.133 OA 
ENDROOT
BRANCH   2   3
HETATM    3  C   UNL     1      -8.380   7.413  66.559  1.00  0.00    -0.124 A  
HETATM    4  C   UNL     1      -7.396   7.177  67.557  1.00  0.00    -0.092 A  
HETATM    5  C   UNL     1      -9.737   7.065  66.804  1.00  0.00    -0.241 A  
HETATM    6  C   UNL     1      -7.763   6.538  68.741  1.00  0.00    -0.109 A  
HETATM    7  C   UNL     1     -10.049   6.456  68.005  1.00  0.00    -0.168 A  
HETATM    8  C   UNL     1      -9.064   6.142  68.887  1.00  0.00    -0.123 A  
HETATM    9  C   UNL     1      -9.957   5.382  69.835  1.00  0.00    -0.294 C  
HETATM   10  C   UNL     1     -11.135   5.976  68.941  1.00  0.00    -0.349 C  
BRANCH   4  11
HETATM   11  O   UNL     1      -6.107   7.606  67.377  1.00  0.00    -0.045 OA 
HETATM   12  C   UNL     1      -5.785   8.885  67.921  1.00  0.00    -0.035 C  
ENDBRANCH   4  11
BRANCH   9  13
HETATM   13  C   UNL     1      -9.505   5.743  71.256  1.00  0.00    -0.154 C  
BRANCH  13  14
HETATM   14  N   UNL     1     -10.492   6.348  72.152  1.00  0.00    -0.204 NA 
HETATM   15  C   UNL     1     -11.066   5.374  73.064  1.00  0.00    -0.313 C  
BRANCH  14  16
HETATM   16  C   UNL     1     -10.052   7.615  72.751  1.00  0.00    -0.254 C  
BRANCH  16  17
HETATM   17  C   UNL     1     -10.937   8.783  72.323  1.00  0.00    -0.336 C  
BRANCH  17  18
HETATM   18  C   UNL     1     -11.369   8.710  70.853  1.00  0.00    -0.272 C  
BRANCH  18  19
HETATM   19  N   UNL     1     -10.847   9.876  70.135  1.00  0.00    -0.281 N  
HETATM   20  C   UNL     1     -11.688  11.067  70.095  1.00  0.00    -0.356 C  
HETATM   21  C   UNL     1     -12.030  11.478  68.673  1.00  0.00    -0.312 C  
HETATM   22  C   UNL     1     -10.948  12.397  68.177  1.00  0.00    -0.263 A  
HETATM   23  C   UNL     1     -11.287  13.719  67.864  1.00  0.00    -0.328 A  
HETATM   24  C   UNL     1     -10.320  14.635  67.452  1.00  0.00    -0.241 A  
HETATM   25  C   UNL     1      -8.980  14.224  67.356  1.00  0.00    -0.201 A  
HETATM   26  O   UNL     1      -8.664   9.210  70.268  1.00  0.00    -0.160 OA 
HETATM   27  C   UNL     1      -9.528   9.891  69.707  1.00  0.00    -0.226 C  
HETATM   28  C   UNL     1      -8.641  12.899  67.675  1.00  0.00    -0.182 A  
HETATM   29  C   UNL     1      -9.220  10.540  68.361  1.00  0.00    -0.154 C  
HETATM   30  C   UNL     1      -9.614  11.976  68.102  1.00  0.00    -0.200 A  
BRANCH  24  31
HETATM   31  O   UNL     1     -10.604  15.950  67.170  1.00  0.00    -0.310 OA 
HETATM   32  C   UNL     1     -10.964  16.770  68.277  1.00  0.00    -0.327 C  
ENDBRANCH  24  31
BRANCH  25  33
HETATM   33  O   UNL     1      -8.083  15.176  66.937  1.00  0.00    -0.211 OA 
HETATM   34  C   UNL     1      -6.776  15.137  67.494  1.00  0.00    -0.160 C  
ENDBRANCH  25  33
ENDBRANCH  18  19
ENDBRANCH  17  18
ENDBRANCH  16  17
ENDBRANCH  14  16
ENDBRANCH  13  14
ENDBRANCH   9  13
ENDBRANCH   2   3
TORSDOF 10
ENDMDL
MODEL      147
REMARK 921   NORMALIZED FREE ENERGY PREDICTED BY IDOCK:   -4.50 KCAL/MOL
REMARK 922        TOTAL FREE ENERGY PREDICTED BY IDOCK:   -9.10 KCAL/MOL
REMARK 923 INTER-LIGAND FREE ENERGY PREDICTED BY IDOCK:   -8.08 KCAL/MOL
REMARK 924 INTRA-LIGAND FREE ENERGY PREDICTED BY IDOCK:   -1.02 KCAL/MOL
REMARK 927      BINDING AFFINITY PREDICTED BY RF-SCORE:    0.00 PKD
ROOT
HETATM    1  C   UNL     1      -6.094  21.225  67.802  1.00  0.00    -0.339 C  
HETATM    2  O   UNL     1      -7.490  21.083  67.558  1.00  0.00    -0.319 OA 
ENDROOT
BRANCH   2   3
HETATM    3  C   UNL     1      -8.057  19.857  67.797  1.00  0.00    -0.294 A  
HETATM    4  C   UNL     1      -9.397  19.462  67.538  1.00  0.00    -0.311 A  
HETATM    5  C   UNL     1      -7.139  18.927  68.360  1.00  0.00    -0.295 A  
HETATM    6  C   UNL     1      -9.816  18.183  67.907  1.00  0.00    -0.317 A  
HETATM    7  C   UNL     1      -7.602  17.666  68.684  1.00  0.00    -0.276 A  
HETATM    8  C   UNL     1      -8.917  17.361  68.528  1.00  0.00    -0.276 A  
HETATM    9  C   UNL     1      -8.831  16.009  69.190  1.00  0.00    -0.245 C  
HETATM   10  C   UNL     1      -7.259  16.262  69.129  1.00  0.00    -0.213 C  
BRANCH   4  11
HETATM   11  O   UNL     1     -10.260  20.311  66.897  1.00  0.00    -0.443 OA 
HETATM   12  C   UNL     1     -10.655  19.935  65.579  1.00  0.00    -0.237 C  
ENDBRANCH   4  11
BRANCH   9  13
HETATM   13  C   UNL     1      -9.720  15.059  68.377  1.00  0.00    -0.216 C  
BRANCH  13  14
HETATM   14  N   UNL     1      -9.538  15.031  66.924  1.00  0.00    -0.230 NA 
HETATM   15  C   UNL     1      -8.603  13.996  66.515  1.00  0.00     0.189 C  
BRANCH  14  16
HETATM   16  C   UNL     1     -10.793  15.104  66.167  1.00  0.00    -0.330 C  
BRANCH  16  17
HETATM   17  C   UNL     1     -11.946  14.440  66.914  1.00  0.00    -0.425 C  
BRANCH  17  18
HETATM   18  C   UNL     1     -12.706  13.411  66.067  1.00  0.00    -0.167 C  
BRANCH  18  19
HETATM   19  N   UNL     1     -11.787  12.349  65.651  1.00  0.00    -0.418 N  
HETATM   20  C   UNL     1     -11.425  11.350  66.650  1.00  0.00    -0.045 C  
HETATM   21  C   UNL     1      -9.927  11.305  66.898  1.00  0.00    -0.238 C  
HETATM   22  C   UNL     1      -9.317  10.343  65.918  1.00  0.00    -0.224 A  
HETATM   23  C   UNL     1      -8.695   9.190  66.415  1.00  0.00    -0.147 A  
HETATM   24  C   UNL     1      -8.160   8.230  65.556  1.00  0.00    -0.128 A  
HETATM   25  C   UNL     1      -8.250   8.423  64.167  1.00  0.00    -0.119 A  
HETATM   26  O   UNL     1     -12.216  12.600  63.420  1.00  0.00    -0.531 OA 
HETATM   27  C   UNL     1     -11.460  12.203  64.311  1.00  0.00    -0.367 C  
HETATM   28  C   UNL     1      -8.878   9.578  63.672  1.00  0.00    -0.236 A  
HETATM   29  C   UNL     1     -10.028  11.806  63.964  1.00  0.00    -0.320 C  
HETATM   30  C   UNL     1      -9.430  10.542  64.536  1.00  0.00    -0.329 A  
BRANCH  24  31
HETATM   31  O   UNL     1      -7.575   7.069  66.000  1.00  0.00    -0.090 OA 
HETATM   32  C   UNL     1      -7.945   6.632  67.303  1.00  0.00    -0.117 C  
ENDBRANCH  24  31
BRANCH  25  33
HETATM   33  O   UNL     1      -7.695   7.443  63.382  1.00  0.00    -0.114 OA 
HETATM   34  C   UNL     1      -8.534   6.817  62.421  1.00  0.00     0.088 C  
ENDBRANCH  25  33
ENDBRANCH  18  19
ENDBRANCH  17  18
ENDBRANCH  16  17
ENDBRANCH  14  16
ENDBRANCH  13  14
ENDBRANCH   9  13
ENDBRANCH   2   3
TORSDOF 10
ENDMDL
MODEL      148
REMARK 921   NORMALIZED FREE ENERGY PREDICTED BY IDOCK:   -4.49 KCAL/MOL
REMARK 922        TOTAL FREE ENERGY PREDICTED BY IDOCK:   -9.08 KCAL/MOL
REMARK 923 INTER-LIGAND FREE ENERGY PREDICTED BY IDOCK:   -7.34 KCAL/MOL
REMARK 924 INTRA-LIGAND FREE ENERGY PREDICTED BY IDOCK:   -1.75 KCAL/MOL
REMARK 927      BINDING AFFINITY PREDICTED BY RF-SCORE:    0.00 PKD
ROOT
HETATM    1  C   UNL     1      -7.470  14.743  67.809  1.00  0.00    -0.163 C  
HETATM    2  O   UNL     1      -6.456  13.815  67.437  1.00  0.00    -0.292 OA 
ENDROOT
BRANCH   2   3
HETATM    3  C   UNL     1      -6.487  12.572  68.016  1.00  0.00    -0.087 A  
HETATM    4  C   UNL     1      -6.968  11.366  67.439  1.00  0.00    -0.106 A  
HETATM    5  C   UNL     1      -5.955  12.566  69.335  1.00  0.00    -0.101 A  
HETATM    6  C   UNL     1      -6.978  10.199  68.204  1.00  0.00    -0.075 A  
HETATM    7  C   UNL     1      -5.968  11.377  70.039  1.00  0.00    -0.135 A  
HETATM    8  C   UNL     1      -6.540  10.269  69.497  1.00  0.00    -0.066 A  
HETATM    9  C   UNL     1      -6.417   9.422  70.739  1.00  0.00    -0.086 C  
HETATM   10  C   UNL     1      -5.518  10.625  71.272  1.00  0.00    -0.024 C  
BRANCH   4  11
HETATM   11  O   UNL     1      -7.382  11.337  66.133  1.00  0.00    -0.070 OA 
HETATM   12  C   UNL     1      -8.741  10.966  65.909  1.00  0.00    -0.183 C  
ENDBRANCH   4  11
BRANCH   9  13
HETATM   13  C   UNL     1      -6.024   8.012  70.278  1.00  0.00    -0.029 C  
BRANCH  13  14
HETATM   14  N   UNL     1      -6.772   6.881  70.830  1.00  0.00    -0.053 NA 
HETATM   15  C   UNL     1      -6.736   6.865  72.282  1.00  0.00    -0.058 C  
BRANCH  14  16
HETATM   16  C   UNL     1      -8.089   6.683  70.213  1.00  0.00    -0.121 C  
BRANCH  16  17
HETATM   17  C   UNL     1      -9.215   7.216  71.095  1.00  0.00    -0.157 C  
BRANCH  17  18
HETATM   18  C   UNL     1     -10.550   7.363  70.354  1.00  0.00    -0.228 C  
BRANCH  18  19
HETATM   19  N   UNL     1     -10.813   8.783  70.106  1.00  0.00    -0.228 N  
HETATM   20  C   UNL     1     -11.063   9.629  71.267  1.00  0.00    -0.355 C  
HETATM   21  C   UNL     1     -12.427  10.296  71.205  1.00  0.00    -0.514 C  
HETATM   22  C   UNL     1     -12.280  11.596  70.465  1.00  0.00    -0.451 A  
HETATM   23  C   UNL     1     -12.538  12.788  71.154  1.00  0.00    -0.365 A  
HETATM   24  C   UNL     1     -12.366  14.029  70.540  1.00  0.00    -0.367 A  
HETATM   25  C   UNL     1     -11.921  14.083  69.208  1.00  0.00    -0.353 A  
HETATM   26  O   UNL     1      -9.830   8.792  68.042  1.00  0.00    -0.157 OA 
HETATM   27  C   UNL     1     -10.618   9.311  68.838  1.00  0.00    -0.199 C  
HETATM   28  C   UNL     1     -11.659  12.886  68.522  1.00  0.00    -0.358 A  
HETATM   29  C   UNL     1     -11.601  10.368  68.344  1.00  0.00    -0.128 C  
HETATM   30  C   UNL     1     -11.820  11.633  69.142  1.00  0.00    -0.390 A  
BRANCH  24  31
HETATM   31  O   UNL     1     -12.573  15.222  71.189  1.00  0.00    -0.328 OA 
HETATM   32  C   UNL     1     -11.647  15.550  72.219  1.00  0.00    -0.458 C  
ENDBRANCH  24  31
BRANCH  25  33
HETATM   33  O   UNL     1     -11.783  15.336  68.666  1.00  0.00    -0.343 OA 
HETATM   34  C   UNL     1     -11.161  15.435  67.392  1.00  0.00    -0.311 C  
ENDBRANCH  25  33
ENDBRANCH  18  19
ENDBRANCH  17  18
ENDBRANCH  16  17
ENDBRANCH  14  16
ENDBRANCH  13  14
ENDBRANCH   9  13
ENDBRANCH   2   3
TORSDOF 10
ENDMDL
MODEL      149
REMARK 921   NORMALIZED FREE ENERGY PREDICTED BY IDOCK:   -4.47 KCAL/MOL
REMARK 922        TOTAL FREE ENERGY PREDICTED BY IDOCK:   -9.05 KCAL/MOL
REMARK 923 INTER-LIGAND FREE ENERGY PREDICTED BY IDOCK:   -7.76 KCAL/MOL
REMARK 924 INTRA-LIGAND FREE ENERGY PREDICTED BY IDOCK:   -1.30 KCAL/MOL
REMARK 927      BINDING AFFINITY PREDICTED BY RF-SCORE:    0.00 PKD
ROOT
HETATM    1  C   UNL     1      -8.295   3.442  65.320  1.00  0.00    -0.098 C  
HETATM    2  O   UNL     1      -8.189   4.862  65.331  1.00  0.00    -0.113 OA 
ENDROOT
BRANCH   2   3
HETATM    3  C   UNL     1      -8.395   5.506  66.524  1.00  0.00    -0.109 A  
HETATM    4  C   UNL     1      -7.721   6.661  67.007  1.00  0.00    -0.103 A  
HETATM    5  C   UNL     1      -9.416   4.900  67.307  1.00  0.00    -0.157 A  
HETATM    6  C   UNL     1      -8.021   7.144  68.281  1.00  0.00    -0.123 A  
HETATM    7  C   UNL     1      -9.689   5.436  68.552  1.00  0.00    -0.183 A  
HETATM    8  C   UNL     1      -8.946   6.469  69.028  1.00  0.00    -0.129 A  
HETATM    9  C   UNL     1      -9.561   6.466  70.405  1.00  0.00    -0.178 C  
HETATM   10  C   UNL     1     -10.600   5.444  69.759  1.00  0.00    -0.347 C  
BRANCH   4  11
HETATM   11  O   UNL     1      -6.813   7.317  66.218  1.00  0.00    -0.055 OA 
HETATM   12  C   UNL     1      -7.288   8.481  65.544  1.00  0.00    -0.084 C  
ENDBRANCH   4  11
BRANCH   9  13
HETATM   13  C   UNL     1      -9.734   7.934  70.818  1.00  0.00    -0.172 C  
BRANCH  13  14
HETATM   14  N   UNL     1     -10.936   8.633  70.363  1.00  0.00    -0.235 NA 
HETATM   15  C   UNL     1     -12.046   8.461  71.285  1.00  0.00    -0.284 C  
BRANCH  14  16
HETATM   16  C   UNL     1     -10.687  10.005  69.901  1.00  0.00    -0.286 C  
BRANCH  16  17
HETATM   17  C   UNL     1     -10.186  10.036  68.459  1.00  0.00    -0.196 C  
BRANCH  17  18
HETATM   18  C   UNL     1     -11.208  10.617  67.474  1.00  0.00    -0.253 C  
BRANCH  18  19
HETATM   19  N   UNL     1     -10.877  12.017  67.200  1.00  0.00    -0.242 N  
HETATM   20  C   UNL     1      -9.554  12.482  67.601  1.00  0.00    -0.190 C  
HETATM   21  C   UNL     1      -9.626  13.635  68.586  1.00  0.00    -0.100 C  
HETATM   22  C   UNL     1      -9.686  14.918  67.805  1.00  0.00    -0.212 A  
HETATM   23  C   UNL     1      -8.630  15.829  67.938  1.00  0.00    -0.160 A  
HETATM   24  C   UNL     1      -8.598  17.010  67.198  1.00  0.00    -0.202 A  
HETATM   25  C   UNL     1      -9.642  17.288  66.299  1.00  0.00    -0.248 A  
HETATM   26  O   UNL     1     -12.461  12.264  65.569  1.00  0.00    -0.597 OA 
HETATM   27  C   UNL     1     -11.718  12.784  66.406  1.00  0.00    -0.403 C  
HETATM   28  C   UNL     1     -10.697  16.371  66.165  1.00  0.00    -0.174 A  
HETATM   29  C   UNL     1     -11.917  14.249  66.783  1.00  0.00    -0.462 C  
HETATM   30  C   UNL     1     -10.726  15.172  66.901  1.00  0.00    -0.308 A  
BRANCH  24  31
HETATM   31  O   UNL     1      -7.565  17.913  67.271  1.00  0.00    -0.197 OA 
HETATM   32  C   UNL     1      -7.515  18.723  68.441  1.00  0.00    -0.298 C  
ENDBRANCH  24  31
BRANCH  25  33
HETATM   33  O   UNL     1      -9.550  18.473  65.611  1.00  0.00    -0.365 OA 
HETATM   34  C   UNL     1     -10.512  19.478  65.901  1.00  0.00    -0.491 C  
ENDBRANCH  25  33
ENDBRANCH  18  19
ENDBRANCH  17  18
ENDBRANCH  16  17
ENDBRANCH  14  16
ENDBRANCH  13  14
ENDBRANCH   9  13
ENDBRANCH   2   3
TORSDOF 10
ENDMDL
MODEL      150
REMARK 921   NORMALIZED FREE ENERGY PREDICTED BY IDOCK:   -4.47 KCAL/MOL
REMARK 922        TOTAL FREE ENERGY PREDICTED BY IDOCK:   -9.05 KCAL/MOL
REMARK 923 INTER-LIGAND FREE ENERGY PREDICTED BY IDOCK:   -8.59 KCAL/MOL
REMARK 924 INTRA-LIGAND FREE ENERGY PREDICTED BY IDOCK:   -0.46 KCAL/MOL
REMARK 927      BINDING AFFINITY PREDICTED BY RF-SCORE:    0.00 PKD
ROOT
HETATM    1  C   UNL     1      -9.257   2.908  67.968  1.00  0.00    -0.198 C  
HETATM    2  O   UNL     1      -9.171   4.194  68.574  1.00  0.00    -0.124 OA 
ENDROOT
BRANCH   2   3
HETATM    3  C   UNL     1      -9.128   5.286  67.745  1.00  0.00    -0.110 A  
HETATM    4  C   UNL     1     -10.177   6.208  67.479  1.00  0.00    -0.178 A  
HETATM    5  C   UNL     1      -7.860   5.456  67.124  1.00  0.00    -0.101 A  
HETATM    6  C   UNL     1      -9.970   7.230  66.553  1.00  0.00    -0.182 A  
HETATM    7  C   UNL     1      -7.703   6.500  66.233  1.00  0.00    -0.095 A  
HETATM    8  C   UNL     1      -8.761   7.293  65.917  1.00  0.00    -0.150 A  
HETATM    9  C   UNL     1      -8.047   8.059  64.832  1.00  0.00    -0.147 C  
HETATM   10  C   UNL     1      -6.751   7.316  65.387  1.00  0.00    -0.048 C  
BRANCH   4  11
HETATM   11  O   UNL     1     -11.367   6.119  68.152  1.00  0.00    -0.234 OA 
HETATM   12  C   UNL     1     -11.320   6.369  69.555  1.00  0.00    -0.393 C  
ENDBRANCH   4  11
BRANCH   9  13
HETATM   13  C   UNL     1      -8.488   9.524  64.960  1.00  0.00    -0.154 C  
BRANCH  13  14
HETATM   14  N   UNL     1      -8.094  10.450  63.896  1.00  0.00    -0.135 NA 
HETATM   15  C   UNL     1      -6.893  10.007  63.210  1.00  0.00    -0.131 C  
BRANCH  14  16
HETATM   16  C   UNL     1      -9.208  10.879  63.040  1.00  0.00    -0.319 C  
BRANCH  16  17
HETATM   17  C   UNL     1     -10.504  11.033  63.831  1.00  0.00    -0.422 C  
BRANCH  17  18
HETATM   18  C   UNL     1     -11.220  12.364  63.570  1.00  0.00    -0.469 C  
BRANCH  18  19
HETATM   19  N   UNL     1     -11.166  13.191  64.778  1.00  0.00    -0.311 N  
HETATM   20  C   UNL     1     -11.042  14.633  64.597  1.00  0.00    -0.334 C  
HETATM   21  C   UNL     1      -9.791  15.187  65.255  1.00  0.00    -0.249 C  
HETATM   22  C   UNL     1     -10.124  15.536  66.678  1.00  0.00    -0.275 A  
HETATM   23  C   UNL     1     -10.042  16.877  67.072  1.00  0.00    -0.289 A  
HETATM   24  C   UNL     1     -10.392  17.275  68.362  1.00  0.00    -0.366 A  
HETATM   25  C   UNL     1     -10.839  16.310  69.282  1.00  0.00    -0.318 A  
HETATM   26  O   UNL     1     -12.139  11.615  66.120  1.00  0.00    -0.308 OA 
HETATM   27  C   UNL     1     -11.435  12.624  66.016  1.00  0.00    -0.368 C  
HETATM   28  C   UNL     1     -10.924  14.966  68.883  1.00  0.00    -0.257 A  
HETATM   29  C   UNL     1     -10.616  13.099  67.212  1.00  0.00    -0.250 C  
HETATM   30  C   UNL     1     -10.583  14.565  67.578  1.00  0.00    -0.262 A  
BRANCH  24  31
HETATM   31  O   UNL     1     -10.361  18.583  68.779  1.00  0.00    -0.338 OA 
HETATM   32  C   UNL     1     -10.302  19.571  67.756  1.00  0.00    -0.452 C  
ENDBRANCH  24  31
BRANCH  25  33
HETATM   33  O   UNL     1     -11.158  16.770  70.535  1.00  0.00    -0.166 OA 
HETATM   34  C   UNL     1     -11.924  15.915  71.373  1.00  0.00    -0.457 C  
ENDBRANCH  25  33
ENDBRANCH  18  19
ENDBRANCH  17  18
ENDBRANCH  16  17
ENDBRANCH  14  16
ENDBRANCH  13  14
ENDBRANCH   9  13
ENDBRANCH   2   3
TORSDOF 10
ENDMDL
MODEL      151
REMARK 921   NORMALIZED FREE ENERGY PREDICTED BY IDOCK:   -4.45 KCAL/MOL
REMARK 922        TOTAL FREE ENERGY PREDICTED BY IDOCK:   -9.02 KCAL/MOL
REMARK 923 INTER-LIGAND FREE ENERGY PREDICTED BY IDOCK:   -8.19 KCAL/MOL
REMARK 924 INTRA-LIGAND FREE ENERGY PREDICTED BY IDOCK:   -0.83 KCAL/MOL
REMARK 927      BINDING AFFINITY PREDICTED BY RF-SCORE:    0.00 PKD
ROOT
HETATM    1  C   UNL     1      -5.569   1.507  63.227  1.00  0.00    -0.004 C  
HETATM    2  O   UNL     1      -6.808   2.208  63.172  1.00  0.00    -0.025 OA 
ENDROOT
BRANCH   2   3
HETATM    3  C   UNL     1      -7.122   3.030  64.224  1.00  0.00    -0.056 A  
HETATM    4  C   UNL     1      -6.608   4.329  64.486  1.00  0.00    -0.043 A  
HETATM    5  C   UNL     1      -8.081   2.455  65.103  1.00  0.00    -0.079 A  
HETATM    6  C   UNL     1      -6.999   4.996  65.647  1.00  0.00    -0.063 A  
HETATM    7  C   UNL     1      -8.450   3.171  66.226  1.00  0.00    -0.106 A  
HETATM    8  C   UNL     1      -7.852   4.359  66.504  1.00  0.00    -0.098 A  
HETATM    9  C   UNL     1      -8.498   4.532  67.856  1.00  0.00    -0.104 C  
HETATM   10  C   UNL     1      -9.386   3.286  67.408  1.00  0.00    -0.242 C  
BRANCH   4  11
HETATM   11  O   UNL     1      -5.768   4.937  63.591  1.00  0.00    -0.016 OA 
HETATM   12  C   UNL     1      -5.720   6.362  63.638  1.00  0.00    -0.022 C  
ENDBRANCH   4  11
BRANCH   9  13
HETATM   13  C   UNL     1      -8.861   6.017  67.989  1.00  0.00    -0.110 C  
BRANCH  13  14
HETATM   14  N   UNL     1     -10.266   6.358  68.214  1.00  0.00    -0.156 NA 
HETATM   15  C   UNL     1     -11.027   6.366  66.977  1.00  0.00    -0.389 C  
BRANCH  14  16
HETATM   16  C   UNL     1     -10.876   5.647  69.345  1.00  0.00    -0.264 C  
BRANCH  16  17
HETATM   17  C   UNL     1     -11.577   6.603  70.306  1.00  0.00    -0.454 C  
BRANCH  17  18
HETATM   18  C   UNL     1     -10.604   7.443  71.144  1.00  0.00    -0.222 C  
BRANCH  18  19
HETATM   19  N   UNL     1     -10.969   8.858  71.039  1.00  0.00    -0.256 N  
HETATM   20  C   UNL     1     -11.705   9.443  72.154  1.00  0.00    -0.043 C  
HETATM   21  C   UNL     1     -13.052   9.997  71.723  1.00  0.00    -0.562 C  
HETATM   22  C   UNL     1     -12.855  11.423  71.289  1.00  0.00    -0.481 A  
HETATM   23  C   UNL     1     -13.492  12.436  72.017  1.00  0.00    -0.460 A  
HETATM   24  C   UNL     1     -13.305  13.781  71.700  1.00  0.00    -0.354 A  
HETATM   25  C   UNL     1     -12.458  14.125  70.632  1.00  0.00    -0.362 A  
HETATM   26  O   UNL     1      -9.372   9.343  69.476  1.00  0.00    -0.161 OA 
HETATM   27  C   UNL     1     -10.443   9.634  70.016  1.00  0.00    -0.261 C  
HETATM   28  C   UNL     1     -11.818  13.108  69.907  1.00  0.00    -0.378 A  
HETATM   29  C   UNL     1     -11.348  10.684  69.378  1.00  0.00    -0.348 C  
HETATM   30  C   UNL     1     -11.995  11.750  70.232  1.00  0.00    -0.429 A  
BRANCH  24  31
HETATM   31  O   UNL     1     -13.881  14.806  72.410  1.00  0.00    -0.422 OA 
HETATM   32  C   UNL     1     -13.092  15.377  73.448  1.00  0.00    -0.509 C  
ENDBRANCH  24  31
BRANCH  25  33
HETATM   33  O   UNL     1     -12.328  15.466  70.371  1.00  0.00    -0.355 OA 
HETATM   34  C   UNL     1     -11.356  15.857  69.410  1.00  0.00    -0.349 C  
ENDBRANCH  25  33
ENDBRANCH  18  19
ENDBRANCH  17  18
ENDBRANCH  16  17
ENDBRANCH  14  16
ENDBRANCH  13  14
ENDBRANCH   9  13
ENDBRANCH   2   3
TORSDOF 10
ENDMDL
MODEL      152
REMARK 921   NORMALIZED FREE ENERGY PREDICTED BY IDOCK:   -4.45 KCAL/MOL
REMARK 922        TOTAL FREE ENERGY PREDICTED BY IDOCK:   -9.01 KCAL/MOL
REMARK 923 INTER-LIGAND FREE ENERGY PREDICTED BY IDOCK:   -7.73 KCAL/MOL
REMARK 924 INTRA-LIGAND FREE ENERGY PREDICTED BY IDOCK:   -1.28 KCAL/MOL
REMARK 927      BINDING AFFINITY PREDICTED BY RF-SCORE:    0.00 PKD
ROOT
HETATM    1  C   UNL     1      -5.252  12.050  66.881  1.00  0.00    -0.037 C  
HETATM    2  O   UNL     1      -5.160  10.647  66.651  1.00  0.00    -0.041 OA 
ENDROOT
BRANCH   2   3
HETATM    3  C   UNL     1      -5.753   9.812  67.564  1.00  0.00    -0.039 A  
HETATM    4  C   UNL     1      -6.775   8.856  67.319  1.00  0.00    -0.066 A  
HETATM    5  C   UNL     1      -5.230   9.973  68.877  1.00  0.00    -0.035 A  
HETATM    6  C   UNL     1      -7.305   8.133  68.389  1.00  0.00    -0.094 A  
HETATM    7  C   UNL     1      -5.775   9.214  69.895  1.00  0.00    -0.031 A  
HETATM    8  C   UNL     1      -6.829   8.393  69.644  1.00  0.00    -0.044 A  
HETATM    9  C   UNL     1      -7.068   8.022  71.086  1.00  0.00    -0.055 C  
HETATM   10  C   UNL     1      -5.682   8.768  71.337  1.00  0.00    -0.045 C  
BRANCH   4  11
HETATM   11  O   UNL     1      -7.211   8.615  66.043  1.00  0.00    -0.082 OA 
HETATM   12  C   UNL     1      -8.563   8.970  65.759  1.00  0.00    -0.160 C  
ENDBRANCH   4  11
BRANCH   9  13
HETATM   13  C   UNL     1      -7.413   6.527  71.110  1.00  0.00    -0.085 C  
BRANCH  13  14
HETATM   14  N   UNL     1      -8.754   6.144  71.557  1.00  0.00    -0.135 NA 
HETATM   15  C   UNL     1      -8.792   4.774  72.041  1.00  0.00    -0.124 C  
BRANCH  14  16
HETATM   16  C   UNL     1      -9.407   7.148  72.405  1.00  0.00    -0.134 C  
BRANCH  16  17
HETATM   17  C   UNL     1     -10.921   7.153  72.215  1.00  0.00    -0.277 C  
BRANCH  17  18
HETATM   18  C   UNL     1     -11.359   7.642  70.829  1.00  0.00    -0.281 C  
BRANCH  18  19
HETATM   19  N   UNL     1     -11.551   9.094  70.864  1.00  0.00    -0.281 N  
HETATM   20  C   UNL     1     -12.044   9.673  72.109  1.00  0.00    -0.062 C  
HETATM   21  C   UNL     1     -13.355  10.414  71.915  1.00  0.00    -0.469 C  
HETATM   22  C   UNL     1     -13.040  11.836  71.542  1.00  0.00    -0.389 A  
HETATM   23  C   UNL     1     -13.435  12.857  72.416  1.00  0.00    -0.573 A  
HETATM   24  C   UNL     1     -13.124  14.191  72.156  1.00  0.00    -0.401 A  
HETATM   25  C   UNL     1     -12.396  14.515  70.997  1.00  0.00    -0.347 A  
HETATM   26  O   UNL     1     -10.138   9.507  69.114  1.00  0.00    -0.180 OA 
HETATM   27  C   UNL     1     -11.078   9.880  69.823  1.00  0.00    -0.254 C  
HETATM   28  C   UNL     1     -11.998  13.489  70.125  1.00  0.00    -0.399 A  
HETATM   29  C   UNL     1     -11.920  11.075  69.389  1.00  0.00    -0.408 C  
HETATM   30  C   UNL     1     -12.301  12.140  70.392  1.00  0.00    -0.315 A  
BRANCH  24  31
HETATM   31  O   UNL     1     -13.459  15.219  73.003  1.00  0.00    -0.480 OA 
HETATM   32  C   UNL     1     -12.536  15.504  74.048  1.00  0.00    -0.653 C  
ENDBRANCH  24  31
BRANCH  25  33
HETATM   33  O   UNL     1     -12.133  15.848  70.800  1.00  0.00    -0.389 OA 
HETATM   34  C   UNL     1     -11.001  16.184  70.009  1.00  0.00    -0.364 C  
ENDBRANCH  25  33
ENDBRANCH  18  19
ENDBRANCH  17  18
ENDBRANCH  16  17
ENDBRANCH  14  16
ENDBRANCH  13  14
ENDBRANCH   9  13
ENDBRANCH   2   3
TORSDOF 10
ENDMDL
MODEL      153
REMARK 921   NORMALIZED FREE ENERGY PREDICTED BY IDOCK:   -4.44 KCAL/MOL
REMARK 922        TOTAL FREE ENERGY PREDICTED BY IDOCK:   -9.00 KCAL/MOL
REMARK 923 INTER-LIGAND FREE ENERGY PREDICTED BY IDOCK:   -6.16 KCAL/MOL
REMARK 924 INTRA-LIGAND FREE ENERGY PREDICTED BY IDOCK:   -2.84 KCAL/MOL
REMARK 927      BINDING AFFINITY PREDICTED BY RF-SCORE:    0.00 PKD
ROOT
HETATM    1  C   UNL     1     -10.659   6.470  68.300  1.00  0.00    -0.249 C  
HETATM    2  O   UNL     1     -10.715   7.446  69.336  1.00  0.00    -0.234 OA 
ENDROOT
BRANCH   2   3
HETATM    3  C   UNL     1     -10.776   8.765  68.966  1.00  0.00    -0.112 A  
HETATM    4  C   UNL     1     -10.989   9.888  69.811  1.00  0.00    -0.268 A  
HETATM    5  C   UNL     1     -10.587   8.953  67.569  1.00  0.00    -0.307 A  
HETATM    6  C   UNL     1     -11.083  11.160  69.246  1.00  0.00    -0.318 A  
HETATM    7  C   UNL     1     -10.666  10.238  67.066  1.00  0.00    -0.281 A  
HETATM    8  C   UNL     1     -10.985  11.274  67.887  1.00  0.00    -0.302 A  
HETATM    9  C   UNL     1     -11.097  12.299  66.787  1.00  0.00    -0.345 C  
HETATM   10  C   UNL     1     -10.469  11.151  65.877  1.00  0.00    -0.310 C  
BRANCH   4  11
HETATM   11  O   UNL     1     -11.063   9.730  71.170  1.00  0.00    -0.343 OA 
HETATM   12  C   UNL     1     -12.373   9.584  71.718  1.00  0.00    -0.394 C  
ENDBRANCH   4  11
BRANCH   9  13
HETATM   13  C   UNL     1     -10.477  13.596  67.325  1.00  0.00    -0.260 C  
BRANCH  13  14
HETATM   14  N   UNL     1      -9.571  14.335  66.443  1.00  0.00    -0.293 NA 
HETATM   15  C   UNL     1     -10.291  15.241  65.564  1.00  0.00    -0.383 C  
BRANCH  14  16
HETATM   16  C   UNL     1      -8.400  14.894  67.129  1.00  0.00    -0.221 C  
BRANCH  16  17
HETATM   17  C   UNL     1      -7.988  14.048  68.331  1.00  0.00    -0.143 C  
BRANCH  17  18
HETATM   18  C   UNL     1      -6.528  13.579  68.273  1.00  0.00    -0.104 C  
BRANCH  18  19
HETATM   19  N   UNL     1      -6.491  12.119  68.161  1.00  0.00    -0.052 N  
HETATM   20  C   UNL     1      -6.158  11.557  66.858  1.00  0.00    -0.146 C  
HETATM   21  C   UNL     1      -7.263  10.664  66.320  1.00  0.00    -0.137 C  
HETATM   22  C   UNL     1      -7.028   9.269  66.826  1.00  0.00    -0.081 A  
HETATM   23  C   UNL     1      -6.759   8.258  65.894  1.00  0.00    -0.053 A  
HETATM   24  C   UNL     1      -6.477   6.955  66.302  1.00  0.00    -0.051 A  
HETATM   25  C   UNL     1      -6.458   6.653  67.674  1.00  0.00    -0.045 A  
HETATM   26  O   UNL     1      -6.210  11.772  70.404  1.00  0.00    -0.221 OA 
HETATM   27  C   UNL     1      -6.564  11.336  69.305  1.00  0.00    -0.100 C  
HETATM   28  C   UNL     1      -6.723   7.668  68.606  1.00  0.00    -0.054 A  
HETATM   29  C   UNL     1      -7.353  10.033  69.230  1.00  0.00    -0.091 C  
HETATM   30  C   UNL     1      -6.997   8.987  68.198  1.00  0.00    -0.077 A  
BRANCH  24  31
HETATM   31  O   UNL     1      -6.172   5.943  65.424  1.00  0.00    -0.034 OA 
HETATM   32  C   UNL     1      -7.272   5.330  64.760  1.00  0.00    -0.059 C  
ENDBRANCH  24  31
BRANCH  25  33
HETATM   33  O   UNL     1      -6.181   5.349  68.003  1.00  0.00    -0.031 OA 
HETATM   34  C   UNL     1      -7.233   4.577  68.568  1.00  0.00    -0.060 C  
ENDBRANCH  25  33
ENDBRANCH  18  19
ENDBRANCH  17  18
ENDBRANCH  16  17
ENDBRANCH  14  16
ENDBRANCH  13  14
ENDBRANCH   9  13
ENDBRANCH   2   3
TORSDOF 10
ENDMDL
MODEL      154
REMARK 921   NORMALIZED FREE ENERGY PREDICTED BY IDOCK:   -4.41 KCAL/MOL
REMARK 922        TOTAL FREE ENERGY PREDICTED BY IDOCK:   -8.95 KCAL/MOL
REMARK 923 INTER-LIGAND FREE ENERGY PREDICTED BY IDOCK:   -7.45 KCAL/MOL
REMARK 924 INTRA-LIGAND FREE ENERGY PREDICTED BY IDOCK:   -1.50 KCAL/MOL
REMARK 927      BINDING AFFINITY PREDICTED BY RF-SCORE:    0.00 PKD
ROOT
HETATM    1  C   UNL     1     -12.381  12.225  63.470  1.00  0.00    -0.565 C  
HETATM    2  O   UNL     1     -12.928  12.394  64.774  1.00  0.00    -0.786 OA 
ENDROOT
BRANCH   2   3
HETATM    3  C   UNL     1     -12.248  13.202  65.650  1.00  0.00    -0.466 A  
HETATM    4  C   UNL     1     -11.950  12.935  67.013  1.00  0.00    -0.325 A  
HETATM    5  C   UNL     1     -11.818  14.419  65.054  1.00  0.00    -0.400 A  
HETATM    6  C   UNL     1     -11.299  13.907  67.773  1.00  0.00    -0.335 A  
HETATM    7  C   UNL     1     -11.155  15.336  65.847  1.00  0.00    -0.287 A  
HETATM    8  C   UNL     1     -10.989  15.096  67.174  1.00  0.00    -0.326 A  
HETATM    9  C   UNL     1     -10.413  16.453  67.495  1.00  0.00    -0.304 C  
HETATM   10  C   UNL     1     -10.366  16.625  65.911  1.00  0.00    -0.355 C  
BRANCH   4  11
HETATM   11  O   UNL     1     -12.264  11.723  67.569  1.00  0.00    -0.526 OA 
HETATM   12  C   UNL     1     -11.713  11.457  68.858  1.00  0.00    -0.343 C  
ENDBRANCH   4  11
BRANCH   9  13
HETATM   13  C   UNL     1      -9.282  16.228  68.507  1.00  0.00    -0.211 C  
BRANCH  13  14
HETATM   14  N   UNL     1      -8.084  15.525  68.046  1.00  0.00    -0.134 NA 
HETATM   15  C   UNL     1      -7.163  16.415  67.360  1.00  0.00    -0.160 C  
BRANCH  14  16
HETATM   16  C   UNL     1      -7.494  14.634  69.052  1.00  0.00    -0.136 C  
BRANCH  16  17
HETATM   17  C   UNL     1      -6.911  13.372  68.422  1.00  0.00    -0.105 C  
BRANCH  17  18
HETATM   18  C   UNL     1      -7.684  12.899  67.184  1.00  0.00    -0.050 C  
BRANCH  18  19
HETATM   19  N   UNL     1      -7.472  11.462  66.998  1.00  0.00    -0.140 N  
HETATM   20  C   UNL     1      -8.654  10.608  66.989  1.00  0.00    -0.128 C  
HETATM   21  C   UNL     1      -8.607   9.554  68.082  1.00  0.00    -0.120 C  
HETATM   22  C   UNL     1      -7.901   8.344  67.538  1.00  0.00    -0.099 A  
HETATM   23  C   UNL     1      -8.619   7.147  67.426  1.00  0.00    -0.121 A  
HETATM   24  C   UNL     1      -8.039   6.004  66.877  1.00  0.00    -0.105 A  
HETATM   25  C   UNL     1      -6.710   6.057  66.424  1.00  0.00    -0.060 A  
HETATM   26  O   UNL     1      -5.411  11.704  66.038  1.00  0.00    -0.263 OA 
HETATM   27  C   UNL     1      -6.218  10.989  66.638  1.00  0.00    -0.124 C  
HETATM   28  C   UNL     1      -5.993   7.260  66.533  1.00  0.00    -0.036 A  
HETATM   29  C   UNL     1      -5.750   9.670  67.245  1.00  0.00    -0.044 C  
HETATM   30  C   UNL     1      -6.580   8.418  67.075  1.00  0.00    -0.058 A  
BRANCH  24  31
HETATM   31  O   UNL     1      -8.719   4.821  66.716  1.00  0.00    -0.109 OA 
HETATM   32  C   UNL     1      -9.770   4.821  65.757  1.00  0.00    -0.188 C  
ENDBRANCH  24  31
BRANCH  25  33
HETATM   33  O   UNL     1      -6.201   4.893  65.903  1.00  0.00    -0.029 OA 
HETATM   34  C   UNL     1      -5.463   4.983  64.692  1.00  0.00    -0.013 C  
ENDBRANCH  25  33
ENDBRANCH  18  19
ENDBRANCH  17  18
ENDBRANCH  16  17
ENDBRANCH  14  16
ENDBRANCH  13  14
ENDBRANCH   9  13
ENDBRANCH   2   3
TORSDOF 10
ENDMDL
MODEL      155
REMARK 921   NORMALIZED FREE ENERGY PREDICTED BY IDOCK:   -4.40 KCAL/MOL
REMARK 922        TOTAL FREE ENERGY PREDICTED BY IDOCK:   -8.94 KCAL/MOL
REMARK 923 INTER-LIGAND FREE ENERGY PREDICTED BY IDOCK:   -7.42 KCAL/MOL
REMARK 924 INTRA-LIGAND FREE ENERGY PREDICTED BY IDOCK:   -1.52 KCAL/MOL
REMARK 927      BINDING AFFINITY PREDICTED BY RF-SCORE:    0.00 PKD
ROOT
HETATM    1  C   UNL     1      -6.263  13.050  67.820  1.00  0.00    -0.149 C  
HETATM    2  O   UNL     1      -6.223  12.229  66.657  1.00  0.00    -0.130 OA 
ENDROOT
BRANCH   2   3
HETATM    3  C   UNL     1      -6.693  10.945  66.767  1.00  0.00    -0.120 A  
HETATM    4  C   UNL     1      -7.987  10.469  66.424  1.00  0.00    -0.137 A  
HETATM    5  C   UNL     1      -5.719  10.045  67.282  1.00  0.00    -0.046 A  
HETATM    6  C   UNL     1      -8.310   9.133  66.664  1.00  0.00    -0.122 A  
HETATM    7  C   UNL     1      -6.085   8.727  67.477  1.00  0.00    -0.051 A  
HETATM    8  C   UNL     1      -7.366   8.333  67.245  1.00  0.00    -0.089 A  
HETATM    9  C   UNL     1      -7.187   6.938  67.790  1.00  0.00    -0.091 C  
HETATM   10  C   UNL     1      -5.640   7.321  67.811  1.00  0.00    -0.025 C  
BRANCH   4  11
HETATM   11  O   UNL     1      -8.897  11.301  65.827  1.00  0.00    -0.196 OA 
HETATM   12  C   UNL     1     -10.184  10.743  65.562  1.00  0.00    -0.266 C  
ENDBRANCH   4  11
BRANCH   9  13
HETATM   13  C   UNL     1      -7.969   5.997  66.864  1.00  0.00    -0.102 C  
BRANCH  13  14
HETATM   14  N   UNL     1      -8.489   4.754  67.437  1.00  0.00    -0.105 NA 
HETATM   15  C   UNL     1      -7.447   3.981  68.091  1.00  0.00    -0.067 C  
BRANCH  14  16
HETATM   16  C   UNL     1      -9.737   4.924  68.191  1.00  0.00    -0.148 C  
BRANCH  16  17
HETATM   17  C   UNL     1      -9.477   5.379  69.624  1.00  0.00    -0.194 C  
BRANCH  17  18
HETATM   18  C   UNL     1     -10.747   5.439  70.483  1.00  0.00    -0.196 C  
BRANCH  18  19
HETATM   19  N   UNL     1     -11.199   6.829  70.584  1.00  0.00    -0.291 N  
HETATM   20  C   UNL     1     -10.839   7.730  69.495  1.00  0.00    -0.153 C  
HETATM   21  C   UNL     1     -10.019   8.913  69.979  1.00  0.00    -0.204 C  
HETATM   22  C   UNL     1     -10.966  10.007  70.384  1.00  0.00    -0.384 A  
HETATM   23  C   UNL     1     -10.936  11.212  69.671  1.00  0.00    -0.254 A  
HETATM   24  C   UNL     1     -11.827  12.246  69.960  1.00  0.00    -0.296 A  
HETATM   25  C   UNL     1     -12.775  12.071  70.984  1.00  0.00    -0.241 A  
HETATM   26  O   UNL     1     -12.878   6.366  72.066  1.00  0.00    -0.242 OA 
HETATM   27  C   UNL     1     -12.104   7.191  71.571  1.00  0.00    -0.342 C  
HETATM   28  C   UNL     1     -12.805  10.860  71.694  1.00  0.00    -0.554 A  
HETATM   29  C   UNL     1     -11.931   8.554  72.235  1.00  0.00    -0.454 C  
HETATM   30  C   UNL     1     -11.915   9.811  71.396  1.00  0.00    -0.493 A  
BRANCH  24  31
HETATM   31  O   UNL     1     -11.856  13.429  69.263  1.00  0.00    -0.299 OA 
HETATM   32  C   UNL     1     -11.609  13.344  67.864  1.00  0.00    -0.339 C  
ENDBRANCH  24  31
BRANCH  25  33
HETATM   33  O   UNL     1     -13.614  13.132  71.220  1.00  0.00    -0.057 OA 
HETATM   34  C   UNL     1     -13.503  13.789  72.475  1.00  0.00    -0.578 C  
ENDBRANCH  25  33
ENDBRANCH  18  19
ENDBRANCH  17  18
ENDBRANCH  16  17
ENDBRANCH  14  16
ENDBRANCH  13  14
ENDBRANCH   9  13
ENDBRANCH   2   3
TORSDOF 10
ENDMDL
MODEL      156
REMARK 921   NORMALIZED FREE ENERGY PREDICTED BY IDOCK:   -4.40 KCAL/MOL
REMARK 922        TOTAL FREE ENERGY PREDICTED BY IDOCK:   -8.94 KCAL/MOL
REMARK 923 INTER-LIGAND FREE ENERGY PREDICTED BY IDOCK:   -6.98 KCAL/MOL
REMARK 924 INTRA-LIGAND FREE ENERGY PREDICTED BY IDOCK:   -1.96 KCAL/MOL
REMARK 927      BINDING AFFINITY PREDICTED BY RF-SCORE:    0.00 PKD
ROOT
HETATM    1  C   UNL     1      -6.389  13.708  69.567  1.00  0.00    -0.114 C  
HETATM    2  O   UNL     1      -7.453  13.001  68.936  1.00  0.00    -0.084 OA 
ENDROOT
BRANCH   2   3
HETATM    3  C   UNL     1      -7.172  11.769  68.405  1.00  0.00    -0.089 A  
HETATM    4  C   UNL     1      -7.007  10.544  69.108  1.00  0.00    -0.080 A  
HETATM    5  C   UNL     1      -7.054  11.795  66.987  1.00  0.00    -0.132 A  
HETATM    6  C   UNL     1      -6.661   9.392  68.402  1.00  0.00    -0.054 A  
HETATM    7  C   UNL     1      -6.732  10.619  66.336  1.00  0.00    -0.124 A  
HETATM    8  C   UNL     1      -6.470   9.493  67.051  1.00  0.00    -0.067 A  
HETATM    9  C   UNL     1      -6.026   8.672  65.867  1.00  0.00    -0.048 C  
HETATM   10  C   UNL     1      -6.584   9.898  65.016  1.00  0.00    -0.110 C  
BRANCH   4  11
HETATM   11  O   UNL     1      -7.225  10.485  70.459  1.00  0.00    -0.232 OA 
HETATM   12  C   UNL     1      -7.693   9.237  70.969  1.00  0.00    -0.063 C  
ENDBRANCH   4  11
BRANCH   9  13
HETATM   13  C   UNL     1      -6.593   7.259  66.069  1.00  0.00    -0.052 C  
BRANCH  13  14
HETATM   14  N   UNL     1      -8.045   7.090  65.997  1.00  0.00    -0.116 NA 
HETATM   15  C   UNL     1      -8.441   6.295  64.847  1.00  0.00    -0.013 C  
BRANCH  14  16
HETATM   16  C   UNL     1      -8.665   6.729  67.278  1.00  0.00    -0.119 C  
BRANCH  16  17
HETATM   17  C   UNL     1      -9.560   7.846  67.810  1.00  0.00    -0.174 C  
BRANCH  17  18
HETATM   18  C   UNL     1     -10.399   8.524  66.718  1.00  0.00    -0.276 C  
BRANCH  18  19
HETATM   19  N   UNL     1     -10.617   9.928  67.076  1.00  0.00    -0.227 N  
HETATM   20  C   UNL     1     -10.695  10.252  68.495  1.00  0.00    -0.227 C  
HETATM   21  C   UNL     1     -12.022  10.893  68.864  1.00  0.00    -0.277 C  
HETATM   22  C   UNL     1     -11.893  12.379  68.675  1.00  0.00    -0.348 A  
HETATM   23  C   UNL     1     -12.014  13.206  69.799  1.00  0.00    -0.382 A  
HETATM   24  C   UNL     1     -11.849  14.588  69.701  1.00  0.00    -0.318 A  
HETATM   25  C   UNL     1     -11.551  15.158  68.452  1.00  0.00    -0.337 A  
HETATM   26  O   UNL     1      -9.867  10.743  65.075  1.00  0.00    -0.242 OA 
HETATM   27  C   UNL     1     -10.536  10.910  66.099  1.00  0.00    -0.229 C  
HETATM   28  C   UNL     1     -11.426  14.326  67.327  1.00  0.00    -0.371 A  
HETATM   29  C   UNL     1     -11.513  12.079  66.179  1.00  0.00    -0.401 C  
HETATM   30  C   UNL     1     -11.580  12.930  67.426  1.00  0.00    -0.414 A  
BRANCH  24  31
HETATM   31  O   UNL     1     -11.924  15.431  70.783  1.00  0.00    -0.298 OA 
HETATM   32  C   UNL     1     -12.930  15.137  71.746  1.00  0.00    -0.367 C  
ENDBRANCH  24  31
BRANCH  25  33
HETATM   33  O   UNL     1     -11.411  16.523  68.427  1.00  0.00    -0.348 OA 
HETATM   34  C   UNL     1     -10.700  17.091  67.335  1.00  0.00    -0.240 C  
ENDBRANCH  25  33
ENDBRANCH  18  19
ENDBRANCH  17  18
ENDBRANCH  16  17
ENDBRANCH  14  16
ENDBRANCH  13  14
ENDBRANCH   9  13
ENDBRANCH   2   3
TORSDOF 10
ENDMDL
MODEL      157
REMARK 921   NORMALIZED FREE ENERGY PREDICTED BY IDOCK:   -4.40 KCAL/MOL
REMARK 922        TOTAL FREE ENERGY PREDICTED BY IDOCK:   -8.93 KCAL/MOL
REMARK 923 INTER-LIGAND FREE ENERGY PREDICTED BY IDOCK:   -7.90 KCAL/MOL
REMARK 924 INTRA-LIGAND FREE ENERGY PREDICTED BY IDOCK:   -1.03 KCAL/MOL
REMARK 927      BINDING AFFINITY PREDICTED BY RF-SCORE:    0.00 PKD
ROOT
HETATM    1  C   UNL     1      -6.840  18.060  65.774  1.00  0.00    -0.246 C  
HETATM    2  O   UNL     1      -8.250  18.243  65.679  1.00  0.00    -0.440 OA 
ENDROOT
BRANCH   2   3
HETATM    3  C   UNL     1      -9.042  17.555  66.563  1.00  0.00    -0.263 A  
HETATM    4  C   UNL     1     -10.197  18.035  67.238  1.00  0.00    -0.364 A  
HETATM    5  C   UNL     1      -8.602  16.219  66.770  1.00  0.00    -0.273 A  
HETATM    6  C   UNL     1     -10.846  17.207  68.154  1.00  0.00    -0.316 A  
HETATM    7  C   UNL     1      -9.296  15.435  67.671  1.00  0.00    -0.203 A  
HETATM    8  C   UNL     1     -10.327  15.963  68.383  1.00  0.00    -0.240 A  
HETATM    9  C   UNL     1     -10.526  14.755  69.264  1.00  0.00    -0.231 C  
HETATM   10  C   UNL     1      -9.507  14.057  68.257  1.00  0.00    -0.216 C  
BRANCH   4  11
HETATM   11  O   UNL     1     -10.693  19.282  66.965  1.00  0.00    -0.448 OA 
HETATM   12  C   UNL     1     -10.018  20.379  67.578  1.00  0.00    -0.397 C  
ENDBRANCH   4  11
BRANCH   9  13
HETATM   13  C   UNL     1     -12.040  14.575  69.434  1.00  0.00    -0.290 C  
BRANCH  13  14
HETATM   14  N   UNL     1     -12.547  14.297  70.779  1.00  0.00    -0.337 NA 
HETATM   15  C   UNL     1     -13.480  15.316  71.228  1.00  0.00    -0.514 C  
BRANCH  14  16
HETATM   16  C   UNL     1     -12.966  12.904  70.980  1.00  0.00    -0.098 C  
BRANCH  16  17
HETATM   17  C   UNL     1     -11.831  11.923  70.694  1.00  0.00    -0.142 C  
BRANCH  17  18
HETATM   18  C   UNL     1     -12.322  10.521  70.310  1.00  0.00    -0.298 C  
BRANCH  18  19
HETATM   19  N   UNL     1     -11.457   9.974  69.262  1.00  0.00    -0.118 N  
HETATM   20  C   UNL     1     -10.926   8.631  69.468  1.00  0.00    -0.055 C  
HETATM   21  C   UNL     1      -9.407   8.611  69.471  1.00  0.00    -0.153 C  
HETATM   22  C   UNL     1      -8.937   8.428  68.055  1.00  0.00    -0.138 A  
HETATM   23  C   UNL     1      -8.224   7.266  67.734  1.00  0.00    -0.119 A  
HETATM   24  C   UNL     1      -7.809   7.010  66.427  1.00  0.00    -0.106 A  
HETATM   25  C   UNL     1      -8.117   7.935  65.414  1.00  0.00    -0.130 A  
HETATM   26  O   UNL     1     -12.229  11.382  67.635  1.00  0.00    -0.485 OA 
HETATM   27  C   UNL     1     -11.337  10.636  68.049  1.00  0.00    -0.278 C  
HETATM   28  C   UNL     1      -8.835   9.097  65.738  1.00  0.00    -0.210 A  
HETATM   29  C   UNL     1      -9.969  10.650  67.374  1.00  0.00    -0.213 C  
HETATM   30  C   UNL     1      -9.266   9.352  67.054  1.00  0.00    -0.171 A  
BRANCH  24  31
HETATM   31  O   UNL     1      -7.140   5.867  66.062  1.00  0.00    -0.070 OA 
HETATM   32  C   UNL     1      -7.244   4.762  66.953  1.00  0.00    -0.077 C  
ENDBRANCH  24  31
BRANCH  25  33
HETATM   33  O   UNL     1      -7.670   7.624  64.154  1.00  0.00    -0.115 OA 
HETATM   34  C   UNL     1      -8.218   8.353  63.064  1.00  0.00    -0.143 C  
ENDBRANCH  25  33
ENDBRANCH  18  19
ENDBRANCH  17  18
ENDBRANCH  16  17
ENDBRANCH  14  16
ENDBRANCH  13  14
ENDBRANCH   9  13
ENDBRANCH   2   3
TORSDOF 10
ENDMDL
MODEL      158
REMARK 921   NORMALIZED FREE ENERGY PREDICTED BY IDOCK:   -4.38 KCAL/MOL
REMARK 922        TOTAL FREE ENERGY PREDICTED BY IDOCK:   -8.90 KCAL/MOL
REMARK 923 INTER-LIGAND FREE ENERGY PREDICTED BY IDOCK:   -6.96 KCAL/MOL
REMARK 924 INTRA-LIGAND FREE ENERGY PREDICTED BY IDOCK:   -1.94 KCAL/MOL
REMARK 927      BINDING AFFINITY PREDICTED BY RF-SCORE:    0.00 PKD
ROOT
HETATM    1  C   UNL     1      -5.151  10.036  70.075  1.00  0.00    -0.037 C  
HETATM    2  O   UNL     1      -6.128  11.027  70.378  1.00  0.00    -0.138 OA 
ENDROOT
BRANCH   2   3
HETATM    3  C   UNL     1      -6.266  12.073  69.502  1.00  0.00    -0.117 A  
HETATM    4  C   UNL     1      -6.793  12.028  68.183  1.00  0.00    -0.069 A  
HETATM    5  C   UNL     1      -5.820  13.309  70.046  1.00  0.00    -0.136 A  
HETATM    6  C   UNL     1      -6.800  13.189  67.409  1.00  0.00    -0.113 A  
HETATM    7  C   UNL     1      -5.871  14.433  69.244  1.00  0.00    -0.088 A  
HETATM    8  C   UNL     1      -6.274  14.330  67.950  1.00  0.00    -0.167 A  
HETATM    9  C   UNL     1      -5.946  15.756  67.584  1.00  0.00    -0.172 C  
HETATM   10  C   UNL     1      -5.729  15.936  69.152  1.00  0.00    -0.116 C  
BRANCH   4  11
HETATM   11  O   UNL     1      -7.326  10.868  67.687  1.00  0.00    -0.091 OA 
HETATM   12  C   UNL     1      -7.920  10.948  66.392  1.00  0.00    -0.157 C  
ENDBRANCH   4  11
BRANCH   9  13
HETATM   13  C   UNL     1      -7.076  16.251  66.671  1.00  0.00    -0.077 C  
BRANCH  13  14
HETATM   14  N   UNL     1      -7.811  17.447  67.083  1.00  0.00    -0.196 NA 
HETATM   15  C   UNL     1      -7.344  18.636  66.390  1.00  0.00    -0.245 C  
BRANCH  14  16
HETATM   16  C   UNL     1      -9.266  17.261  67.138  1.00  0.00    -0.235 C  
BRANCH  16  17
HETATM   17  C   UNL     1      -9.642  15.898  67.713  1.00  0.00    -0.218 C  
BRANCH  17  18
HETATM   18  C   UNL     1     -10.797  15.960  68.721  1.00  0.00    -0.284 C  
BRANCH  18  19
HETATM   19  N   UNL     1     -11.028  14.626  69.279  1.00  0.00    -0.253 N  
HETATM   20  C   UNL     1     -10.171  13.545  68.804  1.00  0.00    -0.131 C  
HETATM   21  C   UNL     1     -10.968  12.424  68.159  1.00  0.00    -0.263 C  
HETATM   22  C   UNL     1     -11.362  11.450  69.234  1.00  0.00    -0.355 A  
HETATM   23  C   UNL     1     -10.858  10.145  69.168  1.00  0.00    -0.260 A  
HETATM   24  C   UNL     1     -11.140   9.210  70.163  1.00  0.00    -0.222 A  
HETATM   25  C   UNL     1     -11.941   9.588  71.255  1.00  0.00    -0.365 A  
HETATM   26  O   UNL     1     -12.101  15.392  71.147  1.00  0.00    -0.300 OA 
HETATM   27  C   UNL     1     -11.883  14.466  70.359  1.00  0.00    -0.312 C  
HETATM   28  C   UNL     1     -12.441  10.898  71.321  1.00  0.00    -0.493 A  
HETATM   29  C   UNL     1     -12.768  13.224  70.394  1.00  0.00    -0.103 C  
HETATM   30  C   UNL     1     -12.147  11.847  70.324  1.00  0.00    -0.409 A  
BRANCH  24  31
HETATM   31  O   UNL     1     -10.638   7.931  70.156  1.00  0.00    -0.228 OA 
HETATM   32  C   UNL     1      -9.400   7.742  69.481  1.00  0.00    -0.149 C  
ENDBRANCH  24  31
BRANCH  25  33
HETATM   33  O   UNL     1     -12.185   8.615  72.193  1.00  0.00    -0.343 OA 
HETATM   34  C   UNL     1     -13.432   7.937  72.126  1.00  0.00    -0.115 C  
ENDBRANCH  25  33
ENDBRANCH  18  19
ENDBRANCH  17  18
ENDBRANCH  16  17
ENDBRANCH  14  16
ENDBRANCH  13  14
ENDBRANCH   9  13
ENDBRANCH   2   3
TORSDOF 10
ENDMDL
MODEL      159
REMARK 921   NORMALIZED FREE ENERGY PREDICTED BY IDOCK:   -4.38 KCAL/MOL
REMARK 922        TOTAL FREE ENERGY PREDICTED BY IDOCK:   -8.90 KCAL/MOL
REMARK 923 INTER-LIGAND FREE ENERGY PREDICTED BY IDOCK:   -8.14 KCAL/MOL
REMARK 924 INTRA-LIGAND FREE ENERGY PREDICTED BY IDOCK:   -0.76 KCAL/MOL
REMARK 927      BINDING AFFINITY PREDICTED BY RF-SCORE:    0.00 PKD
ROOT
HETATM    1  C   UNL     1      -9.580   1.824  68.946  1.00  0.00    -0.061 C  
HETATM    2  O   UNL     1      -9.612   2.765  70.014  1.00  0.00    -0.131 OA 
ENDROOT
BRANCH   2   3
HETATM    3  C   UNL     1      -9.607   4.098  69.689  1.00  0.00    -0.207 A  
HETATM    4  C   UNL     1      -9.331   5.194  70.551  1.00  0.00    -0.158 A  
HETATM    5  C   UNL     1      -9.911   4.331  68.320  1.00  0.00    -0.106 A  
HETATM    6  C   UNL     1      -9.433   6.494  70.057  1.00  0.00    -0.163 A  
HETATM    7  C   UNL     1      -9.975   5.639  67.878  1.00  0.00    -0.174 A  
HETATM    8  C   UNL     1      -9.818   6.664  68.757  1.00  0.00    -0.140 A  
HETATM    9  C   UNL     1     -10.167   7.752  67.771  1.00  0.00    -0.271 C  
HETATM   10  C   UNL     1     -10.088   6.577  66.697  1.00  0.00    -0.201 C  
BRANCH   4  11
HETATM   11  O   UNL     1      -8.931   4.977  71.844  1.00  0.00    -0.131 OA 
HETATM   12  C   UNL     1      -8.295   6.073  72.500  1.00  0.00    -0.116 C  
ENDBRANCH   4  11
BRANCH   9  13
HETATM   13  C   UNL     1      -9.209   8.920  68.042  1.00  0.00    -0.139 C  
BRANCH  13  14
HETATM   14  N   UNL     1      -9.796  10.222  68.366  1.00  0.00    -0.152 NA 
HETATM   15  C   UNL     1      -8.790  11.268  68.431  1.00  0.00    -0.159 C  
BRANCH  14  16
HETATM   16  C   UNL     1     -11.006  10.535  67.596  1.00  0.00    -0.314 C  
BRANCH  16  17
HETATM   17  C   UNL     1     -11.513  11.946  67.886  1.00  0.00    -0.385 C  
BRANCH  17  18
HETATM   18  C   UNL     1     -11.815  12.755  66.618  1.00  0.00    -0.393 C  
BRANCH  18  19
HETATM   19  N   UNL     1     -11.073  14.018  66.660  1.00  0.00    -0.304 N  
HETATM   20  C   UNL     1     -10.669  14.512  67.972  1.00  0.00    -0.242 C  
HETATM   21  C   UNL     1     -11.244  15.886  68.268  1.00  0.00    -0.354 C  
HETATM   22  C   UNL     1     -10.288  16.919  67.740  1.00  0.00    -0.327 A  
HETATM   23  C   UNL     1      -9.672  17.785  68.652  1.00  0.00    -0.346 A  
HETATM   24  C   UNL     1      -8.733  18.727  68.233  1.00  0.00    -0.333 A  
HETATM   25  C   UNL     1      -8.398  18.806  66.870  1.00  0.00    -0.270 A  
HETATM   26  O   UNL     1     -10.384  13.898  64.484  1.00  0.00    -0.436 OA 
HETATM   27  C   UNL     1     -10.608  14.586  65.483  1.00  0.00    -0.351 C  
HETATM   28  C   UNL     1      -9.015  17.934  65.959  1.00  0.00    -0.005 A  
HETATM   29  C   UNL     1     -10.650  16.106  65.358  1.00  0.00    -0.399 C  
HETATM   30  C   UNL     1      -9.953  16.973  66.381  1.00  0.00    -0.318 A  
BRANCH  24  31
HETATM   31  O   UNL     1      -8.078  19.570  69.098  1.00  0.00    -0.320 OA 
HETATM   32  C   UNL     1      -6.788  19.153  69.531  1.00  0.00    -0.208 C  
ENDBRANCH  24  31
BRANCH  25  33
HETATM   33  O   UNL     1      -7.475  19.762  66.527  1.00  0.00    -0.243 OA 
HETATM   34  C   UNL     1      -6.674  19.520  65.378  1.00  0.00    -0.279 C  
ENDBRANCH  25  33
ENDBRANCH  18  19
ENDBRANCH  17  18
ENDBRANCH  16  17
ENDBRANCH  14  16
ENDBRANCH  13  14
ENDBRANCH   9  13
ENDBRANCH   2   3
TORSDOF 10
ENDMDL
MODEL      160
REMARK 921   NORMALIZED FREE ENERGY PREDICTED BY IDOCK:   -4.37 KCAL/MOL
REMARK 922        TOTAL FREE ENERGY PREDICTED BY IDOCK:   -8.89 KCAL/MOL
REMARK 923 INTER-LIGAND FREE ENERGY PREDICTED BY IDOCK:   -7.98 KCAL/MOL
REMARK 924 INTRA-LIGAND FREE ENERGY PREDICTED BY IDOCK:   -0.91 KCAL/MOL
REMARK 927      BINDING AFFINITY PREDICTED BY RF-SCORE:    0.00 PKD
ROOT
HETATM    1  C   UNL     1      -7.048  19.656  65.544  1.00  0.00    -0.263 C  
HETATM    2  O   UNL     1      -7.350  18.277  65.350  1.00  0.00    -0.531 OA 
ENDROOT
BRANCH   2   3
HETATM    3  C   UNL     1      -8.218  17.685  66.231  1.00  0.00    -0.229 A  
HETATM    4  C   UNL     1      -9.578  18.028  66.462  1.00  0.00    -0.315 A  
HETATM    5  C   UNL     1      -7.623  16.612  66.951  1.00  0.00    -0.262 A  
HETATM    6  C   UNL     1     -10.294  17.351  67.449  1.00  0.00    -0.343 A  
HETATM    7  C   UNL     1      -8.387  15.960  67.901  1.00  0.00    -0.158 A  
HETATM    8  C   UNL     1      -9.647  16.390  68.175  1.00  0.00    -0.227 A  
HETATM    9  C   UNL     1      -9.863  15.463  69.346  1.00  0.00    -0.273 C  
HETATM   10  C   UNL     1      -8.504  14.791  68.853  1.00  0.00    -0.159 C  
BRANCH   4  11
HETATM   11  O   UNL     1     -10.192  18.986  65.700  1.00  0.00    -0.499 OA 
HETATM   12  C   UNL     1     -11.111  19.840  66.379  1.00  0.00     0.033 C  
ENDBRANCH   4  11
BRANCH   9  13
HETATM   13  C   UNL     1     -11.311  14.964  69.256  1.00  0.00    -0.296 C  
BRANCH  13  14
HETATM   14  N   UNL     1     -11.959  14.524  70.493  1.00  0.00    -0.298 NA 
HETATM   15  C   UNL     1     -13.093  15.364  70.839  1.00  0.00    -0.468 C  
BRANCH  14  16
HETATM   16  C   UNL     1     -12.182  13.075  70.564  1.00  0.00    -0.313 C  
BRANCH  16  17
HETATM   17  C   UNL     1     -11.302  12.316  69.574  1.00  0.00    -0.258 C  
BRANCH  17  18
HETATM   18  C   UNL     1     -11.994  11.093  68.959  1.00  0.00    -0.320 C  
BRANCH  18  19
HETATM   19  N   UNL     1     -11.324   9.874  69.419  1.00  0.00    -0.151 N  
HETATM   20  C   UNL     1     -11.665   9.386  70.750  1.00  0.00    -0.282 C  
HETATM   21  C   UNL     1     -10.450   9.312  71.660  1.00  0.00    -0.328 C  
HETATM   22  C   UNL     1      -9.812   7.962  71.482  1.00  0.00    -0.206 A  
HETATM   23  C   UNL     1      -9.776   7.092  72.578  1.00  0.00    -0.170 A  
HETATM   24  C   UNL     1      -9.249   5.806  72.463  1.00  0.00    -0.142 A  
HETATM   25  C   UNL     1      -8.748   5.376  71.222  1.00  0.00    -0.130 A  
HETATM   26  O   UNL     1     -10.787   9.158  67.315  1.00  0.00    -0.233 OA 
HETATM   27  C   UNL     1     -10.569   9.123  68.529  1.00  0.00    -0.169 C  
HETATM   28  C   UNL     1      -8.789   6.249  70.124  1.00  0.00    -0.149 A  
HETATM   29  C   UNL     1      -9.287   8.478  69.047  1.00  0.00    -0.146 C  
HETATM   30  C   UNL     1      -9.332   7.543  70.234  1.00  0.00    -0.161 A  
BRANCH  24  31
HETATM   31  O   UNL     1      -9.227   4.908  73.503  1.00  0.00    -0.120 OA 
HETATM   32  C   UNL     1     -10.472   4.652  74.143  1.00  0.00    -0.278 C  
ENDBRANCH  24  31
BRANCH  25  33
HETATM   33  O   UNL     1      -8.237   4.103  71.184  1.00  0.00    -0.070 OA 
HETATM   34  C   UNL     1      -8.732   3.225  70.182  1.00  0.00    -0.069 C  
ENDBRANCH  25  33
ENDBRANCH  18  19
ENDBRANCH  17  18
ENDBRANCH  16  17
ENDBRANCH  14  16
ENDBRANCH  13  14
ENDBRANCH   9  13
ENDBRANCH   2   3
TORSDOF 10
ENDMDL
MODEL      161
REMARK 921   NORMALIZED FREE ENERGY PREDICTED BY IDOCK:   -4.37 KCAL/MOL
REMARK 922        TOTAL FREE ENERGY PREDICTED BY IDOCK:   -8.89 KCAL/MOL
REMARK 923 INTER-LIGAND FREE ENERGY PREDICTED BY IDOCK:   -8.12 KCAL/MOL
REMARK 924 INTRA-LIGAND FREE ENERGY PREDICTED BY IDOCK:   -0.76 KCAL/MOL
REMARK 927      BINDING AFFINITY PREDICTED BY RF-SCORE:    0.00 PKD
ROOT
HETATM    1  C   UNL     1      -9.701  19.585  68.223  1.00  0.00    -0.404 C  
HETATM    2  O   UNL     1     -10.087  18.431  68.962  1.00  0.00    -0.379 OA 
ENDROOT
BRANCH   2   3
HETATM    3  C   UNL     1     -10.460  17.317  68.254  1.00  0.00    -0.385 A  
HETATM    4  C   UNL     1     -10.837  16.050  68.776  1.00  0.00    -0.302 A  
HETATM    5  C   UNL     1     -10.452  17.531  66.848  1.00  0.00    -0.285 A  
HETATM    6  C   UNL     1     -11.127  15.007  67.896  1.00  0.00    -0.310 A  
HETATM    7  C   UNL     1     -10.771  16.470  66.023  1.00  0.00    -0.180 A  
HETATM    8  C   UNL     1     -11.015  15.242  66.554  1.00  0.00    -0.295 A  
HETATM    9  C   UNL     1     -11.101  14.527  65.229  1.00  0.00    -0.355 C  
HETATM   10  C   UNL     1     -11.080  16.000  64.619  1.00  0.00    -0.346 C  
BRANCH   4  11
HETATM   11  O   UNL     1     -10.954  15.863  70.128  1.00  0.00    -0.307 OA 
HETATM   12  C   UNL     1     -12.281  15.835  70.650  1.00  0.00    -0.384 C  
ENDBRANCH   4  11
BRANCH   9  13
HETATM   13  C   UNL     1     -12.248  13.513  65.345  1.00  0.00    -0.447 C  
BRANCH  13  14
HETATM   14  N   UNL     1     -11.957  12.116  65.022  1.00  0.00    -0.329 NA 
HETATM   15  C   UNL     1     -11.356  11.978  63.706  1.00  0.00    -0.445 C  
BRANCH  14  16
HETATM   16  C   UNL     1     -11.305  11.377  66.111  1.00  0.00    -0.043 C  
BRANCH  16  17
HETATM   17  C   UNL     1      -9.787  11.362  65.957  1.00  0.00    -0.256 C  
BRANCH  17  18
HETATM   18  C   UNL     1      -9.201   9.948  65.845  1.00  0.00    -0.176 C  
BRANCH  18  19
HETATM   19  N   UNL     1      -9.191   9.320  67.168  1.00  0.00    -0.129 N  
HETATM   20  C   UNL     1      -9.954   8.087  67.328  1.00  0.00    -0.217 C  
HETATM   21  C   UNL     1     -11.028   8.214  68.395  1.00  0.00     0.166 C  
HETATM   22  C   UNL     1     -10.419   7.844  69.719  1.00  0.00    -0.233 A  
HETATM   23  C   UNL     1     -10.915   6.719  70.389  1.00  0.00    -0.330 A  
HETATM   24  C   UNL     1     -10.357   6.290  71.593  1.00  0.00    -0.212 A  
HETATM   25  C   UNL     1      -9.274   6.999  72.140  1.00  0.00    -0.130 A  
HETATM   26  O   UNL     1      -7.269  10.356  67.847  1.00  0.00    -0.083 OA 
HETATM   27  C   UNL     1      -8.319   9.779  68.144  1.00  0.00    -0.110 C  
HETATM   28  C   UNL     1      -8.776   8.125  71.464  1.00  0.00    -0.185 A  
HETATM   29  C   UNL     1      -8.814   9.812  69.587  1.00  0.00    -0.224 C  
HETATM   30  C   UNL     1      -9.330   8.552  70.243  1.00  0.00    -0.171 A  
BRANCH  24  31
HETATM   31  O   UNL     1     -10.789   5.172  72.265  1.00  0.00    -0.218 OA 
HETATM   32  C   UNL     1      -9.875   4.082  72.329  1.00  0.00    -0.160 C  
ENDBRANCH  24  31
BRANCH  25  33
HETATM   33  O   UNL     1      -8.781   6.527  73.331  1.00  0.00    -0.123 OA 
HETATM   34  C   UNL     1      -7.916   7.381  74.069  1.00  0.00    -0.137 C  
ENDBRANCH  25  33
ENDBRANCH  18  19
ENDBRANCH  17  18
ENDBRANCH  16  17
ENDBRANCH  14  16
ENDBRANCH  13  14
ENDBRANCH   9  13
ENDBRANCH   2   3
TORSDOF 10
ENDMDL
MODEL      162
REMARK 921   NORMALIZED FREE ENERGY PREDICTED BY IDOCK:   -4.34 KCAL/MOL
REMARK 922        TOTAL FREE ENERGY PREDICTED BY IDOCK:   -8.84 KCAL/MOL
REMARK 923 INTER-LIGAND FREE ENERGY PREDICTED BY IDOCK:   -7.89 KCAL/MOL
REMARK 924 INTRA-LIGAND FREE ENERGY PREDICTED BY IDOCK:   -0.96 KCAL/MOL
REMARK 927      BINDING AFFINITY PREDICTED BY RF-SCORE:    0.00 PKD
ROOT
HETATM    1  C   UNL     1     -13.155  15.538  73.495  1.00  0.00    -0.489 C  
HETATM    2  O   UNL     1     -13.605  14.523  72.603  1.00  0.00    -0.454 OA 
ENDROOT
BRANCH   2   3
HETATM    3  C   UNL     1     -12.902  14.342  71.439  1.00  0.00    -0.344 A  
HETATM    4  C   UNL     1     -12.491  13.109  70.864  1.00  0.00    -0.323 A  
HETATM    5  C   UNL     1     -12.595  15.567  70.786  1.00  0.00    -0.505 A  
HETATM    6  C   UNL     1     -11.725  13.120  69.699  1.00  0.00    -0.370 A  
HETATM    7  C   UNL     1     -11.853  15.518  69.621  1.00  0.00    -0.384 A  
HETATM    8  C   UNL     1     -11.380  14.329  69.163  1.00  0.00    -0.312 A  
HETATM    9  C   UNL     1     -10.549  14.924  68.053  1.00  0.00    -0.248 C  
HETATM   10  C   UNL     1     -11.312  16.273  68.427  1.00  0.00    -0.312 C  
BRANCH   4  11
HETATM   11  O   UNL     1     -12.874  11.919  71.425  1.00  0.00    -0.389 OA 
HETATM   12  C   UNL     1     -12.686  10.753  70.624  1.00  0.00    -0.331 C  
ENDBRANCH   4  11
BRANCH   9  13
HETATM   13  C   UNL     1     -10.702  13.997  66.839  1.00  0.00    -0.285 C  
BRANCH  13  14
HETATM   14  N   UNL     1      -9.560  13.156  66.476  1.00  0.00    -0.266 NA 
HETATM   15  C   UNL     1      -8.374  13.490  67.247  1.00  0.00    -0.179 C  
BRANCH  14  16
HETATM   16  C   UNL     1      -9.883  11.728  66.373  1.00  0.00    -0.214 C  
BRANCH  16  17
HETATM   17  C   UNL     1      -8.826  10.857  67.046  1.00  0.00    -0.141 C  
BRANCH  17  18
HETATM   18  C   UNL     1      -7.803  10.273  66.063  1.00  0.00    -0.133 C  
BRANCH  18  19
HETATM   19  N   UNL     1      -8.096   8.854  65.843  1.00  0.00    -0.106 N  
HETATM   20  C   UNL     1      -8.398   8.045  67.018  1.00  0.00    -0.116 C  
HETATM   21  C   UNL     1      -7.427   6.888  67.181  1.00  0.00    -0.095 C  
HETATM   22  C   UNL     1      -7.961   5.714  66.408  1.00  0.00    -0.101 A  
HETATM   23  C   UNL     1      -8.319   4.559  67.114  1.00  0.00    -0.105 A  
HETATM   24  C   UNL     1      -8.872   3.456  66.464  1.00  0.00    -0.136 A  
HETATM   25  C   UNL     1      -9.078   3.510  65.074  1.00  0.00    -0.140 A  
HETATM   26  O   UNL     1      -8.651   9.121  63.641  1.00  0.00    -0.200 OA 
HETATM   27  C   UNL     1      -8.278   8.378  64.553  1.00  0.00    -0.146 C  
HETATM   28  C   UNL     1      -8.723   4.671  64.370  1.00  0.00    -0.148 A  
HETATM   29  C   UNL     1      -7.737   6.991  64.220  1.00  0.00    -0.117 C  
HETATM   30  C   UNL     1      -8.176   5.790  65.026  1.00  0.00    -0.137 A  
BRANCH  24  31
HETATM   31  O   UNL     1      -9.270   2.318  67.122  1.00  0.00    -0.139 OA 
HETATM   32  C   UNL     1      -9.209   2.356  68.543  1.00  0.00    -0.186 C  
ENDBRANCH  24  31
BRANCH  25  33
HETATM   33  O   UNL     1      -9.619   2.387  64.499  1.00  0.00    -0.142 OA 
HETATM   34  C   UNL     1     -10.498   2.571  63.398  1.00  0.00    -0.194 C  
ENDBRANCH  25  33
ENDBRANCH  18  19
ENDBRANCH  17  18
ENDBRANCH  16  17
ENDBRANCH  14  16
ENDBRANCH  13  14
ENDBRANCH   9  13
ENDBRANCH   2   3
TORSDOF 10
ENDMDL
MODEL      163
REMARK 921   NORMALIZED FREE ENERGY PREDICTED BY IDOCK:   -4.34 KCAL/MOL
REMARK 922        TOTAL FREE ENERGY PREDICTED BY IDOCK:   -8.84 KCAL/MOL
REMARK 923 INTER-LIGAND FREE ENERGY PREDICTED BY IDOCK:   -6.93 KCAL/MOL
REMARK 924 INTRA-LIGAND FREE ENERGY PREDICTED BY IDOCK:   -1.91 KCAL/MOL
REMARK 927      BINDING AFFINITY PREDICTED BY RF-SCORE:    0.00 PKD
ROOT
HETATM    1  C   UNL     1     -11.369  12.221  67.509  1.00  0.00    -0.325 C  
HETATM    2  O   UNL     1     -10.185  11.754  68.149  1.00  0.00    -0.190 OA 
ENDROOT
BRANCH   2   3
HETATM    3  C   UNL     1     -10.327  10.832  69.154  1.00  0.00    -0.217 A  
HETATM    4  C   UNL     1      -9.297  10.086  69.791  1.00  0.00    -0.202 A  
HETATM    5  C   UNL     1     -11.680  10.661  69.558  1.00  0.00    -0.356 A  
HETATM    6  C   UNL     1      -9.637   9.141  70.758  1.00  0.00    -0.338 A  
HETATM    7  C   UNL     1     -11.957   9.728  70.538  1.00  0.00    -0.282 A  
HETATM    8  C   UNL     1     -10.961   8.952  71.043  1.00  0.00    -0.341 A  
HETATM    9  C   UNL     1     -11.868   8.071  71.865  1.00  0.00    -0.353 C  
HETATM   10  C   UNL     1     -12.985   9.142  71.480  1.00  0.00    -0.409 C  
BRANCH   4  11
HETATM   11  O   UNL     1      -7.982  10.319  69.488  1.00  0.00    -0.148 OA 
HETATM   12  C   UNL     1      -7.229   9.195  69.035  1.00  0.00    -0.072 C  
ENDBRANCH   4  11
BRANCH   9  13
HETATM   13  C   UNL     1     -11.151   7.814  73.197  1.00  0.00    -0.275 C  
BRANCH  13  14
HETATM   14  N   UNL     1     -10.074   6.822  73.211  1.00  0.00    -0.197 NA 
HETATM   15  C   UNL     1      -9.036   7.163  74.169  1.00  0.00    -0.225 C  
BRANCH  14  16
HETATM   16  C   UNL     1     -10.547   5.433  73.237  1.00  0.00    -0.249 C  
BRANCH  16  17
HETATM   17  C   UNL     1      -9.467   4.457  72.778  1.00  0.00    -0.162 C  
BRANCH  17  18
HETATM   18  C   UNL     1      -9.956   3.464  71.716  1.00  0.00    -0.124 C  
BRANCH  18  19
HETATM   19  N   UNL     1      -9.604   3.964  70.384  1.00  0.00    -0.186 N  
HETATM   20  C   UNL     1      -9.612   5.410  70.190  1.00  0.00    -0.177 C  
HETATM   21  C   UNL     1     -10.581   5.836  69.101  1.00  0.00    -0.365 C  
HETATM   22  C   UNL     1      -9.854   5.804  67.786  1.00  0.00    -0.144 A  
HETATM   23  C   UNL     1      -9.683   7.007  67.090  1.00  0.00    -0.206 A  
HETATM   24  C   UNL     1      -8.969   7.054  65.893  1.00  0.00    -0.062 A  
HETATM   25  C   UNL     1      -8.408   5.872  65.380  1.00  0.00    -0.149 A  
HETATM   26  O   UNL     1      -8.496   2.064  69.763  1.00  0.00    -0.045 OA 
HETATM   27  C   UNL     1      -9.087   3.096  69.434  1.00  0.00    -0.132 C  
HETATM   28  C   UNL     1      -8.577   4.668  66.082  1.00  0.00    -0.114 A  
HETATM   29  C   UNL     1      -9.511   3.291  67.982  1.00  0.00    -0.217 C  
HETATM   30  C   UNL     1      -9.287   4.620  67.297  1.00  0.00    -0.159 A  
BRANCH  24  31
HETATM   31  O   UNL     1      -8.747   8.217  65.196  1.00  0.00    -0.149 OA 
HETATM   32  C   UNL     1      -9.189   9.419  65.817  1.00  0.00    -0.219 C  
ENDBRANCH  24  31
BRANCH  25  33
HETATM   33  O   UNL     1      -7.726   5.990  64.194  1.00  0.00    -0.094 OA 
HETATM   34  C   UNL     1      -7.186   4.805  63.626  1.00  0.00    -0.049 C  
ENDBRANCH  25  33
ENDBRANCH  18  19
ENDBRANCH  17  18
ENDBRANCH  16  17
ENDBRANCH  14  16
ENDBRANCH  13  14
ENDBRANCH   9  13
ENDBRANCH   2   3
TORSDOF 10
ENDMDL
MODEL      164
REMARK 921   NORMALIZED FREE ENERGY PREDICTED BY IDOCK:   -4.34 KCAL/MOL
REMARK 922        TOTAL FREE ENERGY PREDICTED BY IDOCK:   -8.84 KCAL/MOL
REMARK 923 INTER-LIGAND FREE ENERGY PREDICTED BY IDOCK:   -7.81 KCAL/MOL
REMARK 924 INTRA-LIGAND FREE ENERGY PREDICTED BY IDOCK:   -1.03 KCAL/MOL
REMARK 927      BINDING AFFINITY PREDICTED BY RF-SCORE:    0.00 PKD
ROOT
HETATM    1  C   UNL     1     -12.363  15.558  63.955  1.00  0.00     0.171 C  
HETATM    2  O   UNL     1     -11.173  16.257  64.308  1.00  0.00    -0.770 OA 
ENDROOT
BRANCH   2   3
HETATM    3  C   UNL     1     -10.445  15.780  65.368  1.00  0.00    -0.414 A  
HETATM    4  C   UNL     1     -10.119  14.425  65.650  1.00  0.00    -0.353 A  
HETATM    5  C   UNL     1      -9.994  16.813  66.235  1.00  0.00    -0.336 A  
HETATM    6  C   UNL     1      -9.418  14.120  66.816  1.00  0.00    -0.290 A  
HETATM    7  C   UNL     1      -9.282  16.455  67.364  1.00  0.00    -0.213 A  
HETATM    8  C   UNL     1      -9.088  15.143  67.661  1.00  0.00    -0.181 A  
HETATM    9  C   UNL     1      -8.463  15.392  69.010  1.00  0.00    -0.229 C  
HETATM   10  C   UNL     1      -8.452  16.915  68.542  1.00  0.00    -0.258 C  
BRANCH   4  11
HETATM   11  O   UNL     1     -10.454  13.432  64.768  1.00  0.00    -0.366 OA 
HETATM   12  C   UNL     1     -10.006  12.118  65.096  1.00  0.00    -0.228 C  
ENDBRANCH   4  11
BRANCH   9  13
HETATM   13  C   UNL     1      -7.312  14.388  69.159  1.00  0.00    -0.113 C  
BRANCH  13  14
HETATM   14  N   UNL     1      -6.390  14.235  68.032  1.00  0.00    -0.138 NA 
HETATM   15  C   UNL     1      -5.392  15.291  68.002  1.00  0.00    -0.125 C  
BRANCH  14  16
HETATM   16  C   UNL     1      -5.889  12.867  67.856  1.00  0.00    -0.123 C  
BRANCH  16  17
HETATM   17  C   UNL     1      -6.736  12.076  66.863  1.00  0.00    -0.041 C  
BRANCH  17  18
HETATM   18  C   UNL     1      -6.534  10.558  66.965  1.00  0.00    -0.076 C  
BRANCH  18  19
HETATM   19  N   UNL     1      -7.370  10.028  68.044  1.00  0.00    -0.086 N  
HETATM   20  C   UNL     1      -8.805   9.940  67.797  1.00  0.00    -0.129 C  
HETATM   21  C   UNL     1      -9.608  10.753  68.798  1.00  0.00    -0.194 C  
HETATM   22  C   UNL     1      -9.902   9.878  69.984  1.00  0.00    -0.291 A  
HETATM   23  C   UNL     1     -11.237   9.567  70.269  1.00  0.00    -0.307 A  
HETATM   24  C   UNL     1     -11.573   8.715  71.321  1.00  0.00    -0.284 A  
HETATM   25  C   UNL     1     -10.550   8.156  72.107  1.00  0.00    -0.290 A  
HETATM   26  O   UNL     1      -5.649   8.949  69.094  1.00  0.00    -0.035 OA 
HETATM   27  C   UNL     1      -6.777   9.446  69.155  1.00  0.00    -0.050 C  
HETATM   28  C   UNL     1      -9.212   8.466  71.817  1.00  0.00    -0.287 A  
HETATM   29  C   UNL     1      -7.422   9.685  70.517  1.00  0.00    -0.147 C  
HETATM   30  C   UNL     1      -8.870   9.316  70.748  1.00  0.00    -0.282 A  
BRANCH  24  31
HETATM   31  O   UNL     1     -12.866   8.355  71.612  1.00  0.00    -0.319 OA 
HETATM   32  C   UNL     1     -13.705   9.379  72.137  1.00  0.00    -0.420 C  
ENDBRANCH  24  31
BRANCH  25  33
HETATM   33  O   UNL     1     -10.953   7.335  73.130  1.00  0.00    -0.337 OA 
HETATM   34  C   UNL     1     -10.984   5.937  72.876  1.00  0.00    -0.268 C  
ENDBRANCH  25  33
ENDBRANCH  18  19
ENDBRANCH  17  18
ENDBRANCH  16  17
ENDBRANCH  14  16
ENDBRANCH  13  14
ENDBRANCH   9  13
ENDBRANCH   2   3
TORSDOF 10
ENDMDL
MODEL      165
REMARK 921   NORMALIZED FREE ENERGY PREDICTED BY IDOCK:   -4.30 KCAL/MOL
REMARK 922        TOTAL FREE ENERGY PREDICTED BY IDOCK:   -8.78 KCAL/MOL
REMARK 923 INTER-LIGAND FREE ENERGY PREDICTED BY IDOCK:   -7.93 KCAL/MOL
REMARK 924 INTRA-LIGAND FREE ENERGY PREDICTED BY IDOCK:   -0.85 KCAL/MOL
REMARK 927      BINDING AFFINITY PREDICTED BY RF-SCORE:    0.00 PKD
ROOT
HETATM    1  C   UNL     1     -10.319   1.484  73.879  1.00  0.00    -0.089 C  
HETATM    2  O   UNL     1     -10.196   1.646  72.470  1.00  0.00    -0.123 OA 
ENDROOT
BRANCH   2   3
HETATM    3  C   UNL     1     -10.074   2.923  71.985  1.00  0.00    -0.114 A  
HETATM    4  C   UNL     1      -9.610   3.316  70.700  1.00  0.00    -0.153 A  
HETATM    5  C   UNL     1     -10.482   3.910  72.924  1.00  0.00    -0.247 A  
HETATM    6  C   UNL     1      -9.493   4.674  70.401  1.00  0.00    -0.241 A  
HETATM    7  C   UNL     1     -10.368   5.240  72.566  1.00  0.00    -0.249 A  
HETATM    8  C   UNL     1      -9.813   5.580  71.373  1.00  0.00    -0.218 A  
HETATM    9  C   UNL     1      -9.795   7.064  71.641  1.00  0.00    -0.169 C  
HETATM   10  C   UNL     1     -10.679   6.679  72.910  1.00  0.00    -0.285 C  
BRANCH   4  11
HETATM   11  O   UNL     1      -9.317   2.374  69.749  1.00  0.00    -0.119 OA 
HETATM   12  C   UNL     1      -9.289   2.828  68.397  1.00  0.00    -0.192 C  
ENDBRANCH   4  11
BRANCH   9  13
HETATM   13  C   UNL     1     -10.185   7.758  70.329  1.00  0.00    -0.199 C  
BRANCH  13  14
HETATM   14  N   UNL     1      -9.219   8.683  69.733  1.00  0.00    -0.152 NA 
HETATM   15  C   UNL     1      -8.269   7.995  68.875  1.00  0.00    -0.125 C  
BRANCH  14  16
HETATM   16  C   UNL     1      -9.825   9.901  69.182  1.00  0.00    -0.198 C  
BRANCH  16  17
HETATM   17  C   UNL     1     -10.878  10.485  70.120  1.00  0.00    -0.291 C  
BRANCH  17  18
HETATM   18  C   UNL     1     -12.042  11.161  69.382  1.00  0.00    -0.326 C  
BRANCH  18  19
HETATM   19  N   UNL     1     -11.713  12.568  69.142  1.00  0.00    -0.309 N  
HETATM   20  C   UNL     1     -11.307  12.938  67.791  1.00  0.00    -0.299 C  
HETATM   21  C   UNL     1      -9.915  13.547  67.759  1.00  0.00    -0.232 C  
HETATM   22  C   UNL     1     -10.046  15.029  67.975  1.00  0.00    -0.223 A  
HETATM   23  C   UNL     1      -9.653  15.890  66.943  1.00  0.00    -0.242 A  
HETATM   24  C   UNL     1      -9.801  17.272  67.059  1.00  0.00    -0.281 A  
HETATM   25  C   UNL     1     -10.360  17.808  68.232  1.00  0.00    -0.385 A  
HETATM   26  O   UNL     1     -12.876  13.338  70.954  1.00  0.00    -0.270 OA 
HETATM   27  C   UNL     1     -11.988  13.518  70.115  1.00  0.00    -0.329 C  
HETATM   28  C   UNL     1     -10.757  16.942  69.263  1.00  0.00    -0.288 A  
HETATM   29  C   UNL     1     -10.990  14.655  70.307  1.00  0.00    -0.071 C  
HETATM   30  C   UNL     1     -10.620  15.546  69.144  1.00  0.00    -0.234 A  
BRANCH  24  31
HETATM   31  O   UNL     1      -9.462  18.150  66.058  1.00  0.00    -0.503 OA 
HETATM   32  C   UNL     1      -8.218  18.827  66.206  1.00  0.00    -0.252 C  
ENDBRANCH  24  31
BRANCH  25  33
HETATM   33  O   UNL     1     -10.467  19.176  68.281  1.00  0.00    -0.380 OA 
HETATM   34  C   UNL     1      -9.993  19.830  69.450  1.00  0.00    -0.144 C  
ENDBRANCH  25  33
ENDBRANCH  18  19
ENDBRANCH  17  18
ENDBRANCH  16  17
ENDBRANCH  14  16
ENDBRANCH  13  14
ENDBRANCH   9  13
ENDBRANCH   2   3
TORSDOF 10
ENDMDL
MODEL      166
REMARK 921   NORMALIZED FREE ENERGY PREDICTED BY IDOCK:   -4.30 KCAL/MOL
REMARK 922        TOTAL FREE ENERGY PREDICTED BY IDOCK:   -8.78 KCAL/MOL
REMARK 923 INTER-LIGAND FREE ENERGY PREDICTED BY IDOCK:   -7.86 KCAL/MOL
REMARK 924 INTRA-LIGAND FREE ENERGY PREDICTED BY IDOCK:   -0.92 KCAL/MOL
REMARK 927      BINDING AFFINITY PREDICTED BY RF-SCORE:    0.00 PKD
ROOT
HETATM    1  C   UNL     1     -13.103  11.926  63.335  1.00  0.00     0.056 C  
HETATM    2  O   UNL     1     -12.671  12.639  64.490  1.00  0.00    -0.650 OA 
ENDROOT
BRANCH   2   3
HETATM    3  C   UNL     1     -11.574  12.161  65.159  1.00  0.00    -0.317 A  
HETATM    4  C   UNL     1     -11.256  12.342  66.533  1.00  0.00    -0.319 A  
HETATM    5  C   UNL     1     -10.707  11.403  64.324  1.00  0.00    -0.420 A  
HETATM    6  C   UNL     1     -10.056  11.832  67.030  1.00  0.00    -0.232 A  
HETATM    7  C   UNL     1      -9.543  10.901  64.875  1.00  0.00    -0.297 A  
HETATM    8  C   UNL     1      -9.217  11.191  66.162  1.00  0.00    -0.216 A  
HETATM    9  C   UNL     1      -7.847  10.563  66.107  1.00  0.00    -0.145 C  
HETATM   10  C   UNL     1      -8.341  10.001  64.699  1.00  0.00    -0.167 C  
BRANCH   4  11
HETATM   11  O   UNL     1     -12.134  12.977  67.371  1.00  0.00    -0.338 OA 
HETATM   12  C   UNL     1     -11.843  14.339  67.678  1.00  0.00    -0.385 C  
ENDBRANCH   4  11
BRANCH   9  13
HETATM   13  C   UNL     1      -7.633   9.845  67.446  1.00  0.00    -0.091 C  
BRANCH  13  14
HETATM   14  N   UNL     1      -7.013  10.603  68.535  1.00  0.00    -0.065 NA 
HETATM   15  C   UNL     1      -7.373  10.071  69.838  1.00  0.00    -0.161 C  
BRANCH  14  16
HETATM   16  C   UNL     1      -5.589  10.889  68.323  1.00  0.00    -0.043 C  
BRANCH  16  17
HETATM   17  C   UNL     1      -5.331  12.383  68.141  1.00  0.00    -0.065 C  
BRANCH  17  18
HETATM   18  C   UNL     1      -5.588  13.203  69.412  1.00  0.00    -0.084 C  
BRANCH  18  19
HETATM   19  N   UNL     1      -6.228  14.470  69.051  1.00  0.00    -0.089 N  
HETATM   20  C   UNL     1      -5.354  15.585  68.705  1.00  0.00    -0.094 C  
HETATM   21  C   UNL     1      -5.564  16.782  69.617  1.00  0.00    -0.184 C  
HETATM   22  C   UNL     1      -6.653  17.635  69.028  1.00  0.00    -0.244 A  
HETATM   23  C   UNL     1      -6.330  18.933  68.612  1.00  0.00    -0.255 A  
HETATM   24  C   UNL     1      -7.280  19.755  68.007  1.00  0.00    -0.286 A  
HETATM   25  C   UNL     1      -8.584  19.269  67.808  1.00  0.00    -0.305 A  
HETATM   26  O   UNL     1      -8.235  13.515  68.516  1.00  0.00    -0.152 OA 
HETATM   27  C   UNL     1      -7.600  14.520  68.849  1.00  0.00    -0.138 C  
HETATM   28  C   UNL     1      -8.903  17.966  68.222  1.00  0.00    -0.277 A  
HETATM   29  C   UNL     1      -8.348  15.762  69.323  1.00  0.00    -0.249 C  
HETATM   30  C   UNL     1      -7.943  17.130  68.822  1.00  0.00    -0.255 A  
BRANCH  24  31
HETATM   31  O   UNL     1      -6.998  21.020  67.552  1.00  0.00    -0.352 OA 
HETATM   32  C   UNL     1      -6.063  21.112  66.482  1.00  0.00    -0.291 C  
ENDBRANCH  24  31
BRANCH  25  33
HETATM   33  O   UNL     1      -9.470  20.134  67.215  1.00  0.00    -0.354 OA 
HETATM   34  C   UNL     1     -10.802  19.680  67.022  1.00  0.00    -0.399 C  
ENDBRANCH  25  33
ENDBRANCH  18  19
ENDBRANCH  17  18
ENDBRANCH  16  17
ENDBRANCH  14  16
ENDBRANCH  13  14
ENDBRANCH   9  13
ENDBRANCH   2   3
TORSDOF 10
ENDMDL
MODEL      167
REMARK 921   NORMALIZED FREE ENERGY PREDICTED BY IDOCK:   -4.27 KCAL/MOL
REMARK 922        TOTAL FREE ENERGY PREDICTED BY IDOCK:   -8.74 KCAL/MOL
REMARK 923 INTER-LIGAND FREE ENERGY PREDICTED BY IDOCK:   -7.92 KCAL/MOL
REMARK 924 INTRA-LIGAND FREE ENERGY PREDICTED BY IDOCK:   -0.81 KCAL/MOL
REMARK 927      BINDING AFFINITY PREDICTED BY RF-SCORE:    0.00 PKD
ROOT
HETATM    1  C   UNL     1      -9.928  19.347  67.296  1.00  0.00    -0.366 C  
HETATM    2  O   UNL     1     -10.670  18.493  68.161  1.00  0.00    -0.315 OA 
ENDROOT
BRANCH   2   3
HETATM    3  C   UNL     1     -10.722  17.159  67.847  1.00  0.00    -0.355 A  
HETATM    4  C   UNL     1     -11.020  16.078  68.721  1.00  0.00    -0.320 A  
HETATM    5  C   UNL     1     -10.445  16.906  66.475  1.00  0.00    -0.253 A  
HETATM    6  C   UNL     1     -10.966  14.772  68.236  1.00  0.00    -0.264 A  
HETATM    7  C   UNL     1     -10.428  15.593  66.043  1.00  0.00    -0.343 A  
HETATM    8  C   UNL     1     -10.605  14.580  66.931  1.00  0.00    -0.279 A  
HETATM    9  C   UNL     1     -10.305  13.475  65.950  1.00  0.00    -0.301 C  
HETATM   10  C   UNL     1     -10.362  14.643  64.868  1.00  0.00    -0.382 C  
BRANCH   4  11
HETATM   11  O   UNL     1     -11.394  16.317  70.017  1.00  0.00    -0.334 OA 
HETATM   12  C   UNL     1     -12.591  15.677  70.457  1.00  0.00    -0.379 C  
ENDBRANCH   4  11
BRANCH   9  13
HETATM   13  C   UNL     1     -11.295  12.339  66.244  1.00  0.00    -0.345 C  
BRANCH  13  14
HETATM   14  N   UNL     1     -10.899  10.978  65.877  1.00  0.00    -0.171 NA 
HETATM   15  C   UNL     1     -10.053  10.959  64.696  1.00  0.00    -0.328 C  
BRANCH  14  16
HETATM   16  C   UNL     1     -10.444  10.166  67.012  1.00  0.00    -0.240 C  
BRANCH  16  17
HETATM   17  C   UNL     1      -9.107   9.488  66.724  1.00  0.00    -0.173 C  
BRANCH  17  18
HETATM   18  C   UNL     1      -9.223   7.969  66.541  1.00  0.00    -0.188 C  
BRANCH  18  19
HETATM   19  N   UNL     1      -9.304   7.326  67.855  1.00  0.00    -0.130 N  
HETATM   20  C   UNL     1      -8.529   7.920  68.938  1.00  0.00    -0.128 C  
HETATM   21  C   UNL     1      -7.527   6.942  69.527  1.00  0.00    -0.096 C  
HETATM   22  C   UNL     1      -8.209   6.174  70.625  1.00  0.00    -0.121 A  
HETATM   23  C   UNL     1      -7.735   6.319  71.934  1.00  0.00    -0.097 A  
HETATM   24  C   UNL     1      -8.359   5.678  73.004  1.00  0.00    -0.118 A  
HETATM   25  C   UNL     1      -9.487   4.876  72.763  1.00  0.00    -0.135 A  
HETATM   26  O   UNL     1     -11.284   6.269  67.419  1.00  0.00    -0.328 OA 
HETATM   27  C   UNL     1     -10.244   6.331  68.081  1.00  0.00    -0.169 C  
HETATM   28  C   UNL     1      -9.964   4.736  71.449  1.00  0.00    -0.267 A  
HETATM   29  C   UNL     1      -9.841   5.153  68.962  1.00  0.00    -0.246 C  
HETATM   30  C   UNL     1      -9.343   5.391  70.369  1.00  0.00    -0.203 A  
BRANCH  24  31
HETATM   31  O   UNL     1      -7.949   5.821  74.308  1.00  0.00    -0.104 OA 
HETATM   32  C   UNL     1      -6.551   5.996  74.515  1.00  0.00    -0.075 C  
ENDBRANCH  24  31
BRANCH  25  33
HETATM   33  O   UNL     1     -10.046   4.269  73.860  1.00  0.00    -0.132 OA 
HETATM   34  C   UNL     1     -11.025   3.266  73.629  1.00  0.00    -0.237 C  
ENDBRANCH  25  33
ENDBRANCH  18  19
ENDBRANCH  17  18
ENDBRANCH  16  17
ENDBRANCH  14  16
ENDBRANCH  13  14
ENDBRANCH   9  13
ENDBRANCH   2   3
TORSDOF 10
ENDMDL
MODEL      168
REMARK 921   NORMALIZED FREE ENERGY PREDICTED BY IDOCK:   -4.26 KCAL/MOL
REMARK 922        TOTAL FREE ENERGY PREDICTED BY IDOCK:   -8.72 KCAL/MOL
REMARK 923 INTER-LIGAND FREE ENERGY PREDICTED BY IDOCK:   -7.73 KCAL/MOL
REMARK 924 INTRA-LIGAND FREE ENERGY PREDICTED BY IDOCK:   -0.99 KCAL/MOL
REMARK 927      BINDING AFFINITY PREDICTED BY RF-SCORE:    0.00 PKD
ROOT
HETATM    1  C   UNL     1     -11.433  15.904  71.097  1.00  0.00    -0.419 C  
HETATM    2  O   UNL     1     -12.389  15.572  70.095  1.00  0.00    -0.373 OA 
ENDROOT
BRANCH   2   3
HETATM    3  C   UNL     1     -11.938  14.920  68.975  1.00  0.00    -0.272 A  
HETATM    4  C   UNL     1     -11.319  15.498  67.834  1.00  0.00    -0.308 A  
HETATM    5  C   UNL     1     -12.138  13.514  69.040  1.00  0.00    -0.330 A  
HETATM    6  C   UNL     1     -10.979  14.681  66.755  1.00  0.00    -0.323 A  
HETATM    7  C   UNL     1     -11.760  12.750  67.952  1.00  0.00    -0.408 A  
HETATM    8  C   UNL     1     -11.277  13.349  66.832  1.00  0.00    -0.330 A  
HETATM    9  C   UNL     1     -11.237  12.091  66.002  1.00  0.00    -0.385 C  
HETATM   10  C   UNL     1     -11.547  11.364  67.386  1.00  0.00    -0.266 C  
BRANCH   4  11
HETATM   11  O   UNL     1     -11.023  16.835  67.806  1.00  0.00    -0.313 OA 
HETATM   12  C   UNL     1     -10.364  17.312  66.633  1.00  0.00    -0.305 C  
ENDBRANCH   4  11
BRANCH   9  13
HETATM   13  C   UNL     1      -9.947  12.147  65.172  1.00  0.00    -0.228 C  
BRANCH  13  14
HETATM   14  N   UNL     1      -9.647  11.009  64.301  1.00  0.00    -0.245 NA 
HETATM   15  C   UNL     1      -9.510  11.413  62.912  1.00  0.00    -0.345 C  
BRANCH  14  16
HETATM   16  C   UNL     1      -8.600  10.121  64.822  1.00  0.00    -0.181 C  
BRANCH  16  17
HETATM   17  C   UNL     1      -9.140   8.727  65.130  1.00  0.00    -0.104 C  
BRANCH  17  18
HETATM   18  C   UNL     1      -8.046   7.723  65.514  1.00  0.00    -0.128 C  
BRANCH  18  19
HETATM   19  N   UNL     1      -8.438   7.022  66.739  1.00  0.00    -0.115 N  
HETATM   20  C   UNL     1      -8.814   7.840  67.886  1.00  0.00    -0.123 C  
HETATM   21  C   UNL     1      -7.932   7.573  69.093  1.00  0.00    -0.121 C  
HETATM   22  C   UNL     1      -8.540   6.444  69.878  1.00  0.00    -0.138 A  
HETATM   23  C   UNL     1      -8.989   6.703  71.179  1.00  0.00    -0.145 A  
HETATM   24  C   UNL     1      -9.613   5.713  71.938  1.00  0.00    -0.152 A  
HETATM   25  C   UNL     1      -9.797   4.434  71.384  1.00  0.00    -0.192 A  
HETATM   26  O   UNL     1      -8.943   5.063  65.674  1.00  0.00    -0.140 OA 
HETATM   27  C   UNL     1      -8.637   5.649  66.717  1.00  0.00    -0.111 C  
HETATM   28  C   UNL     1      -9.349   4.179  70.078  1.00  0.00    -0.237 A  
HETATM   29  C   UNL     1      -8.194   4.842  67.933  1.00  0.00    -0.100 C  
HETATM   30  C   UNL     1      -8.730   5.180  69.305  1.00  0.00    -0.108 A  
BRANCH  24  31
HETATM   31  O   UNL     1     -10.101   5.934  73.203  1.00  0.00    -0.173 OA 
HETATM   32  C   UNL     1     -10.775   7.169  73.414  1.00  0.00    -0.368 C  
ENDBRANCH  24  31
BRANCH  25  33
HETATM   33  O   UNL     1     -10.409   3.507  72.190  1.00  0.00    -0.133 OA 
HETATM   34  C   UNL     1      -9.696   2.312  72.476  1.00  0.00    -0.111 C  
ENDBRANCH  25  33
ENDBRANCH  18  19
ENDBRANCH  17  18
ENDBRANCH  16  17
ENDBRANCH  14  16
ENDBRANCH  13  14
ENDBRANCH   9  13
ENDBRANCH   2   3
TORSDOF 10
ENDMDL
MODEL      169
REMARK 921   NORMALIZED FREE ENERGY PREDICTED BY IDOCK:   -4.26 KCAL/MOL
REMARK 922        TOTAL FREE ENERGY PREDICTED BY IDOCK:   -8.71 KCAL/MOL
REMARK 923 INTER-LIGAND FREE ENERGY PREDICTED BY IDOCK:   -7.04 KCAL/MOL
REMARK 924 INTRA-LIGAND FREE ENERGY PREDICTED BY IDOCK:   -1.67 KCAL/MOL
REMARK 927      BINDING AFFINITY PREDICTED BY RF-SCORE:    0.00 PKD
ROOT
HETATM    1  C   UNL     1     -13.426  13.619  72.593  1.00  0.00    -0.498 C  
HETATM    2  O   UNL     1     -13.614  13.635  71.181  1.00  0.00    -0.146 OA 
ENDROOT
BRANCH   2   3
HETATM    3  C   UNL     1     -12.552  14.016  70.402  1.00  0.00    -0.308 A  
HETATM    4  C   UNL     1     -11.669  13.170  69.677  1.00  0.00    -0.303 A  
HETATM    5  C   UNL     1     -12.382  15.427  70.355  1.00  0.00    -0.443 A  
HETATM    6  C   UNL     1     -10.598  13.735  68.983  1.00  0.00    -0.161 A  
HETATM    7  C   UNL     1     -11.319  15.934  69.632  1.00  0.00    -0.342 A  
HETATM    8  C   UNL     1     -10.428  15.090  69.046  1.00  0.00    -0.245 A  
HETATM    9  C   UNL     1      -9.470  16.171  68.612  1.00  0.00    -0.227 C  
HETATM   10  C   UNL     1     -10.638  17.158  69.062  1.00  0.00    -0.282 C  
BRANCH   4  11
HETATM   11  O   UNL     1     -11.886  11.819  69.627  1.00  0.00    -0.300 OA 
HETATM   12  C   UNL     1     -11.518  11.164  68.413  1.00  0.00    -0.306 C  
ENDBRANCH   4  11
BRANCH   9  13
HETATM   13  C   UNL     1      -8.974  15.788  67.212  1.00  0.00    -0.196 C  
BRANCH  13  14
HETATM   14  N   UNL     1      -7.588  15.333  67.081  1.00  0.00    -0.208 NA 
HETATM   15  C   UNL     1      -6.672  16.161  67.846  1.00  0.00    -0.137 C  
BRANCH  14  16
HETATM   16  C   UNL     1      -7.424  13.881  67.225  1.00  0.00    -0.028 C  
BRANCH  16  17
HETATM   17  C   UNL     1      -6.595  13.524  68.456  1.00  0.00    -0.089 C  
BRANCH  17  18
HETATM   18  C   UNL     1      -5.808  12.217  68.300  1.00  0.00    -0.052 C  
BRANCH  18  19
HETATM   19  N   UNL     1      -6.745  11.100  68.154  1.00  0.00    -0.058 N  
HETATM   20  C   UNL     1      -7.812  10.989  69.142  1.00  0.00    -0.091 C  
HETATM   21  C   UNL     1      -7.764   9.668  69.890  1.00  0.00    -0.146 C  
HETATM   22  C   UNL     1      -8.568   8.661  69.115  1.00  0.00    -0.129 A  
HETATM   23  C   UNL     1      -9.714   8.122  69.712  1.00  0.00    -0.173 A  
HETATM   24  C   UNL     1     -10.533   7.226  69.026  1.00  0.00    -0.211 A  
HETATM   25  C   UNL     1     -10.203   6.862  67.709  1.00  0.00    -0.180 A  
HETATM   26  O   UNL     1      -6.295  10.775  65.936  1.00  0.00    -0.127 OA 
HETATM   27  C   UNL     1      -6.723  10.325  67.003  1.00  0.00    -0.079 C  
HETATM   28  C   UNL     1      -9.056   7.408  67.111  1.00  0.00    -0.146 A  
HETATM   29  C   UNL     1      -6.968   8.826  67.146  1.00  0.00    -0.071 C  
HETATM   30  C   UNL     1      -8.234   8.322  67.798  1.00  0.00    -0.127 A  
BRANCH  24  31
HETATM   31  O   UNL     1     -11.685   6.701  69.560  1.00  0.00    -0.263 OA 
HETATM   32  C   UNL     1     -11.880   6.896  70.957  1.00  0.00    -0.364 C  
ENDBRANCH  24  31
BRANCH  25  33
HETATM   33  O   UNL     1     -11.049   5.970  67.097  1.00  0.00    -0.301 OA 
HETATM   34  C   UNL     1     -10.471   5.018  66.215  1.00  0.00    -0.303 C  
ENDBRANCH  25  33
ENDBRANCH  18  19
ENDBRANCH  17  18
ENDBRANCH  16  17
ENDBRANCH  14  16
ENDBRANCH  13  14
ENDBRANCH   9  13
ENDBRANCH   2   3
TORSDOF 10
ENDMDL
MODEL      170
REMARK 921   NORMALIZED FREE ENERGY PREDICTED BY IDOCK:   -4.26 KCAL/MOL
REMARK 922        TOTAL FREE ENERGY PREDICTED BY IDOCK:   -8.71 KCAL/MOL
REMARK 923 INTER-LIGAND FREE ENERGY PREDICTED BY IDOCK:   -6.82 KCAL/MOL
REMARK 924 INTRA-LIGAND FREE ENERGY PREDICTED BY IDOCK:   -1.89 KCAL/MOL
REMARK 927      BINDING AFFINITY PREDICTED BY RF-SCORE:    0.00 PKD
ROOT
HETATM    1  C   UNL     1      -8.529  10.286  64.445  1.00  0.00    -0.179 C  
HETATM    2  O   UNL     1      -7.712   9.125  64.326  1.00  0.00    -0.111 OA 
ENDROOT
BRANCH   2   3
HETATM    3  C   UNL     1      -7.515   8.367  65.452  1.00  0.00    -0.085 A  
HETATM    4  C   UNL     1      -7.869   7.005  65.646  1.00  0.00    -0.112 A  
HETATM    5  C   UNL     1      -6.873   9.090  66.495  1.00  0.00    -0.079 A  
HETATM    6  C   UNL     1      -7.646   6.411  66.888  1.00  0.00    -0.095 A  
HETATM    7  C   UNL     1      -6.654   8.445  67.698  1.00  0.00    -0.058 A  
HETATM    8  C   UNL     1      -7.109   7.178  67.885  1.00  0.00    -0.085 A  
HETATM    9  C   UNL     1      -6.758   7.114  69.350  1.00  0.00    -0.049 C  
HETATM   10  C   UNL     1      -5.995   8.482  69.058  1.00  0.00    -0.043 C  
BRANCH   4  11
HETATM   11  O   UNL     1      -8.389   6.268  64.614  1.00  0.00    -0.116 OA 
HETATM   12  C   UNL     1      -8.794   4.937  64.929  1.00  0.00    -0.152 C  
ENDBRANCH   4  11
BRANCH   9  13
HETATM   13  C   UNL     1      -6.211   5.705  69.615  1.00  0.00    -0.029 C  
BRANCH  13  14
HETATM   14  N   UNL     1      -6.942   4.855  70.556  1.00  0.00    -0.043 NA 
HETATM   15  C   UNL     1      -6.726   5.262  71.934  1.00  0.00    -0.056 C  
BRANCH  14  16
HETATM   16  C   UNL     1      -8.335   4.601  70.168  1.00  0.00    -0.071 C  
BRANCH  16  17
HETATM   17  C   UNL     1      -9.321   5.314  71.091  1.00  0.00    -0.192 C  
BRANCH  17  18
HETATM   18  C   UNL     1     -10.734   5.421  70.505  1.00  0.00    -0.196 C  
BRANCH  18  19
HETATM   19  N   UNL     1     -11.189   6.811  70.581  1.00  0.00    -0.291 N  
HETATM   20  C   UNL     1     -10.841   7.690  69.471  1.00  0.00    -0.165 C  
HETATM   21  C   UNL     1     -10.018   8.885  69.922  1.00  0.00    -0.197 C  
HETATM   22  C   UNL     1     -10.964   9.985  70.313  1.00  0.00    -0.377 A  
HETATM   23  C   UNL     1     -10.943  11.176  69.575  1.00  0.00    -0.276 A  
HETATM   24  C   UNL     1     -11.833  12.213  69.852  1.00  0.00    -0.319 A  
HETATM   25  C   UNL     1     -12.771  12.058  70.888  1.00  0.00    -0.199 A  
HETATM   26  O   UNL     1     -12.852   6.376  72.089  1.00  0.00    -0.208 OA 
HETATM   27  C   UNL     1     -12.084   7.192  71.570  1.00  0.00    -0.342 C  
HETATM   28  C   UNL     1     -12.792  10.862  71.623  1.00  0.00    -0.554 A  
HETATM   29  C   UNL     1     -11.908   8.569  72.203  1.00  0.00    -0.448 C  
HETATM   30  C   UNL     1     -11.902   9.808  71.338  1.00  0.00    -0.488 A  
BRANCH  24  31
HETATM   31  O   UNL     1     -11.872  13.381  69.130  1.00  0.00    -0.301 OA 
HETATM   32  C   UNL     1     -11.853  13.250  67.713  1.00  0.00    -0.353 C  
ENDBRANCH  24  31
BRANCH  25  33
HETATM   33  O   UNL     1     -13.609  13.122  71.110  1.00  0.00     0.039 OA 
HETATM   34  C   UNL     1     -13.565  13.736  72.391  1.00  0.00    -0.588 C  
ENDBRANCH  25  33
ENDBRANCH  18  19
ENDBRANCH  17  18
ENDBRANCH  16  17
ENDBRANCH  14  16
ENDBRANCH  13  14
ENDBRANCH   9  13
ENDBRANCH   2   3
TORSDOF 10
ENDMDL
MODEL      171
REMARK 921   NORMALIZED FREE ENERGY PREDICTED BY IDOCK:   -4.24 KCAL/MOL
REMARK 922        TOTAL FREE ENERGY PREDICTED BY IDOCK:   -8.68 KCAL/MOL
REMARK 923 INTER-LIGAND FREE ENERGY PREDICTED BY IDOCK:   -6.90 KCAL/MOL
REMARK 924 INTRA-LIGAND FREE ENERGY PREDICTED BY IDOCK:   -1.78 KCAL/MOL
REMARK 927      BINDING AFFINITY PREDICTED BY RF-SCORE:    0.00 PKD
ROOT
HETATM    1  C   UNL     1      -7.950   6.816  63.390  1.00  0.00    -0.070 C  
HETATM    2  O   UNL     1      -8.463   5.548  63.788  1.00  0.00    -0.118 OA 
ENDROOT
BRANCH   2   3
HETATM    3  C   UNL     1      -8.424   5.236  65.123  1.00  0.00    -0.149 A  
HETATM    4  C   UNL     1      -9.085   4.161  65.776  1.00  0.00    -0.136 A  
HETATM    5  C   UNL     1      -7.605   6.126  65.872  1.00  0.00    -0.087 A  
HETATM    6  C   UNL     1      -8.979   4.034  67.161  1.00  0.00    -0.146 A  
HETATM    7  C   UNL     1      -7.517   5.940  67.238  1.00  0.00    -0.081 A  
HETATM    8  C   UNL     1      -8.254   4.971  67.844  1.00  0.00    -0.097 A  
HETATM    9  C   UNL     1      -7.893   5.376  69.251  1.00  0.00    -0.089 C  
HETATM   10  C   UNL     1      -6.836   6.327  68.532  1.00  0.00    -0.074 C  
BRANCH   4  11
HETATM   11  O   UNL     1      -9.787   3.234  65.052  1.00  0.00    -0.130 OA 
HETATM   12  C   UNL     1      -9.102   2.021  64.744  1.00  0.00    -0.130 C  
ENDBRANCH   4  11
BRANCH   9  13
HETATM   13  C   UNL     1      -7.688   4.079  70.047  1.00  0.00    -0.052 C  
BRANCH  13  14
HETATM   14  N   UNL     1      -8.188   4.037  71.422  1.00  0.00    -0.076 NA 
HETATM   15  C   UNL     1      -7.422   4.902  72.304  1.00  0.00    -0.089 C  
BRANCH  14  16
HETATM   16  C   UNL     1      -9.649   4.137  71.526  1.00  0.00    -0.168 C  
BRANCH  16  17
HETATM   17  C   UNL     1     -10.077   5.354  72.342  1.00  0.00    -0.225 C  
BRANCH  17  18
HETATM   18  C   UNL     1     -11.538   5.760  72.107  1.00  0.00    -0.203 C  
BRANCH  18  19
HETATM   19  N   UNL     1     -11.579   7.017  71.356  1.00  0.00    -0.276 N  
HETATM   20  C   UNL     1     -11.536   6.927  69.901  1.00  0.00    -0.242 C  
HETATM   21  C   UNL     1     -10.345   7.668  69.317  1.00  0.00    -0.218 C  
HETATM   22  C   UNL     1     -10.752   9.095  69.077  1.00  0.00    -0.176 A  
HETATM   23  C   UNL     1     -10.766   9.572  67.760  1.00  0.00    -0.302 A  
HETATM   24  C   UNL     1     -11.188  10.868  67.465  1.00  0.00    -0.293 A  
HETATM   25  C   UNL     1     -11.610  11.709  68.509  1.00  0.00    -0.317 A  
HETATM   26  O   UNL     1     -12.505   8.220  73.065  1.00  0.00    -0.172 OA 
HETATM   27  C   UNL     1     -11.860   8.206  72.013  1.00  0.00    -0.338 C  
HETATM   28  C   UNL     1     -11.599  11.227  69.828  1.00  0.00    -0.408 A  
HETATM   29  C   UNL     1     -11.117   9.462  71.567  1.00  0.00    -0.446 C  
HETATM   30  C   UNL     1     -11.186   9.915  70.127  1.00  0.00    -0.347 A  
BRANCH  24  31
HETATM   31  O   UNL     1     -11.251  11.363  66.185  1.00  0.00    -0.254 OA 
HETATM   32  C   UNL     1     -10.262  10.893  65.275  1.00  0.00    -0.288 C  
ENDBRANCH  24  31
BRANCH  25  33
HETATM   33  O   UNL     1     -12.003  12.973  68.147  1.00  0.00    -0.343 OA 
HETATM   34  C   UNL     1     -11.963  13.984  69.145  1.00  0.00    -0.360 C  
ENDBRANCH  25  33
ENDBRANCH  18  19
ENDBRANCH  17  18
ENDBRANCH  16  17
ENDBRANCH  14  16
ENDBRANCH  13  14
ENDBRANCH   9  13
ENDBRANCH   2   3
TORSDOF 10
ENDMDL
MODEL      172
REMARK 921   NORMALIZED FREE ENERGY PREDICTED BY IDOCK:   -4.23 KCAL/MOL
REMARK 922        TOTAL FREE ENERGY PREDICTED BY IDOCK:   -8.67 KCAL/MOL
REMARK 923 INTER-LIGAND FREE ENERGY PREDICTED BY IDOCK:   -7.96 KCAL/MOL
REMARK 924 INTRA-LIGAND FREE ENERGY PREDICTED BY IDOCK:   -0.71 KCAL/MOL
REMARK 927      BINDING AFFINITY PREDICTED BY RF-SCORE:    0.00 PKD
ROOT
HETATM    1  C   UNL     1      -7.026   4.301  73.132  1.00  0.00    -0.063 C  
HETATM    2  O   UNL     1      -7.679   5.253  73.966  1.00  0.00    -0.096 OA 
ENDROOT
BRANCH   2   3
HETATM    3  C   UNL     1      -8.692   5.995  73.414  1.00  0.00    -0.126 A  
HETATM    4  C   UNL     1     -10.088   5.847  73.636  1.00  0.00    -0.208 A  
HETATM    5  C   UNL     1      -8.216   7.010  72.540  1.00  0.00    -0.116 A  
HETATM    6  C   UNL     1     -10.981   6.657  72.935  1.00  0.00    -0.286 A  
HETATM    7  C   UNL     1      -9.145   7.801  71.889  1.00  0.00    -0.173 A  
HETATM    8  C   UNL     1     -10.473   7.556  72.038  1.00  0.00    -0.245 A  
HETATM    9  C   UNL     1     -10.920   8.555  71.001  1.00  0.00    -0.296 C  
HETATM   10  C   UNL     1      -9.395   9.017  71.027  1.00  0.00    -0.339 C  
BRANCH   4  11
HETATM   11  O   UNL     1     -10.553   4.945  74.557  1.00  0.00    -0.314 OA 
HETATM   12  C   UNL     1     -10.624   3.586  74.131  1.00  0.00    -0.204 C  
ENDBRANCH   4  11
BRANCH   9  13
HETATM   13  C   UNL     1     -12.178   9.238  71.555  1.00  0.00    -0.362 C  
BRANCH  13  14
HETATM   14  N   UNL     1     -12.591  10.504  70.947  1.00  0.00    -0.367 NA 
HETATM   15  C   UNL     1     -13.126  11.428  71.932  1.00  0.00    -0.400 C  
BRANCH  14  16
HETATM   16  C   UNL     1     -11.610  11.058  70.005  1.00  0.00    -0.344 C  
BRANCH  16  17
HETATM   17  C   UNL     1     -12.261  11.475  68.689  1.00  0.00    -0.015 C  
BRANCH  17  18
HETATM   18  C   UNL     1     -11.260  11.616  67.535  1.00  0.00    -0.293 C  
BRANCH  18  19
HETATM   19  N   UNL     1     -10.583  12.911  67.634  1.00  0.00    -0.221 N  
HETATM   20  C   UNL     1     -11.423  14.100  67.725  1.00  0.00    -0.325 C  
HETATM   21  C   UNL     1     -11.164  15.072  66.587  1.00  0.00    -0.311 C  
HETATM   22  C   UNL     1     -10.054  15.996  67.003  1.00  0.00    -0.271 A  
HETATM   23  C   UNL     1     -10.338  17.362  67.134  1.00  0.00    -0.325 A  
HETATM   24  C   UNL     1      -9.367  18.263  67.571  1.00  0.00    -0.261 A  
HETATM   25  C   UNL     1      -8.082  17.790  67.889  1.00  0.00    -0.235 A  
HETATM   26  O   UNL     1      -8.614  12.029  68.391  1.00  0.00    -0.168 OA 
HETATM   27  C   UNL     1      -9.213  12.960  67.845  1.00  0.00    -0.208 C  
HETATM   28  C   UNL     1      -7.802  16.420  67.761  1.00  0.00    -0.164 A  
HETATM   29  C   UNL     1      -8.419  14.053  67.136  1.00  0.00    -0.207 C  
HETATM   30  C   UNL     1      -8.784  15.507  67.333  1.00  0.00    -0.194 A  
BRANCH  24  31
HETATM   31  O   UNL     1      -9.612  19.603  67.747  1.00  0.00    -0.325 OA 
HETATM   32  C   UNL     1     -10.456  19.953  68.839  1.00  0.00    -0.016 C  
ENDBRANCH  24  31
BRANCH  25  33
HETATM   33  O   UNL     1      -7.175  18.733  68.304  1.00  0.00    -0.245 OA 
HETATM   34  C   UNL     1      -6.402  18.438  69.459  1.00  0.00    -0.230 C  
ENDBRANCH  25  33
ENDBRANCH  18  19
ENDBRANCH  17  18
ENDBRANCH  16  17
ENDBRANCH  14  16
ENDBRANCH  13  14
ENDBRANCH   9  13
ENDBRANCH   2   3
TORSDOF 10
ENDMDL
MODEL      173
REMARK 921   NORMALIZED FREE ENERGY PREDICTED BY IDOCK:   -4.23 KCAL/MOL
REMARK 922        TOTAL FREE ENERGY PREDICTED BY IDOCK:   -8.66 KCAL/MOL
REMARK 923 INTER-LIGAND FREE ENERGY PREDICTED BY IDOCK:   -7.73 KCAL/MOL
REMARK 924 INTRA-LIGAND FREE ENERGY PREDICTED BY IDOCK:   -0.94 KCAL/MOL
REMARK 927      BINDING AFFINITY PREDICTED BY RF-SCORE:    0.00 PKD
ROOT
HETATM    1  C   UNL     1     -12.389  16.483  73.705  1.00  0.00    -0.401 C  
HETATM    2  O   UNL     1     -13.267  15.558  73.070  1.00  0.00    -0.452 OA 
ENDROOT
BRANCH   2   3
HETATM    3  C   UNL     1     -12.880  15.042  71.859  1.00  0.00    -0.337 A  
HETATM    4  C   UNL     1     -12.899  13.678  71.459  1.00  0.00    -0.359 A  
HETATM    5  C   UNL     1     -12.432  16.042  70.953  1.00  0.00    -0.177 A  
HETATM    6  C   UNL     1     -12.406  13.328  70.202  1.00  0.00    -0.306 A  
HETATM    7  C   UNL     1     -11.977  15.641  69.711  1.00  0.00    -0.371 A  
HETATM    8  C   UNL     1     -11.902  14.319  69.405  1.00  0.00    -0.372 A  
HETATM    9  C   UNL     1     -11.200  14.516  68.086  1.00  0.00    -0.301 C  
HETATM   10  C   UNL     1     -11.529  16.057  68.328  1.00  0.00    -0.291 C  
BRANCH   4  11
HETATM   11  O   UNL     1     -13.429  12.720  72.282  1.00  0.00    -0.565 OA 
HETATM   12  C   UNL     1     -13.226  11.364  71.886  1.00  0.00    -0.380 C  
ENDBRANCH   4  11
BRANCH   9  13
HETATM   13  C   UNL     1     -11.811  13.509  67.102  1.00  0.00    -0.387 C  
BRANCH  13  14
HETATM   14  N   UNL     1     -10.935  12.472  66.554  1.00  0.00    -0.257 NA 
HETATM   15  C   UNL     1      -9.540  12.877  66.574  1.00  0.00    -0.259 C  
BRANCH  14  16
HETATM   16  C   UNL     1     -11.224  11.123  67.057  1.00  0.00    -0.219 C  
BRANCH  16  17
HETATM   17  C   UNL     1     -10.283  10.727  68.192  1.00  0.00    -0.194 C  
BRANCH  17  18
HETATM   18  C   UNL     1      -9.149   9.796  67.745  1.00  0.00    -0.131 C  
BRANCH  18  19
HETATM   19  N   UNL     1      -9.163   8.584  68.568  1.00  0.00    -0.136 N  
HETATM   20  C   UNL     1      -8.998   8.752  70.007  1.00  0.00    -0.158 C  
HETATM   21  C   UNL     1      -7.784   8.006  70.535  1.00  0.00    -0.085 C  
HETATM   22  C   UNL     1      -8.209   6.608  70.888  1.00  0.00    -0.124 A  
HETATM   23  C   UNL     1      -8.128   6.205  72.227  1.00  0.00    -0.109 A  
HETATM   24  C   UNL     1      -8.559   4.942  72.629  1.00  0.00    -0.119 A  
HETATM   25  C   UNL     1      -9.088   4.059  71.672  1.00  0.00    -0.123 A  
HETATM   26  O   UNL     1     -10.258   7.318  67.010  1.00  0.00    -0.224 OA 
HETATM   27  C   UNL     1      -9.529   7.370  68.005  1.00  0.00    -0.141 C  
HETATM   28  C   UNL     1      -9.172   4.467  70.331  1.00  0.00    -0.184 A  
HETATM   29  C   UNL     1      -8.786   6.118  68.460  1.00  0.00    -0.111 C  
HETATM   30  C   UNL     1      -8.749   5.746  69.925  1.00  0.00    -0.128 A  
BRANCH  24  31
HETATM   31  O   UNL     1      -8.531   4.519  73.936  1.00  0.00    -0.103 OA 
HETATM   32  C   UNL     1      -7.368   3.809  74.346  1.00  0.00    -0.058 C  
ENDBRANCH  24  31
BRANCH  25  33
HETATM   33  O   UNL     1      -9.485   2.829  72.136  1.00  0.00    -0.099 OA 
HETATM   34  C   UNL     1      -9.016   1.682  71.440  1.00  0.00    -0.065 C  
ENDBRANCH  25  33
ENDBRANCH  18  19
ENDBRANCH  17  18
ENDBRANCH  16  17
ENDBRANCH  14  16
ENDBRANCH  13  14
ENDBRANCH   9  13
ENDBRANCH   2   3
TORSDOF 10
ENDMDL
MODEL      174
REMARK 921   NORMALIZED FREE ENERGY PREDICTED BY IDOCK:   -4.22 KCAL/MOL
REMARK 922        TOTAL FREE ENERGY PREDICTED BY IDOCK:   -8.66 KCAL/MOL
REMARK 923 INTER-LIGAND FREE ENERGY PREDICTED BY IDOCK:   -7.72 KCAL/MOL
REMARK 924 INTRA-LIGAND FREE ENERGY PREDICTED BY IDOCK:   -0.93 KCAL/MOL
REMARK 927      BINDING AFFINITY PREDICTED BY RF-SCORE:    0.00 PKD
ROOT
HETATM    1  C   UNL     1     -10.277  20.163  67.929  1.00  0.00    -0.360 C  
HETATM    2  O   UNL     1      -8.942  19.819  67.571  1.00  0.00    -0.307 OA 
ENDROOT
BRANCH   2   3
HETATM    3  C   UNL     1      -8.656  18.490  67.384  1.00  0.00    -0.258 A  
HETATM    4  C   UNL     1      -7.495  17.936  66.780  1.00  0.00    -0.208 A  
HETATM    5  C   UNL     1      -9.676  17.633  67.883  1.00  0.00    -0.295 A  
HETATM    6  C   UNL     1      -7.404  16.553  66.619  1.00  0.00    -0.268 A  
HETATM    7  C   UNL     1      -9.522  16.270  67.717  1.00  0.00    -0.221 A  
HETATM    8  C   UNL     1      -8.453  15.782  67.033  1.00  0.00    -0.251 A  
HETATM    9  C   UNL     1      -8.927  14.350  67.030  1.00  0.00    -0.257 C  
HETATM   10  C   UNL     1     -10.029  14.884  68.050  1.00  0.00    -0.220 C  
BRANCH   4  11
HETATM   11  O   UNL     1      -6.459  18.745  66.395  1.00  0.00    -0.185 OA 
HETATM   12  C   UNL     1      -6.238  18.862  64.990  1.00  0.00    -0.259 C  
ENDBRANCH   4  11
BRANCH   9  13
HETATM   13  C   UNL     1      -7.690  13.473  67.269  1.00  0.00    -0.077 C  
BRANCH  13  14
HETATM   14  N   UNL     1      -7.815  12.036  67.018  1.00  0.00    -0.158 NA 
HETATM   15  C   UNL     1      -6.529  11.422  66.732  1.00  0.00    -0.140 C  
BRANCH  14  16
HETATM   16  C   UNL     1      -8.664  11.335  67.989  1.00  0.00    -0.144 C  
BRANCH  16  17
HETATM   17  C   UNL     1      -9.810  10.592  67.308  1.00  0.00    -0.209 C  
BRANCH  17  18
HETATM   18  C   UNL     1     -11.018  10.364  68.226  1.00  0.00    -0.270 C  
BRANCH  18  19
HETATM   19  N   UNL     1     -10.816   9.135  68.998  1.00  0.00    -0.148 N  
HETATM   20  C   UNL     1     -10.056   8.065  68.364  1.00  0.00    -0.195 C  
HETATM   21  C   UNL     1     -10.862   6.783  68.246  1.00  0.00    -0.290 C  
HETATM   22  C   UNL     1     -10.664   5.987  69.506  1.00  0.00    -0.405 A  
HETATM   23  C   UNL     1     -10.036   4.738  69.414  1.00  0.00    -0.241 A  
HETATM   24  C   UNL     1      -9.773   3.976  70.551  1.00  0.00    -0.188 A  
HETATM   25  C   UNL     1     -10.141   4.473  71.813  1.00  0.00    -0.184 A  
HETATM   26  O   UNL     1     -11.194  10.129  71.022  1.00  0.00    -0.339 OA 
HETATM   27  C   UNL     1     -11.159   9.100  70.342  1.00  0.00    -0.253 C  
HETATM   28  C   UNL     1     -10.766   5.727  71.903  1.00  0.00    -0.297 A  
HETATM   29  C   UNL     1     -11.766   7.813  70.891  1.00  0.00    -0.281 C  
HETATM   30  C   UNL     1     -11.022   6.504  70.758  1.00  0.00    -0.328 A  
BRANCH  24  31
HETATM   31  O   UNL     1      -9.127   2.764  70.510  1.00  0.00    -0.095 OA 
HETATM   32  C   UNL     1      -7.997   2.679  69.648  1.00  0.00    -0.041 C  
ENDBRANCH  24  31
BRANCH  25  33
HETATM   33  O   UNL     1      -9.859   3.666  72.888  1.00  0.00    -0.129 OA 
HETATM   34  C   UNL     1     -10.946   3.266  73.711  1.00  0.00    -0.221 C  
ENDBRANCH  25  33
ENDBRANCH  18  19
ENDBRANCH  17  18
ENDBRANCH  16  17
ENDBRANCH  14  16
ENDBRANCH  13  14
ENDBRANCH   9  13
ENDBRANCH   2   3
TORSDOF 10
ENDMDL
MODEL      175
REMARK 921   NORMALIZED FREE ENERGY PREDICTED BY IDOCK:   -4.17 KCAL/MOL
REMARK 922        TOTAL FREE ENERGY PREDICTED BY IDOCK:   -8.58 KCAL/MOL
REMARK 923 INTER-LIGAND FREE ENERGY PREDICTED BY IDOCK:   -6.57 KCAL/MOL
REMARK 924 INTRA-LIGAND FREE ENERGY PREDICTED BY IDOCK:   -2.01 KCAL/MOL
REMARK 927      BINDING AFFINITY PREDICTED BY RF-SCORE:    0.00 PKD
ROOT
HETATM    1  C   UNL     1     -13.682   9.164  72.290  1.00  0.00    -0.487 C  
HETATM    2  O   UNL     1     -12.563   9.164  71.408  1.00  0.00    -0.312 OA 
ENDROOT
BRANCH   2   3
HETATM    3  C   UNL     1     -12.231  10.349  70.802  1.00  0.00    -0.359 A  
HETATM    4  C   UNL     1     -11.332  10.539  69.717  1.00  0.00    -0.300 A  
HETATM    5  C   UNL     1     -12.904  11.465  71.370  1.00  0.00    -0.502 A  
HETATM    6  C   UNL     1     -11.067  11.833  69.268  1.00  0.00    -0.278 A  
HETATM    7  C   UNL     1     -12.622  12.723  70.870  1.00  0.00    -0.342 A  
HETATM    8  C   UNL     1     -11.672  12.878  69.910  1.00  0.00    -0.324 A  
HETATM    9  C   UNL     1     -11.694  14.386  69.930  1.00  0.00    -0.363 C  
HETATM   10  C   UNL     1     -12.980  14.192  70.851  1.00  0.00    -0.374 C  
BRANCH   4  11
HETATM   11  O   UNL     1     -10.761   9.463  69.091  1.00  0.00    -0.223 OA 
HETATM   12  C   UNL     1     -10.566   9.581  67.683  1.00  0.00    -0.269 C  
ENDBRANCH   4  11
BRANCH   9  13
HETATM   13  C   UNL     1     -11.573  14.851  68.472  1.00  0.00    -0.323 C  
BRANCH  13  14
HETATM   14  N   UNL     1     -10.404  15.651  68.107  1.00  0.00    -0.242 NA 
HETATM   15  C   UNL     1     -10.215  16.777  69.006  1.00  0.00    -0.310 C  
BRANCH  14  16
HETATM   16  C   UNL     1      -9.207  14.854  67.809  1.00  0.00    -0.186 C  
BRANCH  16  17
HETATM   17  C   UNL     1      -8.190  14.910  68.946  1.00  0.00    -0.171 C  
BRANCH  17  18
HETATM   18  C   UNL     1      -6.759  14.589  68.497  1.00  0.00    -0.096 C  
BRANCH  18  19
HETATM   19  N   UNL     1      -6.587  13.136  68.422  1.00  0.00    -0.082 N  
HETATM   20  C   UNL     1      -6.412  12.551  67.098  1.00  0.00    -0.047 C  
HETATM   21  C   UNL     1      -7.490  11.531  66.776  1.00  0.00    -0.118 C  
HETATM   22  C   UNL     1      -7.031  10.189  67.275  1.00  0.00    -0.083 A  
HETATM   23  C   UNL     1      -6.812   9.169  66.341  1.00  0.00    -0.079 A  
HETATM   24  C   UNL     1      -6.333   7.920  66.733  1.00  0.00    -0.054 A  
HETATM   25  C   UNL     1      -6.061   7.683  68.092  1.00  0.00    -0.040 A  
HETATM   26  O   UNL     1      -5.913  12.921  70.596  1.00  0.00    -0.158 OA 
HETATM   27  C   UNL     1      -6.392  12.403  69.584  1.00  0.00    -0.107 C  
HETATM   28  C   UNL     1      -6.277   8.709  69.026  1.00  0.00    -0.044 A  
HETATM   29  C   UNL     1      -7.042  11.026  69.677  1.00  0.00    -0.089 C  
HETATM   30  C   UNL     1      -6.750   9.975  68.631  1.00  0.00    -0.053 A  
BRANCH  24  31
HETATM   31  O   UNL     1      -6.070   6.904  65.846  1.00  0.00    -0.034 OA 
HETATM   32  C   UNL     1      -7.183   6.398  65.118  1.00  0.00    -0.070 C  
ENDBRANCH  24  31
BRANCH  25  33
HETATM   33  O   UNL     1      -5.600   6.429  68.408  1.00  0.00    -0.010 OA 
HETATM   34  C   UNL     1      -6.471   5.573  69.135  1.00  0.00    -0.039 C  
ENDBRANCH  25  33
ENDBRANCH  18  19
ENDBRANCH  17  18
ENDBRANCH  16  17
ENDBRANCH  14  16
ENDBRANCH  13  14
ENDBRANCH   9  13
ENDBRANCH   2   3
TORSDOF 10
ENDMDL
MODEL      176
REMARK 921   NORMALIZED FREE ENERGY PREDICTED BY IDOCK:   -4.17 KCAL/MOL
REMARK 922        TOTAL FREE ENERGY PREDICTED BY IDOCK:   -8.58 KCAL/MOL
REMARK 923 INTER-LIGAND FREE ENERGY PREDICTED BY IDOCK:   -7.48 KCAL/MOL
REMARK 924 INTRA-LIGAND FREE ENERGY PREDICTED BY IDOCK:   -1.09 KCAL/MOL
REMARK 927      BINDING AFFINITY PREDICTED BY RF-SCORE:    0.00 PKD
ROOT
HETATM    1  C   UNL     1      -8.952   3.497  67.699  1.00  0.00    -0.141 C  
HETATM    2  O   UNL     1      -8.263   4.638  68.203  1.00  0.00    -0.091 OA 
ENDROOT
BRANCH   2   3
HETATM    3  C   UNL     1      -8.451   5.832  67.554  1.00  0.00    -0.103 A  
HETATM    4  C   UNL     1      -9.240   6.932  67.987  1.00  0.00    -0.121 A  
HETATM    5  C   UNL     1      -7.739   5.908  66.325  1.00  0.00    -0.102 A  
HETATM    6  C   UNL     1      -9.364   8.050  67.162  1.00  0.00    -0.186 A  
HETATM    7  C   UNL     1      -7.879   7.049  65.558  1.00  0.00    -0.115 A  
HETATM    8  C   UNL     1      -8.732   8.033  65.949  1.00  0.00    -0.184 A  
HETATM    9  C   UNL     1      -8.593   8.851  64.690  1.00  0.00    -0.169 C  
HETATM   10  C   UNL     1      -7.406   7.840  64.360  1.00  0.00    -0.088 C  
BRANCH   4  11
HETATM   11  O   UNL     1      -9.842   6.914  69.217  1.00  0.00    -0.155 OA 
HETATM   12  C   UNL     1     -11.156   6.361  69.270  1.00  0.00    -0.373 C  
ENDBRANCH   4  11
BRANCH   9  13
HETATM   13  C   UNL     1      -8.557  10.324  65.119  1.00  0.00    -0.171 C  
BRANCH  13  14
HETATM   14  N   UNL     1      -9.554  11.227  64.541  1.00  0.00    -0.238 NA 
HETATM   15  C   UNL     1      -9.576  11.153  63.090  1.00  0.00    -0.369 C  
BRANCH  14  16
HETATM   16  C   UNL     1     -10.859  11.179  65.211  1.00  0.00    -0.152 C  
BRANCH  16  17
HETATM   17  C   UNL     1     -10.717  10.974  66.717  1.00  0.00    -0.319 C  
BRANCH  17  18
HETATM   18  C   UNL     1     -11.593  11.923  67.544  1.00  0.00    -0.304 C  
BRANCH  18  19
HETATM   19  N   UNL     1     -11.047  13.280  67.468  1.00  0.00    -0.263 N  
HETATM   20  C   UNL     1      -9.631  13.448  67.777  1.00  0.00    -0.213 C  
HETATM   21  C   UNL     1      -9.409  14.398  68.942  1.00  0.00    -0.096 C  
HETATM   22  C   UNL     1      -9.312  15.795  68.396  1.00  0.00    -0.196 A  
HETATM   23  C   UNL     1      -8.105  16.488  68.550  1.00  0.00    -0.218 A  
HETATM   24  C   UNL     1      -7.932  17.766  68.017  1.00  0.00    -0.244 A  
HETATM   25  C   UNL     1      -8.988  18.365  67.310  1.00  0.00    -0.263 A  
HETATM   26  O   UNL     1     -12.704  14.068  66.104  1.00  0.00    -0.450 OA 
HETATM   27  C   UNL     1     -11.807  14.302  66.920  1.00  0.00    -0.433 C  
HETATM   28  C   UNL     1     -10.196  17.666  67.153  1.00  0.00    -0.342 A  
HETATM   29  C   UNL     1     -11.710  15.686  67.555  1.00  0.00     0.069 C  
HETATM   30  C   UNL     1     -10.369  16.372  67.679  1.00  0.00    -0.284 A  
BRANCH  24  31
HETATM   31  O   UNL     1      -6.753  18.466  68.113  1.00  0.00    -0.214 OA 
HETATM   32  C   UNL     1      -6.175  18.555  69.411  1.00  0.00    -0.261 C  
ENDBRANCH  24  31
BRANCH  25  33
HETATM   33  O   UNL     1      -8.751  19.626  66.821  1.00  0.00    -0.303 OA 
HETATM   34  C   UNL     1      -9.719  20.629  67.094  1.00  0.00    -0.390 C  
ENDBRANCH  25  33
ENDBRANCH  18  19
ENDBRANCH  17  18
ENDBRANCH  16  17
ENDBRANCH  14  16
ENDBRANCH  13  14
ENDBRANCH   9  13
ENDBRANCH   2   3
TORSDOF 10
ENDMDL
MODEL      177
REMARK 921   NORMALIZED FREE ENERGY PREDICTED BY IDOCK:   -4.17 KCAL/MOL
REMARK 922        TOTAL FREE ENERGY PREDICTED BY IDOCK:   -8.57 KCAL/MOL
REMARK 923 INTER-LIGAND FREE ENERGY PREDICTED BY IDOCK:   -7.52 KCAL/MOL
REMARK 924 INTRA-LIGAND FREE ENERGY PREDICTED BY IDOCK:   -1.04 KCAL/MOL
REMARK 927      BINDING AFFINITY PREDICTED BY RF-SCORE:    0.00 PKD
ROOT
HETATM    1  C   UNL     1      -7.412  11.680  68.537  1.00  0.00    -0.113 C  
HETATM    2  O   UNL     1      -6.430  12.492  69.173  1.00  0.00    -0.088 OA 
ENDROOT
BRANCH   2   3
HETATM    3  C   UNL     1      -6.522  13.850  69.007  1.00  0.00    -0.103 A  
HETATM    4  C   UNL     1      -6.620  14.838  70.024  1.00  0.00    -0.168 A  
HETATM    5  C   UNL     1      -6.502  14.239  67.639  1.00  0.00    -0.151 A  
HETATM    6  C   UNL     1      -6.769  16.178  69.663  1.00  0.00    -0.165 A  
HETATM    7  C   UNL     1      -6.629  15.582  67.339  1.00  0.00    -0.174 A  
HETATM    8  C   UNL     1      -6.836  16.486  68.333  1.00  0.00    -0.145 A  
HETATM    9  C   UNL     1      -7.069  17.659  67.413  1.00  0.00    -0.187 C  
HETATM   10  C   UNL     1      -6.567  16.658  66.279  1.00  0.00     0.330 C  
BRANCH   4  11
HETATM   11  O   UNL     1      -6.531  14.487  71.345  1.00  0.00     0.166 OA 
HETATM   12  C   UNL     1      -5.227  14.524  71.922  1.00  0.00    -0.153 C  
ENDBRANCH   4  11
BRANCH   9  13
HETATM   13  C   UNL     1      -6.375  18.869  68.052  1.00  0.00    -0.209 C  
BRANCH  13  14
HETATM   14  N   UNL     1      -7.180  20.069  68.291  1.00  0.00    -0.294 NA 
HETATM   15  C   UNL     1      -6.817  21.152  67.394  1.00  0.00    -0.339 C  
BRANCH  14  16
HETATM   16  C   UNL     1      -8.617  19.801  68.435  1.00  0.00    -0.251 C  
BRANCH  16  17
HETATM   17  C   UNL     1      -9.439  20.533  67.377  1.00  0.00    -0.551 C  
BRANCH  17  18
HETATM   18  C   UNL     1     -10.017  19.600  66.305  1.00  0.00    -0.466 C  
BRANCH  18  19
HETATM   19  N   UNL     1     -10.436  18.343  66.929  1.00  0.00    -0.392 N  
HETATM   20  C   UNL     1     -10.970  18.416  68.284  1.00  0.00     0.251 C  
HETATM   21  C   UNL     1     -10.162  17.581  69.263  1.00  0.00    -0.180 C  
HETATM   22  C   UNL     1     -10.725  16.187  69.267  1.00  0.00    -0.295 A  
HETATM   23  C   UNL     1     -11.293  15.701  70.451  1.00  0.00    -0.373 A  
HETATM   24  C   UNL     1     -11.882  14.438  70.505  1.00  0.00    -0.299 A  
HETATM   25  C   UNL     1     -11.908  13.641  69.347  1.00  0.00    -0.339 A  
HETATM   26  O   UNL     1     -10.682  17.229  64.948  1.00  0.00    -0.723 OA 
HETATM   27  C   UNL     1     -10.510  17.184  66.169  1.00  0.00    -0.275 C  
HETATM   28  C   UNL     1     -11.341  14.133  68.160  1.00  0.00    -0.316 A  
HETATM   29  C   UNL     1     -10.090  15.872  66.824  1.00  0.00    -0.276 C  
HETATM   30  C   UNL     1     -10.757  15.412  68.100  1.00  0.00    -0.271 A  
BRANCH  24  31
HETATM   31  O   UNL     1     -12.483  13.937  71.634  1.00  0.00    -0.317 OA 
HETATM   32  C   UNL     1     -12.421  14.754  72.798  1.00  0.00    -0.325 C  
ENDBRANCH  24  31
BRANCH  25  33
HETATM   33  O   UNL     1     -12.495  12.407  69.474  1.00  0.00    -0.010 OA 
HETATM   34  C   UNL     1     -11.660  11.265  69.340  1.00  0.00    -0.321 C  
ENDBRANCH  25  33
ENDBRANCH  18  19
ENDBRANCH  17  18
ENDBRANCH  16  17
ENDBRANCH  14  16
ENDBRANCH  13  14
ENDBRANCH   9  13
ENDBRANCH   2   3
TORSDOF 10
ENDMDL
MODEL      178
REMARK 921   NORMALIZED FREE ENERGY PREDICTED BY IDOCK:   -4.16 KCAL/MOL
REMARK 922        TOTAL FREE ENERGY PREDICTED BY IDOCK:   -8.56 KCAL/MOL
REMARK 923 INTER-LIGAND FREE ENERGY PREDICTED BY IDOCK:   -7.33 KCAL/MOL
REMARK 924 INTRA-LIGAND FREE ENERGY PREDICTED BY IDOCK:   -1.23 KCAL/MOL
REMARK 927      BINDING AFFINITY PREDICTED BY RF-SCORE:    0.00 PKD
ROOT
HETATM    1  C   UNL     1      -9.472   2.581  68.205  1.00  0.00    -0.161 C  
HETATM    2  O   UNL     1      -8.753   3.665  68.785  1.00  0.00    -0.086 OA 
ENDROOT
BRANCH   2   3
HETATM    3  C   UNL     1      -8.877   4.898  68.198  1.00  0.00    -0.103 A  
HETATM    4  C   UNL     1      -9.877   5.876  68.452  1.00  0.00    -0.134 A  
HETATM    5  C   UNL     1      -7.852   5.160  67.247  1.00  0.00    -0.096 A  
HETATM    6  C   UNL     1      -9.881   7.057  67.710  1.00  0.00    -0.166 A  
HETATM    7  C   UNL     1      -7.891   6.357  66.558  1.00  0.00    -0.104 A  
HETATM    8  C   UNL     1      -8.926   7.218  66.744  1.00  0.00    -0.154 A  
HETATM    9  C   UNL     1      -8.520   8.170  65.646  1.00  0.00    -0.170 C  
HETATM   10  C   UNL     1      -7.183   7.304  65.616  1.00  0.00    -0.070 C  
BRANCH   4  11
HETATM   11  O   UNL     1     -10.804   5.681  69.441  1.00  0.00    -0.320 OA 
HETATM   12  C   UNL     1     -10.628   6.446  70.632  1.00  0.00    -0.237 C  
ENDBRANCH   4  11
BRANCH   9  13
HETATM   13  C   UNL     1      -8.777   9.589  66.171  1.00  0.00    -0.145 C  
BRANCH  13  14
HETATM   14  N   UNL     1      -9.419  10.544  65.267  1.00  0.00    -0.210 NA 
HETATM   15  C   UNL     1      -9.414  10.076  63.891  1.00  0.00    -0.220 C  
BRANCH  14  16
HETATM   16  C   UNL     1     -10.696  11.069  65.766  1.00  0.00    -0.148 C  
BRANCH  16  17
HETATM   17  C   UNL     1     -10.986  10.597  67.188  1.00  0.00    -0.312 C  
BRANCH  17  18
HETATM   18  C   UNL     1     -11.466  11.721  68.116  1.00  0.00    -0.316 C  
BRANCH  18  19
HETATM   19  N   UNL     1     -10.697  12.938  67.842  1.00  0.00    -0.215 N  
HETATM   20  C   UNL     1     -11.450  14.151  67.544  1.00  0.00    -0.340 C  
HETATM   21  C   UNL     1     -11.110  14.714  66.175  1.00  0.00    -0.334 C  
HETATM   22  C   UNL     1      -9.940  15.646  66.328  1.00  0.00    -0.315 A  
HETATM   23  C   UNL     1     -10.126  17.002  66.033  1.00  0.00    -0.318 A  
HETATM   24  C   UNL     1      -9.097  17.928  66.208  1.00  0.00    -0.176 A  
HETATM   25  C   UNL     1      -7.853  17.490  66.695  1.00  0.00    -0.250 A  
HETATM   26  O   UNL     1      -8.805  12.199  68.891  1.00  0.00     0.048 OA 
HETATM   27  C   UNL     1      -9.329  12.958  68.071  1.00  0.00    -0.213 C  
HETATM   28  C   UNL     1      -7.672  16.130  66.994  1.00  0.00    -0.256 A  
HETATM   29  C   UNL     1      -8.451  13.731  67.091  1.00  0.00    -0.189 C  
HETATM   30  C   UNL     1      -8.712  15.196  66.830  1.00  0.00    -0.307 A  
BRANCH  24  31
HETATM   31  O   UNL     1      -9.247  19.271  65.965  1.00  0.00    -0.430 OA 
HETATM   32  C   UNL     1     -10.310  19.923  66.651  1.00  0.00    -0.485 C  
ENDBRANCH  24  31
BRANCH  25  33
HETATM   33  O   UNL     1      -6.885  18.452  66.834  1.00  0.00    -0.183 OA 
HETATM   34  C   UNL     1      -6.428  18.739  68.149  1.00  0.00    -0.216 C  
ENDBRANCH  25  33
ENDBRANCH  18  19
ENDBRANCH  17  18
ENDBRANCH  16  17
ENDBRANCH  14  16
ENDBRANCH  13  14
ENDBRANCH   9  13
ENDBRANCH   2   3
TORSDOF 10
ENDMDL
MODEL      179
REMARK 921   NORMALIZED FREE ENERGY PREDICTED BY IDOCK:   -4.15 KCAL/MOL
REMARK 922        TOTAL FREE ENERGY PREDICTED BY IDOCK:   -8.54 KCAL/MOL
REMARK 923 INTER-LIGAND FREE ENERGY PREDICTED BY IDOCK:   -7.53 KCAL/MOL
REMARK 924 INTRA-LIGAND FREE ENERGY PREDICTED BY IDOCK:   -1.01 KCAL/MOL
REMARK 927      BINDING AFFINITY PREDICTED BY RF-SCORE:    0.00 PKD
ROOT
HETATM    1  C   UNL     1     -11.972  15.446  72.238  1.00  0.00    -0.438 C  
HETATM    2  O   UNL     1     -11.417  16.240  71.193  1.00  0.00    -0.420 OA 
ENDROOT
BRANCH   2   3
HETATM    3  C   UNL     1     -11.387  15.702  69.932  1.00  0.00    -0.337 A  
HETATM    4  C   UNL     1     -10.932  16.327  68.739  1.00  0.00    -0.343 A  
HETATM    5  C   UNL     1     -11.872  14.365  69.893  1.00  0.00    -0.382 A  
HETATM    6  C   UNL     1     -11.035  15.643  67.528  1.00  0.00    -0.309 A  
HETATM    7  C   UNL     1     -11.929  13.727  68.669  1.00  0.00    -0.401 A  
HETATM    8  C   UNL     1     -11.594  14.395  67.534  1.00  0.00    -0.398 A  
HETATM    9  C   UNL     1     -12.022  13.300  66.590  1.00  0.00    -0.446 C  
HETATM   10  C   UNL     1     -12.161  12.433  67.920  1.00  0.00    -0.084 C  
BRANCH   4  11
HETATM   11  O   UNL     1     -10.363  17.572  68.781  1.00  0.00    -0.353 OA 
HETATM   12  C   UNL     1      -8.983  17.649  68.427  1.00  0.00    -0.280 C  
ENDBRANCH   4  11
BRANCH   9  13
HETATM   13  C   UNL     1     -10.974  13.244  65.470  1.00  0.00    -0.282 C  
BRANCH  13  14
HETATM   14  N   UNL     1     -11.200  12.303  64.371  1.00  0.00    -0.316 NA 
HETATM   15  C   UNL     1     -12.014  12.885  63.318  1.00  0.00    -0.440 C  
BRANCH  14  16
HETATM   16  C   UNL     1      -9.989  11.596  63.937  1.00  0.00    -0.327 C  
BRANCH  16  17
HETATM   17  C   UNL     1      -9.712  10.364  64.794  1.00  0.00    -0.383 C  
BRANCH  17  18
HETATM   18  C   UNL     1      -8.321  10.375  65.442  1.00  0.00    -0.165 C  
BRANCH  18  19
HETATM   19  N   UNL     1      -8.150   9.163  66.247  1.00  0.00    -0.109 N  
HETATM   20  C   UNL     1      -8.227   7.883  65.551  1.00  0.00    -0.140 C  
HETATM   21  C   UNL     1      -9.336   7.000  66.099  1.00  0.00    -0.090 C  
HETATM   22  C   UNL     1      -8.774   6.191  67.234  1.00  0.00    -0.108 A  
HETATM   23  C   UNL     1      -8.727   4.797  67.100  1.00  0.00    -0.103 A  
HETATM   24  C   UNL     1      -8.167   3.994  68.093  1.00  0.00    -0.091 A  
HETATM   25  C   UNL     1      -7.635   4.596  69.246  1.00  0.00    -0.056 A  
HETATM   26  O   UNL     1      -7.067  10.229  67.954  1.00  0.00    -0.082 OA 
HETATM   27  C   UNL     1      -7.726   9.262  67.564  1.00  0.00    -0.092 C  
HETATM   28  C   UNL     1      -7.679   5.993  69.376  1.00  0.00    -0.098 A  
HETATM   29  C   UNL     1      -8.330   8.300  68.583  1.00  0.00    -0.125 C  
HETATM   30  C   UNL     1      -8.233   6.807  68.370  1.00  0.00    -0.119 A  
BRANCH  24  31
HETATM   31  O   UNL     1      -8.068   2.628  67.986  1.00  0.00    -0.058 OA 
HETATM   32  C   UNL     1      -8.413   2.066  66.724  1.00  0.00    -0.099 C  
ENDBRANCH  24  31
BRANCH  25  33
HETATM   33  O   UNL     1      -7.108   3.745  70.185  1.00  0.00    -0.040 OA 
HETATM   34  C   UNL     1      -5.696   3.737  70.345  1.00  0.00    -0.013 C  
ENDBRANCH  25  33
ENDBRANCH  18  19
ENDBRANCH  17  18
ENDBRANCH  16  17
ENDBRANCH  14  16
ENDBRANCH  13  14
ENDBRANCH   9  13
ENDBRANCH   2   3
TORSDOF 10
ENDMDL
MODEL      180
REMARK 921   NORMALIZED FREE ENERGY PREDICTED BY IDOCK:   -4.15 KCAL/MOL
REMARK 922        TOTAL FREE ENERGY PREDICTED BY IDOCK:   -8.54 KCAL/MOL
REMARK 923 INTER-LIGAND FREE ENERGY PREDICTED BY IDOCK:   -6.36 KCAL/MOL
REMARK 924 INTRA-LIGAND FREE ENERGY PREDICTED BY IDOCK:   -2.19 KCAL/MOL
REMARK 927      BINDING AFFINITY PREDICTED BY RF-SCORE:    0.00 PKD
ROOT
HETATM    1  C   UNL     1      -7.824   7.077  63.679  1.00  0.00    -0.112 C  
HETATM    2  O   UNL     1      -8.265   5.741  63.901  1.00  0.00    -0.123 OA 
ENDROOT
BRANCH   2   3
HETATM    3  C   UNL     1      -8.637   5.397  65.175  1.00  0.00    -0.149 A  
HETATM    4  C   UNL     1      -9.768   4.630  65.565  1.00  0.00    -0.181 A  
HETATM    5  C   UNL     1      -7.739   5.890  66.162  1.00  0.00    -0.102 A  
HETATM    6  C   UNL     1     -10.024   4.430  66.922  1.00  0.00    -0.210 A  
HETATM    7  C   UNL     1      -8.028   5.642  67.491  1.00  0.00    -0.102 A  
HETATM    8  C   UNL     1      -9.179   5.004  67.831  1.00  0.00    -0.135 A  
HETATM    9  C   UNL     1      -9.017   5.199  69.318  1.00  0.00    -0.126 C  
HETATM   10  C   UNL     1      -7.557   5.704  68.926  1.00  0.00    -0.088 C  
BRANCH   4  11
HETATM   11  O   UNL     1     -10.579   4.058  64.620  1.00  0.00    -0.253 OA 
HETATM   12  C   UNL     1     -10.097   2.859  64.016  1.00  0.00    -0.142 C  
ENDBRANCH   4  11
BRANCH   9  13
HETATM   13  C   UNL     1      -9.474   3.897  69.989  1.00  0.00    -0.192 C  
BRANCH  13  14
HETATM   14  N   UNL     1      -9.622   3.897  71.446  1.00  0.00    -0.156 NA 
HETATM   15  C   UNL     1      -8.822   2.857  72.071  1.00  0.00    -0.081 C  
BRANCH  14  16
HETATM   16  C   UNL     1      -9.535   5.231  72.052  1.00  0.00    -0.145 C  
BRANCH  16  17
HETATM   17  C   UNL     1     -10.902   5.739  72.502  1.00  0.00    -0.294 C  
BRANCH  17  18
HETATM   18  C   UNL     1     -10.872   7.180  73.029  1.00  0.00    -0.328 C  
BRANCH  18  19
HETATM   19  N   UNL     1     -10.438   8.080  71.958  1.00  0.00    -0.228 N  
HETATM   20  C   UNL     1     -11.450   8.522  71.005  1.00  0.00    -0.273 C  
HETATM   21  C   UNL     1     -11.104   8.127  69.580  1.00  0.00     0.040 C  
HETATM   22  C   UNL     1     -10.264   9.220  68.981  1.00  0.00    -0.217 A  
HETATM   23  C   UNL     1     -10.775   9.929  67.885  1.00  0.00    -0.316 A  
HETATM   24  C   UNL     1     -10.070  10.991  67.319  1.00  0.00    -0.189 A  
HETATM   25  C   UNL     1      -8.827  11.359  67.862  1.00  0.00    -0.149 A  
HETATM   26  O   UNL     1      -8.566   8.789  73.064  1.00  0.00    -0.382 OA 
HETATM   27  C   UNL     1      -9.168   8.639  71.997  1.00  0.00    -0.268 C  
HETATM   28  C   UNL     1      -8.320  10.650  68.963  1.00  0.00    -0.153 A  
HETATM   29  C   UNL     1      -8.418   8.800  70.678  1.00  0.00    -0.193 C  
HETATM   30  C   UNL     1      -9.034   9.585  69.544  1.00  0.00    -0.187 A  
BRANCH  24  31
HETATM   31  O   UNL     1     -10.550  11.735  66.269  1.00  0.00    -0.236 OA 
HETATM   32  C   UNL     1     -11.664  12.576  66.547  1.00  0.00    -0.391 C  
ENDBRANCH  24  31
BRANCH  25  33
HETATM   33  O   UNL     1      -8.185  12.407  67.250  1.00  0.00    -0.169 OA 
HETATM   34  C   UNL     1      -7.253  13.149  68.025  1.00  0.00    -0.125 C  
ENDBRANCH  25  33
ENDBRANCH  18  19
ENDBRANCH  17  18
ENDBRANCH  16  17
ENDBRANCH  14  16
ENDBRANCH  13  14
ENDBRANCH   9  13
ENDBRANCH   2   3
TORSDOF 10
ENDMDL
MODEL      181
REMARK 921   NORMALIZED FREE ENERGY PREDICTED BY IDOCK:   -4.14 KCAL/MOL
REMARK 922        TOTAL FREE ENERGY PREDICTED BY IDOCK:   -8.53 KCAL/MOL
REMARK 923 INTER-LIGAND FREE ENERGY PREDICTED BY IDOCK:   -6.68 KCAL/MOL
REMARK 924 INTRA-LIGAND FREE ENERGY PREDICTED BY IDOCK:   -1.85 KCAL/MOL
REMARK 927      BINDING AFFINITY PREDICTED BY RF-SCORE:    0.00 PKD
ROOT
HETATM    1  C   UNL     1     -13.432   9.200  72.671  1.00  0.00    -0.331 C  
HETATM    2  O   UNL     1     -12.817   8.918  71.418  1.00  0.00    -0.321 OA 
ENDROOT
BRANCH   2   3
HETATM    3  C   UNL     1     -11.547   8.399  71.434  1.00  0.00    -0.284 A  
HETATM    4  C   UNL     1     -11.166   7.063  71.736  1.00  0.00    -0.246 A  
HETATM    5  C   UNL     1     -10.556   9.360  71.094  1.00  0.00    -0.403 A  
HETATM    6  C   UNL     1      -9.812   6.729  71.765  1.00  0.00    -0.170 A  
HETATM    7  C   UNL     1      -9.231   8.968  71.115  1.00  0.00    -0.326 A  
HETATM    8  C   UNL     1      -8.897   7.714  71.519  1.00  0.00    -0.138 A  
HETATM    9  C   UNL     1      -7.408   7.952  71.507  1.00  0.00    -0.068 C  
HETATM   10  C   UNL     1      -7.797   9.319  70.786  1.00  0.00    -0.174 C  
BRANCH   4  11
HETATM   11  O   UNL     1     -12.118   6.103  71.959  1.00  0.00    -0.318 OA 
HETATM   12  C   UNL     1     -11.759   5.055  72.858  1.00  0.00    -0.115 C  
ENDBRANCH   4  11
BRANCH   9  13
HETATM   13  C   UNL     1      -6.759   6.679  70.946  1.00  0.00    -0.054 C  
BRANCH  13  14
HETATM   14  N   UNL     1      -6.518   6.616  69.504  1.00  0.00    -0.042 NA 
HETATM   15  C   UNL     1      -5.333   7.362  69.119  1.00  0.00    -0.015 C  
BRANCH  14  16
HETATM   16  C   UNL     1      -6.643   5.266  68.939  1.00  0.00    -0.051 C  
BRANCH  16  17
HETATM   17  C   UNL     1      -8.098   4.807  68.883  1.00  0.00    -0.082 C  
BRANCH  17  18
HETATM   18  C   UNL     1      -8.683   4.817  67.464  1.00  0.00    -0.103 C  
BRANCH  18  19
HETATM   19  N   UNL     1      -9.197   6.154  67.160  1.00  0.00    -0.117 N  
HETATM   20  C   UNL     1      -8.697   6.803  65.953  1.00  0.00    -0.137 C  
HETATM   21  C   UNL     1      -8.011   8.124  66.257  1.00  0.00    -0.101 C  
HETATM   22  C   UNL     1      -9.052   9.208  66.239  1.00  0.00    -0.222 A  
HETATM   23  C   UNL     1      -8.950  10.215  65.271  1.00  0.00    -0.218 A  
HETATM   24  C   UNL     1      -9.913  11.217  65.166  1.00  0.00    -0.264 A  
HETATM   25  C   UNL     1     -11.009  11.214  66.046  1.00  0.00    -0.123 A  
HETATM   26  O   UNL     1     -11.078   5.922  68.439  1.00  0.00    -0.268 OA 
HETATM   27  C   UNL     1     -10.265   6.666  67.883  1.00  0.00    -0.171 C  
HETATM   28  C   UNL     1     -11.111  10.201  67.014  1.00  0.00    -0.061 A  
HETATM   29  C   UNL     1     -10.253   8.154  68.218  1.00  0.00    -0.245 C  
HETATM   30  C   UNL     1     -10.146   9.181  67.114  1.00  0.00    -0.301 A  
BRANCH  24  31
HETATM   31  O   UNL     1      -9.872  12.202  64.208  1.00  0.00    -0.234 OA 
HETATM   32  C   UNL     1     -10.185  11.803  62.878  1.00  0.00    -0.025 C  
ENDBRANCH  24  31
BRANCH  25  33
HETATM   33  O   UNL     1     -11.914  12.234  65.892  1.00  0.00    -0.555 OA 
HETATM   34  C   UNL     1     -11.861  13.305  66.824  1.00  0.00    -0.394 C  
ENDBRANCH  25  33
ENDBRANCH  18  19
ENDBRANCH  17  18
ENDBRANCH  16  17
ENDBRANCH  14  16
ENDBRANCH  13  14
ENDBRANCH   9  13
ENDBRANCH   2   3
TORSDOF 10
ENDMDL
MODEL      182
REMARK 921   NORMALIZED FREE ENERGY PREDICTED BY IDOCK:   -4.08 KCAL/MOL
REMARK 922        TOTAL FREE ENERGY PREDICTED BY IDOCK:   -8.44 KCAL/MOL
REMARK 923 INTER-LIGAND FREE ENERGY PREDICTED BY IDOCK:   -6.73 KCAL/MOL
REMARK 924 INTRA-LIGAND FREE ENERGY PREDICTED BY IDOCK:   -1.71 KCAL/MOL
REMARK 927      BINDING AFFINITY PREDICTED BY RF-SCORE:    0.00 PKD
ROOT
HETATM    1  C   UNL     1     -14.307   8.139  71.659  1.00  0.00    -0.469 C  
HETATM    2  O   UNL     1     -13.421   7.037  71.830  1.00  0.00    -0.349 OA 
ENDROOT
BRANCH   2   3
HETATM    3  C   UNL     1     -12.086   7.253  71.604  1.00  0.00    -0.325 A  
HETATM    4  C   UNL     1     -11.009   6.371  71.896  1.00  0.00    -0.253 A  
HETATM    5  C   UNL     1     -11.827   8.515  71.001  1.00  0.00    -0.290 A  
HETATM    6  C   UNL     1      -9.700   6.788  71.652  1.00  0.00    -0.166 A  
HETATM    7  C   UNL     1     -10.512   8.866  70.760  1.00  0.00    -0.283 A  
HETATM    8  C   UNL     1      -9.503   8.047  71.157  1.00  0.00    -0.181 A  
HETATM    9  C   UNL     1      -8.393   9.008  70.811  1.00  0.00    -0.228 C  
HETATM   10  C   UNL     1      -9.557   9.842  70.110  1.00  0.00    -0.287 C  
BRANCH   4  11
HETATM   11  O   UNL     1     -11.253   5.112  72.375  1.00  0.00    -0.198 OA 
HETATM   12  C   UNL     1     -11.216   4.957  73.793  1.00  0.00    -0.105 C  
ENDBRANCH   4  11
BRANCH   9  13
HETATM   13  C   UNL     1      -7.258   8.175  70.201  1.00  0.00    -0.056 C  
BRANCH  13  14
HETATM   14  N   UNL     1      -6.299   8.861  69.334  1.00  0.00    -0.044 NA 
HETATM   15  C   UNL     1      -5.297   9.583  70.100  1.00  0.00    -0.031 C  
BRANCH  14  16
HETATM   16  C   UNL     1      -5.797   8.033  68.230  1.00  0.00    -0.037 C  
BRANCH  16  17
HETATM   17  C   UNL     1      -6.847   7.845  67.139  1.00  0.00    -0.073 C  
BRANCH  17  18
HETATM   18  C   UNL     1      -6.578   8.688  65.885  1.00  0.00    -0.057 C  
BRANCH  18  19
HETATM   19  N   UNL     1      -7.295   9.961  65.992  1.00  0.00    -0.102 N  
HETATM   20  C   UNL     1      -6.511  11.143  66.332  1.00  0.00    -0.109 C  
HETATM   21  C   UNL     1      -6.995  11.801  67.612  1.00  0.00    -0.103 C  
HETATM   22  C   UNL     1      -8.070  12.789  67.255  1.00  0.00    -0.172 A  
HETATM   23  C   UNL     1      -7.838  14.147  67.508  1.00  0.00    -0.207 A  
HETATM   24  C   UNL     1      -8.771  15.119  67.149  1.00  0.00    -0.216 A  
HETATM   25  C   UNL     1      -9.964  14.727  66.517  1.00  0.00    -0.271 A  
HETATM   26  O   UNL     1      -9.073   9.274  64.730  1.00  0.00    -0.212 OA 
HETATM   27  C   UNL     1      -8.616  10.047  65.576  1.00  0.00    -0.151 C  
HETATM   28  C   UNL     1     -10.192  13.366  66.261  1.00  0.00    -0.298 A  
HETATM   29  C   UNL     1      -9.565  10.923  66.388  1.00  0.00    -0.229 C  
HETATM   30  C   UNL     1      -9.247  12.384  66.612  1.00  0.00    -0.218 A  
BRANCH  24  31
HETATM   31  O   UNL     1      -8.568  16.463  67.345  1.00  0.00    -0.174 OA 
HETATM   32  C   UNL     1      -7.229  16.869  67.608  1.00  0.00    -0.143 C  
ENDBRANCH  24  31
BRANCH  25  33
HETATM   33  O   UNL     1     -10.841  15.735  66.200  1.00  0.00    -0.309 OA 
HETATM   34  C   UNL     1     -11.156  15.923  64.827  1.00  0.00    -0.384 C  
ENDBRANCH  25  33
ENDBRANCH  18  19
ENDBRANCH  17  18
ENDBRANCH  16  17
ENDBRANCH  14  16
ENDBRANCH  13  14
ENDBRANCH   9  13
ENDBRANCH   2   3
TORSDOF 10
ENDMDL
MODEL      183
REMARK 921   NORMALIZED FREE ENERGY PREDICTED BY IDOCK:   -4.08 KCAL/MOL
REMARK 922        TOTAL FREE ENERGY PREDICTED BY IDOCK:   -8.43 KCAL/MOL
REMARK 923 INTER-LIGAND FREE ENERGY PREDICTED BY IDOCK:   -7.33 KCAL/MOL
REMARK 924 INTRA-LIGAND FREE ENERGY PREDICTED BY IDOCK:   -1.10 KCAL/MOL
REMARK 927      BINDING AFFINITY PREDICTED BY RF-SCORE:    0.00 PKD
ROOT
HETATM    1  C   UNL     1      -8.167   3.929  63.428  1.00  0.00    -0.090 C  
HETATM    2  O   UNL     1      -7.660   3.753  64.747  1.00  0.00    -0.075 OA 
ENDROOT
BRANCH   2   3
HETATM    3  C   UNL     1      -8.106   4.611  65.720  1.00  0.00    -0.103 A  
HETATM    4  C   UNL     1      -7.346   5.190  66.772  1.00  0.00    -0.086 A  
HETATM    5  C   UNL     1      -9.489   4.918  65.591  1.00  0.00    -0.168 A  
HETATM    6  C   UNL     1      -7.986   5.998  67.713  1.00  0.00    -0.105 A  
HETATM    7  C   UNL     1     -10.066   5.743  66.537  1.00  0.00    -0.216 A  
HETATM    8  C   UNL     1      -9.335   6.185  67.594  1.00  0.00    -0.112 A  
HETATM    9  C   UNL     1     -10.495   6.829  68.312  1.00  0.00    -0.243 C  
HETATM   10  C   UNL     1     -11.281   6.541  66.956  1.00  0.00    -0.280 C  
BRANCH   4  11
HETATM   11  O   UNL     1      -5.993   4.989  66.843  1.00  0.00    -0.025 OA 
HETATM   12  C   UNL     1      -5.501   4.420  68.056  1.00  0.00    -0.016 C  
ENDBRANCH   4  11
BRANCH   9  13
HETATM   13  C   UNL     1      -9.976   8.147  68.902  1.00  0.00    -0.192 C  
BRANCH  13  14
HETATM   14  N   UNL     1      -9.861   8.244  70.358  1.00  0.00    -0.185 NA 
HETATM   15  C   UNL     1      -8.848   9.206  70.759  1.00  0.00    -0.239 C  
BRANCH  14  16
HETATM   16  C   UNL     1     -11.152   8.339  71.050  1.00  0.00    -0.251 C  
BRANCH  16  17
HETATM   17  C   UNL     1     -11.468   9.772  71.470  1.00  0.00    -0.393 C  
BRANCH  17  18
HETATM   18  C   UNL     1     -12.672  10.371  70.730  1.00  0.00    -0.371 C  
BRANCH  18  19
HETATM   19  N   UNL     1     -12.316  11.695  70.214  1.00  0.00    -0.285 N  
HETATM   20  C   UNL     1     -11.860  11.772  68.831  1.00  0.00    -0.320 C  
HETATM   21  C   UNL     1     -10.460  12.351  68.721  1.00  0.00    -0.179 C  
HETATM   22  C   UNL     1     -10.577  13.846  68.619  1.00  0.00    -0.265 A  
HETATM   23  C   UNL     1     -10.138  14.471  67.445  1.00  0.00    -0.235 A  
HETATM   24  C   UNL     1     -10.271  15.847  67.265  1.00  0.00    -0.278 A  
HETATM   25  C   UNL     1     -10.860  16.620  68.280  1.00  0.00    -0.356 A  
HETATM   26  O   UNL     1     -13.526  12.834  71.784  1.00  0.00    -0.390 OA 
HETATM   27  C   UNL     1     -12.609  12.828  70.958  1.00  0.00    -0.271 C  
HETATM   28  C   UNL     1     -11.303  15.991  69.454  1.00  0.00    -0.355 A  
HETATM   29  C   UNL     1     -11.602  13.974  70.943  1.00  0.00     0.013 C  
HETATM   30  C   UNL     1     -11.182  14.600  69.633  1.00  0.00    -0.307 A  
BRANCH  24  31
HETATM   31  O   UNL     1      -9.887  16.494  66.115  1.00  0.00    -0.297 OA 
HETATM   32  C   UNL     1      -8.486  16.654  65.917  1.00  0.00     0.011 C  
ENDBRANCH  24  31
BRANCH  25  33
HETATM   33  O   UNL     1     -10.950  17.969  68.039  1.00  0.00    -0.265 OA 
HETATM   34  C   UNL     1      -9.923  18.799  68.562  1.00  0.00    -0.400 C  
ENDBRANCH  25  33
ENDBRANCH  18  19
ENDBRANCH  17  18
ENDBRANCH  16  17
ENDBRANCH  14  16
ENDBRANCH  13  14
ENDBRANCH   9  13
ENDBRANCH   2   3
TORSDOF 10
ENDMDL
MODEL      184
REMARK 921   NORMALIZED FREE ENERGY PREDICTED BY IDOCK:   -4.08 KCAL/MOL
REMARK 922        TOTAL FREE ENERGY PREDICTED BY IDOCK:   -8.42 KCAL/MOL
REMARK 923 INTER-LIGAND FREE ENERGY PREDICTED BY IDOCK:   -5.46 KCAL/MOL
REMARK 924 INTRA-LIGAND FREE ENERGY PREDICTED BY IDOCK:   -2.96 KCAL/MOL
REMARK 927      BINDING AFFINITY PREDICTED BY RF-SCORE:    0.00 PKD
ROOT
HETATM    1  C   UNL     1     -10.975   6.271  66.976  1.00  0.00    -0.364 C  
HETATM    2  O   UNL     1     -10.366   6.871  68.116  1.00  0.00    -0.170 OA 
ENDROOT
BRANCH   2   3
HETATM    3  C   UNL     1     -10.517   8.224  68.280  1.00  0.00    -0.161 A  
HETATM    4  C   UNL     1     -10.510   8.950  69.502  1.00  0.00    -0.226 A  
HETATM    5  C   UNL     1     -10.686   8.912  67.047  1.00  0.00    -0.180 A  
HETATM    6  C   UNL     1     -10.741  10.326  69.481  1.00  0.00    -0.280 A  
HETATM    7  C   UNL     1     -10.889  10.279  67.083  1.00  0.00    -0.278 A  
HETATM    8  C   UNL     1     -10.989  10.922  68.276  1.00  0.00    -0.293 A  
HETATM    9  C   UNL     1     -11.373  12.256  67.687  1.00  0.00    -0.374 C  
HETATM   10  C   UNL     1     -10.996  11.568  66.300  1.00  0.00    -0.328 C  
BRANCH   4  11
HETATM   11  O   UNL     1     -10.240   8.315  70.685  1.00  0.00    -0.190 OA 
HETATM   12  C   UNL     1      -9.175   8.858  71.465  1.00  0.00    -0.252 C  
ENDBRANCH   4  11
BRANCH   9  13
HETATM   13  C   UNL     1     -10.636  13.329  68.500  1.00  0.00    -0.256 C  
BRANCH  13  14
HETATM   14  N   UNL     1      -9.620  14.127  67.813  1.00  0.00    -0.214 NA 
HETATM   15  C   UNL     1     -10.091  15.470  67.521  1.00  0.00    -0.241 C  
BRANCH  14  16
HETATM   16  C   UNL     1      -8.282  14.027  68.409  1.00  0.00    -0.150 C  
BRANCH  16  17
HETATM   17  C   UNL     1      -7.779  12.586  68.435  1.00  0.00    -0.136 C  
BRANCH  17  18
HETATM   18  C   UNL     1      -7.117  12.150  67.121  1.00  0.00    -0.120 C  
BRANCH  18  19
HETATM   19  N   UNL     1      -7.238  10.698  66.974  1.00  0.00    -0.097 N  
HETATM   20  C   UNL     1      -7.303   9.906  68.196  1.00  0.00    -0.080 C  
HETATM   21  C   UNL     1      -6.174   8.893  68.282  1.00  0.00    -0.054 C  
HETATM   22  C   UNL     1      -6.625   7.629  67.605  1.00  0.00    -0.062 A  
HETATM   23  C   UNL     1      -6.747   6.467  68.378  1.00  0.00    -0.068 A  
HETATM   24  C   UNL     1      -7.215   5.276  67.823  1.00  0.00    -0.071 A  
HETATM   25  C   UNL     1      -7.574   5.244  66.464  1.00  0.00    -0.088 A  
HETATM   26  O   UNL     1      -8.057  10.799  64.841  1.00  0.00    -0.075 OA 
HETATM   27  C   UNL     1      -7.492  10.148  65.725  1.00  0.00    -0.131 C  
HETATM   28  C   UNL     1      -7.455   6.411  65.694  1.00  0.00    -0.082 A  
HETATM   29  C   UNL     1      -6.809   8.831  65.372  1.00  0.00    -0.072 C  
HETATM   30  C   UNL     1      -6.995   7.618  66.254  1.00  0.00    -0.066 A  
BRANCH  24  31
HETATM   31  O   UNL     1      -7.384   4.123  68.552  1.00  0.00    -0.055 OA 
HETATM   32  C   UNL     1      -6.230   3.622  69.218  1.00  0.00    -0.028 C  
ENDBRANCH  24  31
BRANCH  25  33
HETATM   33  O   UNL     1      -8.017   4.037  65.983  1.00  0.00    -0.093 OA 
HETATM   34  C   UNL     1      -8.852   4.055  64.833  1.00  0.00    -0.129 C  
ENDBRANCH  25  33
ENDBRANCH  18  19
ENDBRANCH  17  18
ENDBRANCH  16  17
ENDBRANCH  14  16
ENDBRANCH  13  14
ENDBRANCH   9  13
ENDBRANCH   2   3
TORSDOF 10
ENDMDL
MODEL      185
REMARK 921   NORMALIZED FREE ENERGY PREDICTED BY IDOCK:   -4.06 KCAL/MOL
REMARK 922        TOTAL FREE ENERGY PREDICTED BY IDOCK:   -8.40 KCAL/MOL
REMARK 923 INTER-LIGAND FREE ENERGY PREDICTED BY IDOCK:   -6.75 KCAL/MOL
REMARK 924 INTRA-LIGAND FREE ENERGY PREDICTED BY IDOCK:   -1.65 KCAL/MOL
REMARK 927      BINDING AFFINITY PREDICTED BY RF-SCORE:    0.00 PKD
ROOT
HETATM    1  C   UNL     1     -12.812  15.157  73.928  1.00  0.00    -0.313 C  
HETATM    2  O   UNL     1     -13.548  14.815  72.758  1.00  0.00    -0.456 OA 
ENDROOT
BRANCH   2   3
HETATM    3  C   UNL     1     -13.029  13.843  71.941  1.00  0.00    -0.354 A  
HETATM    4  C   UNL     1     -12.171  14.026  70.823  1.00  0.00    -0.367 A  
HETATM    5  C   UNL     1     -13.432  12.533  72.321  1.00  0.00    -0.490 A  
HETATM    6  C   UNL     1     -11.790  12.918  70.066  1.00  0.00    -0.356 A  
HETATM    7  C   UNL     1     -13.005  11.469  71.549  1.00  0.00    -0.485 A  
HETATM    8  C   UNL     1     -12.280  11.692  70.421  1.00  0.00    -0.434 A  
HETATM    9  C   UNL     1     -12.292  10.257  69.957  1.00  0.00    -0.158 C  
HETATM   10  C   UNL     1     -12.905   9.968  71.400  1.00  0.00    -0.519 C  
BRANCH   4  11
HETATM   11  O   UNL     1     -11.689  15.270  70.513  1.00  0.00    -0.268 OA 
HETATM   12  C   UNL     1     -11.651  15.606  69.127  1.00  0.00    -0.383 C  
ENDBRANCH   4  11
BRANCH   9  13
HETATM   13  C   UNL     1     -10.896   9.962  69.390  1.00  0.00    -0.237 C  
BRANCH  13  14
HETATM   14  N   UNL     1     -10.753   8.811  68.497  1.00  0.00    -0.122 NA 
HETATM   15  C   UNL     1     -11.410   7.628  69.028  1.00  0.00     0.475 C  
BRANCH  14  16
HETATM   16  C   UNL     1     -11.015   9.118  67.086  1.00  0.00     0.144 C  
BRANCH  16  17
HETATM   17  C   UNL     1      -9.733   9.112  66.256  1.00  0.00    -0.344 C  
BRANCH  17  18
HETATM   18  C   UNL     1      -9.695  10.215  65.190  1.00  0.00    -0.304 C  
BRANCH  18  19
HETATM   19  N   UNL     1      -9.155  11.442  65.779  1.00  0.00    -0.206 N  
HETATM   20  C   UNL     1      -8.179  11.294  66.854  1.00  0.00    -0.153 C  
HETATM   21  C   UNL     1      -8.641  11.956  68.141  1.00  0.00    -0.165 C  
HETATM   22  C   UNL     1      -8.191  13.390  68.118  1.00  0.00    -0.160 A  
HETATM   23  C   UNL     1      -7.274  13.816  69.088  1.00  0.00    -0.016 A  
HETATM   24  C   UNL     1      -6.774  15.118  69.088  1.00  0.00    -0.130 A  
HETATM   25  C   UNL     1      -7.197  16.017  68.094  1.00  0.00    -0.131 A  
HETATM   26  O   UNL     1      -9.675  12.753  63.980  1.00  0.00    -0.138 OA 
HETATM   27  C   UNL     1      -9.414  12.668  65.183  1.00  0.00     0.254 C  
HETATM   28  C   UNL     1      -8.113  15.586  67.121  1.00  0.00    -0.249 A  
HETATM   29  C   UNL     1      -9.652  13.869  66.093  1.00  0.00    -0.249 C  
HETATM   30  C   UNL     1      -8.609  14.269  67.111  1.00  0.00    -0.234 A  
BRANCH  24  31
HETATM   31  O   UNL     1      -5.847  15.566  69.997  1.00  0.00    -0.134 OA 
HETATM   32  C   UNL     1      -5.972  15.068  71.325  1.00  0.00     0.251 C  
ENDBRANCH  24  31
BRANCH  25  33
HETATM   33  O   UNL     1      -6.671  17.284  68.160  1.00  0.00    -0.171 OA 
HETATM   34  C   UNL     1      -6.096  17.818  66.975  1.00  0.00    -0.148 C  
ENDBRANCH  25  33
ENDBRANCH  18  19
ENDBRANCH  17  18
ENDBRANCH  16  17
ENDBRANCH  14  16
ENDBRANCH  13  14
ENDBRANCH   9  13
ENDBRANCH   2   3
TORSDOF 10
ENDMDL
MODEL      186
REMARK 921   NORMALIZED FREE ENERGY PREDICTED BY IDOCK:   -4.06 KCAL/MOL
REMARK 922        TOTAL FREE ENERGY PREDICTED BY IDOCK:   -8.40 KCAL/MOL
REMARK 923 INTER-LIGAND FREE ENERGY PREDICTED BY IDOCK:   -7.43 KCAL/MOL
REMARK 924 INTRA-LIGAND FREE ENERGY PREDICTED BY IDOCK:   -0.96 KCAL/MOL
REMARK 927      BINDING AFFINITY PREDICTED BY RF-SCORE:    0.00 PKD
ROOT
HETATM    1  C   UNL     1      -9.811   6.538  71.645  1.00  0.00    -0.167 C  
HETATM    2  O   UNL     1     -10.611   7.462  72.376  1.00  0.00    -0.219 OA 
ENDROOT
BRANCH   2   3
HETATM    3  C   UNL     1     -11.092   8.557  71.705  1.00  0.00    -0.307 A  
HETATM    4  C   UNL     1     -12.365   9.170  71.857  1.00  0.00    -0.385 A  
HETATM    5  C   UNL     1     -10.153   9.090  70.779  1.00  0.00    -0.303 A  
HETATM    6  C   UNL     1     -12.706  10.248  71.040  1.00  0.00    -0.491 A  
HETATM    7  C   UNL     1     -10.535  10.174  70.012  1.00  0.00    -0.325 A  
HETATM    8  C   UNL     1     -11.801  10.662  70.102  1.00  0.00    -0.421 A  
HETATM    9  C   UNL     1     -11.660  11.638  68.961  1.00  0.00    -0.379 C  
HETATM   10  C   UNL     1     -10.116  11.252  69.038  1.00  0.00    -0.147 C  
BRANCH   4  11
HETATM   11  O   UNL     1     -13.236   8.734  72.821  1.00  0.00    -0.355 OA 
HETATM   12  C   UNL     1     -14.392   8.037  72.359  1.00  0.00    -0.148 C  
ENDBRANCH   4  11
BRANCH   9  13
HETATM   13  C   UNL     1     -12.389  12.921  69.382  1.00  0.00     0.055 C  
BRANCH  13  14
HETATM   14  N   UNL     1     -12.090  14.149  68.643  1.00  0.00    -0.325 NA 
HETATM   15  C   UNL     1     -10.915  14.824  69.167  1.00  0.00    -0.267 C  
BRANCH  14  16
HETATM   16  C   UNL     1     -12.150  13.993  67.184  1.00  0.00    -0.401 C  
BRANCH  16  17
HETATM   17  C   UNL     1     -10.851  14.433  66.513  1.00  0.00    -0.310 C  
BRANCH  17  18
HETATM   18  C   UNL     1     -10.771  14.043  65.031  1.00  0.00    -0.396 C  
BRANCH  18  19
HETATM   19  N   UNL     1     -10.203  12.698  64.912  1.00  0.00    -0.288 N  
HETATM   20  C   UNL     1      -9.575  12.131  66.099  1.00  0.00    -0.240 C  
HETATM   21  C   UNL     1      -8.114  11.786  65.865  1.00  0.00     0.425 C  
HETATM   22  C   UNL     1      -8.044  10.383  65.329  1.00  0.00    -0.152 A  
HETATM   23  C   UNL     1      -7.394   9.408  66.096  1.00  0.00    -0.096 A  
HETATM   24  C   UNL     1      -7.342   8.078  65.682  1.00  0.00    -0.079 A  
HETATM   25  C   UNL     1      -7.958   7.710  64.473  1.00  0.00    -0.130 A  
HETATM   26  O   UNL     1     -11.457  12.132  63.086  1.00  0.00    -0.339 OA 
HETATM   27  C   UNL     1     -10.452  11.941  63.777  1.00  0.00    -0.423 C  
HETATM   28  C   UNL     1      -8.613   8.688  63.708  1.00  0.00    -0.011 A  
HETATM   29  C   UNL     1      -9.324  11.065  63.240  1.00  0.00    -0.319 C  
HETATM   30  C   UNL     1      -8.677  10.029  64.130  1.00  0.00    -0.221 A  
BRANCH  24  31
HETATM   31  O   UNL     1      -6.747   7.084  66.420  1.00  0.00    -0.050 OA 
HETATM   32  C   UNL     1      -5.346   6.913  66.237  1.00  0.00    -0.022 C  
ENDBRANCH  24  31
BRANCH  25  33
HETATM   33  O   UNL     1      -7.861   6.386  64.123  1.00  0.00    -0.110 OA 
HETATM   34  C   UNL     1      -7.723   6.080  62.742  1.00  0.00    -0.088 C  
ENDBRANCH  25  33
ENDBRANCH  18  19
ENDBRANCH  17  18
ENDBRANCH  16  17
ENDBRANCH  14  16
ENDBRANCH  13  14
ENDBRANCH   9  13
ENDBRANCH   2   3
TORSDOF 10
ENDMDL
MODEL      187
REMARK 921   NORMALIZED FREE ENERGY PREDICTED BY IDOCK:   -4.03 KCAL/MOL
REMARK 922        TOTAL FREE ENERGY PREDICTED BY IDOCK:   -8.35 KCAL/MOL
REMARK 923 INTER-LIGAND FREE ENERGY PREDICTED BY IDOCK:   -8.10 KCAL/MOL
REMARK 924 INTRA-LIGAND FREE ENERGY PREDICTED BY IDOCK:   -0.25 KCAL/MOL
REMARK 927      BINDING AFFINITY PREDICTED BY RF-SCORE:    0.00 PKD
ROOT
HETATM    1  C   UNL     1      -5.262  11.130  66.492  1.00  0.00    -0.112 C  
HETATM    2  O   UNL     1      -5.507   9.751  66.750  1.00  0.00    -0.044 OA 
ENDROOT
BRANCH   2   3
HETATM    3  C   UNL     1      -6.537   9.436  67.599  1.00  0.00    -0.063 A  
HETATM    4  C   UNL     1      -7.894   9.191  67.254  1.00  0.00    -0.099 A  
HETATM    5  C   UNL     1      -6.124   9.353  68.958  1.00  0.00    -0.042 A  
HETATM    6  C   UNL     1      -8.822   8.943  68.265  1.00  0.00    -0.134 A  
HETATM    7  C   UNL     1      -7.082   9.081  69.916  1.00  0.00    -0.053 A  
HETATM    8  C   UNL     1      -8.389   8.966  69.561  1.00  0.00    -0.119 A  
HETATM    9  C   UNL     1      -8.912   8.871  70.973  1.00  0.00    -0.298 C  
HETATM   10  C   UNL     1      -7.372   8.739  71.360  1.00  0.00    -0.117 C  
BRANCH   4  11
HETATM   11  O   UNL     1      -8.281   9.161  65.940  1.00  0.00    -0.108 OA 
HETATM   12  C   UNL     1      -9.678   8.997  65.697  1.00  0.00    -0.108 C  
ENDBRANCH   4  11
BRANCH   9  13
HETATM   13  C   UNL     1     -10.030   7.820  70.962  1.00  0.00    -0.177 C  
BRANCH  13  14
HETATM   14  N   UNL     1     -11.354   8.227  71.438  1.00  0.00    -0.253 NA 
HETATM   15  C   UNL     1     -11.692   7.596  72.702  1.00  0.00    -0.270 C  
BRANCH  14  16
HETATM   16  C   UNL     1     -11.598   9.672  71.350  1.00  0.00    -0.400 C  
BRANCH  16  17
HETATM   17  C   UNL     1     -11.466  10.185  69.918  1.00  0.00    -0.317 C  
BRANCH  17  18
HETATM   18  C   UNL     1     -12.590  11.145  69.510  1.00  0.00     0.068 C  
BRANCH  18  19
HETATM   19  N   UNL     1     -12.007  12.377  68.974  1.00  0.00    -0.279 N  
HETATM   20  C   UNL     1     -11.413  13.306  69.930  1.00  0.00    -0.100 C  
HETATM   21  C   UNL     1     -12.075  14.672  69.885  1.00  0.00    -0.385 C  
HETATM   22  C   UNL     1     -11.368  15.503  68.851  1.00  0.00    -0.329 A  
HETATM   23  C   UNL     1     -10.689  16.654  69.271  1.00  0.00    -0.337 A  
HETATM   24  C   UNL     1      -9.967  17.437  68.371  1.00  0.00    -0.329 A  
HETATM   25  C   UNL     1      -9.916  17.059  67.018  1.00  0.00    -0.288 A  
HETATM   26  O   UNL     1     -11.747  11.550  66.859  1.00  0.00    -0.533 OA 
HETATM   27  C   UNL     1     -11.849  12.528  67.604  1.00  0.00    -0.317 C  
HETATM   28  C   UNL     1     -10.594  15.902  66.600  1.00  0.00    -0.305 A  
HETATM   29  C   UNL     1     -12.091  13.910  67.005  1.00  0.00    -0.451 C  
HETATM   30  C   UNL     1     -11.313  15.104  67.509  1.00  0.00    -0.325 A  
BRANCH  24  31
HETATM   31  O   UNL     1      -9.258  18.552  68.746  1.00  0.00    -0.319 OA 
HETATM   32  C   UNL     1      -9.939  19.797  68.645  1.00  0.00    -0.434 C  
ENDBRANCH  24  31
BRANCH  25  33
HETATM   33  O   UNL     1      -9.195  17.879  66.187  1.00  0.00    -0.466 OA 
HETATM   34  C   UNL     1      -7.785  17.705  66.153  1.00  0.00    -0.258 C  
ENDBRANCH  25  33
ENDBRANCH  18  19
ENDBRANCH  17  18
ENDBRANCH  16  17
ENDBRANCH  14  16
ENDBRANCH  13  14
ENDBRANCH   9  13
ENDBRANCH   2   3
TORSDOF 10
ENDMDL
MODEL      188
REMARK 921   NORMALIZED FREE ENERGY PREDICTED BY IDOCK:   -4.01 KCAL/MOL
REMARK 922        TOTAL FREE ENERGY PREDICTED BY IDOCK:   -8.32 KCAL/MOL
REMARK 923 INTER-LIGAND FREE ENERGY PREDICTED BY IDOCK:   -5.95 KCAL/MOL
REMARK 924 INTRA-LIGAND FREE ENERGY PREDICTED BY IDOCK:   -2.38 KCAL/MOL
REMARK 927      BINDING AFFINITY PREDICTED BY RF-SCORE:    0.00 PKD
ROOT
HETATM    1  C   UNL     1     -14.378   8.397  72.339  1.00  0.00    -0.284 C  
HETATM    2  O   UNL     1     -13.121   9.010  72.607  1.00  0.00    -0.426 OA 
ENDROOT
BRANCH   2   3
HETATM    3  C   UNL     1     -12.355   9.387  71.534  1.00  0.00    -0.370 A  
HETATM    4  C   UNL     1     -11.248   8.690  70.977  1.00  0.00    -0.271 A  
HETATM    5  C   UNL     1     -12.779  10.618  70.961  1.00  0.00    -0.512 A  
HETATM    6  C   UNL     1     -10.545   9.260  69.916  1.00  0.00    -0.246 A  
HETATM    7  C   UNL     1     -12.060  11.125  69.895  1.00  0.00    -0.418 A  
HETATM    8  C   UNL     1     -10.939  10.488  69.463  1.00  0.00    -0.312 A  
HETATM    9  C   UNL     1     -10.534  11.560  68.482  1.00  0.00    -0.228 C  
HETATM   10  C   UNL     1     -11.974  12.164  68.800  1.00  0.00    -0.292 C  
BRANCH   4  11
HETATM   11  O   UNL     1     -10.898   7.453  71.451  1.00  0.00    -0.228 OA 
HETATM   12  C   UNL     1     -10.359   7.412  72.772  1.00  0.00    -0.258 C  
ENDBRANCH   4  11
BRANCH   9  13
HETATM   13  C   UNL     1     -10.009  10.842  67.232  1.00  0.00    -0.187 C  
BRANCH  13  14
HETATM   14  N   UNL     1      -9.416  11.661  66.174  1.00  0.00    -0.219 NA 
HETATM   15  C   UNL     1      -8.665  12.782  66.713  1.00  0.00    -0.121 C  
BRANCH  14  16
HETATM   16  C   UNL     1      -8.749  10.883  65.122  1.00  0.00    -0.122 C  
BRANCH  16  17
HETATM   17  C   UNL     1      -8.251   9.537  65.643  1.00  0.00    -0.120 C  
BRANCH  17  18
HETATM   18  C   UNL     1      -6.793   9.572  66.120  1.00  0.00    -0.090 C  
BRANCH  18  19
HETATM   19  N   UNL     1      -6.726   9.119  67.511  1.00  0.00    -0.068 N  
HETATM   20  C   UNL     1      -6.758   7.680  67.747  1.00  0.00    -0.067 C  
HETATM   21  C   UNL     1      -7.932   7.270  68.620  1.00  0.00    -0.124 C  
HETATM   22  C   UNL     1      -7.500   7.355  70.058  1.00  0.00    -0.084 A  
HETATM   23  C   UNL     1      -7.467   6.177  70.814  1.00  0.00    -0.091 A  
HETATM   24  C   UNL     1      -7.023   6.179  72.136  1.00  0.00    -0.078 A  
HETATM   25  C   UNL     1      -6.597   7.386  72.717  1.00  0.00    -0.060 A  
HETATM   26  O   UNL     1      -5.796  11.057  68.289  1.00  0.00    -0.046 OA 
HETATM   27  C   UNL     1      -6.432  10.025  68.520  1.00  0.00    -0.049 C  
HETATM   28  C   UNL     1      -6.626   8.564  71.954  1.00  0.00    -0.077 A  
HETATM   29  C   UNL     1      -7.151   9.866  69.856  1.00  0.00    -0.118 C  
HETATM   30  C   UNL     1      -7.063   8.563  70.616  1.00  0.00    -0.047 A  
BRANCH  24  31
HETATM   31  O   UNL     1      -6.941   5.041  72.902  1.00  0.00    -0.076 OA 
HETATM   32  C   UNL     1      -8.073   4.179  72.876  1.00  0.00    -0.089 C  
ENDBRANCH  24  31
BRANCH  25  33
HETATM   33  O   UNL     1      -6.181   7.315  74.023  1.00  0.00    -0.074 OA 
HETATM   34  C   UNL     1      -5.324   8.346  74.496  1.00  0.00    -0.093 C  
ENDBRANCH  25  33
ENDBRANCH  18  19
ENDBRANCH  17  18
ENDBRANCH  16  17
ENDBRANCH  14  16
ENDBRANCH  13  14
ENDBRANCH   9  13
ENDBRANCH   2   3
TORSDOF 10
ENDMDL
MODEL      189
REMARK 921   NORMALIZED FREE ENERGY PREDICTED BY IDOCK:   -4.01 KCAL/MOL
REMARK 922        TOTAL FREE ENERGY PREDICTED BY IDOCK:   -8.32 KCAL/MOL
REMARK 923 INTER-LIGAND FREE ENERGY PREDICTED BY IDOCK:   -6.40 KCAL/MOL
REMARK 924 INTRA-LIGAND FREE ENERGY PREDICTED BY IDOCK:   -1.92 KCAL/MOL
REMARK 927      BINDING AFFINITY PREDICTED BY RF-SCORE:    0.00 PKD
ROOT
HETATM    1  C   UNL     1      -7.936  15.874  67.177  1.00  0.00    -0.209 C  
HETATM    2  O   UNL     1      -7.637  15.319  68.454  1.00  0.00    -0.110 OA 
ENDROOT
BRANCH   2   3
HETATM    3  C   UNL     1      -7.216  14.014  68.498  1.00  0.00    -0.109 A  
HETATM    4  C   UNL     1      -6.525  13.368  69.559  1.00  0.00    -0.083 A  
HETATM    5  C   UNL     1      -7.549  13.288  67.322  1.00  0.00    -0.079 A  
HETATM    6  C   UNL     1      -6.118  12.043  69.402  1.00  0.00    -0.098 A  
HETATM    7  C   UNL     1      -7.141  11.971  67.229  1.00  0.00    -0.149 A  
HETATM    8  C   UNL     1      -6.384  11.420  68.215  1.00  0.00    -0.046 A  
HETATM    9  C   UNL     1      -6.122  10.125  67.487  1.00  0.00    -0.057 C  
HETATM   10  C   UNL     1      -7.219  10.668  66.466  1.00  0.00    -0.134 C  
BRANCH   4  11
HETATM   11  O   UNL     1      -6.294  14.024  70.740  1.00  0.00    -0.123 OA 
HETATM   12  C   UNL     1      -5.126  13.635  71.461  1.00  0.00    -0.163 C  
ENDBRANCH   4  11
BRANCH   9  13
HETATM   13  C   UNL     1      -6.203   9.005  68.533  1.00  0.00    -0.049 C  
BRANCH  13  14
HETATM   14  N   UNL     1      -6.728   7.708  68.103  1.00  0.00    -0.057 NA 
HETATM   15  C   UNL     1      -5.664   6.776  67.769  1.00  0.00    -0.019 C  
BRANCH  14  16
HETATM   16  C   UNL     1      -7.798   7.186  68.962  1.00  0.00    -0.114 C  
BRANCH  16  17
HETATM   17  C   UNL     1      -8.641   6.136  68.244  1.00  0.00    -0.116 C  
BRANCH  17  18
HETATM   18  C   UNL     1     -10.124   6.174  68.637  1.00  0.00    -0.162 C  
BRANCH  18  19
HETATM   19  N   UNL     1     -10.537   7.565  68.838  1.00  0.00    -0.199 N  
HETATM   20  C   UNL     1     -10.843   8.350  67.648  1.00  0.00    -0.008 C  
HETATM   21  C   UNL     1      -9.959   9.580  67.531  1.00  0.00    -0.235 C  
HETATM   22  C   UNL     1     -10.622  10.707  68.273  1.00  0.00    -0.227 A  
HETATM   23  C   UNL     1     -11.034  11.832  67.548  1.00  0.00    -0.310 A  
HETATM   24  C   UNL     1     -11.704  12.886  68.167  1.00  0.00    -0.352 A  
HETATM   25  C   UNL     1     -11.975  12.814  69.545  1.00  0.00    -0.276 A  
HETATM   26  O   UNL     1     -11.180   7.251  71.010  1.00  0.00    -0.253 OA 
HETATM   27  C   UNL     1     -10.821   8.024  70.116  1.00  0.00    -0.242 C  
HETATM   28  C   UNL     1     -11.566  11.683  70.269  1.00  0.00    -0.254 A  
HETATM   29  C   UNL     1     -10.408   9.448  70.473  1.00  0.00    -0.341 C  
HETATM   30  C   UNL     1     -10.899  10.612  69.643  1.00  0.00    -0.318 A  
BRANCH  24  31
HETATM   31  O   UNL     1     -12.156  13.991  67.488  1.00  0.00    -0.391 OA 
HETATM   32  C   UNL     1     -12.355  13.834  66.087  1.00  0.00    -0.452 C  
ENDBRANCH  24  31
BRANCH  25  33
HETATM   33  O   UNL     1     -12.630  13.890  70.090  1.00  0.00    -0.314 OA 
HETATM   34  C   UNL     1     -12.186  14.357  71.357  1.00  0.00    -0.352 C  
ENDBRANCH  25  33
ENDBRANCH  18  19
ENDBRANCH  17  18
ENDBRANCH  16  17
ENDBRANCH  14  16
ENDBRANCH  13  14
ENDBRANCH   9  13
ENDBRANCH   2   3
TORSDOF 10
ENDMDL
MODEL      190
REMARK 921   NORMALIZED FREE ENERGY PREDICTED BY IDOCK:   -4.00 KCAL/MOL
REMARK 922        TOTAL FREE ENERGY PREDICTED BY IDOCK:   -8.30 KCAL/MOL
REMARK 923 INTER-LIGAND FREE ENERGY PREDICTED BY IDOCK:   -6.36 KCAL/MOL
REMARK 924 INTRA-LIGAND FREE ENERGY PREDICTED BY IDOCK:   -1.93 KCAL/MOL
REMARK 927      BINDING AFFINITY PREDICTED BY RF-SCORE:    0.00 PKD
ROOT
HETATM    1  C   UNL     1      -7.872  16.112  67.993  1.00  0.00    -0.144 C  
HETATM    2  O   UNL     1      -7.584  15.519  69.256  1.00  0.00    -0.188 OA 
ENDROOT
BRANCH   2   3
HETATM    3  C   UNL     1      -7.101  14.235  69.260  1.00  0.00    -0.107 A  
HETATM    4  C   UNL     1      -6.006  13.729  70.012  1.00  0.00    -0.144 A  
HETATM    5  C   UNL     1      -7.832  13.370  68.401  1.00  0.00    -0.138 A  
HETATM    6  C   UNL     1      -5.616  12.401  69.842  1.00  0.00    -0.113 A  
HETATM    7  C   UNL     1      -7.417  12.056  68.288  1.00  0.00    -0.106 A  
HETATM    8  C   UNL     1      -6.297  11.637  68.934  1.00  0.00    -0.062 A  
HETATM    9  C   UNL     1      -6.270  10.269  68.302  1.00  0.00    -0.048 C  
HETATM   10  C   UNL     1      -7.714  10.671  67.760  1.00  0.00    -0.100 C  
BRANCH   4  11
HETATM   11  O   UNL     1      -5.362  14.524  70.923  1.00  0.00    -0.125 OA 
HETATM   12  C   UNL     1      -5.452  14.120  72.289  1.00  0.00    -0.180 C  
ENDBRANCH   4  11
BRANCH   9  13
HETATM   13  C   UNL     1      -5.857   9.280  69.400  1.00  0.00    -0.034 C  
BRANCH  13  14
HETATM   14  N   UNL     1      -6.266   7.882  69.248  1.00  0.00    -0.034 NA 
HETATM   15  C   UNL     1      -5.163   7.038  68.822  1.00  0.00    -0.017 C  
BRANCH  14  16
HETATM   16  C   UNL     1      -7.075   7.375  70.364  1.00  0.00    -0.064 C  
BRANCH  16  17
HETATM   17  C   UNL     1      -8.275   6.569  69.875  1.00  0.00    -0.126 C  
BRANCH  17  18
HETATM   18  C   UNL     1      -9.613   7.073  70.431  1.00  0.00    -0.169 C  
BRANCH  18  19
HETATM   19  N   UNL     1      -9.974   8.327  69.765  1.00  0.00    -0.188 N  
HETATM   20  C   UNL     1     -10.015   9.532  70.586  1.00  0.00    -0.276 C  
HETATM   21  C   UNL     1     -11.386  10.185  70.575  1.00  0.00    -0.416 C  
HETATM   22  C   UNL     1     -11.441  11.142  69.417  1.00  0.00    -0.368 A  
HETATM   23  C   UNL     1     -11.599  12.507  69.687  1.00  0.00    -0.323 A  
HETATM   24  C   UNL     1     -11.602  13.451  68.661  1.00  0.00    -0.327 A  
HETATM   25  C   UNL     1     -11.438  13.023  67.332  1.00  0.00    -0.332 A  
HETATM   26  O   UNL     1      -9.431   7.585  67.672  1.00  0.00    -0.136 OA 
HETATM   27  C   UNL     1     -10.060   8.375  68.381  1.00  0.00    -0.198 C  
HETATM   28  C   UNL     1     -11.276  11.655  67.064  1.00  0.00    -0.376 A  
HETATM   29  C   UNL     1     -11.161   9.231  67.762  1.00  0.00     0.083 C  
HETATM   30  C   UNL     1     -11.261  10.701  68.100  1.00  0.00    -0.366 A  
BRANCH  24  31
HETATM   31  O   UNL     1     -11.717  14.802  68.884  1.00  0.00    -0.286 OA 
HETATM   32  C   UNL     1     -11.001  15.322  69.999  1.00  0.00    -0.288 C  
ENDBRANCH  24  31
BRANCH  25  33
HETATM   33  O   UNL     1     -11.460  14.005  66.372  1.00  0.00    -0.329 OA 
HETATM   34  C   UNL     1     -10.283  14.193  65.599  1.00  0.00    -0.339 C  
ENDBRANCH  25  33
ENDBRANCH  18  19
ENDBRANCH  17  18
ENDBRANCH  16  17
ENDBRANCH  14  16
ENDBRANCH  13  14
ENDBRANCH   9  13
ENDBRANCH   2   3
TORSDOF 10
ENDMDL
MODEL      191
REMARK 921   NORMALIZED FREE ENERGY PREDICTED BY IDOCK:   -4.00 KCAL/MOL
REMARK 922        TOTAL FREE ENERGY PREDICTED BY IDOCK:   -8.30 KCAL/MOL
REMARK 923 INTER-LIGAND FREE ENERGY PREDICTED BY IDOCK:   -6.54 KCAL/MOL
REMARK 924 INTRA-LIGAND FREE ENERGY PREDICTED BY IDOCK:   -1.75 KCAL/MOL
REMARK 927      BINDING AFFINITY PREDICTED BY RF-SCORE:    0.00 PKD
ROOT
HETATM    1  C   UNL     1      -9.332   7.817  73.471  1.00  0.00    -0.290 C  
HETATM    2  O   UNL     1      -9.870   8.660  72.456  1.00  0.00    -0.285 OA 
ENDROOT
BRANCH   2   3
HETATM    3  C   UNL     1     -10.111   8.101  71.227  1.00  0.00    -0.195 A  
HETATM    4  C   UNL     1     -10.614   8.754  70.068  1.00  0.00    -0.223 A  
HETATM    5  C   UNL     1      -9.791   6.716  71.179  1.00  0.00    -0.195 A  
HETATM    6  C   UNL     1     -10.856   8.007  68.915  1.00  0.00    -0.001 A  
HETATM    7  C   UNL     1     -10.028   6.031  70.003  1.00  0.00    -0.227 A  
HETATM    8  C   UNL     1     -10.617   6.661  68.952  1.00  0.00    -0.264 A  
HETATM    9  C   UNL     1     -10.769   5.421  68.108  1.00  0.00    -0.076 C  
HETATM   10  C   UNL     1      -9.849   4.749  69.222  1.00  0.00    -0.269 C  
BRANCH   4  11
HETATM   11  O   UNL     1     -10.823  10.107  70.069  1.00  0.00    -0.266 OA 
HETATM   12  C   UNL     1     -12.015  10.562  70.709  1.00  0.00    -0.370 C  
ENDBRANCH   4  11
BRANCH   9  13
HETATM   13  C   UNL     1     -10.450   5.826  66.662  1.00  0.00    -0.268 C  
BRANCH  13  14
HETATM   14  N   UNL     1      -9.259   5.246  66.039  1.00  0.00    -0.155 NA 
HETATM   15  C   UNL     1      -9.557   3.995  65.363  1.00  0.00    -0.188 C  
BRANCH  14  16
HETATM   16  C   UNL     1      -8.452   6.213  65.285  1.00  0.00    -0.120 C  
BRANCH  16  17
HETATM   17  C   UNL     1      -8.579   7.624  65.853  1.00  0.00    -0.164 C  
BRANCH  17  18
HETATM   18  C   UNL     1      -8.369   8.723  64.804  1.00  0.00    -0.168 C  
BRANCH  18  19
HETATM   19  N   UNL     1      -8.514  10.035  65.439  1.00  0.00    -0.143 N  
HETATM   20  C   UNL     1      -7.310  10.648  65.987  1.00  0.00    -0.132 C  
HETATM   21  C   UNL     1      -7.434  10.921  67.476  1.00  0.00    -0.097 C  
HETATM   22  C   UNL     1      -8.040  12.285  67.655  1.00  0.00    -0.165 A  
HETATM   23  C   UNL     1      -7.275  13.278  68.279  1.00  0.00    -0.108 A  
HETATM   24  C   UNL     1      -7.758  14.578  68.424  1.00  0.00    -0.128 A  
HETATM   25  C   UNL     1      -9.035  14.897  67.931  1.00  0.00    -0.177 A  
HETATM   26  O   UNL     1     -10.472  10.539  64.372  1.00  0.00    -0.304 OA 
HETATM   27  C   UNL     1      -9.708  10.732  65.321  1.00  0.00    -0.255 C  
HETATM   28  C   UNL     1      -9.798  13.900  67.302  1.00  0.00    -0.244 A  
HETATM   29  C   UNL     1     -10.192  11.529  66.529  1.00  0.00    -0.253 C  
HETATM   30  C   UNL     1      -9.308  12.590  67.143  1.00  0.00    -0.201 A  
BRANCH  24  31
HETATM   31  O   UNL     1      -7.027  15.591  68.997  1.00  0.00    -0.123 OA 
HETATM   32  C   UNL     1      -6.510  15.338  70.299  1.00  0.00    -0.030 C  
ENDBRANCH  24  31
BRANCH  25  33
HETATM   33  O   UNL     1      -9.450  16.192  68.116  1.00  0.00    -0.206 OA 
HETATM   34  C   UNL     1      -9.620  16.999  66.959  1.00  0.00    -0.254 C  
ENDBRANCH  25  33
ENDBRANCH  18  19
ENDBRANCH  17  18
ENDBRANCH  16  17
ENDBRANCH  14  16
ENDBRANCH  13  14
ENDBRANCH   9  13
ENDBRANCH   2   3
TORSDOF 10
ENDMDL
MODEL      192
REMARK 921   NORMALIZED FREE ENERGY PREDICTED BY IDOCK:   -3.99 KCAL/MOL
REMARK 922        TOTAL FREE ENERGY PREDICTED BY IDOCK:   -8.28 KCAL/MOL
REMARK 923 INTER-LIGAND FREE ENERGY PREDICTED BY IDOCK:   -6.95 KCAL/MOL
REMARK 924 INTRA-LIGAND FREE ENERGY PREDICTED BY IDOCK:   -1.33 KCAL/MOL
REMARK 927      BINDING AFFINITY PREDICTED BY RF-SCORE:    0.00 PKD
ROOT
HETATM    1  C   UNL     1      -5.889  11.919  70.406  1.00  0.00    -0.155 C  
HETATM    2  O   UNL     1      -6.496  13.177  70.689  1.00  0.00     0.082 OA 
ENDROOT
BRANCH   2   3
HETATM    3  C   UNL     1      -6.803  13.988  69.626  1.00  0.00    -0.017 A  
HETATM    4  C   UNL     1      -7.309  13.592  68.358  1.00  0.00    -0.118 A  
HETATM    5  C   UNL     1      -6.572  15.364  69.900  1.00  0.00    -0.144 A  
HETATM    6  C   UNL     1      -7.506  14.557  67.370  1.00  0.00    -0.194 A  
HETATM    7  C   UNL     1      -6.807  16.280  68.892  1.00  0.00    -0.165 A  
HETATM    8  C   UNL     1      -7.182  15.853  67.657  1.00  0.00    -0.182 A  
HETATM    9  C   UNL     1      -7.095  17.210  67.004  1.00  0.00    -0.225 C  
HETATM   10  C   UNL     1      -6.919  17.736  68.499  1.00  0.00    -0.238 C  
BRANCH   4  11
HETATM   11  O   UNL     1      -7.638  12.284  68.119  1.00  0.00    -0.108 OA 
HETATM   12  C   UNL     1      -6.777  11.568  67.236  1.00  0.00    -0.112 C  
ENDBRANCH   4  11
BRANCH   9  13
HETATM   13  C   UNL     1      -8.288  17.318  66.045  1.00  0.00    -0.119 C  
BRANCH  13  14
HETATM   14  N   UNL     1      -9.337  18.287  66.367  1.00  0.00    -0.389 NA 
HETATM   15  C   UNL     1      -8.856  19.655  66.278  1.00  0.00    -0.371 C  
BRANCH  14  16
HETATM   16  C   UNL     1     -10.623  18.010  65.714  1.00  0.00    -0.169 C  
BRANCH  16  17
HETATM   17  C   UNL     1     -10.566  16.744  64.863  1.00  0.00     0.073 C  
BRANCH  17  18
HETATM   18  C   UNL     1     -11.784  15.831  65.049  1.00  0.00     0.098 C  
BRANCH  18  19
HETATM   19  N   UNL     1     -11.335  14.499  65.463  1.00  0.00    -0.328 N  
HETATM   20  C   UNL     1     -10.324  13.849  64.638  1.00  0.00    -0.339 C  
HETATM   21  C   UNL     1     -10.807  12.521  64.080  1.00  0.00    -0.420 C  
HETATM   22  C   UNL     1     -10.480  11.447  65.080  1.00  0.00    -0.361 A  
HETATM   23  C   UNL     1      -9.578  10.442  64.708  1.00  0.00    -0.352 A  
HETATM   24  C   UNL     1      -9.191   9.449  65.607  1.00  0.00    -0.226 A  
HETATM   25  C   UNL     1      -9.714   9.460  66.911  1.00  0.00    -0.186 A  
HETATM   26  O   UNL     1     -12.012  14.744  67.633  1.00  0.00    -0.345 OA 
HETATM   27  C   UNL     1     -11.713  13.995  66.699  1.00  0.00    -0.399 C  
HETATM   28  C   UNL     1     -10.615  10.471  67.283  1.00  0.00    -0.317 A  
HETATM   29  C   UNL     1     -12.028  12.506  66.797  1.00  0.00    -0.327 C  
HETATM   30  C   UNL     1     -10.998  11.481  66.381  1.00  0.00    -0.336 A  
BRANCH  24  31
HETATM   31  O   UNL     1      -8.282   8.467  65.295  1.00  0.00    -0.131 OA 
HETATM   32  C   UNL     1      -7.323   8.789  64.293  1.00  0.00    -0.103 C  
ENDBRANCH  24  31
BRANCH  25  33
HETATM   33  O   UNL     1      -9.296   8.448  67.740  1.00  0.00    -0.134 OA 
HETATM   34  C   UNL     1      -9.917   8.344  69.014  1.00  0.00    -0.190 C  
ENDBRANCH  25  33
ENDBRANCH  18  19
ENDBRANCH  17  18
ENDBRANCH  16  17
ENDBRANCH  14  16
ENDBRANCH  13  14
ENDBRANCH   9  13
ENDBRANCH   2   3
TORSDOF 10
ENDMDL
MODEL      193
REMARK 921   NORMALIZED FREE ENERGY PREDICTED BY IDOCK:   -3.98 KCAL/MOL
REMARK 922        TOTAL FREE ENERGY PREDICTED BY IDOCK:   -8.26 KCAL/MOL
REMARK 923 INTER-LIGAND FREE ENERGY PREDICTED BY IDOCK:   -7.26 KCAL/MOL
REMARK 924 INTRA-LIGAND FREE ENERGY PREDICTED BY IDOCK:   -1.00 KCAL/MOL
REMARK 927      BINDING AFFINITY PREDICTED BY RF-SCORE:    0.00 PKD
ROOT
HETATM    1  C   UNL     1      -6.474  17.691  68.245  1.00  0.00    -0.188 C  
HETATM    2  O   UNL     1      -7.573  17.075  67.581  1.00  0.00    -0.161 OA 
ENDROOT
BRANCH   2   3
HETATM    3  C   UNL     1      -7.570  15.708  67.479  1.00  0.00    -0.175 A  
HETATM    4  C   UNL     1      -8.665  14.866  67.140  1.00  0.00    -0.219 A  
HETATM    5  C   UNL     1      -6.294  15.139  67.747  1.00  0.00    -0.181 A  
HETATM    6  C   UNL     1      -8.490  13.483  67.145  1.00  0.00    -0.177 A  
HETATM    7  C   UNL     1      -6.172  13.763  67.715  1.00  0.00    -0.159 A  
HETATM    8  C   UNL     1      -7.266  12.986  67.500  1.00  0.00    -0.154 A  
HETATM    9  C   UNL     1      -6.565  11.676  67.758  1.00  0.00    -0.071 C  
HETATM   10  C   UNL     1      -5.245  12.569  67.746  1.00  0.00    -0.101 C  
BRANCH   4  11
HETATM   11  O   UNL     1      -9.869  15.407  66.775  1.00  0.00    -0.234 OA 
HETATM   12  C   UNL     1     -10.695  14.601  65.935  1.00  0.00    -0.309 C  
ENDBRANCH   4  11
BRANCH   9  13
HETATM   13  C   UNL     1      -7.100  10.674  66.726  1.00  0.00    -0.118 C  
BRANCH  13  14
HETATM   14  N   UNL     1      -6.958   9.248  67.023  1.00  0.00    -0.084 NA 
HETATM   15  C   UNL     1      -5.616   8.767  66.742  1.00  0.00    -0.040 C  
BRANCH  14  16
HETATM   16  C   UNL     1      -7.529   8.850  68.316  1.00  0.00    -0.087 C  
BRANCH  16  17
HETATM   17  C   UNL     1      -8.268   7.518  68.224  1.00  0.00    -0.125 C  
BRANCH  17  18
HETATM   18  C   UNL     1      -9.705   7.654  67.703  1.00  0.00    -0.152 C  
BRANCH  18  19
HETATM   19  N   UNL     1     -10.404   8.688  68.470  1.00  0.00    -0.202 N  
HETATM   20  C   UNL     1     -10.742   9.923  67.773  1.00  0.00    -0.277 C  
HETATM   21  C   UNL     1     -10.113  11.141  68.428  1.00  0.00    -0.193 C  
HETATM   22  C   UNL     1     -11.056  11.644  69.485  1.00  0.00    -0.230 A  
HETATM   23  C   UNL     1     -11.610  12.921  69.331  1.00  0.00    -0.363 A  
HETATM   24  C   UNL     1     -12.533  13.424  70.246  1.00  0.00    -0.215 A  
HETATM   25  C   UNL     1     -12.918  12.632  71.342  1.00  0.00    -0.258 A  
HETATM   26  O   UNL     1     -11.180   7.241  70.061  1.00  0.00    -0.263 OA 
HETATM   27  C   UNL     1     -10.896   8.397  69.734  1.00  0.00    -0.183 C  
HETATM   28  C   UNL     1     -12.364  11.350  71.492  1.00  0.00    -0.184 A  
HETATM   29  C   UNL     1     -10.811   9.483  70.802  1.00  0.00    -0.386 C  
HETATM   30  C   UNL     1     -11.441  10.836  70.562  1.00  0.00    -0.367 A  
BRANCH  24  31
HETATM   31  O   UNL     1     -13.128  14.656  70.114  1.00  0.00    -0.156 OA 
HETATM   32  C   UNL     1     -12.256  15.756  69.879  1.00  0.00    -0.248 C  
ENDBRANCH  24  31
BRANCH  25  33
HETATM   33  O   UNL     1     -13.824  13.193  72.207  1.00  0.00    -0.540 OA 
HETATM   34  C   UNL     1     -13.408  14.336  72.943  1.00  0.00    -0.462 C  
ENDBRANCH  25  33
ENDBRANCH  18  19
ENDBRANCH  17  18
ENDBRANCH  16  17
ENDBRANCH  14  16
ENDBRANCH  13  14
ENDBRANCH   9  13
ENDBRANCH   2   3
TORSDOF 10
ENDMDL
MODEL      194
REMARK 921   NORMALIZED FREE ENERGY PREDICTED BY IDOCK:   -3.97 KCAL/MOL
REMARK 922        TOTAL FREE ENERGY PREDICTED BY IDOCK:   -8.25 KCAL/MOL
REMARK 923 INTER-LIGAND FREE ENERGY PREDICTED BY IDOCK:   -7.75 KCAL/MOL
REMARK 924 INTRA-LIGAND FREE ENERGY PREDICTED BY IDOCK:   -0.50 KCAL/MOL
REMARK 927      BINDING AFFINITY PREDICTED BY RF-SCORE:    0.00 PKD
ROOT
HETATM    1  C   UNL     1      -9.547   3.798  67.200  1.00  0.00    -0.179 C  
HETATM    2  O   UNL     1      -8.679   4.172  66.134  1.00  0.00    -0.112 OA 
ENDROOT
BRANCH   2   3
HETATM    3  C   UNL     1      -8.472   5.511  65.921  1.00  0.00    -0.130 A  
HETATM    4  C   UNL     1      -7.320   6.127  65.363  1.00  0.00    -0.080 A  
HETATM    5  C   UNL     1      -9.581   6.309  66.319  1.00  0.00    -0.117 A  
HETATM    6  C   UNL     1      -7.261   7.518  65.278  1.00  0.00    -0.065 A  
HETATM    7  C   UNL     1      -9.478   7.681  66.191  1.00  0.00    -0.117 A  
HETATM    8  C   UNL     1      -8.317   8.241  65.760  1.00  0.00    -0.142 A  
HETATM    9  C   UNL     1      -8.745   9.666  66.007  1.00  0.00    -0.155 C  
HETATM   10  C   UNL     1     -10.180   9.018  66.255  1.00  0.00    -0.237 C  
BRANCH   4  11
HETATM   11  O   UNL     1      -6.291   5.364  64.876  1.00  0.00    -0.032 OA 
HETATM   12  C   UNL     1      -6.421   4.913  63.529  1.00  0.00    -0.026 C  
ENDBRANCH   4  11
BRANCH   9  13
HETATM   13  C   UNL     1      -8.218  10.498  64.830  1.00  0.00    -0.117 C  
BRANCH  13  14
HETATM   14  N   UNL     1      -9.198  11.175  63.980  1.00  0.00    -0.152 NA 
HETATM   15  C   UNL     1      -9.615  10.342  62.864  1.00  0.00    -0.295 C  
BRANCH  14  16
HETATM   16  C   UNL     1     -10.273  11.841  64.726  1.00  0.00    -0.282 C  
BRANCH  16  17
HETATM   17  C   UNL     1     -10.174  13.361  64.630  1.00  0.00    -0.338 C  
BRANCH  17  18
HETATM   18  C   UNL     1      -9.324  13.986  65.743  1.00  0.00     0.119 C  
BRANCH  18  19
HETATM   19  N   UNL     1     -10.039  13.882  67.017  1.00  0.00    -0.252 N  
HETATM   20  C   UNL     1     -10.101  12.566  67.643  1.00  0.00    -0.217 C  
HETATM   21  C   UNL     1     -11.531  12.093  67.839  1.00  0.00    -0.392 C  
HETATM   22  C   UNL     1     -12.014  12.595  69.171  1.00  0.00    -0.293 A  
HETATM   23  C   UNL     1     -12.341  11.656  70.158  1.00  0.00    -0.297 A  
HETATM   24  C   UNL     1     -12.741  12.057  71.432  1.00  0.00    -0.275 A  
HETATM   25  C   UNL     1     -12.813  13.428  71.731  1.00  0.00    -0.289 A  
HETATM   26  O   UNL     1      -9.866  16.109  67.506  1.00  0.00    -0.232 OA 
HETATM   27  C   UNL     1     -10.444  15.033  67.678  1.00  0.00    -0.247 C  
HETATM   28  C   UNL     1     -12.480  14.367  70.741  1.00  0.00    -0.423 A  
HETATM   29  C   UNL     1     -11.789  15.007  68.399  1.00  0.00    -0.298 C  
HETATM   30  C   UNL     1     -12.064  13.965  69.458  1.00  0.00    -0.393 A  
BRANCH  24  31
HETATM   31  O   UNL     1     -13.036  11.171  72.440  1.00  0.00    -0.196 OA 
HETATM   32  C   UNL     1     -13.205   9.811  72.056  1.00  0.00    -0.460 C  
ENDBRANCH  24  31
BRANCH  25  33
HETATM   33  O   UNL     1     -13.222  13.751  73.001  1.00  0.00    -0.534 OA 
HETATM   34  C   UNL     1     -13.010  15.086  73.441  1.00  0.00    -0.498 C  
ENDBRANCH  25  33
ENDBRANCH  18  19
ENDBRANCH  17  18
ENDBRANCH  16  17
ENDBRANCH  14  16
ENDBRANCH  13  14
ENDBRANCH   9  13
ENDBRANCH   2   3
TORSDOF 10
ENDMDL
MODEL      195
REMARK 921   NORMALIZED FREE ENERGY PREDICTED BY IDOCK:   -3.96 KCAL/MOL
REMARK 922        TOTAL FREE ENERGY PREDICTED BY IDOCK:   -8.24 KCAL/MOL
REMARK 923 INTER-LIGAND FREE ENERGY PREDICTED BY IDOCK:   -7.25 KCAL/MOL
REMARK 924 INTRA-LIGAND FREE ENERGY PREDICTED BY IDOCK:   -0.99 KCAL/MOL
REMARK 927      BINDING AFFINITY PREDICTED BY RF-SCORE:    0.00 PKD
ROOT
HETATM    1  C   UNL     1      -9.439   1.861  68.352  1.00  0.00    -0.176 C  
HETATM    2  O   UNL     1      -8.715   2.850  69.079  1.00  0.00    -0.069 OA 
ENDROOT
BRANCH   2   3
HETATM    3  C   UNL     1      -8.704   4.127  68.579  1.00  0.00    -0.098 A  
HETATM    4  C   UNL     1      -9.562   5.201  68.942  1.00  0.00    -0.144 A  
HETATM    5  C   UNL     1      -7.691   4.326  67.601  1.00  0.00    -0.084 A  
HETATM    6  C   UNL     1      -9.445   6.422  68.278  1.00  0.00    -0.121 A  
HETATM    7  C   UNL     1      -7.605   5.564  66.993  1.00  0.00    -0.092 A  
HETATM    8  C   UNL     1      -8.514   6.532  67.282  1.00  0.00    -0.112 A  
HETATM    9  C   UNL     1      -8.033   7.500  66.231  1.00  0.00    -0.109 C  
HETATM   10  C   UNL     1      -6.818   6.479  66.082  1.00  0.00    -0.057 C  
BRANCH   4  11
HETATM   11  O   UNL     1     -10.469   5.053  69.958  1.00  0.00    -0.276 OA 
HETATM   12  C   UNL     1     -11.128   6.241  70.394  1.00  0.00    -0.352 C  
ENDBRANCH   4  11
BRANCH   9  13
HETATM   13  C   UNL     1      -8.088   8.899  66.857  1.00  0.00    -0.109 C  
BRANCH  13  14
HETATM   14  N   UNL     1      -8.451  10.021  65.989  1.00  0.00    -0.129 NA 
HETATM   15  C   UNL     1      -7.341  10.438  65.150  1.00  0.00    -0.088 C  
BRANCH  14  16
HETATM   16  C   UNL     1      -9.745   9.856  65.315  1.00  0.00    -0.313 C  
BRANCH  16  17
HETATM   17  C   UNL     1     -10.362  11.199  64.934  1.00  0.00    -0.375 C  
BRANCH  17  18
HETATM   18  C   UNL     1     -11.340  11.739  65.985  1.00  0.00    -0.273 C  
BRANCH  18  19
HETATM   19  N   UNL     1     -10.938  13.093  66.374  1.00  0.00    -0.286 N  
HETATM   20  C   UNL     1      -9.510  13.350  66.518  1.00  0.00    -0.245 C  
HETATM   21  C   UNL     1      -9.152  13.818  67.918  1.00  0.00    -0.193 C  
HETATM   22  C   UNL     1      -9.283  15.315  67.961  1.00  0.00    -0.188 A  
HETATM   23  C   UNL     1      -8.133  16.078  68.201  1.00  0.00    -0.147 A  
HETATM   24  C   UNL     1      -8.177  17.472  68.197  1.00  0.00    -0.251 A  
HETATM   25  C   UNL     1      -9.397  18.121  67.943  1.00  0.00    -0.272 A  
HETATM   26  O   UNL     1     -12.888  14.067  65.684  1.00  0.00    -0.545 OA 
HETATM   27  C   UNL     1     -11.876  14.115  66.389  1.00  0.00    -0.423 C  
HETATM   28  C   UNL     1     -10.547  17.354  67.698  1.00  0.00    -0.350 A  
HETATM   29  C   UNL     1     -11.778  15.159  67.497  1.00  0.00    -0.214 C  
HETATM   30  C   UNL     1     -10.503  15.947  67.689  1.00  0.00    -0.289 A  
BRANCH  24  31
HETATM   31  O   UNL     1      -7.067  18.259  68.392  1.00  0.00    -0.239 OA 
HETATM   32  C   UNL     1      -5.814  17.680  68.045  1.00  0.00    -0.154 C  
ENDBRANCH  24  31
BRANCH  25  33
HETATM   33  O   UNL     1      -9.369  19.494  67.963  1.00  0.00    -0.315 OA 
HETATM   34  C   UNL     1     -10.252  20.156  68.858  1.00  0.00    -0.161 C  
ENDBRANCH  25  33
ENDBRANCH  18  19
ENDBRANCH  17  18
ENDBRANCH  16  17
ENDBRANCH  14  16
ENDBRANCH  13  14
ENDBRANCH   9  13
ENDBRANCH   2   3
TORSDOF 10
ENDMDL
MODEL      196
REMARK 921   NORMALIZED FREE ENERGY PREDICTED BY IDOCK:   -3.93 KCAL/MOL
REMARK 922        TOTAL FREE ENERGY PREDICTED BY IDOCK:   -8.19 KCAL/MOL
REMARK 923 INTER-LIGAND FREE ENERGY PREDICTED BY IDOCK:   -7.61 KCAL/MOL
REMARK 924 INTRA-LIGAND FREE ENERGY PREDICTED BY IDOCK:   -0.58 KCAL/MOL
REMARK 927      BINDING AFFINITY PREDICTED BY RF-SCORE:    0.00 PKD
ROOT
HETATM    1  C   UNL     1      -9.400   2.012  68.323  1.00  0.00    -0.198 C  
HETATM    2  O   UNL     1      -9.115   3.248  67.674  1.00  0.00    -0.140 OA 
ENDROOT
BRANCH   2   3
HETATM    3  C   UNL     1      -9.685   4.384  68.189  1.00  0.00    -0.119 A  
HETATM    4  C   UNL     1     -10.063   5.556  67.480  1.00  0.00    -0.180 A  
HETATM    5  C   UNL     1      -9.900   4.303  69.593  1.00  0.00    -0.244 A  
HETATM    6  C   UNL     1     -10.575   6.646  68.184  1.00  0.00    -0.294 A  
HETATM    7  C   UNL     1     -10.433   5.404  70.237  1.00  0.00    -0.355 A  
HETATM    8  C   UNL     1     -10.675   6.548  69.545  1.00  0.00    -0.322 A  
HETATM    9  C   UNL     1     -11.038   7.373  70.754  1.00  0.00    -0.285 C  
HETATM   10  C   UNL     1     -11.010   5.973  71.514  1.00  0.00    -0.335 C  
BRANCH   4  11
HETATM   11  O   UNL     1      -9.962   5.605  66.115  1.00  0.00    -0.138 OA 
HETATM   12  C   UNL     1      -8.850   6.328  65.589  1.00  0.00    -0.074 C  
ENDBRANCH   4  11
BRANCH   9  13
HETATM   13  C   UNL     1     -12.221   8.262  70.346  1.00  0.00     0.379 C  
BRANCH  13  14
HETATM   14  N   UNL     1     -12.102   9.703  70.577  1.00  0.00    -0.187 NA 
HETATM   15  C   UNL     1     -12.691  10.099  71.845  1.00  0.00    -0.396 C  
BRANCH  14  16
HETATM   16  C   UNL     1     -10.768  10.243  70.286  1.00  0.00    -0.250 C  
BRANCH  16  17
HETATM   17  C   UNL     1     -10.845  11.582  69.558  1.00  0.00    -0.121 C  
BRANCH  17  18
HETATM   18  C   UNL     1      -9.695  11.802  68.567  1.00  0.00    -0.178 C  
BRANCH  18  19
HETATM   19  N   UNL     1      -9.541  13.236  68.309  1.00  0.00    -0.225 N  
HETATM   20  C   UNL     1      -8.183  13.767  68.276  1.00  0.00    -0.156 C  
HETATM   21  C   UNL     1      -7.968  14.852  69.317  1.00  0.00    -0.153 C  
HETATM   22  C   UNL     1      -8.349  16.171  68.705  1.00  0.00    -0.231 A  
HETATM   23  C   UNL     1      -7.355  17.145  68.547  1.00  0.00    -0.231 A  
HETATM   24  C   UNL     1      -7.630  18.367  67.936  1.00  0.00    -0.246 A  
HETATM   25  C   UNL     1      -8.930  18.624  67.467  1.00  0.00    -0.276 A  
HETATM   26  O   UNL     1     -11.596  13.466  67.334  1.00  0.00    -0.314 OA 
HETATM   27  C   UNL     1     -10.637  13.987  67.910  1.00  0.00    -0.244 C  
HETATM   28  C   UNL     1      -9.925  17.645  67.623  1.00  0.00    -0.323 A  
HETATM   29  C   UNL     1     -10.762  15.410  68.447  1.00  0.00    -0.256 C  
HETATM   30  C   UNL     1      -9.646  16.405  68.229  1.00  0.00    -0.221 A  
BRANCH  24  31
HETATM   31  O   UNL     1      -6.677  19.335  67.728  1.00  0.00    -0.219 OA 
HETATM   32  C   UNL     1      -6.434  20.226  68.811  1.00  0.00    -0.299 C  
ENDBRANCH  24  31
BRANCH  25  33
HETATM   33  O   UNL     1      -9.133  19.851  66.884  1.00  0.00    -0.323 OA 
HETATM   34  C   UNL     1     -10.344  20.045  66.166  1.00  0.00    -0.458 C  
ENDBRANCH  25  33
ENDBRANCH  18  19
ENDBRANCH  17  18
ENDBRANCH  16  17
ENDBRANCH  14  16
ENDBRANCH  13  14
ENDBRANCH   9  13
ENDBRANCH   2   3
TORSDOF 10
ENDMDL
MODEL      197
REMARK 921   NORMALIZED FREE ENERGY PREDICTED BY IDOCK:   -3.91 KCAL/MOL
REMARK 922        TOTAL FREE ENERGY PREDICTED BY IDOCK:   -8.16 KCAL/MOL
REMARK 923 INTER-LIGAND FREE ENERGY PREDICTED BY IDOCK:   -8.38 KCAL/MOL
REMARK 924 INTRA-LIGAND FREE ENERGY PREDICTED BY IDOCK:    0.22 KCAL/MOL
REMARK 927      BINDING AFFINITY PREDICTED BY RF-SCORE:    0.00 PKD
ROOT
HETATM    1  C   UNL     1     -10.326   4.471  73.996  1.00  0.00    -0.230 C  
HETATM    2  O   UNL     1     -11.276   4.687  72.957  1.00  0.00    -0.253 OA 
ENDROOT
BRANCH   2   3
HETATM    3  C   UNL     1     -11.163   5.838  72.220  1.00  0.00    -0.278 A  
HETATM    4  C   UNL     1     -10.250   6.098  71.162  1.00  0.00    -0.198 A  
HETATM    5  C   UNL     1     -12.101   6.834  72.609  1.00  0.00     0.099 A  
HETATM    6  C   UNL     1     -10.238   7.359  70.564  1.00  0.00    -0.196 A  
HETATM    7  C   UNL     1     -12.060   8.057  71.967  1.00  0.00    -0.377 A  
HETATM    8  C   UNL     1     -11.099   8.309  71.039  1.00  0.00    -0.284 A  
HETATM    9  C   UNL     1     -11.446   9.766  70.865  1.00  0.00    -0.447 C  
HETATM   10  C   UNL     1     -12.724   9.397  71.743  1.00  0.00    -0.476 C  
BRANCH   4  11
HETATM   11  O   UNL     1      -9.416   5.112  70.706  1.00  0.00    -0.152 OA 
HETATM   12  C   UNL     1      -8.766   5.359  69.460  1.00  0.00    -0.102 C  
ENDBRANCH   4  11
BRANCH   9  13
HETATM   13  C   UNL     1     -11.323  10.076  69.367  1.00  0.00    -0.141 C  
BRANCH  13  14
HETATM   14  N   UNL     1     -10.800  11.388  68.983  1.00  0.00    -0.213 NA 
HETATM   15  C   UNL     1      -9.423  11.311  68.527  1.00  0.00    -0.191 C  
BRANCH  14  16
HETATM   16  C   UNL     1     -11.717  12.170  68.143  1.00  0.00    -0.341 C  
BRANCH  16  17
HETATM   17  C   UNL     1     -11.875  13.599  68.654  1.00  0.00    -0.409 C  
BRANCH  17  18
HETATM   18  C   UNL     1     -11.851  14.650  67.536  1.00  0.00    -0.347 C  
BRANCH  18  19
HETATM   19  N   UNL     1     -10.755  15.591  67.777  1.00  0.00    -0.289 N  
HETATM   20  C   UNL     1     -10.482  16.579  66.739  1.00  0.00    -0.269 C  
HETATM   21  C   UNL     1      -9.064  16.469  66.204  1.00  0.00    -0.342 C  
HETATM   22  C   UNL     1      -8.172  17.326  67.058  1.00  0.00    -0.233 A  
HETATM   23  C   UNL     1      -7.532  18.420  66.463  1.00  0.00    -0.265 A  
HETATM   24  C   UNL     1      -6.736  19.286  67.212  1.00  0.00    -0.193 A  
HETATM   25  C   UNL     1      -6.578  19.057  68.590  1.00  0.00    -0.265 A  
HETATM   26  O   UNL     1     -10.771  15.312  70.046  1.00  0.00    -0.266 OA 
HETATM   27  C   UNL     1     -10.161  15.655  69.029  1.00  0.00    -0.227 C  
HETATM   28  C   UNL     1      -7.225  17.961  69.184  1.00  0.00    -0.153 A  
HETATM   29  C   UNL     1      -8.654  15.882  69.095  1.00  0.00    -0.252 C  
HETATM   30  C   UNL     1      -8.038  17.093  68.432  1.00  0.00    -0.255 A  
BRANCH  24  31
HETATM   31  O   UNL     1      -6.120  20.392  66.678  1.00  0.00    -0.175 OA 
HETATM   32  C   UNL     1      -5.636  20.262  65.345  1.00  0.00    -0.173 C  
ENDBRANCH  24  31
BRANCH  25  33
HETATM   33  O   UNL     1      -5.774  19.944  69.263  1.00  0.00    -0.225 OA 
HETATM   34  C   UNL     1      -6.163  20.314  70.579  1.00  0.00    -0.262 C  
ENDBRANCH  25  33
ENDBRANCH  18  19
ENDBRANCH  17  18
ENDBRANCH  16  17
ENDBRANCH  14  16
ENDBRANCH  13  14
ENDBRANCH   9  13
ENDBRANCH   2   3
TORSDOF 10
ENDMDL
MODEL      198
REMARK 921   NORMALIZED FREE ENERGY PREDICTED BY IDOCK:   -3.90 KCAL/MOL
REMARK 922        TOTAL FREE ENERGY PREDICTED BY IDOCK:   -8.14 KCAL/MOL
REMARK 923 INTER-LIGAND FREE ENERGY PREDICTED BY IDOCK:   -6.32 KCAL/MOL
REMARK 924 INTRA-LIGAND FREE ENERGY PREDICTED BY IDOCK:   -1.82 KCAL/MOL
REMARK 927      BINDING AFFINITY PREDICTED BY RF-SCORE:    0.00 PKD
ROOT
HETATM    1  C   UNL     1      -6.741  14.703  67.385  1.00  0.00    -0.009 C  
HETATM    2  O   UNL     1      -5.611  13.865  67.611  1.00  0.00    -0.298 OA 
ENDROOT
BRANCH   2   3
HETATM    3  C   UNL     1      -5.846  12.557  67.950  1.00  0.00    -0.100 A  
HETATM    4  C   UNL     1      -5.936  11.443  67.073  1.00  0.00    -0.112 A  
HETATM    5  C   UNL     1      -5.997  12.372  69.352  1.00  0.00    -0.100 A  
HETATM    6  C   UNL     1      -6.244  10.186  67.594  1.00  0.00    -0.058 A  
HETATM    7  C   UNL     1      -6.278  11.100  69.816  1.00  0.00    -0.119 A  
HETATM    8  C   UNL     1      -6.470  10.080  68.939  1.00  0.00    -0.048 A  
HETATM    9  C   UNL     1      -6.901   9.076  69.978  1.00  0.00    -0.045 C  
HETATM   10  C   UNL     1      -6.422  10.189  71.014  1.00  0.00     0.115 C  
BRANCH   4  11
HETATM   11  O   UNL     1      -5.685  11.590  65.734  1.00  0.00    -0.127 OA 
HETATM   12  C   UNL     1      -5.788  10.411  64.938  1.00  0.00    -0.130 C  
ENDBRANCH   4  11
BRANCH   9  13
HETATM   13  C   UNL     1      -6.264   7.735  69.591  1.00  0.00    -0.030 C  
BRANCH  13  14
HETATM   14  N   UNL     1      -7.158   6.643  69.201  1.00  0.00    -0.085 NA 
HETATM   15  C   UNL     1      -7.866   6.089  70.343  1.00  0.00    -0.106 C  
BRANCH  14  16
HETATM   16  C   UNL     1      -7.973   6.936  68.016  1.00  0.00    -0.115 C  
BRANCH  16  17
HETATM   17  C   UNL     1      -9.377   7.400  68.392  1.00  0.00    -0.144 C  
BRANCH  17  18
HETATM   18  C   UNL     1     -10.261   7.710  67.178  1.00  0.00    -0.290 C  
BRANCH  18  19
HETATM   19  N   UNL     1     -10.324   9.161  66.980  1.00  0.00    -0.264 N  
HETATM   20  C   UNL     1     -10.509   9.989  68.166  1.00  0.00    -0.211 C  
HETATM   21  C   UNL     1     -11.768  10.834  68.083  1.00  0.00    -0.173 C  
HETATM   22  C   UNL     1     -11.420  12.130  67.404  1.00  0.00    -0.415 A  
HETATM   23  C   UNL     1     -11.548  13.319  68.133  1.00  0.00    -0.373 A  
HETATM   24  C   UNL     1     -11.188  14.548  67.579  1.00  0.00    -0.321 A  
HETATM   25  C   UNL     1     -10.685  14.590  66.268  1.00  0.00    -0.309 A  
HETATM   26  O   UNL     1      -9.263   9.115  64.955  1.00  0.00    -0.208 OA 
HETATM   27  C   UNL     1     -10.008   9.704  65.743  1.00  0.00    -0.272 C  
HETATM   28  C   UNL     1     -10.554  13.396  65.541  1.00  0.00    -0.294 A  
HETATM   29  C   UNL     1     -10.821  10.901  65.260  1.00  0.00    -0.123 C  
HETATM   30  C   UNL     1     -10.905  12.153  66.102  1.00  0.00    -0.317 A  
BRANCH  24  31
HETATM   31  O   UNL     1     -11.262  15.733  68.270  1.00  0.00    -0.327 OA 
HETATM   32  C   UNL     1     -11.925  15.690  69.529  1.00  0.00    -0.345 C  
ENDBRANCH  24  31
BRANCH  25  33
HETATM   33  O   UNL     1     -10.359  15.833  65.784  1.00  0.00    -0.322 OA 
HETATM   34  C   UNL     1     -11.104  16.323  64.677  1.00  0.00    -0.246 C  
ENDBRANCH  25  33
ENDBRANCH  18  19
ENDBRANCH  17  18
ENDBRANCH  16  17
ENDBRANCH  14  16
ENDBRANCH  13  14
ENDBRANCH   9  13
ENDBRANCH   2   3
TORSDOF 10
ENDMDL
MODEL      199
REMARK 921   NORMALIZED FREE ENERGY PREDICTED BY IDOCK:   -3.89 KCAL/MOL
REMARK 922        TOTAL FREE ENERGY PREDICTED BY IDOCK:   -8.13 KCAL/MOL
REMARK 923 INTER-LIGAND FREE ENERGY PREDICTED BY IDOCK:   -7.52 KCAL/MOL
REMARK 924 INTRA-LIGAND FREE ENERGY PREDICTED BY IDOCK:   -0.61 KCAL/MOL
REMARK 927      BINDING AFFINITY PREDICTED BY RF-SCORE:    0.00 PKD
ROOT
HETATM    1  C   UNL     1     -10.422  19.509  65.937  1.00  0.00    -0.491 C  
HETATM    2  O   UNL     1      -9.240  18.716  65.882  1.00  0.00    -0.472 OA 
ENDROOT
BRANCH   2   3
HETATM    3  C   UNL     1      -9.316  17.428  66.347  1.00  0.00    -0.252 A  
HETATM    4  C   UNL     1      -8.238  16.529  66.573  1.00  0.00    -0.300 A  
HETATM    5  C   UNL     1     -10.650  17.019  66.621  1.00  0.00    -0.182 A  
HETATM    6  C   UNL     1      -8.511  15.227  66.994  1.00  0.00    -0.258 A  
HETATM    7  C   UNL     1     -10.861  15.726  67.058  1.00  0.00    -0.273 A  
HETATM    8  C   UNL     1      -9.818  14.859  67.153  1.00  0.00    -0.231 A  
HETATM    9  C   UNL     1     -10.664  13.651  67.471  1.00  0.00    -0.266 C  
HETATM   10  C   UNL     1     -11.839  14.718  67.619  1.00  0.00    -0.319 C  
BRANCH   4  11
HETATM   11  O   UNL     1      -6.942  16.945  66.418  1.00  0.00    -0.241 OA 
HETATM   12  C   UNL     1      -5.954  16.218  67.146  1.00  0.00    -0.093 C  
ENDBRANCH   4  11
BRANCH   9  13
HETATM   13  C   UNL     1      -9.908  12.848  68.538  1.00  0.00    -0.144 C  
BRANCH  13  14
HETATM   14  N   UNL     1     -10.582  11.688  69.123  1.00  0.00    -0.160 NA 
HETATM   15  C   UNL     1     -12.024  11.760  68.961  1.00  0.00    -0.280 C  
BRANCH  14  16
HETATM   16  C   UNL     1      -9.956  10.404  68.782  1.00  0.00    -0.188 C  
BRANCH  16  17
HETATM   17  C   UNL     1      -9.087   9.876  69.920  1.00  0.00    -0.241 C  
BRANCH  17  18
HETATM   18  C   UNL     1      -9.547   8.513  70.455  1.00  0.00    -0.172 C  
BRANCH  18  19
HETATM   19  N   UNL     1      -9.534   7.534  69.365  1.00  0.00    -0.155 N  
HETATM   20  C   UNL     1      -8.242   7.224  68.762  1.00  0.00    -0.129 C  
HETATM   21  C   UNL     1      -8.218   7.529  67.274  1.00  0.00    -0.115 C  
HETATM   22  C   UNL     1      -8.698   6.311  66.537  1.00  0.00    -0.131 A  
HETATM   23  C   UNL     1      -7.806   5.659  65.675  1.00  0.00    -0.099 A  
HETATM   24  C   UNL     1      -8.172   4.492  65.004  1.00  0.00    -0.109 A  
HETATM   25  C   UNL     1      -9.457   3.959  65.202  1.00  0.00    -0.170 A  
HETATM   26  O   UNL     1     -11.530   6.585  69.949  1.00  0.00    -0.390 OA 
HETATM   27  C   UNL     1     -10.674   6.796  69.085  1.00  0.00    -0.253 C  
HETATM   28  C   UNL     1     -10.347   4.612  66.070  1.00  0.00    -0.318 A  
HETATM   29  C   UNL     1     -10.990   6.496  67.623  1.00  0.00    -0.426 C  
HETATM   30  C   UNL     1      -9.976   5.783  66.757  1.00  0.00    -0.207 A  
BRANCH  24  31
HETATM   31  O   UNL     1      -7.318   3.802  64.179  1.00  0.00    -0.057 OA 
HETATM   32  C   UNL     1      -6.317   3.018  64.818  1.00  0.00    -0.024 C  
ENDBRANCH  24  31
BRANCH  25  33
HETATM   33  O   UNL     1      -9.752   2.814  64.504  1.00  0.00    -0.151 OA 
HETATM   34  C   UNL     1     -10.766   2.892  63.512  1.00  0.00    -0.228 C  
ENDBRANCH  25  33
ENDBRANCH  18  19
ENDBRANCH  17  18
ENDBRANCH  16  17
ENDBRANCH  14  16
ENDBRANCH  13  14
ENDBRANCH   9  13
ENDBRANCH   2   3
TORSDOF 10
ENDMDL
MODEL      200
REMARK 921   NORMALIZED FREE ENERGY PREDICTED BY IDOCK:   -3.88 KCAL/MOL
REMARK 922        TOTAL FREE ENERGY PREDICTED BY IDOCK:   -8.12 KCAL/MOL
REMARK 923 INTER-LIGAND FREE ENERGY PREDICTED BY IDOCK:   -4.86 KCAL/MOL
REMARK 924 INTRA-LIGAND FREE ENERGY PREDICTED BY IDOCK:   -3.26 KCAL/MOL
REMARK 927      BINDING AFFINITY PREDICTED BY RF-SCORE:    0.00 PKD
ROOT
HETATM    1  C   UNL     1      -8.163   8.329  74.163  1.00  0.00    -0.200 C  
HETATM    2  O   UNL     1      -8.665   8.373  72.831  1.00  0.00    -0.245 OA 
ENDROOT
BRANCH   2   3
HETATM    3  C   UNL     1      -8.445   7.281  72.032  1.00  0.00    -0.106 A  
HETATM    4  C   UNL     1      -9.267   6.128  71.903  1.00  0.00    -0.147 A  
HETATM    5  C   UNL     1      -7.249   7.388  71.271  1.00  0.00    -0.067 A  
HETATM    6  C   UNL     1      -8.851   5.080  71.082  1.00  0.00    -0.149 A  
HETATM    7  C   UNL     1      -6.896   6.330  70.455  1.00  0.00    -0.055 A  
HETATM    8  C   UNL     1      -7.647   5.196  70.444  1.00  0.00    -0.070 A  
HETATM    9  C   UNL     1      -6.704   4.408  69.571  1.00  0.00    -0.044 C  
HETATM   10  C   UNL     1      -5.974   5.811  69.375  1.00  0.00    -0.027 C  
BRANCH   4  11
HETATM   11  O   UNL     1     -10.475   6.061  72.546  1.00  0.00    -0.191 OA 
HETATM   12  C   UNL     1     -11.627   6.360  71.760  1.00  0.00    -0.316 C  
ENDBRANCH   4  11
BRANCH   9  13
HETATM   13  C   UNL     1      -7.572   3.592  68.603  1.00  0.00    -0.053 C  
BRANCH  13  14
HETATM   14  N   UNL     1      -6.894   2.861  67.531  1.00  0.00    -0.044 NA 
HETATM   15  C   UNL     1      -6.318   1.615  68.006  1.00  0.00    -0.025 C  
BRANCH  14  16
HETATM   16  C   UNL     1      -7.667   2.782  66.285  1.00  0.00    -0.077 C  
BRANCH  16  17
HETATM   17  C   UNL     1      -7.288   3.894  65.311  1.00  0.00    -0.069 C  
BRANCH  17  18
HETATM   18  C   UNL     1      -8.500   4.631  64.728  1.00  0.00    -0.137 C  
BRANCH  18  19
HETATM   19  N   UNL     1      -8.891   5.715  65.632  1.00  0.00    -0.154 N  
HETATM   20  C   UNL     1      -8.230   7.004  65.455  1.00  0.00    -0.135 C  
HETATM   21  C   UNL     1      -7.492   7.444  66.707  1.00  0.00    -0.096 C  
HETATM   22  C   UNL     1      -8.451   8.213  67.572  1.00  0.00    -0.126 A  
HETATM   23  C   UNL     1      -8.186   9.565  67.823  1.00  0.00    -0.114 A  
HETATM   24  C   UNL     1      -9.065  10.348  68.570  1.00  0.00    -0.145 A  
HETATM   25  C   UNL     1     -10.241   9.768  69.077  1.00  0.00    -0.203 A  
HETATM   26  O   UNL     1     -10.901   4.777  66.184  1.00  0.00    -0.258 OA 
HETATM   27  C   UNL     1      -9.989   5.558  66.466  1.00  0.00    -0.185 C  
HETATM   28  C   UNL     1     -10.506   8.414  68.821  1.00  0.00    -0.202 A  
HETATM   29  C   UNL     1      -9.911   6.152  67.869  1.00  0.00    -0.149 C  
HETATM   30  C   UNL     1      -9.626   7.625  68.057  1.00  0.00    -0.159 A  
BRANCH  24  31
HETATM   31  O   UNL     1      -8.862  11.686  68.809  1.00  0.00    -0.122 OA 
HETATM   32  C   UNL     1      -7.750  12.283  68.152  1.00  0.00    -0.138 C  
ENDBRANCH  24  31
BRANCH  25  33
HETATM   33  O   UNL     1     -11.056  10.594  69.811  1.00  0.00    -0.257 OA 
HETATM   34  C   UNL     1     -11.689  10.043  70.957  1.00  0.00    -0.392 C  
ENDBRANCH  25  33
ENDBRANCH  18  19
ENDBRANCH  17  18
ENDBRANCH  16  17
ENDBRANCH  14  16
ENDBRANCH  13  14
ENDBRANCH   9  13
ENDBRANCH   2   3
TORSDOF 10
ENDMDL
MODEL      201
REMARK 921   NORMALIZED FREE ENERGY PREDICTED BY IDOCK:   -3.88 KCAL/MOL
REMARK 922        TOTAL FREE ENERGY PREDICTED BY IDOCK:   -8.12 KCAL/MOL
REMARK 923 INTER-LIGAND FREE ENERGY PREDICTED BY IDOCK:   -6.19 KCAL/MOL
REMARK 924 INTRA-LIGAND FREE ENERGY PREDICTED BY IDOCK:   -1.93 KCAL/MOL
REMARK 927      BINDING AFFINITY PREDICTED BY RF-SCORE:    0.00 PKD
ROOT
HETATM    1  C   UNL     1      -7.091   9.674  68.835  1.00  0.00    -0.067 C  
HETATM    2  O   UNL     1      -7.742  10.824  69.366  1.00  0.00    -0.142 OA 
ENDROOT
BRANCH   2   3
HETATM    3  C   UNL     1      -7.420  12.044  68.828  1.00  0.00    -0.086 A  
HETATM    4  C   UNL     1      -7.366  12.390  67.450  1.00  0.00    -0.149 A  
HETATM    5  C   UNL     1      -7.127  13.022  69.818  1.00  0.00     0.503 A  
HETATM    6  C   UNL     1      -6.955  13.672  67.084  1.00  0.00     0.309 A  
HETATM    7  C   UNL     1      -6.748  14.283  69.398  1.00  0.00    -0.130 A  
HETATM    8  C   UNL     1      -6.597  14.545  68.073  1.00  0.00    -0.156 A  
HETATM    9  C   UNL     1      -6.024  15.927  68.264  1.00  0.00    -0.111 C  
HETATM   10  C   UNL     1      -6.450  15.714  69.785  1.00  0.00    -0.169 C  
BRANCH   4  11
HETATM   11  O   UNL     1      -7.751  11.490  66.492  1.00  0.00    -0.134 OA 
HETATM   12  C   UNL     1      -6.701  10.798  65.817  1.00  0.00    -0.053 C  
ENDBRANCH   4  11
BRANCH   9  13
HETATM   13  C   UNL     1      -6.637  16.816  67.173  1.00  0.00    -0.192 C  
BRANCH  13  14
HETATM   14  N   UNL     1      -6.505  18.266  67.322  1.00  0.00    -0.177 NA 
HETATM   15  C   UNL     1      -5.496  18.813  66.431  1.00  0.00    -0.150 C  
BRANCH  14  16
HETATM   16  C   UNL     1      -7.789  18.978  67.361  1.00  0.00    -0.242 C  
BRANCH  16  17
HETATM   17  C   UNL     1      -8.651  18.660  66.142  1.00  0.00    -0.155 C  
BRANCH  17  18
HETATM   18  C   UNL     1     -10.134  18.464  66.482  1.00  0.00    -0.388 C  
BRANCH  18  19
HETATM   19  N   UNL     1     -10.334  17.118  67.026  1.00  0.00    -0.315 N  
HETATM   20  C   UNL     1      -9.948  15.992  66.183  1.00  0.00    -0.325 C  
HETATM   21  C   UNL     1     -11.118  15.067  65.894  1.00  0.00    -0.334 C  
HETATM   22  C   UNL     1     -11.186  14.041  66.991  1.00  0.00    -0.325 A  
HETATM   23  C   UNL     1     -10.985  12.696  66.659  1.00  0.00    -0.292 A  
HETATM   24  C   UNL     1     -10.980  11.702  67.637  1.00  0.00    -0.239 A  
HETATM   25  C   UNL     1     -11.177  12.061  68.982  1.00  0.00    -0.258 A  
HETATM   26  O   UNL     1     -10.385  17.809  69.205  1.00  0.00    -0.350 OA 
HETATM   27  C   UNL     1     -10.675  16.956  68.361  1.00  0.00    -0.368 C  
HETATM   28  C   UNL     1     -11.375  13.411  69.313  1.00  0.00    -0.314 A  
HETATM   29  C   UNL     1     -11.660  15.848  68.717  1.00  0.00    -0.389 C  
HETATM   30  C   UNL     1     -11.368  14.417  68.328  1.00  0.00    -0.311 A  
BRANCH  24  31
HETATM   31  O   UNL     1     -10.751  10.377  67.360  1.00  0.00    -0.250 OA 
HETATM   32  C   UNL     1     -10.753  10.009  65.985  1.00  0.00     0.148 C  
ENDBRANCH  24  31
BRANCH  25  33
HETATM   33  O   UNL     1     -11.169  11.031  69.891  1.00  0.00    -0.270 OA 
HETATM   34  C   UNL     1     -12.425  10.550  70.349  1.00  0.00    -0.310 C  
ENDBRANCH  25  33
ENDBRANCH  18  19
ENDBRANCH  17  18
ENDBRANCH  16  17
ENDBRANCH  14  16
ENDBRANCH  13  14
ENDBRANCH   9  13
ENDBRANCH   2   3
TORSDOF 10
ENDMDL
MODEL      202
REMARK 921   NORMALIZED FREE ENERGY PREDICTED BY IDOCK:   -3.87 KCAL/MOL
REMARK 922        TOTAL FREE ENERGY PREDICTED BY IDOCK:   -8.10 KCAL/MOL
REMARK 923 INTER-LIGAND FREE ENERGY PREDICTED BY IDOCK:   -7.67 KCAL/MOL
REMARK 924 INTRA-LIGAND FREE ENERGY PREDICTED BY IDOCK:   -0.44 KCAL/MOL
REMARK 927      BINDING AFFINITY PREDICTED BY RF-SCORE:    0.00 PKD
ROOT
HETATM    1  C   UNL     1      -7.132  20.197  65.298  1.00  0.00    -0.219 C  
HETATM    2  O   UNL     1      -7.117  18.796  65.552  1.00  0.00    -0.470 OA 
ENDROOT
BRANCH   2   3
HETATM    3  C   UNL     1      -8.083  18.289  66.383  1.00  0.00    -0.258 A  
HETATM    4  C   UNL     1      -9.471  18.597  66.379  1.00  0.00    -0.311 A  
HETATM    5  C   UNL     1      -7.567  17.353  67.320  1.00  0.00    -0.214 A  
HETATM    6  C   UNL     1     -10.300  18.028  67.345  1.00  0.00    -0.391 A  
HETATM    7  C   UNL     1      -8.438  16.801  68.241  1.00  0.00    -0.222 A  
HETATM    8  C   UNL     1      -9.735  17.206  68.280  1.00  0.00    -0.280 A  
HETATM    9  C   UNL     1     -10.087  16.437  69.529  1.00  0.00    -0.199 C  
HETATM   10  C   UNL     1      -8.656  15.768  69.323  1.00  0.00    -0.259 C  
BRANCH   4  11
HETATM   11  O   UNL     1      -9.998  19.414  65.413  1.00  0.00    -0.216 OA 
HETATM   12  C   UNL     1     -11.221  20.072  65.741  1.00  0.00     0.402 C  
ENDBRANCH   4  11
BRANCH   9  13
HETATM   13  C   UNL     1     -11.495  15.865  69.316  1.00  0.00    -0.374 C  
BRANCH  13  14
HETATM   14  N   UNL     1     -11.986  14.885  70.287  1.00  0.00    -0.291 NA 
HETATM   15  C   UNL     1     -13.310  15.226  70.779  1.00  0.00    -0.353 C  
BRANCH  14  16
HETATM   16  C   UNL     1     -11.790  13.490  69.873  1.00  0.00    -0.316 C  
BRANCH  16  17
HETATM   17  C   UNL     1     -11.098  13.392  68.516  1.00  0.00    -0.299 C  
BRANCH  17  18
HETATM   18  C   UNL     1     -11.853  12.513  67.511  1.00  0.00    -0.323 C  
BRANCH  18  19
HETATM   19  N   UNL     1     -10.949  11.485  66.989  1.00  0.00    -0.279 N  
HETATM   20  C   UNL     1     -10.156  11.827  65.813  1.00  0.00    -0.237 C  
HETATM   21  C   UNL     1     -10.430  10.892  64.648  1.00  0.00    -0.384 C  
HETATM   22  C   UNL     1      -9.499   9.717  64.760  1.00  0.00    -0.256 A  
HETATM   23  C   UNL     1      -8.551   9.518  63.749  1.00  0.00    -0.222 A  
HETATM   24  C   UNL     1      -7.623   8.480  63.822  1.00  0.00    -0.130 A  
HETATM   25  C   UNL     1      -7.638   7.621  64.934  1.00  0.00    -0.099 A  
HETATM   26  O   UNL     1     -10.861  10.309  68.948  1.00  0.00    -0.206 OA 
HETATM   27  C   UNL     1     -10.720  10.329  67.722  1.00  0.00    -0.275 C  
HETATM   28  C   UNL     1      -8.587   7.825  65.949  1.00  0.00    -0.170 A  
HETATM   29  C   UNL     1     -10.570   9.017  66.958  1.00  0.00    -0.270 C  
HETATM   30  C   UNL     1      -9.517   8.879  65.883  1.00  0.00    -0.303 A  
BRANCH  24  31
HETATM   31  O   UNL     1      -6.654   8.271  62.871  1.00  0.00    -0.085 OA 
HETATM   32  C   UNL     1      -5.703   9.316  62.698  1.00  0.00    -0.085 C  
ENDBRANCH  24  31
BRANCH  25  33
HETATM   33  O   UNL     1      -6.702   6.616  64.936  1.00  0.00    -0.047 OA 
HETATM   34  C   UNL     1      -6.002   6.373  66.149  1.00  0.00    -0.025 C  
ENDBRANCH  25  33
ENDBRANCH  18  19
ENDBRANCH  17  18
ENDBRANCH  16  17
ENDBRANCH  14  16
ENDBRANCH  13  14
ENDBRANCH   9  13
ENDBRANCH   2   3
TORSDOF 10
ENDMDL
MODEL      203
REMARK 921   NORMALIZED FREE ENERGY PREDICTED BY IDOCK:   -3.86 KCAL/MOL
REMARK 922        TOTAL FREE ENERGY PREDICTED BY IDOCK:   -8.09 KCAL/MOL
REMARK 923 INTER-LIGAND FREE ENERGY PREDICTED BY IDOCK:   -6.51 KCAL/MOL
REMARK 924 INTRA-LIGAND FREE ENERGY PREDICTED BY IDOCK:   -1.58 KCAL/MOL
REMARK 927      BINDING AFFINITY PREDICTED BY RF-SCORE:    0.00 PKD
ROOT
HETATM    1  C   UNL     1     -11.772  11.979  66.739  1.00  0.00    -0.264 C  
HETATM    2  O   UNL     1     -11.854  12.317  68.120  1.00  0.00    -0.343 OA 
ENDROOT
BRANCH   2   3
HETATM    3  C   UNL     1     -11.440  11.378  69.031  1.00  0.00    -0.300 A  
HETATM    4  C   UNL     1     -10.188  10.705  69.065  1.00  0.00    -0.215 A  
HETATM    5  C   UNL     1     -12.420  11.107  70.024  1.00  0.00    -0.292 A  
HETATM    6  C   UNL     1      -9.964   9.730  70.037  1.00  0.00    -0.299 A  
HETATM    7  C   UNL     1     -12.136  10.147  70.978  1.00  0.00    -0.476 A  
HETATM    8  C   UNL     1     -10.975   9.443  70.912  1.00  0.00    -0.391 A  
HETATM    9  C   UNL     1     -11.321   8.491  72.029  1.00  0.00    -0.425 C  
HETATM   10  C   UNL     1     -12.547   9.480  72.271  1.00  0.00    -0.344 C  
BRANCH   4  11
HETATM   11  O   UNL     1      -9.197  11.036  68.180  1.00  0.00    -0.153 OA 
HETATM   12  C   UNL     1      -7.857  10.866  68.640  1.00  0.00    -0.126 C  
ENDBRANCH   4  11
BRANCH   9  13
HETATM   13  C   UNL     1     -10.038   8.277  72.843  1.00  0.00    -0.215 C  
BRANCH  13  14
HETATM   14  N   UNL     1      -9.193   7.134  72.495  1.00  0.00    -0.137 NA 
HETATM   15  C   UNL     1      -7.782   7.482  72.499  1.00  0.00    -0.094 C  
BRANCH  14  16
HETATM   16  C   UNL     1      -9.554   5.893  73.193  1.00  0.00    -0.146 C  
BRANCH  16  17
HETATM   17  C   UNL     1      -9.117   4.656  72.413  1.00  0.00    -0.142 C  
BRANCH  17  18
HETATM   18  C   UNL     1     -10.205   4.111  71.478  1.00  0.00    -0.042 C  
BRANCH  18  19
HETATM   19  N   UNL     1      -9.824   4.369  70.087  1.00  0.00    -0.218 N  
HETATM   20  C   UNL     1      -9.158   3.290  69.366  1.00  0.00    -0.134 C  
HETATM   21  C   UNL     1      -7.782   3.698  68.869  1.00  0.00    -0.052 C  
HETATM   22  C   UNL     1      -7.941   4.320  67.509  1.00  0.00    -0.092 A  
HETATM   23  C   UNL     1      -7.346   3.684  66.412  1.00  0.00    -0.072 A  
HETATM   24  C   UNL     1      -7.502   4.179  65.118  1.00  0.00    -0.073 A  
HETATM   25  C   UNL     1      -8.275   5.334  64.911  1.00  0.00    -0.136 A  
HETATM   26  O   UNL     1     -11.313   6.081  69.805  1.00  0.00    -0.409 OA 
HETATM   27  C   UNL     1     -10.277   5.513  69.447  1.00  0.00    -0.259 C  
HETATM   28  C   UNL     1      -8.874   5.967  66.013  1.00  0.00    -0.153 A  
HETATM   29  C   UNL     1      -9.326   6.217  68.484  1.00  0.00    -0.117 C  
HETATM   30  C   UNL     1      -8.728   5.463  67.319  1.00  0.00    -0.107 A  
BRANCH  24  31
HETATM   31  O   UNL     1      -6.966   3.567  64.010  1.00  0.00    -0.046 OA 
HETATM   32  C   UNL     1      -6.075   2.484  64.256  1.00  0.00    -0.018 C  
ENDBRANCH  24  31
BRANCH  25  33
HETATM   33  O   UNL     1      -8.379   5.770  63.614  1.00  0.00    -0.105 OA 
HETATM   34  C   UNL     1      -7.723   6.984  63.274  1.00  0.00    -0.118 C  
ENDBRANCH  25  33
ENDBRANCH  18  19
ENDBRANCH  17  18
ENDBRANCH  16  17
ENDBRANCH  14  16
ENDBRANCH  13  14
ENDBRANCH   9  13
ENDBRANCH   2   3
TORSDOF 10
ENDMDL
MODEL      204
REMARK 921   NORMALIZED FREE ENERGY PREDICTED BY IDOCK:   -3.86 KCAL/MOL
REMARK 922        TOTAL FREE ENERGY PREDICTED BY IDOCK:   -8.07 KCAL/MOL
REMARK 923 INTER-LIGAND FREE ENERGY PREDICTED BY IDOCK:   -6.72 KCAL/MOL
REMARK 924 INTRA-LIGAND FREE ENERGY PREDICTED BY IDOCK:   -1.35 KCAL/MOL
REMARK 927      BINDING AFFINITY PREDICTED BY RF-SCORE:    0.00 PKD
ROOT
HETATM    1  C   UNL     1     -14.389   8.646  72.438  1.00  0.00    -0.340 C  
HETATM    2  O   UNL     1     -12.985   8.836  72.295  1.00  0.00    -0.371 OA 
ENDROOT
BRANCH   2   3
HETATM    3  C   UNL     1     -12.559   9.847  71.472  1.00  0.00    -0.416 A  
HETATM    4  C   UNL     1     -11.595   9.762  70.432  1.00  0.00    -0.258 A  
HETATM    5  C   UNL     1     -13.204  11.085  71.743  1.00  0.00    -0.505 A  
HETATM    6  C   UNL     1     -11.240  10.916  69.734  1.00  0.00    -0.351 A  
HETATM    7  C   UNL     1     -12.831  12.192  71.005  1.00  0.00    -0.258 A  
HETATM    8  C   UNL     1     -11.824  12.098  70.096  1.00  0.00    -0.368 A  
HETATM    9  C   UNL     1     -11.768  13.574  69.791  1.00  0.00    -0.363 C  
HETATM   10  C   UNL     1     -13.111  13.634  70.648  1.00  0.00    -0.038 C  
BRANCH   4  11
HETATM   11  O   UNL     1     -11.047   8.554  70.089  1.00  0.00    -0.248 OA 
HETATM   12  C   UNL     1     -10.512   7.777  71.160  1.00  0.00    -0.208 C  
ENDBRANCH   4  11
BRANCH   9  13
HETATM   13  C   UNL     1     -11.545  13.706  68.278  1.00  0.00    -0.339 C  
BRANCH  13  14
HETATM   14  N   UNL     1     -10.249  14.209  67.822  1.00  0.00    -0.240 NA 
HETATM   15  C   UNL     1      -9.525  14.885  68.885  1.00  0.00    -0.209 C  
BRANCH  14  16
HETATM   16  C   UNL     1      -9.480  13.239  67.032  1.00  0.00    -0.243 C  
BRANCH  16  17
HETATM   17  C   UNL     1      -8.388  12.569  67.863  1.00  0.00    -0.167 C  
BRANCH  17  18
HETATM   18  C   UNL     1      -7.262  11.966  67.013  1.00  0.00    -0.118 C  
BRANCH  18  19
HETATM   19  N   UNL     1      -7.489  10.528  66.855  1.00  0.00    -0.106 N  
HETATM   20  C   UNL     1      -8.527   9.920  67.680  1.00  0.00    -0.114 C  
HETATM   21  C   UNL     1      -7.978   8.817  68.568  1.00  0.00    -0.112 C  
HETATM   22  C   UNL     1      -8.031   7.526  67.800  1.00  0.00    -0.118 A  
HETATM   23  C   UNL     1      -8.855   6.499  68.277  1.00  0.00    -0.119 A  
HETATM   24  C   UNL     1      -8.991   5.298  67.581  1.00  0.00    -0.109 A  
HETATM   25  C   UNL     1      -8.291   5.119  66.375  1.00  0.00    -0.108 A  
HETATM   26  O   UNL     1      -6.541  10.421  64.777  1.00  0.00    -0.116 OA 
HETATM   27  C   UNL     1      -6.882   9.842  65.813  1.00  0.00    -0.104 C  
HETATM   28  C   UNL     1      -7.469   6.152  65.897  1.00  0.00    -0.082 A  
HETATM   29  C   UNL     1      -6.385   8.425  66.082  1.00  0.00    -0.050 C  
HETATM   30  C   UNL     1      -7.339   7.370  66.592  1.00  0.00    -0.084 A  
BRANCH  24  31
HETATM   31  O   UNL     1      -9.815   4.280  67.994  1.00  0.00    -0.131 OA 
HETATM   32  C   UNL     1      -9.425   3.591  69.177  1.00  0.00    -0.154 C  
ENDBRANCH  24  31
BRANCH  25  33
HETATM   33  O   UNL     1      -8.464   3.911  65.748  1.00  0.00    -0.108 OA 
HETATM   34  C   UNL     1      -7.340   3.045  65.667  1.00  0.00    -0.072 C  
ENDBRANCH  25  33
ENDBRANCH  18  19
ENDBRANCH  17  18
ENDBRANCH  16  17
ENDBRANCH  14  16
ENDBRANCH  13  14
ENDBRANCH   9  13
ENDBRANCH   2   3
TORSDOF 10
ENDMDL
MODEL      205
REMARK 921   NORMALIZED FREE ENERGY PREDICTED BY IDOCK:   -3.85 KCAL/MOL
REMARK 922        TOTAL FREE ENERGY PREDICTED BY IDOCK:   -8.06 KCAL/MOL
REMARK 923 INTER-LIGAND FREE ENERGY PREDICTED BY IDOCK:   -6.42 KCAL/MOL
REMARK 924 INTRA-LIGAND FREE ENERGY PREDICTED BY IDOCK:   -1.64 KCAL/MOL
REMARK 927      BINDING AFFINITY PREDICTED BY RF-SCORE:    0.00 PKD
ROOT
HETATM    1  C   UNL     1     -12.724   7.769  71.137  1.00  0.00    -0.176 C  
HETATM    2  O   UNL     1     -12.025   6.557  71.403  1.00  0.00    -0.328 OA 
ENDROOT
BRANCH   2   3
HETATM    3  C   UNL     1     -10.654   6.595  71.384  1.00  0.00    -0.224 A  
HETATM    4  C   UNL     1      -9.778   5.736  70.667  1.00  0.00    -0.178 A  
HETATM    5  C   UNL     1     -10.122   7.643  72.186  1.00  0.00    -0.246 A  
HETATM    6  C   UNL     1      -8.399   5.886  70.817  1.00  0.00    -0.125 A  
HETATM    7  C   UNL     1      -8.748   7.760  72.280  1.00  0.00    -0.177 A  
HETATM    8  C   UNL     1      -7.942   6.850  71.672  1.00  0.00    -0.101 A  
HETATM    9  C   UNL     1      -6.659   7.375  72.266  1.00  0.00    -0.051 C  
HETATM   10  C   UNL     1      -7.574   8.586  72.755  1.00  0.00    -0.056 C  
BRANCH   4  11
HETATM   11  O   UNL     1     -10.278   4.794  69.807  1.00  0.00    -0.246 OA 
HETATM   12  C   UNL     1      -9.760   3.472  69.946  1.00  0.00    -0.061 C  
ENDBRANCH   4  11
BRANCH   9  13
HETATM   13  C   UNL     1      -5.598   7.311  71.160  1.00  0.00    -0.031 C  
BRANCH  13  14
HETATM   14  N   UNL     1      -5.683   8.292  70.076  1.00  0.00    -0.022 NA 
HETATM   15  C   UNL     1      -5.260   9.614  70.508  1.00  0.00    -0.037 C  
BRANCH  14  16
HETATM   16  C   UNL     1      -5.128   7.819  68.802  1.00  0.00    -0.023 C  
BRANCH  16  17
HETATM   17  C   UNL     1      -6.110   8.013  67.649  1.00  0.00    -0.051 C  
BRANCH  17  18
HETATM   18  C   UNL     1      -7.555   7.651  68.014  1.00  0.00    -0.110 C  
BRANCH  18  19
HETATM   19  N   UNL     1      -8.422   8.805  67.768  1.00  0.00    -0.125 N  
HETATM   20  C   UNL     1      -8.438   9.857  68.779  1.00  0.00    -0.122 C  
HETATM   21  C   UNL     1      -9.828  10.079  69.351  1.00  0.00    -0.240 C  
HETATM   22  C   UNL     1     -10.533  11.090  68.491  1.00  0.00    -0.210 A  
HETATM   23  C   UNL     1     -10.896  12.315  69.063  1.00  0.00    -0.197 A  
HETATM   24  C   UNL     1     -11.502  13.317  68.305  1.00  0.00    -0.316 A  
HETATM   25  C   UNL     1     -11.748  13.092  66.940  1.00  0.00    -0.383 A  
HETATM   26  O   UNL     1      -8.536   8.469  65.510  1.00  0.00    -0.163 OA 
HETATM   27  C   UNL     1      -9.024   8.966  66.529  1.00  0.00    -0.155 C  
HETATM   28  C   UNL     1     -11.379  11.864  66.367  1.00  0.00    -0.400 A  
HETATM   29  C   UNL     1     -10.445   9.522  66.491  1.00  0.00    -0.201 C  
HETATM   30  C   UNL     1     -10.756  10.856  67.128  1.00  0.00    -0.320 A  
BRANCH  24  31
HETATM   31  O   UNL     1     -11.842  14.545  68.818  1.00  0.00    -0.308 OA 
HETATM   32  C   UNL     1     -12.435  14.548  70.112  1.00  0.00    -0.321 C  
ENDBRANCH  24  31
BRANCH  25  33
HETATM   33  O   UNL     1     -12.355  14.116  66.257  1.00  0.00    -0.456 OA 
HETATM   34  C   UNL     1     -11.522  14.986  65.502  1.00  0.00    -0.265 C  
ENDBRANCH  25  33
ENDBRANCH  18  19
ENDBRANCH  17  18
ENDBRANCH  16  17
ENDBRANCH  14  16
ENDBRANCH  13  14
ENDBRANCH   9  13
ENDBRANCH   2   3
TORSDOF 10
ENDMDL
MODEL      206
REMARK 921   NORMALIZED FREE ENERGY PREDICTED BY IDOCK:   -3.85 KCAL/MOL
REMARK 922        TOTAL FREE ENERGY PREDICTED BY IDOCK:   -8.06 KCAL/MOL
REMARK 923 INTER-LIGAND FREE ENERGY PREDICTED BY IDOCK:   -5.86 KCAL/MOL
REMARK 924 INTRA-LIGAND FREE ENERGY PREDICTED BY IDOCK:   -2.19 KCAL/MOL
REMARK 927      BINDING AFFINITY PREDICTED BY RF-SCORE:    0.00 PKD
ROOT
HETATM    1  C   UNL     1      -5.602  13.777  71.649  1.00  0.00    -0.199 C  
HETATM    2  O   UNL     1      -5.418  13.808  70.237  1.00  0.00    -0.103 OA 
ENDROOT
BRANCH   2   3
HETATM    3  C   UNL     1      -6.217  12.997  69.473  1.00  0.00    -0.117 A  
HETATM    4  C   UNL     1      -7.348  13.380  68.701  1.00  0.00    -0.106 A  
HETATM    5  C   UNL     1      -5.803  11.636  69.497  1.00  0.00    -0.080 A  
HETATM    6  C   UNL     1      -8.082  12.401  68.032  1.00  0.00    -0.162 A  
HETATM    7  C   UNL     1      -6.554  10.712  68.796  1.00  0.00    -0.053 A  
HETATM    8  C   UNL     1      -7.693  11.097  68.164  1.00  0.00    -0.107 A  
HETATM    9  C   UNL     1      -8.123   9.703  67.781  1.00  0.00    -0.113 C  
HETATM   10  C   UNL     1      -6.668   9.293  68.286  1.00  0.00    -0.060 C  
BRANCH   4  11
HETATM   11  O   UNL     1      -7.692  14.701  68.582  1.00  0.00    -0.122 OA 
HETATM   12  C   UNL     1      -8.488  15.243  69.635  1.00  0.00    -0.101 C  
ENDBRANCH   4  11
BRANCH   9  13
HETATM   13  C   UNL     1      -8.697   9.789  66.360  1.00  0.00    -0.131 C  
BRANCH  13  14
HETATM   14  N   UNL     1     -10.130   9.548  66.188  1.00  0.00    -0.281 NA 
HETATM   15  C   UNL     1     -10.647   8.623  67.182  1.00  0.00    -0.234 C  
BRANCH  14  16
HETATM   16  C   UNL     1     -10.916  10.769  65.970  1.00  0.00     0.060 C  
BRANCH  16  17
HETATM   17  C   UNL     1     -11.010  11.127  64.490  1.00  0.00    -0.255 C  
BRANCH  17  18
HETATM   18  C   UNL     1     -12.043  12.221  64.193  1.00  0.00    -0.436 C  
BRANCH  18  19
HETATM   19  N   UNL     1     -11.617  13.475  64.821  1.00  0.00    -0.335 N  
HETATM   20  C   UNL     1     -10.449  14.141  64.256  1.00  0.00     0.257 C  
HETATM   21  C   UNL     1      -9.336  14.306  65.277  1.00  0.00     0.607 C  
HETATM   22  C   UNL     1      -9.553  15.606  66.001  1.00  0.00    -0.386 A  
HETATM   23  C   UNL     1      -8.587  16.611  65.869  1.00  0.00    -0.072 A  
HETATM   24  C   UNL     1      -8.755  17.859  66.469  1.00  0.00    -0.256 A  
HETATM   25  C   UNL     1      -9.918  18.111  67.217  1.00  0.00    -0.330 A  
HETATM   26  O   UNL     1     -13.648  13.896  65.783  1.00  0.00    -0.319 OA 
HETATM   27  C   UNL     1     -12.428  14.085  65.766  1.00  0.00    -0.494 C  
HETATM   28  C   UNL     1     -10.887  17.102  67.344  1.00  0.00    -0.164 A  
HETATM   29  C   UNL     1     -11.754  14.763  66.955  1.00  0.00    -0.330 C  
HETATM   30  C   UNL     1     -10.725  15.846  66.729  1.00  0.00    -0.281 A  
BRANCH  24  31
HETATM   31  O   UNL     1      -7.852  18.885  66.335  1.00  0.00    -0.261 OA 
HETATM   32  C   UNL     1      -6.494  18.508  66.134  1.00  0.00    -0.221 C  
ENDBRANCH  24  31
BRANCH  25  33
HETATM   33  O   UNL     1     -10.014  19.356  67.786  1.00  0.00    -0.336 OA 
HETATM   34  C   UNL     1      -9.940  19.438  69.203  1.00  0.00    -0.342 C  
ENDBRANCH  25  33
ENDBRANCH  18  19
ENDBRANCH  17  18
ENDBRANCH  16  17
ENDBRANCH  14  16
ENDBRANCH  13  14
ENDBRANCH   9  13
ENDBRANCH   2   3
TORSDOF 10
ENDMDL
MODEL      207
REMARK 921   NORMALIZED FREE ENERGY PREDICTED BY IDOCK:   -3.82 KCAL/MOL
REMARK 922        TOTAL FREE ENERGY PREDICTED BY IDOCK:   -8.02 KCAL/MOL
REMARK 923 INTER-LIGAND FREE ENERGY PREDICTED BY IDOCK:   -7.34 KCAL/MOL
REMARK 924 INTRA-LIGAND FREE ENERGY PREDICTED BY IDOCK:   -0.68 KCAL/MOL
REMARK 927      BINDING AFFINITY PREDICTED BY RF-SCORE:    0.00 PKD
ROOT
HETATM    1  C   UNL     1     -11.030   3.738  73.754  1.00  0.00    -0.227 C  
HETATM    2  O   UNL     1     -10.283   3.788  72.542  1.00  0.00    -0.165 OA 
ENDROOT
BRANCH   2   3
HETATM    3  C   UNL     1     -10.015   5.024  72.010  1.00  0.00    -0.184 A  
HETATM    4  C   UNL     1      -8.738   5.610  71.794  1.00  0.00    -0.136 A  
HETATM    5  C   UNL     1     -11.193   5.736  71.651  1.00  0.00    -0.258 A  
HETATM    6  C   UNL     1      -8.659   6.911  71.297  1.00  0.00    -0.123 A  
HETATM    7  C   UNL     1     -11.055   7.013  71.141  1.00  0.00    -0.288 A  
HETATM    8  C   UNL     1      -9.824   7.584  71.055  1.00  0.00    -0.182 A  
HETATM    9  C   UNL     1     -10.326   8.943  70.636  1.00  0.00    -0.265 C  
HETATM   10  C   UNL     1     -11.726   8.197  70.483  1.00  0.00    -0.067 C  
BRANCH   4  11
HETATM   11  O   UNL     1      -7.595   4.893  72.033  1.00  0.00    -0.083 OA 
HETATM   12  C   UNL     1      -6.364   5.550  71.738  1.00  0.00    -0.043 C  
ENDBRANCH   4  11
BRANCH   9  13
HETATM   13  C   UNL     1      -9.354   9.466  69.570  1.00  0.00    -0.180 C  
BRANCH  13  14
HETATM   14  N   UNL     1      -9.796   9.444  68.175  1.00  0.00    -0.155 NA 
HETATM   15  C   UNL     1      -9.542   8.159  67.546  1.00  0.00    -0.157 C  
BRANCH  14  16
HETATM   16  C   UNL     1     -11.134  10.012  67.966  1.00  0.00    -0.201 C  
BRANCH  16  17
HETATM   17  C   UNL     1     -11.099  11.216  67.029  1.00  0.00    -0.339 C  
BRANCH  17  18
HETATM   18  C   UNL     1      -9.692  11.544  66.513  1.00  0.00    -0.203 C  
BRANCH  18  19
HETATM   19  N   UNL     1      -9.326  12.900  66.929  1.00  0.00    -0.234 N  
HETATM   20  C   UNL     1     -10.244  13.978  66.577  1.00  0.00    -0.279 C  
HETATM   21  C   UNL     1      -9.578  15.037  65.715  1.00  0.00    -0.327 C  
HETATM   22  C   UNL     1      -8.951  16.057  66.625  1.00  0.00    -0.293 A  
HETATM   23  C   UNL     1      -9.434  17.371  66.585  1.00  0.00    -0.285 A  
HETATM   24  C   UNL     1      -8.934  18.351  67.442  1.00  0.00    -0.261 A  
HETATM   25  C   UNL     1      -7.931  18.010  68.366  1.00  0.00    -0.300 A  
HETATM   26  O   UNL     1      -7.902  12.206  68.578  1.00  0.00    -0.134 OA 
HETATM   27  C   UNL     1      -8.262  13.093  67.798  1.00  0.00    -0.168 C  
HETATM   28  C   UNL     1      -7.452  16.690  68.406  1.00  0.00    -0.194 A  
HETATM   29  C   UNL     1      -7.367  14.308  67.574  1.00  0.00    -0.199 C  
HETATM   30  C   UNL     1      -7.964  15.697  67.550  1.00  0.00    -0.184 A  
BRANCH  24  31
HETATM   31  O   UNL     1      -9.403  19.642  67.462  1.00  0.00    -0.308 OA 
HETATM   32  C   UNL     1     -10.795  19.812  67.215  1.00  0.00    -0.342 C  
ENDBRANCH  24  31
BRANCH  25  33
HETATM   33  O   UNL     1      -7.479  19.025  69.172  1.00  0.00    -0.314 OA 
HETATM   34  C   UNL     1      -6.076  19.135  69.367  1.00  0.00    -0.264 C  
ENDBRANCH  25  33
ENDBRANCH  18  19
ENDBRANCH  17  18
ENDBRANCH  16  17
ENDBRANCH  14  16
ENDBRANCH  13  14
ENDBRANCH   9  13
ENDBRANCH   2   3
TORSDOF 10
ENDMDL
MODEL      208
REMARK 921   NORMALIZED FREE ENERGY PREDICTED BY IDOCK:   -3.82 KCAL/MOL
REMARK 922        TOTAL FREE ENERGY PREDICTED BY IDOCK:   -8.01 KCAL/MOL
REMARK 923 INTER-LIGAND FREE ENERGY PREDICTED BY IDOCK:   -6.39 KCAL/MOL
REMARK 924 INTRA-LIGAND FREE ENERGY PREDICTED BY IDOCK:   -1.62 KCAL/MOL
REMARK 927      BINDING AFFINITY PREDICTED BY RF-SCORE:    0.00 PKD
ROOT
HETATM    1  C   UNL     1     -12.283  15.818  64.266  1.00  0.00     0.093 C  
HETATM    2  O   UNL     1     -10.886  15.663  64.500  1.00  0.00    -0.394 OA 
ENDROOT
BRANCH   2   3
HETATM    3  C   UNL     1     -10.462  14.487  65.064  1.00  0.00    -0.429 A  
HETATM    4  C   UNL     1     -10.723  13.167  64.604  1.00  0.00    -0.380 A  
HETATM    5  C   UNL     1      -9.672  14.689  66.229  1.00  0.00    -0.329 A  
HETATM    6  C   UNL     1     -10.259  12.081  65.346  1.00  0.00    -0.295 A  
HETATM    7  C   UNL     1      -9.217  13.577  66.912  1.00  0.00    -0.254 A  
HETATM    8  C   UNL     1      -9.582  12.332  66.507  1.00  0.00    -0.242 A  
HETATM    9  C   UNL     1      -8.972  11.614  67.685  1.00  0.00    -0.166 C  
HETATM   10  C   UNL     1      -8.327  13.035  68.007  1.00  0.00    -0.169 C  
BRANCH   4  11
HETATM   11  O   UNL     1     -11.390  12.962  63.425  1.00  0.00    -0.435 OA 
HETATM   12  C   UNL     1     -12.411  11.966  63.443  1.00  0.00    -0.463 C  
ENDBRANCH   4  11
BRANCH   9  13
HETATM   13  C   UNL     1      -8.333  10.330  67.140  1.00  0.00    -0.122 C  
BRANCH  13  14
HETATM   14  N   UNL     1      -7.263  10.468  66.149  1.00  0.00    -0.130 NA 
HETATM   15  C   UNL     1      -5.947  10.390  66.759  1.00  0.00    -0.063 C  
BRANCH  14  16
HETATM   16  C   UNL     1      -7.466   9.660  64.940  1.00  0.00    -0.118 C  
BRANCH  16  17
HETATM   17  C   UNL     1      -8.602   8.656  65.113  1.00  0.00    -0.200 C  
BRANCH  17  18
HETATM   18  C   UNL     1      -8.123   7.200  65.172  1.00  0.00    -0.127 C  
BRANCH  18  19
HETATM   19  N   UNL     1      -8.144   6.738  66.562  1.00  0.00    -0.105 N  
HETATM   20  C   UNL     1      -9.328   6.012  67.007  1.00  0.00    -0.122 C  
HETATM   21  C   UNL     1     -10.015   6.698  68.175  1.00  0.00    -0.156 C  
HETATM   22  C   UNL     1      -9.397   6.189  69.448  1.00  0.00    -0.147 A  
HETATM   23  C   UNL     1     -10.204   5.472  70.341  1.00  0.00    -0.321 A  
HETATM   24  C   UNL     1      -9.679   4.926  71.511  1.00  0.00    -0.172 A  
HETATM   25  C   UNL     1      -8.312   5.094  71.796  1.00  0.00    -0.118 A  
HETATM   26  O   UNL     1      -5.873   6.818  66.816  1.00  0.00    -0.020 OA 
HETATM   27  C   UNL     1      -6.994   6.814  67.334  1.00  0.00    -0.082 C  
HETATM   28  C   UNL     1      -7.505   5.809  70.897  1.00  0.00    -0.090 A  
HETATM   29  C   UNL     1      -7.144   7.179  68.807  1.00  0.00    -0.088 C  
HETATM   30  C   UNL     1      -8.030   6.352  69.709  1.00  0.00    -0.119 A  
BRANCH  24  31
HETATM   31  O   UNL     1     -10.425   4.186  72.395  1.00  0.00    -0.170 OA 
HETATM   32  C   UNL     1     -11.332   4.912  73.218  1.00  0.00    -0.327 C  
ENDBRANCH  24  31
BRANCH  25  33
HETATM   33  O   UNL     1      -7.865   4.537  72.968  1.00  0.00    -0.089 OA 
HETATM   34  C   UNL     1      -6.779   3.624  72.890  1.00  0.00    -0.037 C  
ENDBRANCH  25  33
ENDBRANCH  18  19
ENDBRANCH  17  18
ENDBRANCH  16  17
ENDBRANCH  14  16
ENDBRANCH  13  14
ENDBRANCH   9  13
ENDBRANCH   2   3
TORSDOF 10
ENDMDL
MODEL      209
REMARK 921   NORMALIZED FREE ENERGY PREDICTED BY IDOCK:   -3.81 KCAL/MOL
REMARK 922        TOTAL FREE ENERGY PREDICTED BY IDOCK:   -8.00 KCAL/MOL
REMARK 923 INTER-LIGAND FREE ENERGY PREDICTED BY IDOCK:   -7.12 KCAL/MOL
REMARK 924 INTRA-LIGAND FREE ENERGY PREDICTED BY IDOCK:   -0.89 KCAL/MOL
REMARK 927      BINDING AFFINITY PREDICTED BY RF-SCORE:    0.00 PKD
ROOT
HETATM    1  C   UNL     1      -6.036   6.891  68.147  1.00  0.00    -0.033 C  
HETATM    2  O   UNL     1      -7.419   6.601  67.969  1.00  0.00    -0.093 OA 
ENDROOT
BRANCH   2   3
HETATM    3  C   UNL     1      -8.153   7.455  67.186  1.00  0.00    -0.114 A  
HETATM    4  C   UNL     1      -9.532   7.773  67.317  1.00  0.00    -0.148 A  
HETATM    5  C   UNL     1      -7.380   8.057  66.155  1.00  0.00    -0.074 A  
HETATM    6  C   UNL     1     -10.129   8.621  66.384  1.00  0.00    -0.294 A  
HETATM    7  C   UNL     1      -8.018   8.908  65.273  1.00  0.00    -0.116 A  
HETATM    8  C   UNL     1      -9.361   9.100  65.360  1.00  0.00    -0.258 A  
HETATM    9  C   UNL     1      -9.470   9.917  64.096  1.00  0.00    -0.254 C  
HETATM   10  C   UNL     1      -7.878   9.910  64.149  1.00  0.00    -0.142 C  
BRANCH   4  11
HETATM   11  O   UNL     1     -10.261   7.285  68.369  1.00  0.00    -0.169 OA 
HETATM   12  C   UNL     1     -10.474   8.180  69.460  1.00  0.00    -0.227 C  
ENDBRANCH   4  11
BRANCH   9  13
HETATM   13  C   UNL     1     -10.472  11.044  64.382  1.00  0.00    -0.354 C  
BRANCH  13  14
HETATM   14  N   UNL     1      -9.970  12.252  65.039  1.00  0.00    -0.241 NA 
HETATM   15  C   UNL     1     -10.622  13.450  64.540  1.00  0.00    -0.425 C  
BRANCH  14  16
HETATM   16  C   UNL     1      -9.865  12.133  66.499  1.00  0.00    -0.218 C  
BRANCH  16  17
HETATM   17  C   UNL     1      -8.412  12.033  66.956  1.00  0.00    -0.183 C  
BRANCH  17  18
HETATM   18  C   UNL     1      -8.207  12.434  68.423  1.00  0.00    -0.144 C  
BRANCH  18  19
HETATM   19  N   UNL     1      -7.923  13.869  68.499  1.00  0.00    -0.141 N  
HETATM   20  C   UNL     1      -8.951  14.781  68.009  1.00  0.00    -0.174 C  
HETATM   21  C   UNL     1      -8.444  15.661  66.879  1.00  0.00    -0.286 C  
HETATM   22  C   UNL     1      -7.835  16.895  67.483  1.00  0.00    -0.186 A  
HETATM   23  C   UNL     1      -8.426  18.134  67.205  1.00  0.00    -0.247 A  
HETATM   24  C   UNL     1      -7.944  19.310  67.778  1.00  0.00    -0.277 A  
HETATM   25  C   UNL     1      -6.847  19.249  68.655  1.00  0.00    -0.301 A  
HETATM   26  O   UNL     1      -6.322  13.653  70.117  1.00  0.00    -0.120 OA 
HETATM   27  C   UNL     1      -6.814  14.318  69.201  1.00  0.00    -0.120 C  
HETATM   28  C   UNL     1      -6.259  18.005  68.935  1.00  0.00    -0.215 A  
HETATM   29  C   UNL     1      -6.043  15.507  68.635  1.00  0.00    -0.097 C  
HETATM   30  C   UNL     1      -6.752  16.815  68.367  1.00  0.00    -0.154 A  
BRANCH  24  31
HETATM   31  O   UNL     1      -8.515  20.541  67.561  1.00  0.00    -0.319 OA 
HETATM   32  C   UNL     1      -9.746  20.549  66.846  1.00  0.00    -0.375 C  
ENDBRANCH  24  31
BRANCH  25  33
HETATM   33  O   UNL     1      -6.420  20.445  69.176  1.00  0.00    -0.297 OA 
HETATM   34  C   UNL     1      -5.660  20.405  70.376  1.00  0.00    -0.322 C  
ENDBRANCH  25  33
ENDBRANCH  18  19
ENDBRANCH  17  18
ENDBRANCH  16  17
ENDBRANCH  14  16
ENDBRANCH  13  14
ENDBRANCH   9  13
ENDBRANCH   2   3
TORSDOF 10
ENDMDL
MODEL      210
REMARK 921   NORMALIZED FREE ENERGY PREDICTED BY IDOCK:   -3.79 KCAL/MOL
REMARK 922        TOTAL FREE ENERGY PREDICTED BY IDOCK:   -7.97 KCAL/MOL
REMARK 923 INTER-LIGAND FREE ENERGY PREDICTED BY IDOCK:   -7.00 KCAL/MOL
REMARK 924 INTRA-LIGAND FREE ENERGY PREDICTED BY IDOCK:   -0.97 KCAL/MOL
REMARK 927      BINDING AFFINITY PREDICTED BY RF-SCORE:    0.00 PKD
ROOT
HETATM    1  C   UNL     1      -6.692   5.365  63.407  1.00  0.00    -0.033 C  
HETATM    2  O   UNL     1      -7.360   4.643  64.438  1.00  0.00    -0.064 OA 
ENDROOT
BRANCH   2   3
HETATM    3  C   UNL     1      -8.155   5.354  65.300  1.00  0.00    -0.123 A  
HETATM    4  C   UNL     1      -8.882   4.852  66.413  1.00  0.00    -0.113 A  
HETATM    5  C   UNL     1      -8.202   6.741  64.988  1.00  0.00    -0.096 A  
HETATM    6  C   UNL     1      -9.693   5.718  67.146  1.00  0.00    -0.147 A  
HETATM    7  C   UNL     1      -9.004   7.558  65.762  1.00  0.00    -0.077 A  
HETATM    8  C   UNL     1      -9.773   7.023  66.747  1.00  0.00    -0.241 A  
HETATM    9  C   UNL     1     -10.505   8.303  67.068  1.00  0.00    -0.384 C  
HETATM   10  C   UNL     1      -9.422   8.969  66.107  1.00  0.00    -0.318 C  
BRANCH   4  11
HETATM   11  O   UNL     1      -8.759   3.540  66.789  1.00  0.00    -0.108 OA 
HETATM   12  C   UNL     1      -7.802   3.262  67.809  1.00  0.00    -0.075 C  
ENDBRANCH   4  11
BRANCH   9  13
HETATM   13  C   UNL     1     -10.652   8.360  68.594  1.00  0.00    -0.113 C  
BRANCH  13  14
HETATM   14  N   UNL     1     -10.626   9.677  69.233  1.00  0.00    -0.213 NA 
HETATM   15  C   UNL     1      -9.275  10.083  69.582  1.00  0.00    -0.215 C  
BRANCH  14  16
HETATM   16  C   UNL     1     -11.448  10.684  68.551  1.00  0.00    -0.265 C  
BRANCH  16  17
HETATM   17  C   UNL     1     -10.630  11.908  68.149  1.00  0.00    -0.233 C  
BRANCH  17  18
HETATM   18  C   UNL     1     -11.394  12.879  67.241  1.00  0.00    -0.310 C  
BRANCH  18  19
HETATM   19  N   UNL     1     -10.679  14.156  67.184  1.00  0.00    -0.279 N  
HETATM   20  C   UNL     1      -9.444  14.265  67.951  1.00  0.00    -0.212 C  
HETATM   21  C   UNL     1      -9.507  15.381  68.980  1.00  0.00    -0.236 C  
HETATM   22  C   UNL     1      -9.045  16.652  68.323  1.00  0.00    -0.218 A  
HETATM   23  C   UNL     1      -7.881  17.266  68.803  1.00  0.00    -0.254 A  
HETATM   24  C   UNL     1      -7.370  18.415  68.201  1.00  0.00    -0.261 A  
HETATM   25  C   UNL     1      -8.034  18.964  67.090  1.00  0.00    -0.241 A  
HETATM   26  O   UNL     1     -11.655  14.824  65.226  1.00  0.00    -0.349 OA 
HETATM   27  C   UNL     1     -11.066  15.125  66.269  1.00  0.00    -0.309 C  
HETATM   28  C   UNL     1      -9.198  18.344  66.609  1.00  0.00    -0.305 A  
HETATM   29  C   UNL     1     -11.007  16.585  66.706  1.00  0.00     0.046 C  
HETATM   30  C   UNL     1      -9.709  17.177  67.207  1.00  0.00    -0.254 A  
BRANCH  24  31
HETATM   31  O   UNL     1      -6.212  19.028  68.616  1.00  0.00    -0.216 OA 
HETATM   32  C   UNL     1      -5.927  18.962  70.009  1.00  0.00    -0.219 C  
ENDBRANCH  24  31
BRANCH  25  33
HETATM   33  O   UNL     1      -7.480  20.100  66.554  1.00  0.00    -0.265 OA 
HETATM   34  C   UNL     1      -6.784  19.972  65.321  1.00  0.00    -0.301 C  
ENDBRANCH  25  33
ENDBRANCH  18  19
ENDBRANCH  17  18
ENDBRANCH  16  17
ENDBRANCH  14  16
ENDBRANCH  13  14
ENDBRANCH   9  13
ENDBRANCH   2   3
TORSDOF 10
ENDMDL
MODEL      211
REMARK 921   NORMALIZED FREE ENERGY PREDICTED BY IDOCK:   -3.78 KCAL/MOL
REMARK 922        TOTAL FREE ENERGY PREDICTED BY IDOCK:   -7.96 KCAL/MOL
REMARK 923 INTER-LIGAND FREE ENERGY PREDICTED BY IDOCK:   -6.42 KCAL/MOL
REMARK 924 INTRA-LIGAND FREE ENERGY PREDICTED BY IDOCK:   -1.54 KCAL/MOL
REMARK 927      BINDING AFFINITY PREDICTED BY RF-SCORE:    0.00 PKD
ROOT
HETATM    1  C   UNL     1      -7.873  15.438  69.418  1.00  0.00    -0.232 C  
HETATM    2  O   UNL     1      -9.083  14.816  68.995  1.00  0.00    -0.187 OA 
ENDROOT
BRANCH   2   3
HETATM    3  C   UNL     1      -8.990  13.801  68.078  1.00  0.00    -0.187 A  
HETATM    4  C   UNL     1     -10.004  13.343  67.193  1.00  0.00    -0.242 A  
HETATM    5  C   UNL     1      -7.705  13.190  68.062  1.00  0.00    -0.146 A  
HETATM    6  C   UNL     1      -9.747  12.249  66.366  1.00  0.00    -0.243 A  
HETATM    7  C   UNL     1      -7.499  12.125  67.206  1.00  0.00    -0.152 A  
HETATM    8  C   UNL     1      -8.525  11.642  66.457  1.00  0.00    -0.141 A  
HETATM    9  C   UNL     1      -7.767  10.452  65.926  1.00  0.00    -0.145 C  
HETATM   10  C   UNL     1      -6.506  11.166  66.588  1.00  0.00    -0.134 C  
BRANCH   4  11
HETATM   11  O   UNL     1     -11.208  13.992  67.122  1.00  0.00    -0.295 OA 
HETATM   12  C   UNL     1     -12.118  13.529  66.125  1.00  0.00    -0.436 C  
ENDBRANCH   4  11
BRANCH   9  13
HETATM   13  C   UNL     1      -8.163  10.295  64.451  1.00  0.00    -0.159 C  
BRANCH  13  14
HETATM   14  N   UNL     1      -7.362   9.393  63.622  1.00  0.00    -0.104 NA 
HETATM   15  C   UNL     1      -6.181  10.051  63.090  1.00  0.00    -0.132 C  
BRANCH  14  16
HETATM   16  C   UNL     1      -7.151   8.068  64.219  1.00  0.00    -0.078 C  
BRANCH  16  17
HETATM   17  C   UNL     1      -8.454   7.280  64.325  1.00  0.00     0.244 C  
BRANCH  17  18
HETATM   18  C   UNL     1      -8.283   5.913  65.000  1.00  0.00    -0.138 C  
BRANCH  18  19
HETATM   19  N   UNL     1      -8.897   5.948  66.330  1.00  0.00    -0.138 N  
HETATM   20  C   UNL     1      -9.430   7.227  66.786  1.00  0.00    -0.171 C  
HETATM   21  C   UNL     1      -8.771   7.695  68.072  1.00  0.00    -0.125 C  
HETATM   22  C   UNL     1      -9.540   7.121  69.229  1.00  0.00    -0.155 A  
HETATM   23  C   UNL     1     -10.190   8.004  70.101  1.00  0.00    -0.203 A  
HETATM   24  C   UNL     1     -10.965   7.534  71.160  1.00  0.00    -0.246 A  
HETATM   25  C   UNL     1     -11.098   6.148  71.353  1.00  0.00    -0.288 A  
HETATM   26  O   UNL     1      -9.286   3.696  66.411  1.00  0.00    -0.168 OA 
HETATM   27  C   UNL     1      -9.138   4.764  67.012  1.00  0.00    -0.118 C  
HETATM   28  C   UNL     1     -10.449   5.266  70.476  1.00  0.00    -0.312 A  
HETATM   29  C   UNL     1      -8.931   4.755  68.523  1.00  0.00    -0.137 C  
HETATM   30  C   UNL     1      -9.676   5.738  69.398  1.00  0.00    -0.200 A  
BRANCH  24  31
HETATM   31  O   UNL     1     -11.649   8.363  72.016  1.00  0.00    -0.302 OA 
HETATM   32  C   UNL     1     -12.585   9.254  71.419  1.00  0.00    -0.336 C  
ENDBRANCH  24  31
BRANCH  25  33
HETATM   33  O   UNL     1     -11.868   5.757  72.420  1.00  0.00    -0.293 OA 
HETATM   34  C   UNL     1     -11.336   4.762  73.285  1.00  0.00    -0.322 C  
ENDBRANCH  25  33
ENDBRANCH  18  19
ENDBRANCH  17  18
ENDBRANCH  16  17
ENDBRANCH  14  16
ENDBRANCH  13  14
ENDBRANCH   9  13
ENDBRANCH   2   3
TORSDOF 10
ENDMDL
MODEL      212
REMARK 921   NORMALIZED FREE ENERGY PREDICTED BY IDOCK:   -3.74 KCAL/MOL
REMARK 922        TOTAL FREE ENERGY PREDICTED BY IDOCK:   -7.89 KCAL/MOL
REMARK 923 INTER-LIGAND FREE ENERGY PREDICTED BY IDOCK:   -7.66 KCAL/MOL
REMARK 924 INTRA-LIGAND FREE ENERGY PREDICTED BY IDOCK:   -0.23 KCAL/MOL
REMARK 927      BINDING AFFINITY PREDICTED BY RF-SCORE:    0.00 PKD
ROOT
HETATM    1  C   UNL     1      -8.935   1.483  69.942  1.00  0.00    -0.073 C  
HETATM    2  O   UNL     1      -9.640   2.313  69.024  1.00  0.00    -0.123 OA 
ENDROOT
BRANCH   2   3
HETATM    3  C   UNL     1      -9.219   3.611  68.888  1.00  0.00    -0.160 A  
HETATM    4  C   UNL     1      -8.113   4.083  68.129  1.00  0.00    -0.084 A  
HETATM    5  C   UNL     1     -10.031   4.531  69.606  1.00  0.00    -0.251 A  
HETATM    6  C   UNL     1      -7.795   5.441  68.157  1.00  0.00    -0.092 A  
HETATM    7  C   UNL     1      -9.684   5.869  69.579  1.00  0.00    -0.190 A  
HETATM    8  C   UNL     1      -8.555   6.268  68.937  1.00  0.00    -0.125 A  
HETATM    9  C   UNL     1      -8.624   7.701  69.404  1.00  0.00    -0.136 C  
HETATM   10  C   UNL     1     -10.072   7.289  69.926  1.00  0.00    -0.196 C  
BRANCH   4  11
HETATM   11  O   UNL     1      -7.389   3.223  67.347  1.00  0.00    -0.058 OA 
HETATM   12  C   UNL     1      -7.843   3.054  66.005  1.00  0.00    -0.081 C  
ENDBRANCH   4  11
BRANCH   9  13
HETATM   13  C   UNL     1      -8.205   8.576  68.214  1.00  0.00    -0.123 C  
BRANCH  13  14
HETATM   14  N   UNL     1      -9.210   9.472  67.640  1.00  0.00    -0.124 NA 
HETATM   15  C   UNL     1     -10.339   8.740  67.093  1.00  0.00    -0.293 C  
BRANCH  14  16
HETATM   16  C   UNL     1      -9.536  10.622  68.492  1.00  0.00    -0.175 C  
BRANCH  16  17
HETATM   17  C   UNL     1     -11.010  10.634  68.889  1.00  0.00    -0.296 C  
BRANCH  17  18
HETATM   18  C   UNL     1     -11.903  11.381  67.889  1.00  0.00    -0.165 C  
BRANCH  18  19
HETATM   19  N   UNL     1     -11.327  12.700  67.615  1.00  0.00    -0.289 N  
HETATM   20  C   UNL     1     -11.116  13.587  68.753  1.00  0.00    -0.264 C  
HETATM   21  C   UNL     1     -11.879  14.892  68.611  1.00  0.00    -0.332 C  
HETATM   22  C   UNL     1     -11.008  15.867  67.869  1.00  0.00    -0.327 A  
HETATM   23  C   UNL     1     -10.593  17.028  68.533  1.00  0.00    -0.370 A  
HETATM   24  C   UNL     1      -9.738  17.945  67.921  1.00  0.00    -0.288 A  
HETATM   25  C   UNL     1      -9.283  17.694  66.615  1.00  0.00    -0.271 A  
HETATM   26  O   UNL     1     -10.417  12.088  65.609  1.00  0.00    -0.240 OA 
HETATM   27  C   UNL     1     -10.819  12.984  66.356  1.00  0.00    -0.278 C  
HETATM   28  C   UNL     1      -9.697  16.526  65.954  1.00  0.00    -0.303 A  
HETATM   29  C   UNL     1     -11.032  14.389  65.800  1.00  0.00    -0.314 C  
HETATM   30  C   UNL     1     -10.549  15.594  66.574  1.00  0.00    -0.307 A  
BRANCH  24  31
HETATM   31  O   UNL     1      -9.279  19.077  68.547  1.00  0.00    -0.338 OA 
HETATM   32  C   UNL     1     -10.248  20.081  68.830  1.00  0.00    -0.235 C  
ENDBRANCH  24  31
BRANCH  25  33
HETATM   33  O   UNL     1      -8.452  18.642  66.071  1.00  0.00    -0.486 OA 
HETATM   34  C   UNL     1      -7.071  18.323  65.967  1.00  0.00    -0.271 C  
ENDBRANCH  25  33
ENDBRANCH  18  19
ENDBRANCH  17  18
ENDBRANCH  16  17
ENDBRANCH  14  16
ENDBRANCH  13  14
ENDBRANCH   9  13
ENDBRANCH   2   3
TORSDOF 10
ENDMDL
MODEL      213
REMARK 921   NORMALIZED FREE ENERGY PREDICTED BY IDOCK:   -3.73 KCAL/MOL
REMARK 922        TOTAL FREE ENERGY PREDICTED BY IDOCK:   -7.87 KCAL/MOL
REMARK 923 INTER-LIGAND FREE ENERGY PREDICTED BY IDOCK:   -6.67 KCAL/MOL
REMARK 924 INTRA-LIGAND FREE ENERGY PREDICTED BY IDOCK:   -1.20 KCAL/MOL
REMARK 927      BINDING AFFINITY PREDICTED BY RF-SCORE:    0.00 PKD
ROOT
HETATM    1  C   UNL     1     -14.411   8.405  72.346  1.00  0.00    -0.284 C  
HETATM    2  O   UNL     1     -13.178   9.021  72.705  1.00  0.00    -0.403 OA 
ENDROOT
BRANCH   2   3
HETATM    3  C   UNL     1     -12.342   9.412  71.691  1.00  0.00    -0.385 A  
HETATM    4  C   UNL     1     -11.159   8.760  71.249  1.00  0.00    -0.278 A  
HETATM    5  C   UNL     1     -12.776  10.606  71.050  1.00  0.00    -0.512 A  
HETATM    6  C   UNL     1     -10.397   9.341  70.235  1.00  0.00    -0.272 A  
HETATM    7  C   UNL     1     -11.995  11.124  70.036  1.00  0.00    -0.447 A  
HETATM    8  C   UNL     1     -10.811  10.536  69.717  1.00  0.00    -0.335 A  
HETATM    9  C   UNL     1     -10.377  11.605  68.746  1.00  0.00    -0.213 C  
HETATM   10  C   UNL     1     -11.867  12.141  68.924  1.00  0.00    -0.358 C  
BRANCH   4  11
HETATM   11  O   UNL     1     -10.790   7.554  71.784  1.00  0.00    -0.224 OA 
HETATM   12  C   UNL     1     -11.029   7.383  73.180  1.00  0.00    -0.359 C  
ENDBRANCH   4  11
BRANCH   9  13
HETATM   13  C   UNL     1      -9.711  10.886  67.564  1.00  0.00    -0.167 C  
BRANCH  13  14
HETATM   14  N   UNL     1      -9.087  11.711  66.528  1.00  0.00    -0.193 NA 
HETATM   15  C   UNL     1      -7.716  12.057  66.865  1.00  0.00    -0.078 C  
BRANCH  14  16
HETATM   16  C   UNL     1      -9.314  11.223  65.162  1.00  0.00    -0.189 C  
BRANCH  16  17
HETATM   17  C   UNL     1      -9.579   9.720  65.134  1.00  0.00    -0.356 C  
BRANCH  17  18
HETATM   18  C   UNL     1      -8.325   8.887  64.838  1.00  0.00    -0.172 C  
BRANCH  18  19
HETATM   19  N   UNL     1      -8.122   7.915  65.915  1.00  0.00    -0.112 N  
HETATM   20  C   UNL     1      -8.728   6.599  65.749  1.00  0.00    -0.116 C  
HETATM   21  C   UNL     1      -9.704   6.274  66.867  1.00  0.00    -0.184 C  
HETATM   22  C   UNL     1      -8.937   5.625  67.986  1.00  0.00    -0.108 A  
HETATM   23  C   UNL     1      -9.243   4.300  68.322  1.00  0.00    -0.190 A  
HETATM   24  C   UNL     1      -8.531   3.623  69.312  1.00  0.00    -0.065 A  
HETATM   25  C   UNL     1      -7.484   4.283  69.980  1.00  0.00    -0.049 A  
HETATM   26  O   UNL     1      -6.268   8.957  66.755  1.00  0.00    -0.057 OA 
HETATM   27  C   UNL     1      -7.216   8.186  66.930  1.00  0.00    -0.083 C  
HETATM   28  C   UNL     1      -7.177   5.609  69.637  1.00  0.00    -0.065 A  
HETATM   29  C   UNL     1      -7.575   7.742  68.345  1.00  0.00    -0.109 C  
HETATM   30  C   UNL     1      -7.887   6.291  68.630  1.00  0.00    -0.102 A  
BRANCH  24  31
HETATM   31  O   UNL     1      -8.774   2.314  69.649  1.00  0.00    -0.056 OA 
HETATM   32  C   UNL     1      -9.650   2.096  70.749  1.00  0.00    -0.096 C  
ENDBRANCH  24  31
BRANCH  25  33
HETATM   33  O   UNL     1      -6.832   3.560  70.947  1.00  0.00    -0.031 OA 
HETATM   34  C   UNL     1      -6.271   4.278  72.037  1.00  0.00    -0.021 C  
ENDBRANCH  25  33
ENDBRANCH  18  19
ENDBRANCH  17  18
ENDBRANCH  16  17
ENDBRANCH  14  16
ENDBRANCH  13  14
ENDBRANCH   9  13
ENDBRANCH   2   3
TORSDOF 10
ENDMDL
MODEL      214
REMARK 921   NORMALIZED FREE ENERGY PREDICTED BY IDOCK:   -3.72 KCAL/MOL
REMARK 922        TOTAL FREE ENERGY PREDICTED BY IDOCK:   -7.86 KCAL/MOL
REMARK 923 INTER-LIGAND FREE ENERGY PREDICTED BY IDOCK:   -6.26 KCAL/MOL
REMARK 924 INTRA-LIGAND FREE ENERGY PREDICTED BY IDOCK:   -1.60 KCAL/MOL
REMARK 927      BINDING AFFINITY PREDICTED BY RF-SCORE:    0.00 PKD
ROOT
HETATM    1  C   UNL     1     -11.766   8.708  71.517  1.00  0.00    -0.305 C  
HETATM    2  O   UNL     1     -11.797   7.856  70.375  1.00  0.00    -0.106 OA 
ENDROOT
BRANCH   2   3
HETATM    3  C   UNL     1     -10.802   8.006  69.443  1.00  0.00    -0.094 A  
HETATM    4  C   UNL     1     -10.428   7.085  68.427  1.00  0.00    -0.201 A  
HETATM    5  C   UNL     1     -10.119   9.247  69.562  1.00  0.00    -0.205 A  
HETATM    6  C   UNL     1      -9.344   7.381  67.602  1.00  0.00    -0.145 A  
HETATM    7  C   UNL     1      -9.067   9.499  68.702  1.00  0.00    -0.132 A  
HETATM    8  C   UNL     1      -8.664   8.548  67.819  1.00  0.00    -0.137 A  
HETATM    9  C   UNL     1      -7.446   9.299  67.343  1.00  0.00    -0.087 C  
HETATM   10  C   UNL     1      -8.068  10.507  68.177  1.00  0.00    -0.113 C  
BRANCH   4  11
HETATM   11  O   UNL     1     -11.148   5.935  68.233  1.00  0.00    -0.258 OA 
HETATM   12  C   UNL     1     -10.406   4.716  68.244  1.00  0.00     0.177 C  
ENDBRANCH   4  11
BRANCH   9  13
HETATM   13  C   UNL     1      -7.352   9.079  65.828  1.00  0.00    -0.089 C  
BRANCH  13  14
HETATM   14  N   UNL     1      -7.822  10.154  64.952  1.00  0.00    -0.145 NA 
HETATM   15  C   UNL     1      -6.795  10.578  64.015  1.00  0.00     0.118 C  
BRANCH  14  16
HETATM   16  C   UNL     1      -9.156   9.920  64.386  1.00  0.00    -0.254 C  
BRANCH  16  17
HETATM   17  C   UNL     1     -10.251  10.579  65.222  1.00  0.00    -0.352 C  
BRANCH  17  18
HETATM   18  C   UNL     1     -11.128  11.548  64.418  1.00  0.00    -0.291 C  
BRANCH  18  19
HETATM   19  N   UNL     1     -10.820  12.924  64.815  1.00  0.00    -0.310 N  
HETATM   20  C   UNL     1      -9.666  13.127  65.683  1.00  0.00    -0.091 C  
HETATM   21  C   UNL     1     -10.046  13.794  66.994  1.00  0.00    -0.256 C  
HETATM   22  C   UNL     1      -9.984  15.284  66.797  1.00  0.00    -0.249 A  
HETATM   23  C   UNL     1      -9.048  16.015  67.540  1.00  0.00    -0.203 A  
HETATM   24  C   UNL     1      -8.902  17.391  67.363  1.00  0.00    -0.227 A  
HETATM   25  C   UNL     1      -9.706  18.053  66.420  1.00  0.00    -0.321 A  
HETATM   26  O   UNL     1     -11.964  13.874  63.079  1.00  0.00    -0.098 OA 
HETATM   27  C   UNL     1     -11.482  13.982  64.210  1.00  0.00    -0.297 C  
HETATM   28  C   UNL     1     -10.641  17.316  65.674  1.00  0.00    -0.173 A  
HETATM   29  C   UNL     1     -11.852  15.183  65.075  1.00  0.00    -0.180 C  
HETATM   30  C   UNL     1     -10.782  15.926  65.842  1.00  0.00    -0.303 A  
BRANCH  24  31
HETATM   31  O   UNL     1      -7.973  18.140  68.043  1.00  0.00    -0.249 OA 
HETATM   32  C   UNL     1      -7.154  17.440  68.973  1.00  0.00    -0.233 C  
ENDBRANCH  24  31
BRANCH  25  33
HETATM   33  O   UNL     1      -9.515  19.407  66.305  1.00  0.00    -0.353 OA 
HETATM   34  C   UNL     1     -10.642  20.249  66.511  1.00  0.00    -0.094 C  
ENDBRANCH  25  33
ENDBRANCH  18  19
ENDBRANCH  17  18
ENDBRANCH  16  17
ENDBRANCH  14  16
ENDBRANCH  13  14
ENDBRANCH   9  13
ENDBRANCH   2   3
TORSDOF 10
ENDMDL
MODEL      215
REMARK 921   NORMALIZED FREE ENERGY PREDICTED BY IDOCK:   -3.70 KCAL/MOL
REMARK 922        TOTAL FREE ENERGY PREDICTED BY IDOCK:   -7.83 KCAL/MOL
REMARK 923 INTER-LIGAND FREE ENERGY PREDICTED BY IDOCK:   -7.10 KCAL/MOL
REMARK 924 INTRA-LIGAND FREE ENERGY PREDICTED BY IDOCK:   -0.73 KCAL/MOL
REMARK 927      BINDING AFFINITY PREDICTED BY RF-SCORE:    0.00 PKD
ROOT
HETATM    1  C   UNL     1      -6.848   6.735  62.552  1.00  0.00    -0.047 C  
HETATM    2  O   UNL     1      -7.406   5.436  62.725  1.00  0.00    -0.044 OA 
ENDROOT
BRANCH   2   3
HETATM    3  C   UNL     1      -8.065   5.177  63.900  1.00  0.00    -0.119 A  
HETATM    4  C   UNL     1      -9.300   4.492  64.063  1.00  0.00    -0.067 A  
HETATM    5  C   UNL     1      -7.371   5.671  65.039  1.00  0.00    -0.071 A  
HETATM    6  C   UNL     1      -9.853   4.376  65.338  1.00  0.00    -0.220 A  
HETATM    7  C   UNL     1      -7.955   5.507  66.281  1.00  0.00    -0.105 A  
HETATM    8  C   UNL     1      -9.190   4.949  66.387  1.00  0.00    -0.138 A  
HETATM    9  C   UNL     1      -9.340   5.211  67.865  1.00  0.00    -0.139 C  
HETATM   10  C   UNL     1      -7.801   5.616  67.782  1.00  0.00    -0.097 C  
BRANCH   4  11
HETATM   11  O   UNL     1      -9.923   3.918  62.986  1.00  0.00    -0.151 OA 
HETATM   12  C   UNL     1     -10.852   2.875  63.276  1.00  0.00    -0.226 C  
ENDBRANCH   4  11
BRANCH   9  13
HETATM   13  C   UNL     1     -10.012   3.971  68.469  1.00  0.00     0.150 C  
BRANCH  13  14
HETATM   14  N   UNL     1      -9.470   3.444  69.723  1.00  0.00    -0.174 NA 
HETATM   15  C   UNL     1      -8.396   2.493  69.491  1.00  0.00    -0.045 C  
BRANCH  14  16
HETATM   16  C   UNL     1      -9.215   4.473  70.739  1.00  0.00    -0.139 C  
BRANCH  16  17
HETATM   17  C   UNL     1     -10.509   5.110  71.238  1.00  0.00    -0.245 C  
BRANCH  17  18
HETATM   18  C   UNL     1     -10.290   6.123  72.370  1.00  0.00    -0.192 C  
BRANCH  18  19
HETATM   19  N   UNL     1     -10.585   7.471  71.878  1.00  0.00    -0.209 N  
HETATM   20  C   UNL     1     -11.453   8.307  72.700  1.00  0.00    -0.353 C  
HETATM   21  C   UNL     1     -12.703   8.741  71.954  1.00  0.00    -0.427 C  
HETATM   22  C   UNL     1     -12.394  10.021  71.227  1.00  0.00    -0.496 A  
HETATM   23  C   UNL     1     -13.093  11.179  71.591  1.00  0.00    -0.529 A  
HETATM   24  C   UNL     1     -12.814  12.408  70.995  1.00  0.00    -0.155 A  
HETATM   25  C   UNL     1     -11.810  12.486  70.014  1.00  0.00    -0.289 A  
HETATM   26  O   UNL     1      -8.763   7.566  70.501  1.00  0.00    -0.143 OA 
HETATM   27  C   UNL     1      -9.890   7.978  70.790  1.00  0.00    -0.183 C  
HETATM   28  C   UNL     1     -11.108  11.324  69.655  1.00  0.00    -0.273 A  
HETATM   29  C   UNL     1     -10.654   8.844  69.794  1.00  0.00    -0.230 C  
HETATM   30  C   UNL     1     -11.379  10.084  70.264  1.00  0.00    -0.376 A  
BRANCH  24  31
HETATM   31  O   UNL     1     -13.450  13.575  71.346  1.00  0.00    -0.273 OA 
HETATM   32  C   UNL     1     -13.298  13.994  72.698  1.00  0.00    -0.543 C  
ENDBRANCH  24  31
BRANCH  25  33
HETATM   33  O   UNL     1     -11.595  13.725  69.464  1.00  0.00    -0.269 OA 
HETATM   34  C   UNL     1     -11.403  13.795  68.057  1.00  0.00    -0.288 C  
ENDBRANCH  25  33
ENDBRANCH  18  19
ENDBRANCH  17  18
ENDBRANCH  16  17
ENDBRANCH  14  16
ENDBRANCH  13  14
ENDBRANCH   9  13
ENDBRANCH   2   3
TORSDOF 10
ENDMDL
MODEL      216
REMARK 921   NORMALIZED FREE ENERGY PREDICTED BY IDOCK:   -3.68 KCAL/MOL
REMARK 922        TOTAL FREE ENERGY PREDICTED BY IDOCK:   -7.79 KCAL/MOL
REMARK 923 INTER-LIGAND FREE ENERGY PREDICTED BY IDOCK:   -6.95 KCAL/MOL
REMARK 924 INTRA-LIGAND FREE ENERGY PREDICTED BY IDOCK:   -0.84 KCAL/MOL
REMARK 927      BINDING AFFINITY PREDICTED BY RF-SCORE:    0.00 PKD
ROOT
HETATM    1  C   UNL     1      -8.814   1.802  70.299  1.00  0.00    -0.069 C  
HETATM    2  O   UNL     1      -9.747   2.835  69.996  1.00  0.00    -0.083 OA 
ENDROOT
BRANCH   2   3
HETATM    3  C   UNL     1      -9.352   3.811  69.116  1.00  0.00    -0.173 A  
HETATM    4  C   UNL     1      -8.761   5.065  69.429  1.00  0.00    -0.091 A  
HETATM    5  C   UNL     1      -9.583   3.453  67.759  1.00  0.00    -0.166 A  
HETATM    6  C   UNL     1      -8.480   5.963  68.400  1.00  0.00    -0.111 A  
HETATM    7  C   UNL     1      -9.263   4.373  66.778  1.00  0.00    -0.147 A  
HETATM    8  C   UNL     1      -8.807   5.606  67.121  1.00  0.00    -0.106 A  
HETATM    9  C   UNL     1      -8.827   6.162  65.719  1.00  0.00    -0.133 C  
HETATM   10  C   UNL     1      -9.103   4.649  65.300  1.00  0.00    -0.151 C  
BRANCH   4  11
HETATM   11  O   UNL     1      -8.434   5.375  70.723  1.00  0.00    -0.116 OA 
HETATM   12  C   UNL     1      -9.289   6.307  71.384  1.00  0.00    -0.152 C  
ENDBRANCH   4  11
BRANCH   9  13
HETATM   13  C   UNL     1      -7.566   7.024  65.565  1.00  0.00    -0.091 C  
BRANCH  13  14
HETATM   14  N   UNL     1      -7.730   8.385  65.052  1.00  0.00    -0.097 NA 
HETATM   15  C   UNL     1      -6.851   8.649  63.926  1.00  0.00    -0.086 C  
BRANCH  14  16
HETATM   16  C   UNL     1      -9.131   8.794  64.890  1.00  0.00     0.079 C  
BRANCH  16  17
HETATM   17  C   UNL     1      -9.260  10.299  64.667  1.00  0.00    -0.290 C  
BRANCH  17  18
HETATM   18  C   UNL     1     -10.697  10.814  64.820  1.00  0.00    -0.098 C  
BRANCH  18  19
HETATM   19  N   UNL     1     -10.691  12.038  65.625  1.00  0.00    -0.263 N  
HETATM   20  C   UNL     1     -10.529  11.888  67.067  1.00  0.00    -0.224 C  
HETATM   21  C   UNL     1     -11.703  12.467  67.838  1.00  0.00    -0.416 C  
HETATM   22  C   UNL     1     -11.423  13.921  68.098  1.00  0.00    -0.346 A  
HETATM   23  C   UNL     1     -11.284  14.345  69.426  1.00  0.00    -0.317 A  
HETATM   24  C   UNL     1     -10.968  15.668  69.733  1.00  0.00    -0.304 A  
HETATM   25  C   UNL     1     -10.782  16.591  68.689  1.00  0.00    -0.334 A  
HETATM   26  O   UNL     1     -10.136  13.403  63.877  1.00  0.00    -0.178 OA 
HETATM   27  C   UNL     1     -10.629  13.276  65.002  1.00  0.00    -0.346 C  
HETATM   28  C   UNL     1     -10.917  16.162  67.359  1.00  0.00    -0.210 A  
HETATM   29  C   UNL     1     -11.436  14.421  65.605  1.00  0.00    -0.336 C  
HETATM   30  C   UNL     1     -11.224  14.824  67.046  1.00  0.00    -0.347 A  
BRANCH  24  31
HETATM   31  O   UNL     1     -10.787  16.118  71.018  1.00  0.00    -0.086 OA 
HETATM   32  C   UNL     1     -11.859  15.887  71.925  1.00  0.00    -0.506 C  
ENDBRANCH  24  31
BRANCH  25  33
HETATM   33  O   UNL     1     -10.482  17.877  69.063  1.00  0.00    -0.306 OA 
HETATM   34  C   UNL     1      -9.573  18.604  68.247  1.00  0.00    -0.347 C  
ENDBRANCH  25  33
ENDBRANCH  18  19
ENDBRANCH  17  18
ENDBRANCH  16  17
ENDBRANCH  14  16
ENDBRANCH  13  14
ENDBRANCH   9  13
ENDBRANCH   2   3
TORSDOF 10
ENDMDL
MODEL      217
REMARK 921   NORMALIZED FREE ENERGY PREDICTED BY IDOCK:   -3.67 KCAL/MOL
REMARK 922        TOTAL FREE ENERGY PREDICTED BY IDOCK:   -7.79 KCAL/MOL
REMARK 923 INTER-LIGAND FREE ENERGY PREDICTED BY IDOCK:   -6.85 KCAL/MOL
REMARK 924 INTRA-LIGAND FREE ENERGY PREDICTED BY IDOCK:   -0.93 KCAL/MOL
REMARK 927      BINDING AFFINITY PREDICTED BY RF-SCORE:    0.00 PKD
ROOT
HETATM    1  C   UNL     1     -10.448  18.391  67.695  1.00  0.00    -0.419 C  
HETATM    2  O   UNL     1     -11.180  17.369  68.364  1.00  0.00    -0.124 OA 
ENDROOT
BRANCH   2   3
HETATM    3  C   UNL     1     -11.046  16.084  67.903  1.00  0.00    -0.307 A  
HETATM    4  C   UNL     1     -11.384  14.884  68.586  1.00  0.00    -0.292 A  
HETATM    5  C   UNL     1     -10.513  16.026  66.586  1.00  0.00    -0.304 A  
HETATM    6  C   UNL     1     -11.119  13.656  67.981  1.00  0.00    -0.285 A  
HETATM    7  C   UNL     1     -10.294  14.782  66.025  1.00  0.00    -0.318 A  
HETATM    8  C   UNL     1     -10.521  13.656  66.751  1.00  0.00    -0.270 A  
HETATM    9  C   UNL     1      -9.949  12.707  65.727  1.00  0.00    -0.266 C  
HETATM   10  C   UNL     1      -9.933  13.993  64.786  1.00  0.00    -0.074 C  
BRANCH   4  11
HETATM   11  O   UNL     1     -11.998  14.931  69.810  1.00  0.00    -0.291 OA 
HETATM   12  C   UNL     1     -12.206  13.678  70.460  1.00  0.00    -0.368 C  
ENDBRANCH   4  11
BRANCH   9  13
HETATM   13  C   UNL     1     -10.859  11.471  65.710  1.00  0.00    -0.262 C  
BRANCH  13  14
HETATM   14  N   UNL     1     -10.362  10.268  65.041  1.00  0.00    -0.217 NA 
HETATM   15  C   UNL     1      -9.789  10.569  63.740  1.00  0.00    -0.300 C  
BRANCH  14  16
HETATM   16  C   UNL     1      -9.568   9.390  65.910  1.00  0.00    -0.270 C  
BRANCH  16  17
HETATM   17  C   UNL     1      -8.329   8.855  65.197  1.00  0.00    -0.170 C  
BRANCH  17  18
HETATM   18  C   UNL     1      -8.244   7.323  65.195  1.00  0.00    -0.110 C  
BRANCH  18  19
HETATM   19  N   UNL     1      -8.208   6.837  66.577  1.00  0.00    -0.114 N  
HETATM   20  C   UNL     1      -9.351   6.059  67.041  1.00  0.00    -0.122 C  
HETATM   21  C   UNL     1     -10.029   6.699  68.240  1.00  0.00    -0.148 C  
HETATM   22  C   UNL     1      -9.356   6.192  69.485  1.00  0.00    -0.147 A  
HETATM   23  C   UNL     1     -10.110   5.430  70.387  1.00  0.00    -0.314 A  
HETATM   24  C   UNL     1      -9.531   4.884  71.532  1.00  0.00    -0.154 A  
HETATM   25  C   UNL     1      -8.165   5.099  71.782  1.00  0.00    -0.117 A  
HETATM   26  O   UNL     1      -5.935   6.999  66.768  1.00  0.00    -0.031 OA 
HETATM   27  C   UNL     1      -7.039   6.943  67.317  1.00  0.00    -0.084 C  
HETATM   28  C   UNL     1      -7.411   5.859  70.874  1.00  0.00    -0.086 A  
HETATM   29  C   UNL     1      -7.161   7.278  68.800  1.00  0.00    -0.090 C  
HETATM   30  C   UNL     1      -7.990   6.402  69.711  1.00  0.00    -0.119 A  
BRANCH  24  31
HETATM   31  O   UNL     1     -10.225   4.101  72.423  1.00  0.00    -0.171 OA 
HETATM   32  C   UNL     1     -11.207   4.761  73.213  1.00  0.00    -0.340 C  
ENDBRANCH  24  31
BRANCH  25  33
HETATM   33  O   UNL     1      -7.664   4.539  72.931  1.00  0.00    -0.084 OA 
HETATM   34  C   UNL     1      -7.287   5.421  73.980  1.00  0.00    -0.086 C  
ENDBRANCH  25  33
ENDBRANCH  18  19
ENDBRANCH  17  18
ENDBRANCH  16  17
ENDBRANCH  14  16
ENDBRANCH  13  14
ENDBRANCH   9  13
ENDBRANCH   2   3
TORSDOF 10
ENDMDL
MODEL      218
REMARK 921   NORMALIZED FREE ENERGY PREDICTED BY IDOCK:   -3.67 KCAL/MOL
REMARK 922        TOTAL FREE ENERGY PREDICTED BY IDOCK:   -7.77 KCAL/MOL
REMARK 923 INTER-LIGAND FREE ENERGY PREDICTED BY IDOCK:   -7.05 KCAL/MOL
REMARK 924 INTRA-LIGAND FREE ENERGY PREDICTED BY IDOCK:   -0.72 KCAL/MOL
REMARK 927      BINDING AFFINITY PREDICTED BY RF-SCORE:    0.00 PKD
ROOT
HETATM    1  C   UNL     1     -10.938   2.737  73.612  1.00  0.00    -0.218 C  
HETATM    2  O   UNL     1     -10.429   2.878  72.289  1.00  0.00    -0.099 OA 
ENDROOT
BRANCH   2   3
HETATM    3  C   UNL     1     -10.277   4.150  71.798  1.00  0.00    -0.085 A  
HETATM    4  C   UNL     1      -9.794   4.526  70.516  1.00  0.00    -0.227 A  
HETATM    5  C   UNL     1     -10.676   5.150  72.728  1.00  0.00    -0.294 A  
HETATM    6  C   UNL     1      -9.648   5.879  70.210  1.00  0.00    -0.199 A  
HETATM    7  C   UNL     1     -10.532   6.475  72.364  1.00  0.00    -0.229 A  
HETATM    8  C   UNL     1      -9.959   6.798  71.174  1.00  0.00    -0.194 A  
HETATM    9  C   UNL     1      -9.916   8.283  71.434  1.00  0.00    -0.250 C  
HETATM   10  C   UNL     1     -10.819   7.922  72.697  1.00  0.00    -0.428 C  
BRANCH   4  11
HETATM   11  O   UNL     1      -9.510   3.573  69.574  1.00  0.00    -0.167 OA 
HETATM   12  C   UNL     1      -9.327   4.040  68.238  1.00  0.00    -0.160 C  
ENDBRANCH   4  11
BRANCH   9  13
HETATM   13  C   UNL     1     -10.279   8.976  70.114  1.00  0.00    -0.197 C  
BRANCH  13  14
HETATM   14  N   UNL     1      -9.405   8.750  68.962  1.00  0.00    -0.145 NA 
HETATM   15  C   UNL     1     -10.083   9.020  67.706  1.00  0.00    -0.208 C  
BRANCH  14  16
HETATM   16  C   UNL     1      -8.064   9.330  69.111  1.00  0.00    -0.106 C  
BRANCH  16  17
HETATM   17  C   UNL     1      -8.113  10.852  69.216  1.00  0.00    -0.062 C  
BRANCH  17  18
HETATM   18  C   UNL     1      -7.041  11.554  68.373  1.00  0.00    -0.081 C  
BRANCH  18  19
HETATM   19  N   UNL     1      -7.425  12.953  68.165  1.00  0.00    -0.113 N  
HETATM   20  C   UNL     1      -6.468  13.976  68.572  1.00  0.00    -0.093 C  
HETATM   21  C   UNL     1      -7.047  14.917  69.615  1.00  0.00    -0.179 C  
HETATM   22  C   UNL     1      -7.735  16.045  68.898  1.00  0.00    -0.196 A  
HETATM   23  C   UNL     1      -7.235  17.343  69.063  1.00  0.00    -0.224 A  
HETATM   24  C   UNL     1      -7.794  18.424  68.382  1.00  0.00    -0.306 A  
HETATM   25  C   UNL     1      -8.875  18.205  67.511  1.00  0.00    -0.256 A  
HETATM   26  O   UNL     1      -8.990  12.476  66.568  1.00  0.00    -0.207 OA 
HETATM   27  C   UNL     1      -8.555  13.256  67.421  1.00  0.00    -0.204 C  
HETATM   28  C   UNL     1      -9.370  16.902  67.344  1.00  0.00    -0.235 A  
HETATM   29  C   UNL     1      -9.414  14.434  67.871  1.00  0.00    -0.214 C  
HETATM   30  C   UNL     1      -8.801  15.807  68.021  1.00  0.00    -0.176 A  
BRANCH  24  31
HETATM   31  O   UNL     1      -7.312  19.707  68.487  1.00  0.00    -0.316 OA 
HETATM   32  C   UNL     1      -5.991  19.927  68.007  1.00  0.00    -0.222 C  
ENDBRANCH  24  31
BRANCH  25  33
HETATM   33  O   UNL     1      -9.380  19.316  66.881  1.00  0.00    -0.297 OA 
HETATM   34  C   UNL     1     -10.711  19.701  67.196  1.00  0.00    -0.464 C  
ENDBRANCH  25  33
ENDBRANCH  18  19
ENDBRANCH  17  18
ENDBRANCH  16  17
ENDBRANCH  14  16
ENDBRANCH  13  14
ENDBRANCH   9  13
ENDBRANCH   2   3
TORSDOF 10
ENDMDL
MODEL      219
REMARK 921   NORMALIZED FREE ENERGY PREDICTED BY IDOCK:   -3.66 KCAL/MOL
REMARK 922        TOTAL FREE ENERGY PREDICTED BY IDOCK:   -7.77 KCAL/MOL
REMARK 923 INTER-LIGAND FREE ENERGY PREDICTED BY IDOCK:   -6.23 KCAL/MOL
REMARK 924 INTRA-LIGAND FREE ENERGY PREDICTED BY IDOCK:   -1.54 KCAL/MOL
REMARK 927      BINDING AFFINITY PREDICTED BY RF-SCORE:    0.00 PKD
ROOT
HETATM    1  C   UNL     1     -13.606  13.753  72.478  1.00  0.00    -0.575 C  
HETATM    2  O   UNL     1     -13.721  14.025  71.084  1.00  0.00    -0.233 OA 
ENDROOT
BRANCH   2   3
HETATM    3  C   UNL     1     -12.571  14.316  70.396  1.00  0.00    -0.343 A  
HETATM    4  C   UNL     1     -11.696  13.399  69.753  1.00  0.00    -0.286 A  
HETATM    5  C   UNL     1     -12.293  15.710  70.354  1.00  0.00    -0.427 A  
HETATM    6  C   UNL     1     -10.532  13.874  69.149  1.00  0.00    -0.074 A  
HETATM    7  C   UNL     1     -11.138  16.128  69.721  1.00  0.00    -0.350 A  
HETATM    8  C   UNL     1     -10.267  15.214  69.218  1.00  0.00    -0.251 A  
HETATM    9  C   UNL     1      -9.198  16.216  68.861  1.00  0.00    -0.234 C  
HETATM   10  C   UNL     1     -10.323  17.292  69.204  1.00  0.00    -0.290 C  
BRANCH   4  11
HETATM   11  O   UNL     1     -12.009  12.067  69.692  1.00  0.00    -0.307 OA 
HETATM   12  C   UNL     1     -11.782  11.421  68.441  1.00  0.00    -0.303 C  
ENDBRANCH   4  11
BRANCH   9  13
HETATM   13  C   UNL     1      -8.615  15.780  67.509  1.00  0.00    -0.166 C  
BRANCH  13  14
HETATM   14  N   UNL     1      -7.271  15.200  67.502  1.00  0.00    -0.186 NA 
HETATM   15  C   UNL     1      -6.399  15.841  68.472  1.00  0.00    -0.108 C  
BRANCH  14  16
HETATM   16  C   UNL     1      -7.257  13.732  67.491  1.00  0.00    -0.158 C  
BRANCH  16  17
HETATM   17  C   UNL     1      -6.857  13.158  68.847  1.00  0.00    -0.103 C  
BRANCH  17  18
HETATM   18  C   UNL     1      -5.791  12.058  68.751  1.00  0.00    -0.051 C  
BRANCH  18  19
HETATM   19  N   UNL     1      -6.388  10.854  68.167  1.00  0.00    -0.057 N  
HETATM   20  C   UNL     1      -5.817  10.365  66.917  1.00  0.00    -0.052 C  
HETATM   21  C   UNL     1      -6.845  10.318  65.799  1.00  0.00    -0.128 C  
HETATM   22  C   UNL     1      -7.530   8.981  65.847  1.00  0.00    -0.094 A  
HETATM   23  C   UNL     1      -7.379   8.115  64.756  1.00  0.00    -0.089 A  
HETATM   24  C   UNL     1      -7.942   6.840  64.762  1.00  0.00    -0.120 A  
HETATM   25  C   UNL     1      -8.670   6.414  65.887  1.00  0.00    -0.145 A  
HETATM   26  O   UNL     1      -7.316  10.140  70.131  1.00  0.00    -0.154 OA 
HETATM   27  C   UNL     1      -7.307  10.114  68.897  1.00  0.00    -0.083 C  
HETATM   28  C   UNL     1      -8.816   7.282  66.981  1.00  0.00    -0.130 A  
HETATM   29  C   UNL     1      -8.483   9.497  68.147  1.00  0.00    -0.119 C  
HETATM   30  C   UNL     1      -8.238   8.566  66.982  1.00  0.00    -0.107 A  
BRANCH  24  31
HETATM   31  O   UNL     1      -7.788   5.946  63.730  1.00  0.00    -0.103 OA 
HETATM   32  C   UNL     1      -6.537   5.972  63.053  1.00  0.00    -0.039 C  
ENDBRANCH  24  31
BRANCH  25  33
HETATM   33  O   UNL     1      -9.203   5.151  65.821  1.00  0.00    -0.153 OA 
HETATM   34  C   UNL     1     -10.224   4.819  66.753  1.00  0.00    -0.213 C  
ENDBRANCH  25  33
ENDBRANCH  18  19
ENDBRANCH  17  18
ENDBRANCH  16  17
ENDBRANCH  14  16
ENDBRANCH  13  14
ENDBRANCH   9  13
ENDBRANCH   2   3
TORSDOF 10
ENDMDL
MODEL      220
REMARK 921   NORMALIZED FREE ENERGY PREDICTED BY IDOCK:   -3.66 KCAL/MOL
REMARK 922        TOTAL FREE ENERGY PREDICTED BY IDOCK:   -7.76 KCAL/MOL
REMARK 923 INTER-LIGAND FREE ENERGY PREDICTED BY IDOCK:   -7.86 KCAL/MOL
REMARK 924 INTRA-LIGAND FREE ENERGY PREDICTED BY IDOCK:    0.10 KCAL/MOL
REMARK 927      BINDING AFFINITY PREDICTED BY RF-SCORE:    0.00 PKD
ROOT
HETATM    1  C   UNL     1      -8.166   1.953  70.786  1.00  0.00    -0.048 C  
HETATM    2  O   UNL     1      -9.491   2.292  71.184  1.00  0.00    -0.127 OA 
ENDROOT
BRANCH   2   3
HETATM    3  C   UNL     1      -9.855   3.613  71.127  1.00  0.00    -0.130 A  
HETATM    4  C   UNL     1     -10.277   4.439  72.204  1.00  0.00    -0.177 A  
HETATM    5  C   UNL     1      -9.767   4.151  69.813  1.00  0.00    -0.278 A  
HETATM    6  C   UNL     1     -10.670   5.752  71.946  1.00  0.00    -0.297 A  
HETATM    7  C   UNL     1     -10.147   5.465  69.618  1.00  0.00    -0.319 A  
HETATM    8  C   UNL     1     -10.653   6.190  70.650  1.00  0.00    -0.307 A  
HETATM    9  C   UNL     1     -11.030   7.387  69.814  1.00  0.00    -0.215 C  
HETATM   10  C   UNL     1     -10.201   6.645  68.673  1.00  0.00    -0.184 C  
BRANCH   4  11
HETATM   11  O   UNL     1     -10.262   3.965  73.489  1.00  0.00    -0.126 OA 
HETATM   12  C   UNL     1     -10.270   4.946  74.525  1.00  0.00    -0.268 C  
ENDBRANCH   4  11
BRANCH   9  13
HETATM   13  C   UNL     1     -10.690   8.633  70.644  1.00  0.00    -0.222 C  
BRANCH  13  14
HETATM   14  N   UNL     1      -9.790   9.622  70.049  1.00  0.00    -0.232 NA 
HETATM   15  C   UNL     1      -8.615   9.002  69.461  1.00  0.00    -0.138 C  
BRANCH  14  16
HETATM   16  C   UNL     1     -10.473  10.626  69.224  1.00  0.00    -0.227 C  
BRANCH  16  17
HETATM   17  C   UNL     1     -10.457  10.251  67.744  1.00  0.00    -0.269 C  
BRANCH  17  18
HETATM   18  C   UNL     1      -9.271  10.851  66.978  1.00  0.00    -0.152 C  
BRANCH  18  19
HETATM   19  N   UNL     1      -9.199  12.290  67.243  1.00  0.00    -0.179 N  
HETATM   20  C   UNL     1     -10.396  13.079  66.975  1.00  0.00    -0.247 C  
HETATM   21  C   UNL     1     -10.144  14.173  65.952  1.00  0.00    -0.337 C  
HETATM   22  C   UNL     1      -9.669  15.398  66.682  1.00  0.00    -0.269 A  
HETATM   23  C   UNL     1     -10.465  16.550  66.638  1.00  0.00    -0.266 A  
HETATM   24  C   UNL     1     -10.109  17.702  67.339  1.00  0.00    -0.331 A  
HETATM   25  C   UNL     1      -8.933  17.703  68.109  1.00  0.00    -0.269 A  
HETATM   26  O   UNL     1      -7.430  12.122  68.681  1.00  0.00    -0.111 OA 
HETATM   27  C   UNL     1      -8.105  12.815  67.915  1.00  0.00    -0.159 C  
HETATM   28  C   UNL     1      -8.140  16.545  68.156  1.00  0.00    -0.172 A  
HETATM   29  C   UNL     1      -7.582  14.179  67.473  1.00  0.00    -0.200 C  
HETATM   30  C   UNL     1      -8.503  15.377  67.458  1.00  0.00    -0.188 A  
BRANCH  24  31
HETATM   31  O   UNL     1     -10.878  18.840  67.352  1.00  0.00    -0.449 OA 
HETATM   32  C   UNL     1     -10.821  19.654  66.186  1.00  0.00    -0.315 C  
ENDBRANCH  24  31
BRANCH  25  33
HETATM   33  O   UNL     1      -8.640  18.872  68.766  1.00  0.00    -0.345 OA 
HETATM   34  C   UNL     1      -7.658  19.722  68.189  1.00  0.00    -0.304 C  
ENDBRANCH  25  33
ENDBRANCH  18  19
ENDBRANCH  17  18
ENDBRANCH  16  17
ENDBRANCH  14  16
ENDBRANCH  13  14
ENDBRANCH   9  13
ENDBRANCH   2   3
TORSDOF 10
ENDMDL
MODEL      221
REMARK 921   NORMALIZED FREE ENERGY PREDICTED BY IDOCK:   -3.66 KCAL/MOL
REMARK 922        TOTAL FREE ENERGY PREDICTED BY IDOCK:   -7.76 KCAL/MOL
REMARK 923 INTER-LIGAND FREE ENERGY PREDICTED BY IDOCK:   -6.30 KCAL/MOL
REMARK 924 INTRA-LIGAND FREE ENERGY PREDICTED BY IDOCK:   -1.46 KCAL/MOL
REMARK 927      BINDING AFFINITY PREDICTED BY RF-SCORE:    0.00 PKD
ROOT
HETATM    1  C   UNL     1     -12.962  11.887  63.112  1.00  0.00     0.131 C  
HETATM    2  O   UNL     1     -11.955  12.741  63.646  1.00  0.00    -0.460 OA 
ENDROOT
BRANCH   2   3
HETATM    3  C   UNL     1     -11.263  12.300  64.745  1.00  0.00    -0.318 A  
HETATM    4  C   UNL     1     -10.045  11.567  64.759  1.00  0.00    -0.269 A  
HETATM    5  C   UNL     1     -11.889  12.660  65.970  1.00  0.00    -0.492 A  
HETATM    6  C   UNL     1      -9.515  11.146  65.979  1.00  0.00    -0.234 A  
HETATM    7  C   UNL     1     -11.308  12.237  67.150  1.00  0.00    -0.398 A  
HETATM    8  C   UNL     1     -10.206  11.441  67.121  1.00  0.00    -0.234 A  
HETATM    9  C   UNL     1     -10.176  11.185  68.607  1.00  0.00    -0.216 C  
HETATM   10  C   UNL     1     -11.293  12.321  68.660  1.00  0.00    -0.339 C  
BRANCH   4  11
HETATM   11  O   UNL     1      -9.377  11.308  63.592  1.00  0.00    -0.215 OA 
HETATM   12  C   UNL     1      -9.279   9.936  63.211  1.00  0.00    -0.238 C  
ENDBRANCH   4  11
BRANCH   9  13
HETATM   13  C   UNL     1      -8.702  11.216  69.033  1.00  0.00    -0.017 C  
BRANCH  13  14
HETATM   14  N   UNL     1      -7.990   9.940  69.119  1.00  0.00    -0.102 NA 
HETATM   15  C   UNL     1      -6.630  10.043  68.618  1.00  0.00    -0.049 C  
BRANCH  14  16
HETATM   16  C   UNL     1      -8.154   9.253  70.406  1.00  0.00    -0.160 C  
BRANCH  16  17
HETATM   17  C   UNL     1      -9.555   8.668  70.563  1.00  0.00    -0.210 C  
BRANCH  17  18
HETATM   18  C   UNL     1      -9.560   7.147  70.760  1.00  0.00    -0.168 C  
BRANCH  18  19
HETATM   19  N   UNL     1      -9.522   6.488  69.452  1.00  0.00    -0.145 N  
HETATM   20  C   UNL     1      -8.250   5.909  69.033  1.00  0.00    -0.103 C  
HETATM   21  C   UNL     1      -7.747   6.513  67.733  1.00  0.00    -0.107 C  
HETATM   22  C   UNL     1      -8.324   5.719  66.594  1.00  0.00    -0.109 A  
HETATM   23  C   UNL     1      -7.445   5.018  65.758  1.00  0.00    -0.082 A  
HETATM   24  C   UNL     1      -7.919   4.219  64.718  1.00  0.00    -0.090 A  
HETATM   25  C   UNL     1      -9.305   4.113  64.509  1.00  0.00    -0.162 A  
HETATM   26  O   UNL     1     -11.780   6.150  69.351  1.00  0.00    -0.248 OA 
HETATM   27  C   UNL     1     -10.701   6.252  68.761  1.00  0.00    -0.297 C  
HETATM   28  C   UNL     1     -10.184   4.813  65.351  1.00  0.00    -0.104 A  
HETATM   29  C   UNL     1     -10.684   6.408  67.244  1.00  0.00    -0.426 C  
HETATM   30  C   UNL     1      -9.708   5.610  66.409  1.00  0.00    -0.180 A  
BRANCH  24  31
HETATM   31  O   UNL     1      -7.095   3.487  63.898  1.00  0.00    -0.048 OA 
HETATM   32  C   UNL     1      -5.699   3.577  64.162  1.00  0.00    -0.014 C  
ENDBRANCH  24  31
BRANCH  25  33
HETATM   33  O   UNL     1      -9.700   3.316  63.463  1.00  0.00    -0.112 OA 
HETATM   34  C   UNL     1     -10.818   2.464  63.672  1.00  0.00    -0.083 C  
ENDBRANCH  25  33
ENDBRANCH  18  19
ENDBRANCH  17  18
ENDBRANCH  16  17
ENDBRANCH  14  16
ENDBRANCH  13  14
ENDBRANCH   9  13
ENDBRANCH   2   3
TORSDOF 10
ENDMDL
MODEL      222
REMARK 921   NORMALIZED FREE ENERGY PREDICTED BY IDOCK:   -3.65 KCAL/MOL
REMARK 922        TOTAL FREE ENERGY PREDICTED BY IDOCK:   -7.75 KCAL/MOL
REMARK 923 INTER-LIGAND FREE ENERGY PREDICTED BY IDOCK:   -6.38 KCAL/MOL
REMARK 924 INTRA-LIGAND FREE ENERGY PREDICTED BY IDOCK:   -1.37 KCAL/MOL
REMARK 927      BINDING AFFINITY PREDICTED BY RF-SCORE:    0.00 PKD
ROOT
HETATM    1  C   UNL     1     -13.026   7.309  71.696  1.00  0.00    -0.372 C  
HETATM    2  O   UNL     1     -11.999   6.410  71.286  1.00  0.00    -0.326 OA 
ENDROOT
BRANCH   2   3
HETATM    3  C   UNL     1     -10.971   6.919  70.535  1.00  0.00    -0.273 A  
HETATM    4  C   UNL     1     -10.240   6.254  69.513  1.00  0.00    -0.194 A  
HETATM    5  C   UNL     1     -10.663   8.267  70.865  1.00  0.00    -0.250 A  
HETATM    6  C   UNL     1      -9.177   6.913  68.894  1.00  0.00    -0.132 A  
HETATM    7  C   UNL     1      -9.615   8.880  70.204  1.00  0.00    -0.199 A  
HETATM    8  C   UNL     1      -8.866   8.177  69.314  1.00  0.00    -0.144 A  
HETATM    9  C   UNL     1      -7.842   9.263  69.100  1.00  0.00    -0.086 C  
HETATM   10  C   UNL     1      -8.863  10.162  69.929  1.00  0.00    -0.089 C  
BRANCH   4  11
HETATM   11  O   UNL     1     -10.597   4.994  69.110  1.00  0.00    -0.121 OA 
HETATM   12  C   UNL     1      -9.633   3.965  69.326  1.00  0.00    -0.162 C  
ENDBRANCH   4  11
BRANCH   9  13
HETATM   13  C   UNL     1      -7.502   9.263  67.603  1.00  0.00    -0.088 C  
BRANCH  13  14
HETATM   14  N   UNL     1      -8.062  10.334  66.777  1.00  0.00    -0.119 NA 
HETATM   15  C   UNL     1      -7.170  10.703  65.691  1.00  0.00    -0.084 C  
BRANCH  14  16
HETATM   16  C   UNL     1      -9.470  10.131  66.416  1.00  0.00    -0.176 C  
BRANCH  16  17
HETATM   17  C   UNL     1     -10.188  11.455  66.165  1.00  0.00    -0.282 C  
BRANCH  17  18
HETATM   18  C   UNL     1     -10.526  12.217  67.452  1.00  0.00    -0.210 C  
BRANCH  18  19
HETATM   19  N   UNL     1     -10.012  13.585  67.356  1.00  0.00    -0.231 N  
HETATM   20  C   UNL     1     -10.955  14.628  66.967  1.00  0.00    -0.317 C  
HETATM   21  C   UNL     1     -10.525  15.343  65.697  1.00  0.00    -0.391 C  
HETATM   22  C   UNL     1      -9.633  16.489  66.084  1.00  0.00    -0.344 A  
HETATM   23  C   UNL     1     -10.062  17.792  65.802  1.00  0.00    -0.073 A  
HETATM   24  C   UNL     1      -9.308  18.901  66.184  1.00  0.00    -0.187 A  
HETATM   25  C   UNL     1      -8.097  18.705  66.870  1.00  0.00    -0.248 A  
HETATM   26  O   UNL     1      -8.204  13.195  68.700  1.00  0.00    -0.109 OA 
HETATM   27  C   UNL     1      -8.740  13.880  67.824  1.00  0.00    -0.187 C  
HETATM   28  C   UNL     1      -7.671  17.398  67.155  1.00  0.00    -0.229 A  
HETATM   29  C   UNL     1      -7.905  14.887  67.039  1.00  0.00    -0.129 C  
HETATM   30  C   UNL     1      -8.436  16.278  66.781  1.00  0.00    -0.283 A  
BRANCH  24  31
HETATM   31  O   UNL     1      -9.709  20.196  65.960  1.00  0.00    -0.416 OA 
HETATM   32  C   UNL     1     -11.034  20.371  65.469  1.00  0.00     0.428 C  
ENDBRANCH  24  31
BRANCH  25  33
HETATM   33  O   UNL     1      -7.402  19.840  67.208  1.00  0.00    -0.236 OA 
HETATM   34  C   UNL     1      -7.301  20.162  68.589  1.00  0.00    -0.125 C  
ENDBRANCH  25  33
ENDBRANCH  18  19
ENDBRANCH  17  18
ENDBRANCH  16  17
ENDBRANCH  14  16
ENDBRANCH  13  14
ENDBRANCH   9  13
ENDBRANCH   2   3
TORSDOF 10
ENDMDL
MODEL      223
REMARK 921   NORMALIZED FREE ENERGY PREDICTED BY IDOCK:   -3.65 KCAL/MOL
REMARK 922        TOTAL FREE ENERGY PREDICTED BY IDOCK:   -7.75 KCAL/MOL
REMARK 923 INTER-LIGAND FREE ENERGY PREDICTED BY IDOCK:   -6.71 KCAL/MOL
REMARK 924 INTRA-LIGAND FREE ENERGY PREDICTED BY IDOCK:   -1.03 KCAL/MOL
REMARK 927      BINDING AFFINITY PREDICTED BY RF-SCORE:    0.00 PKD
ROOT
HETATM    1  C   UNL     1     -12.351  16.055  64.241  1.00  0.00     0.505 C  
HETATM    2  O   UNL     1     -10.940  15.889  64.340  1.00  0.00    -0.489 OA 
ENDROOT
BRANCH   2   3
HETATM    3  C   UNL     1     -10.473  14.805  65.038  1.00  0.00    -0.416 A  
HETATM    4  C   UNL     1     -10.689  13.432  64.741  1.00  0.00    -0.390 A  
HETATM    5  C   UNL     1      -9.688  15.172  66.165  1.00  0.00    -0.338 A  
HETATM    6  C   UNL     1     -10.186  12.459  65.604  1.00  0.00    -0.285 A  
HETATM    7  C   UNL     1      -9.194  14.166  66.974  1.00  0.00    -0.249 A  
HETATM    8  C   UNL     1      -9.516  12.870  66.723  1.00  0.00    -0.245 A  
HETATM    9  C   UNL     1      -8.879  12.319  67.975  1.00  0.00    -0.182 C  
HETATM   10  C   UNL     1      -8.283  13.790  68.120  1.00  0.00    -0.160 C  
BRANCH   4  11
HETATM   11  O   UNL     1     -11.351  13.064  63.600  1.00  0.00    -0.418 OA 
HETATM   12  C   UNL     1     -12.576  12.354  63.780  1.00  0.00    -0.437 C  
ENDBRANCH   4  11
BRANCH   9  13
HETATM   13  C   UNL     1      -8.196  11.002  67.583  1.00  0.00    -0.117 C  
BRANCH  13  14
HETATM   14  N   UNL     1      -7.267  11.025  66.451  1.00  0.00    -0.143 NA 
HETATM   15  C   UNL     1      -5.887  11.150  66.886  1.00  0.00    -0.092 C  
BRANCH  14  16
HETATM   16  C   UNL     1      -7.537   9.995  65.441  1.00  0.00    -0.138 C  
BRANCH  16  17
HETATM   17  C   UNL     1      -8.731   9.124  65.822  1.00  0.00    -0.192 C  
BRANCH  17  18
HETATM   18  C   UNL     1      -8.373   7.642  65.988  1.00  0.00    -0.135 C  
BRANCH  18  19
HETATM   19  N   UNL     1      -8.748   7.200  67.334  1.00  0.00    -0.120 N  
HETATM   20  C   UNL     1      -7.833   7.524  68.423  1.00  0.00    -0.122 C  
HETATM   21  C   UNL     1      -7.330   6.281  69.137  1.00  0.00    -0.089 C  
HETATM   22  C   UNL     1      -8.299   5.947  70.237  1.00  0.00    -0.122 A  
HETATM   23  C   UNL     1      -7.847   6.002  71.561  1.00  0.00    -0.106 A  
HETATM   24  C   UNL     1      -8.709   5.758  72.630  1.00  0.00    -0.119 A  
HETATM   25  C   UNL     1     -10.058   5.457  72.370  1.00  0.00    -0.182 A  
HETATM   26  O   UNL     1     -10.971   6.990  66.844  1.00  0.00    -0.371 OA 
HETATM   27  C   UNL     1     -10.016   6.687  67.565  1.00  0.00    -0.135 C  
HETATM   28  C   UNL     1     -10.509   5.407  71.042  1.00  0.00    -0.302 A  
HETATM   29  C   UNL     1     -10.150   5.526  68.545  1.00  0.00    -0.240 C  
HETATM   30  C   UNL     1      -9.643   5.665  69.962  1.00  0.00    -0.214 A  
BRANCH  24  31
HETATM   31  O   UNL     1      -8.318   5.836  73.944  1.00  0.00    -0.112 OA 
HETATM   32  C   UNL     1      -7.505   4.771  74.426  1.00  0.00    -0.089 C  
ENDBRANCH  24  31
BRANCH  25  33
HETATM   33  O   UNL     1     -10.847   5.220  73.468  1.00  0.00    -0.266 OA 
HETATM   34  C   UNL     1     -11.031   3.868  73.866  1.00  0.00    -0.205 C  
ENDBRANCH  25  33
ENDBRANCH  18  19
ENDBRANCH  17  18
ENDBRANCH  16  17
ENDBRANCH  14  16
ENDBRANCH  13  14
ENDBRANCH   9  13
ENDBRANCH   2   3
TORSDOF 10
ENDMDL
MODEL      224
REMARK 921   NORMALIZED FREE ENERGY PREDICTED BY IDOCK:   -3.64 KCAL/MOL
REMARK 922        TOTAL FREE ENERGY PREDICTED BY IDOCK:   -7.73 KCAL/MOL
REMARK 923 INTER-LIGAND FREE ENERGY PREDICTED BY IDOCK:   -6.87 KCAL/MOL
REMARK 924 INTRA-LIGAND FREE ENERGY PREDICTED BY IDOCK:   -0.86 KCAL/MOL
REMARK 927      BINDING AFFINITY PREDICTED BY RF-SCORE:    0.00 PKD
ROOT
HETATM    1  C   UNL     1      -8.227   5.897  74.565  1.00  0.00    -0.112 C  
HETATM    2  O   UNL     1      -8.637   5.184  73.402  1.00  0.00    -0.115 OA 
ENDROOT
BRANCH   2   3
HETATM    3  C   UNL     1      -8.475   5.800  72.188  1.00  0.00    -0.122 A  
HETATM    4  C   UNL     1      -8.252   5.179  70.929  1.00  0.00    -0.110 A  
HETATM    5  C   UNL     1      -8.561   7.217  72.275  1.00  0.00    -0.131 A  
HETATM    6  C   UNL     1      -8.047   5.974  69.801  1.00  0.00    -0.114 A  
HETATM    7  C   UNL     1      -8.374   7.955  71.121  1.00  0.00    -0.116 A  
HETATM    8  C   UNL     1      -8.049   7.332  69.957  1.00  0.00    -0.130 A  
HETATM    9  C   UNL     1      -7.807   8.600  69.178  1.00  0.00    -0.099 C  
HETATM   10  C   UNL     1      -8.441   9.312  70.456  1.00  0.00    -0.251 C  
BRANCH   4  11
HETATM   11  O   UNL     1      -8.275   3.814  70.815  1.00  0.00    -0.064 OA 
HETATM   12  C   UNL     1      -9.562   3.213  70.683  1.00  0.00    -0.142 C  
ENDBRANCH   4  11
BRANCH   9  13
HETATM   13  C   UNL     1      -8.384   8.376  67.774  1.00  0.00    -0.130 C  
BRANCH  13  14
HETATM   14  N   UNL     1      -9.149   9.468  67.169  1.00  0.00    -0.133 NA 
HETATM   15  C   UNL     1      -9.058   9.454  65.719  1.00  0.00    -0.200 C  
BRANCH  14  16
HETATM   16  C   UNL     1     -10.495   9.633  67.731  1.00  0.00    -0.256 C  
BRANCH  16  17
HETATM   17  C   UNL     1     -10.699  11.029  68.314  1.00  0.00    -0.235 C  
BRANCH  17  18
HETATM   18  C   UNL     1     -11.578  11.931  67.439  1.00  0.00    -0.297 C  
BRANCH  18  19
HETATM   19  N   UNL     1     -10.930  13.235  67.280  1.00  0.00    -0.264 N  
HETATM   20  C   UNL     1     -10.859  14.093  68.458  1.00  0.00    -0.252 C  
HETATM   21  C   UNL     1     -11.555  15.425  68.237  1.00  0.00    -0.361 C  
HETATM   22  C   UNL     1     -10.557  16.385  67.651  1.00  0.00    -0.313 A  
HETATM   23  C   UNL     1     -10.208  17.520  68.394  1.00  0.00    -0.372 A  
HETATM   24  C   UNL     1      -9.248  18.419  67.931  1.00  0.00    -0.283 A  
HETATM   25  C   UNL     1      -8.616  18.177  66.699  1.00  0.00    -0.267 A  
HETATM   26  O   UNL     1      -9.759  12.631  65.412  1.00  0.00    -0.187 OA 
HETATM   27  C   UNL     1     -10.239  13.526  66.114  1.00  0.00    -0.302 C  
HETATM   28  C   UNL     1      -8.965  17.037  65.958  1.00  0.00    -0.168 A  
HETATM   29  C   UNL     1     -10.327  14.947  65.566  1.00  0.00    -0.388 C  
HETATM   30  C   UNL     1      -9.926  16.121  66.429  1.00  0.00    -0.315 A  
BRANCH  24  31
HETATM   31  O   UNL     1      -8.849  19.524  68.643  1.00  0.00    -0.367 OA 
HETATM   32  C   UNL     1      -9.745  19.985  69.649  1.00  0.00     0.247 C  
ENDBRANCH  24  31
BRANCH  25  33
HETATM   33  O   UNL     1      -7.688  19.107  66.301  1.00  0.00    -0.262 OA 
HETATM   34  C   UNL     1      -6.451  18.626  65.793  1.00  0.00    -0.261 C  
ENDBRANCH  25  33
ENDBRANCH  18  19
ENDBRANCH  17  18
ENDBRANCH  16  17
ENDBRANCH  14  16
ENDBRANCH  13  14
ENDBRANCH   9  13
ENDBRANCH   2   3
TORSDOF 10
ENDMDL
MODEL      225
REMARK 921   NORMALIZED FREE ENERGY PREDICTED BY IDOCK:   -3.62 KCAL/MOL
REMARK 922        TOTAL FREE ENERGY PREDICTED BY IDOCK:   -7.69 KCAL/MOL
REMARK 923 INTER-LIGAND FREE ENERGY PREDICTED BY IDOCK:   -7.51 KCAL/MOL
REMARK 924 INTRA-LIGAND FREE ENERGY PREDICTED BY IDOCK:   -0.19 KCAL/MOL
REMARK 927      BINDING AFFINITY PREDICTED BY RF-SCORE:    0.00 PKD
ROOT
HETATM    1  C   UNL     1      -8.815   7.756  65.880  1.00  0.00    -0.142 C  
HETATM    2  O   UNL     1      -8.225   6.645  66.549  1.00  0.00    -0.108 OA 
ENDROOT
BRANCH   2   3
HETATM    3  C   UNL     1      -8.578   6.430  67.856  1.00  0.00    -0.116 A  
HETATM    4  C   UNL     1      -7.714   6.118  68.941  1.00  0.00    -0.093 A  
HETATM    5  C   UNL     1      -9.977   6.558  68.077  1.00  0.00    -0.146 A  
HETATM    6  C   UNL     1      -8.261   5.869  70.200  1.00  0.00    -0.118 A  
HETATM    7  C   UNL     1     -10.462   6.324  69.350  1.00  0.00    -0.298 A  
HETATM    8  C   UNL     1      -9.620   5.916  70.336  1.00  0.00    -0.204 A  
HETATM    9  C   UNL     1     -10.704   5.662  71.354  1.00  0.00    -0.310 C  
HETATM   10  C   UNL     1     -11.644   6.387  70.290  1.00  0.00    -0.451 C  
BRANCH   4  11
HETATM   11  O   UNL     1      -6.356   6.098  68.764  1.00  0.00    -0.037 OA 
HETATM   12  C   UNL     1      -5.618   7.128  69.421  1.00  0.00    -0.015 C  
ENDBRANCH   4  11
BRANCH   9  13
HETATM   13  C   UNL     1     -10.167   6.150  72.706  1.00  0.00    -0.185 C  
BRANCH  13  14
HETATM   14  N   UNL     1     -10.347   7.564  73.040  1.00  0.00    -0.289 NA 
HETATM   15  C   UNL     1      -9.123   8.324  72.858  1.00  0.00    -0.262 C  
BRANCH  14  16
HETATM   16  C   UNL     1     -11.567   8.157  72.477  1.00  0.00    -0.404 C  
BRANCH  16  17
HETATM   17  C   UNL     1     -11.261   9.402  71.648  1.00  0.00    -0.431 C  
BRANCH  17  18
HETATM   18  C   UNL     1     -12.519  10.145  71.180  1.00  0.00    -0.387 C  
BRANCH  18  19
HETATM   19  N   UNL     1     -12.133  11.247  70.296  1.00  0.00    -0.349 N  
HETATM   20  C   UNL     1     -12.010  12.571  70.893  1.00  0.00     0.156 C  
HETATM   21  C   UNL     1     -12.945  13.579  70.247  1.00  0.00     0.131 C  
HETATM   22  C   UNL     1     -12.232  14.196  69.075  1.00  0.00    -0.274 A  
HETATM   23  C   UNL     1     -11.958  15.569  69.110  1.00  0.00    -0.331 A  
HETATM   24  C   UNL     1     -11.251  16.191  68.081  1.00  0.00    -0.311 A  
HETATM   25  C   UNL     1     -10.802  15.423  66.992  1.00  0.00    -0.320 A  
HETATM   26  O   UNL     1     -11.205   9.889  68.707  1.00  0.00    -0.175 OA 
HETATM   27  C   UNL     1     -11.703  10.979  69.004  1.00  0.00    -0.333 C  
HETATM   28  C   UNL     1     -11.075  14.046  66.963  1.00  0.00    -0.312 A  
HETATM   29  C   UNL     1     -12.117  11.945  67.898  1.00  0.00     0.019 C  
HETATM   30  C   UNL     1     -11.778  13.414  68.006  1.00  0.00    -0.391 A  
BRANCH  24  31
HETATM   31  O   UNL     1     -10.929  17.526  68.092  1.00  0.00    -0.316 OA 
HETATM   32  C   UNL     1     -10.065  17.960  69.137  1.00  0.00    -0.217 C  
ENDBRANCH  24  31
BRANCH  25  33
HETATM   33  O   UNL     1     -10.121  16.101  66.013  1.00  0.00    -0.308 OA 
HETATM   34  C   UNL     1     -10.804  16.353  64.792  1.00  0.00    -0.178 C  
ENDBRANCH  25  33
ENDBRANCH  18  19
ENDBRANCH  17  18
ENDBRANCH  16  17
ENDBRANCH  14  16
ENDBRANCH  13  14
ENDBRANCH   9  13
ENDBRANCH   2   3
TORSDOF 10
ENDMDL
MODEL      226
REMARK 921   NORMALIZED FREE ENERGY PREDICTED BY IDOCK:   -3.60 KCAL/MOL
REMARK 922        TOTAL FREE ENERGY PREDICTED BY IDOCK:   -7.67 KCAL/MOL
REMARK 923 INTER-LIGAND FREE ENERGY PREDICTED BY IDOCK:   -7.08 KCAL/MOL
REMARK 924 INTRA-LIGAND FREE ENERGY PREDICTED BY IDOCK:   -0.58 KCAL/MOL
REMARK 927      BINDING AFFINITY PREDICTED BY RF-SCORE:    0.00 PKD
ROOT
HETATM    1  C   UNL     1      -5.208  10.289  66.942  1.00  0.00    -0.041 C  
HETATM    2  O   UNL     1      -6.030   9.155  67.197  1.00  0.00    -0.048 OA 
ENDROOT
BRANCH   2   3
HETATM    3  C   UNL     1      -7.246   9.371  67.794  1.00  0.00    -0.083 A  
HETATM    4  C   UNL     1      -8.429   9.868  67.184  1.00  0.00    -0.121 A  
HETATM    5  C   UNL     1      -7.249   9.029  69.175  1.00  0.00    -0.067 A  
HETATM    6  C   UNL     1      -9.563  10.083  67.967  1.00  0.00    -0.154 A  
HETATM    7  C   UNL     1      -8.408   9.240  69.898  1.00  0.00    -0.161 A  
HETATM    8  C   UNL     1      -9.484   9.824  69.307  1.00  0.00    -0.201 A  
HETATM    9  C   UNL     1     -10.294   9.947  70.573  1.00  0.00    -0.298 C  
HETATM   10  C   UNL     1      -9.149   9.031  71.199  1.00  0.00    -0.316 C  
BRANCH   4  11
HETATM   11  O   UNL     1      -8.470  10.099  65.834  1.00  0.00    -0.132 OA 
HETATM   12  C   UNL     1      -9.765  10.108  65.234  1.00  0.00    -0.300 C  
ENDBRANCH   4  11
BRANCH   9  13
HETATM   13  C   UNL     1     -11.746   9.614  70.205  1.00  0.00    -0.155 C  
BRANCH  13  14
HETATM   14  N   UNL     1     -12.775  10.602  70.532  1.00  0.00    -0.339 NA 
HETATM   15  C   UNL     1     -13.718  10.097  71.516  1.00  0.00    -0.049 C  
BRANCH  14  16
HETATM   16  C   UNL     1     -12.248  11.951  70.775  1.00  0.00    -0.303 C  
BRANCH  16  17
HETATM   17  C   UNL     1     -11.556  12.521  69.540  1.00  0.00    -0.348 C  
BRANCH  17  18
HETATM   18  C   UNL     1     -12.231  13.785  68.994  1.00  0.00    -0.224 C  
BRANCH  18  19
HETATM   19  N   UNL     1     -11.205  14.736  68.560  1.00  0.00    -0.263 N  
HETATM   20  C   UNL     1     -10.487  15.464  69.600  1.00  0.00    -0.280 C  
HETATM   21  C   UNL     1     -10.650  16.968  69.462  1.00  0.00    -0.168 C  
HETATM   22  C   UNL     1      -9.566  17.477  68.553  1.00  0.00    -0.305 A  
HETATM   23  C   UNL     1      -8.618  18.363  69.078  1.00  0.00    -0.061 A  
HETATM   24  C   UNL     1      -7.555  18.828  68.303  1.00  0.00    -0.281 A  
HETATM   25  C   UNL     1      -7.433  18.393  66.972  1.00  0.00    -0.213 A  
HETATM   26  O   UNL     1     -10.923  13.775  66.505  1.00  0.00    -0.296 OA 
HETATM   27  C   UNL     1     -10.807  14.766  67.231  1.00  0.00    -0.309 C  
HETATM   28  C   UNL     1      -8.384  17.501  66.449  1.00  0.00    -0.297 A  
HETATM   29  C   UNL     1     -10.493  16.123  66.610  1.00  0.00    -0.300 C  
HETATM   30  C   UNL     1      -9.450  17.022  67.233  1.00  0.00    -0.240 A  
BRANCH  24  31
HETATM   31  O   UNL     1      -6.583  19.668  68.789  1.00  0.00    -0.275 OA 
HETATM   32  C   UNL     1      -6.492  19.778  70.205  1.00  0.00    -0.204 C  
ENDBRANCH  24  31
BRANCH  25  33
HETATM   33  O   UNL     1      -6.370  18.897  66.266  1.00  0.00    -0.174 OA 
HETATM   34  C   UNL     1      -5.909  18.148  65.149  1.00  0.00    -0.076 C  
ENDBRANCH  25  33
ENDBRANCH  18  19
ENDBRANCH  17  18
ENDBRANCH  16  17
ENDBRANCH  14  16
ENDBRANCH  13  14
ENDBRANCH   9  13
ENDBRANCH   2   3
TORSDOF 10
ENDMDL
MODEL      227
REMARK 921   NORMALIZED FREE ENERGY PREDICTED BY IDOCK:   -3.60 KCAL/MOL
REMARK 922        TOTAL FREE ENERGY PREDICTED BY IDOCK:   -7.66 KCAL/MOL
REMARK 923 INTER-LIGAND FREE ENERGY PREDICTED BY IDOCK:   -7.73 KCAL/MOL
REMARK 924 INTRA-LIGAND FREE ENERGY PREDICTED BY IDOCK:    0.07 KCAL/MOL
REMARK 927      BINDING AFFINITY PREDICTED BY RF-SCORE:    0.00 PKD
ROOT
HETATM    1  C   UNL     1     -11.781  15.032  71.683  1.00  0.00    -0.377 C  
HETATM    2  O   UNL     1     -10.680  15.572  70.958  1.00  0.00    -0.267 OA 
ENDROOT
BRANCH   2   3
HETATM    3  C   UNL     1     -10.573  15.249  69.629  1.00  0.00    -0.276 A  
HETATM    4  C   UNL     1      -9.449  15.449  68.782  1.00  0.00    -0.211 A  
HETATM    5  C   UNL     1     -11.753  14.645  69.113  1.00  0.00    -0.342 A  
HETATM    6  C   UNL     1      -9.544  15.113  67.431  1.00  0.00    -0.208 A  
HETATM    7  C   UNL     1     -11.783  14.310  67.773  1.00  0.00    -0.408 A  
HETATM    8  C   UNL     1     -10.732  14.620  66.968  1.00  0.00    -0.290 A  
HETATM    9  C   UNL     1     -11.406  14.203  65.685  1.00  0.00    -0.319 C  
HETATM   10  C   UNL     1     -12.518  13.602  66.657  1.00  0.00    -0.291 C  
BRANCH   4  11
HETATM   11  O   UNL     1      -8.272  15.929  69.292  1.00  0.00    -0.226 OA 
HETATM   12  C   UNL     1      -7.429  16.632  68.380  1.00  0.00    -0.194 C  
ENDBRANCH   4  11
BRANCH   9  13
HETATM   13  C   UNL     1     -10.342  13.499  64.833  1.00  0.00    -0.377 C  
BRANCH  13  14
HETATM   14  N   UNL     1     -10.706  12.231  64.199  1.00  0.00    -0.339 NA 
HETATM   15  C   UNL     1     -11.862  12.370  63.331  1.00  0.00    -0.484 C  
BRANCH  14  16
HETATM   16  C   UNL     1      -9.563  11.497  63.641  1.00  0.00    -0.249 C  
BRANCH  16  17
HETATM   17  C   UNL     1      -9.183  10.296  64.504  1.00  0.00    -0.295 C  
BRANCH  17  18
HETATM   18  C   UNL     1      -8.084  10.608  65.528  1.00  0.00    -0.129 C  
BRANCH  18  19
HETATM   19  N   UNL     1      -8.389   9.929  66.789  1.00  0.00    -0.124 N  
HETATM   20  C   UNL     1      -7.980  10.593  68.022  1.00  0.00    -0.107 C  
HETATM   21  C   UNL     1      -7.025   9.742  68.841  1.00  0.00    -0.062 C  
HETATM   22  C   UNL     1      -7.841   8.865  69.750  1.00  0.00    -0.090 A  
HETATM   23  C   UNL     1      -7.715   9.040  71.134  1.00  0.00    -0.143 A  
HETATM   24  C   UNL     1      -8.484   8.298  72.029  1.00  0.00    -0.170 A  
HETATM   25  C   UNL     1      -9.406   7.361  71.532  1.00  0.00    -0.144 A  
HETATM   26  O   UNL     1     -10.049   8.632  65.902  1.00  0.00    -0.102 OA 
HETATM   27  C   UNL     1      -9.214   8.814  66.793  1.00  0.00    -0.169 C  
HETATM   28  C   UNL     1      -9.533   7.190  70.144  1.00  0.00    -0.161 A  
HETATM   29  C   UNL     1      -8.879   7.679  67.755  1.00  0.00    -0.125 C  
HETATM   30  C   UNL     1      -8.766   7.947  69.238  1.00  0.00    -0.138 A  
BRANCH  24  31
HETATM   31  O   UNL     1      -8.419   8.463  73.392  1.00  0.00    -0.311 OA 
HETATM   32  C   UNL     1      -7.139   8.286  73.989  1.00  0.00    -0.147 C  
ENDBRANCH  24  31
BRANCH  25  33
HETATM   33  O   UNL     1     -10.123   6.660  72.469  1.00  0.00    -0.171 OA 
HETATM   34  C   UNL     1     -11.513   6.483  72.235  1.00  0.00    -0.289 C  
ENDBRANCH  25  33
ENDBRANCH  18  19
ENDBRANCH  17  18
ENDBRANCH  16  17
ENDBRANCH  14  16
ENDBRANCH  13  14
ENDBRANCH   9  13
ENDBRANCH   2   3
TORSDOF 10
ENDMDL
MODEL      228
REMARK 921   NORMALIZED FREE ENERGY PREDICTED BY IDOCK:   -3.59 KCAL/MOL
REMARK 922        TOTAL FREE ENERGY PREDICTED BY IDOCK:   -7.65 KCAL/MOL
REMARK 923 INTER-LIGAND FREE ENERGY PREDICTED BY IDOCK:   -8.10 KCAL/MOL
REMARK 924 INTRA-LIGAND FREE ENERGY PREDICTED BY IDOCK:    0.45 KCAL/MOL
REMARK 927      BINDING AFFINITY PREDICTED BY RF-SCORE:    0.00 PKD
ROOT
HETATM    1  C   UNL     1      -7.451   3.512  71.179  1.00  0.00    -0.040 C  
HETATM    2  O   UNL     1      -8.220   4.034  72.259  1.00  0.00    -0.093 OA 
ENDROOT
BRANCH   2   3
HETATM    3  C   UNL     1      -9.052   5.091  71.995  1.00  0.00    -0.136 A  
HETATM    4  C   UNL     1     -10.425   5.216  72.343  1.00  0.00    -0.216 A  
HETATM    5  C   UNL     1      -8.398   6.146  71.301  1.00  0.00    -0.124 A  
HETATM    6  C   UNL     1     -11.134   6.345  71.935  1.00  0.00    -0.311 A  
HETATM    7  C   UNL     1      -9.143   7.253  70.941  1.00  0.00    -0.151 A  
HETATM    8  C   UNL     1     -10.478   7.287  71.191  1.00  0.00    -0.221 A  
HETATM    9  C   UNL     1     -10.731   8.572  70.443  1.00  0.00    -0.246 C  
HETATM   10  C   UNL     1      -9.141   8.660  70.385  1.00  0.00    -0.176 C  
BRANCH   4  11
HETATM   11  O   UNL     1     -11.038   4.256  73.105  1.00  0.00    -0.223 OA 
HETATM   12  C   UNL     1     -10.663   4.207  74.481  1.00  0.00    -0.082 C  
ENDBRANCH   4  11
BRANCH   9  13
HETATM   13  C   UNL     1     -11.744   9.375  71.270  1.00  0.00    -0.360 C  
BRANCH  13  14
HETATM   14  N   UNL     1     -12.241  10.632  70.707  1.00  0.00    -0.341 NA 
HETATM   15  C   UNL     1     -12.760  11.518  71.735  1.00  0.00    -0.235 C  
BRANCH  14  16
HETATM   16  C   UNL     1     -11.335  11.242  69.725  1.00  0.00    -0.271 C  
BRANCH  16  17
HETATM   17  C   UNL     1     -11.677  12.707  69.471  1.00  0.00    -0.374 C  
BRANCH  17  18
HETATM   18  C   UNL     1     -11.454  13.140  68.016  1.00  0.00    -0.311 C  
BRANCH  18  19
HETATM   19  N   UNL     1     -10.657  14.369  67.992  1.00  0.00    -0.238 N  
HETATM   20  C   UNL     1     -10.322  14.922  66.685  1.00  0.00    -0.283 C  
HETATM   21  C   UNL     1      -8.821  15.020  66.473  1.00  0.00    -0.286 C  
HETATM   22  C   UNL     1      -8.358  16.350  66.998  1.00  0.00    -0.230 A  
HETATM   23  C   UNL     1      -7.809  17.269  66.095  1.00  0.00    -0.305 A  
HETATM   24  C   UNL     1      -7.412  18.540  66.509  1.00  0.00    -0.242 A  
HETATM   25  C   UNL     1      -7.571  18.906  67.856  1.00  0.00    -0.259 A  
HETATM   26  O   UNL     1     -11.199  14.981  70.127  1.00  0.00    -0.245 OA 
HETATM   27  C   UNL     1     -10.427  15.067  69.168  1.00  0.00    -0.247 C  
HETATM   28  C   UNL     1      -8.126  17.984  68.759  1.00  0.00    -0.247 A  
HETATM   29  C   UNL     1      -9.059  15.716  69.359  1.00  0.00    -0.278 C  
HETATM   30  C   UNL     1      -8.538  16.705  68.341  1.00  0.00    -0.221 A  
BRANCH  24  31
HETATM   31  O   UNL     1      -6.903  19.484  65.650  1.00  0.00    -0.262 OA 
HETATM   32  C   UNL     1      -5.686  19.149  64.992  1.00  0.00    -0.238 C  
ENDBRANCH  24  31
BRANCH  25  33
HETATM   33  O   UNL     1      -7.152  20.168  68.195  1.00  0.00    -0.283 OA 
HETATM   34  C   UNL     1      -5.968  20.281  68.973  1.00  0.00    -0.321 C  
ENDBRANCH  25  33
ENDBRANCH  18  19
ENDBRANCH  17  18
ENDBRANCH  16  17
ENDBRANCH  14  16
ENDBRANCH  13  14
ENDBRANCH   9  13
ENDBRANCH   2   3
TORSDOF 10
ENDMDL
MODEL      229
REMARK 921   NORMALIZED FREE ENERGY PREDICTED BY IDOCK:   -3.58 KCAL/MOL
REMARK 922        TOTAL FREE ENERGY PREDICTED BY IDOCK:   -7.64 KCAL/MOL
REMARK 923 INTER-LIGAND FREE ENERGY PREDICTED BY IDOCK:   -6.51 KCAL/MOL
REMARK 924 INTRA-LIGAND FREE ENERGY PREDICTED BY IDOCK:   -1.13 KCAL/MOL
REMARK 927      BINDING AFFINITY PREDICTED BY RF-SCORE:    0.00 PKD
ROOT
HETATM    1  C   UNL     1     -10.773  12.342  63.517  1.00  0.00    -0.451 C  
HETATM    2  O   UNL     1     -10.436  13.111  64.668  1.00  0.00    -0.357 OA 
ENDROOT
BRANCH   2   3
HETATM    3  C   UNL     1     -10.727  12.578  65.897  1.00  0.00    -0.264 A  
HETATM    4  C   UNL     1     -11.255  13.258  67.028  1.00  0.00    -0.292 A  
HETATM    5  C   UNL     1     -10.452  11.184  65.971  1.00  0.00    -0.312 A  
HETATM    6  C   UNL     1     -11.430  12.561  68.224  1.00  0.00    -0.355 A  
HETATM    7  C   UNL     1     -10.667  10.539  67.175  1.00  0.00    -0.323 A  
HETATM    8  C   UNL     1     -11.063  11.245  68.266  1.00  0.00    -0.297 A  
HETATM    9  C   UNL     1     -10.941  10.094  69.233  1.00  0.00    -0.279 C  
HETATM   10  C   UNL     1     -10.737   9.222  67.915  1.00  0.00    -0.248 C  
BRANCH   4  11
HETATM   11  O   UNL     1     -11.625  14.574  66.937  1.00  0.00    -0.361 OA 
HETATM   12  C   UNL     1     -10.568  15.531  66.975  1.00  0.00    -0.311 C  
ENDBRANCH   4  11
BRANCH   9  13
HETATM   13  C   UNL     1     -12.137  10.188  70.190  1.00  0.00    -0.149 C  
BRANCH  13  14
HETATM   14  N   UNL     1     -12.059   9.453  71.454  1.00  0.00    -0.339 NA 
HETATM   15  C   UNL     1     -12.911   8.276  71.448  1.00  0.00    -0.247 C  
BRANCH  14  16
HETATM   16  C   UNL     1     -10.689   9.258  71.944  1.00  0.00    -0.139 C  
BRANCH  16  17
HETATM   17  C   UNL     1     -10.594   8.078  72.908  1.00  0.00    -0.399 C  
BRANCH  17  18
HETATM   18  C   UNL     1      -9.157   7.765  73.345  1.00  0.00    -0.276 C  
BRANCH  18  19
HETATM   19  N   UNL     1      -8.521   6.907  72.342  1.00  0.00    -0.115 N  
HETATM   20  C   UNL     1      -7.870   7.567  71.216  1.00  0.00    -0.094 C  
HETATM   21  C   UNL     1      -8.464   7.142  69.884  1.00  0.00    -0.140 C  
HETATM   22  C   UNL     1      -7.730   5.919  69.411  1.00  0.00    -0.093 A  
HETATM   23  C   UNL     1      -6.990   6.003  68.225  1.00  0.00    -0.076 A  
HETATM   24  C   UNL     1      -6.241   4.921  67.762  1.00  0.00    -0.035 A  
HETATM   25  C   UNL     1      -6.227   3.727  68.503  1.00  0.00    -0.032 A  
HETATM   26  O   UNL     1      -8.329   5.107  73.738  1.00  0.00    -0.111 OA 
HETATM   27  C   UNL     1      -8.373   5.550  72.586  1.00  0.00    -0.114 C  
HETATM   28  C   UNL     1      -6.966   3.647  69.694  1.00  0.00    -0.042 A  
HETATM   29  C   UNL     1      -8.555   4.589  71.415  1.00  0.00    -0.127 C  
HETATM   30  C   UNL     1      -7.712   4.742  70.170  1.00  0.00    -0.058 A  
BRANCH  24  31
HETATM   31  O   UNL     1      -5.473   4.971  66.624  1.00  0.00    -0.012 OA 
HETATM   32  C   UNL     1      -5.933   5.835  65.589  1.00  0.00    -0.025 C  
ENDBRANCH  24  31
BRANCH  25  33
HETATM   33  O   UNL     1      -5.476   2.701  67.984  1.00  0.00    -0.016 OA 
HETATM   34  C   UNL     1      -6.153   1.715  67.216  1.00  0.00    -0.020 C  
ENDBRANCH  25  33
ENDBRANCH  18  19
ENDBRANCH  17  18
ENDBRANCH  16  17
ENDBRANCH  14  16
ENDBRANCH  13  14
ENDBRANCH   9  13
ENDBRANCH   2   3
TORSDOF 10
ENDMDL
MODEL      230
REMARK 921   NORMALIZED FREE ENERGY PREDICTED BY IDOCK:   -3.58 KCAL/MOL
REMARK 922        TOTAL FREE ENERGY PREDICTED BY IDOCK:   -7.64 KCAL/MOL
REMARK 923 INTER-LIGAND FREE ENERGY PREDICTED BY IDOCK:   -7.41 KCAL/MOL
REMARK 924 INTRA-LIGAND FREE ENERGY PREDICTED BY IDOCK:   -0.23 KCAL/MOL
REMARK 927      BINDING AFFINITY PREDICTED BY RF-SCORE:    0.00 PKD
ROOT
HETATM    1  C   UNL     1     -10.619  19.779  66.096  1.00  0.00    -0.464 C  
HETATM    2  O   UNL     1      -9.415  19.073  65.813  1.00  0.00    -0.399 OA 
ENDROOT
BRANCH   2   3
HETATM    3  C   UNL     1      -9.355  17.749  66.169  1.00  0.00    -0.132 A  
HETATM    4  C   UNL     1      -8.353  17.112  66.950  1.00  0.00    -0.224 A  
HETATM    5  C   UNL     1     -10.454  16.996  65.672  1.00  0.00    -0.229 A  
HETATM    6  C   UNL     1      -8.424  15.735  67.160  1.00  0.00    -0.235 A  
HETATM    7  C   UNL     1     -10.486  15.639  65.931  1.00  0.00    -0.358 A  
HETATM    8  C   UNL     1      -9.453  15.044  66.583  1.00  0.00    -0.288 A  
HETATM    9  C   UNL     1      -9.957  13.635  66.395  1.00  0.00    -0.299 C  
HETATM   10  C   UNL     1     -11.280  14.353  65.873  1.00  0.00    -0.324 C  
BRANCH   4  11
HETATM   11  O   UNL     1      -7.348  17.845  67.523  1.00  0.00    -0.196 OA 
HETATM   12  C   UNL     1      -7.615  18.375  68.821  1.00  0.00    -0.275 C  
ENDBRANCH   4  11
BRANCH   9  13
HETATM   13  C   UNL     1      -9.680  12.886  67.706  1.00  0.00    -0.214 C  
BRANCH  13  14
HETATM   14  N   UNL     1     -10.736  12.018  68.230  1.00  0.00    -0.215 NA 
HETATM   15  C   UNL     1     -11.756  11.741  67.233  1.00  0.00    -0.217 C  
BRANCH  14  16
HETATM   16  C   UNL     1     -10.234  10.859  68.980  1.00  0.00    -0.203 C  
BRANCH  16  17
HETATM   17  C   UNL     1     -10.937  10.708  70.327  1.00  0.00    -0.237 C  
BRANCH  17  18
HETATM   18  C   UNL     1     -11.933   9.542  70.365  1.00  0.00    -0.066 C  
BRANCH  18  19
HETATM   19  N   UNL     1     -11.312   8.393  71.028  1.00  0.00    -0.262 N  
HETATM   20  C   UNL     1     -10.049   8.623  71.720  1.00  0.00    -0.310 C  
HETATM   21  C   UNL     1      -8.928   7.760  71.168  1.00  0.00    -0.146 C  
HETATM   22  C   UNL     1      -8.934   6.452  71.908  1.00  0.00    -0.138 A  
HETATM   23  C   UNL     1      -7.818   6.123  72.687  1.00  0.00    -0.103 A  
HETATM   24  C   UNL     1      -7.784   4.951  73.443  1.00  0.00    -0.096 A  
HETATM   25  C   UNL     1      -8.894   4.088  73.424  1.00  0.00    -0.097 A  
HETATM   26  O   UNL     1     -13.251   7.188  71.160  1.00  0.00    -0.347 OA 
HETATM   27  C   UNL     1     -12.017   7.205  71.157  1.00  0.00    -0.342 C  
HETATM   28  C   UNL     1     -10.013   4.423  72.645  1.00  0.00    -0.217 A  
HETATM   29  C   UNL     1     -11.246   5.897  71.007  1.00  0.00    -0.280 C  
HETATM   30  C   UNL     1     -10.054   5.611  71.891  1.00  0.00    -0.235 A  
BRANCH  24  31
HETATM   31  O   UNL     1      -6.726   4.607  74.248  1.00  0.00    -0.061 OA 
HETATM   32  C   UNL     1      -5.777   5.634  74.518  1.00  0.00    -0.049 C  
ENDBRANCH  24  31
BRANCH  25  33
HETATM   33  O   UNL     1      -8.788   2.949  74.183  1.00  0.00    -0.075 OA 
HETATM   34  C   UNL     1      -9.743   1.920  73.960  1.00  0.00    -0.079 C  
ENDBRANCH  25  33
ENDBRANCH  18  19
ENDBRANCH  17  18
ENDBRANCH  16  17
ENDBRANCH  14  16
ENDBRANCH  13  14
ENDBRANCH   9  13
ENDBRANCH   2   3
TORSDOF 10
ENDMDL
MODEL      231
REMARK 921   NORMALIZED FREE ENERGY PREDICTED BY IDOCK:   -3.57 KCAL/MOL
REMARK 922        TOTAL FREE ENERGY PREDICTED BY IDOCK:   -7.62 KCAL/MOL
REMARK 923 INTER-LIGAND FREE ENERGY PREDICTED BY IDOCK:   -6.58 KCAL/MOL
REMARK 924 INTRA-LIGAND FREE ENERGY PREDICTED BY IDOCK:   -1.04 KCAL/MOL
REMARK 927      BINDING AFFINITY PREDICTED BY RF-SCORE:    0.00 PKD
ROOT
HETATM    1  C   UNL     1      -7.594   5.051  68.831  1.00  0.00    -0.073 C  
HETATM    2  O   UNL     1      -8.381   5.831  69.726  1.00  0.00    -0.109 OA 
ENDROOT
BRANCH   2   3
HETATM    3  C   UNL     1      -9.093   6.878  69.200  1.00  0.00    -0.136 A  
HETATM    4  C   UNL     1     -10.252   7.493  69.747  1.00  0.00    -0.211 A  
HETATM    5  C   UNL     1      -8.547   7.355  67.977  1.00  0.00    -0.122 A  
HETATM    6  C   UNL     1     -10.884   8.514  69.037  1.00  0.00    -0.026 A  
HETATM    7  C   UNL     1      -9.200   8.385  67.327  1.00  0.00    -0.165 A  
HETATM    8  C   UNL     1     -10.369   8.871  67.821  1.00  0.00    -0.301 A  
HETATM    9  C   UNL     1     -10.658   9.772  66.647  1.00  0.00    -0.178 C  
HETATM   10  C   UNL     1      -9.172   9.400  66.206  1.00  0.00    -0.229 C  
BRANCH   4  11
HETATM   11  O   UNL     1     -10.724   7.116  70.977  1.00  0.00    -0.228 OA 
HETATM   12  C   UNL     1     -12.138   6.960  71.090  1.00  0.00    -0.381 C  
ENDBRANCH   4  11
BRANCH   9  13
HETATM   13  C   UNL     1     -11.231  11.076  67.218  1.00  0.00    -0.258 C  
BRANCH  13  14
HETATM   14  N   UNL     1     -10.449  12.301  67.038  1.00  0.00    -0.215 NA 
HETATM   15  C   UNL     1     -11.255  13.386  66.506  1.00  0.00    -0.307 C  
BRANCH  14  16
HETATM   16  C   UNL     1      -9.594  12.633  68.185  1.00  0.00    -0.219 C  
BRANCH  16  17
HETATM   17  C   UNL     1      -8.131  12.786  67.776  1.00  0.00    -0.168 C  
BRANCH  17  18
HETATM   18  C   UNL     1      -7.177  12.918  68.971  1.00  0.00     0.017 C  
BRANCH  18  19
HETATM   19  N   UNL     1      -6.845  14.330  69.174  1.00  0.00    -0.115 N  
HETATM   20  C   UNL     1      -7.440  15.295  68.256  1.00  0.00    -0.112 C  
HETATM   21  C   UNL     1      -6.389  16.092  67.503  1.00  0.00    -0.200 C  
HETATM   22  C   UNL     1      -6.038  17.301  68.324  1.00  0.00    -0.149 A  
HETATM   23  C   UNL     1      -6.323  18.568  67.801  1.00  0.00    -0.198 A  
HETATM   24  C   UNL     1      -6.074  19.727  68.535  1.00  0.00    -0.242 A  
HETATM   25  C   UNL     1      -5.531  19.618  69.828  1.00  0.00    -0.222 A  
HETATM   26  O   UNL     1      -6.224  14.059  71.357  1.00  0.00    -0.167 OA 
HETATM   27  C   UNL     1      -6.167  14.723  70.318  1.00  0.00    -0.167 C  
HETATM   28  C   UNL     1      -5.250  18.346  70.352  1.00  0.00    -0.247 A  
HETATM   29  C   UNL     1      -5.125  15.830  70.187  1.00  0.00    -0.129 C  
HETATM   30  C   UNL     1      -5.512  17.175  69.617  1.00  0.00    -0.189 A  
BRANCH  24  31
HETATM   31  O   UNL     1      -6.371  20.986  68.075  1.00  0.00    -0.338 OA 
HETATM   32  C   UNL     1      -6.022  21.263  66.723  1.00  0.00    -0.322 C  
ENDBRANCH  24  31
BRANCH  25  33
HETATM   33  O   UNL     1      -5.303  20.799  70.490  1.00  0.00    -0.429 OA 
HETATM   34  C   UNL     1      -5.366  20.778  71.910  1.00  0.00    -0.047 C  
ENDBRANCH  25  33
ENDBRANCH  18  19
ENDBRANCH  17  18
ENDBRANCH  16  17
ENDBRANCH  14  16
ENDBRANCH  13  14
ENDBRANCH   9  13
ENDBRANCH   2   3
TORSDOF 10
ENDMDL
MODEL      232
REMARK 921   NORMALIZED FREE ENERGY PREDICTED BY IDOCK:   -3.57 KCAL/MOL
REMARK 922        TOTAL FREE ENERGY PREDICTED BY IDOCK:   -7.62 KCAL/MOL
REMARK 923 INTER-LIGAND FREE ENERGY PREDICTED BY IDOCK:   -7.02 KCAL/MOL
REMARK 924 INTRA-LIGAND FREE ENERGY PREDICTED BY IDOCK:   -0.60 KCAL/MOL
REMARK 927      BINDING AFFINITY PREDICTED BY RF-SCORE:    0.00 PKD
ROOT
HETATM    1  C   UNL     1     -10.696  20.162  66.979  1.00  0.00    -0.093 C  
HETATM    2  O   UNL     1      -9.489  19.622  66.450  1.00  0.00    -0.354 OA 
ENDROOT
BRANCH   2   3
HETATM    3  C   UNL     1      -9.336  18.260  66.475  1.00  0.00    -0.302 A  
HETATM    4  C   UNL     1      -8.117  17.530  66.503  1.00  0.00    -0.270 A  
HETATM    5  C   UNL     1     -10.578  17.567  66.482  1.00  0.00    -0.191 A  
HETATM    6  C   UNL     1      -8.154  16.136  66.463  1.00  0.00    -0.331 A  
HETATM    7  C   UNL     1     -10.556  16.185  66.466  1.00  0.00    -0.268 A  
HETATM    8  C   UNL     1      -9.373  15.523  66.377  1.00  0.00    -0.330 A  
HETATM    9  C   UNL     1      -9.987  14.154  66.218  1.00  0.00    -0.315 C  
HETATM   10  C   UNL     1     -11.345  14.901  66.587  1.00  0.00    -0.326 C  
BRANCH   4  11
HETATM   11  O   UNL     1      -6.918  18.184  66.606  1.00  0.00    -0.189 OA 
HETATM   12  C   UNL     1      -5.986  17.651  67.547  1.00  0.00    -0.149 C  
ENDBRANCH   4  11
BRANCH   9  13
HETATM   13  C   UNL     1      -9.128  13.184  67.040  1.00  0.00    -0.231 C  
BRANCH  13  14
HETATM   14  N   UNL     1      -9.527  11.776  67.068  1.00  0.00    -0.182 NA 
HETATM   15  C   UNL     1      -8.969  11.032  65.952  1.00  0.00    -0.195 C  
BRANCH  14  16
HETATM   16  C   UNL     1      -9.402  11.149  68.390  1.00  0.00    -0.185 C  
BRANCH  16  17
HETATM   17  C   UNL     1     -10.392  10.001  68.570  1.00  0.00    -0.217 C  
BRANCH  17  18
HETATM   18  C   UNL     1     -10.817   9.789  70.029  1.00  0.00    -0.278 C  
BRANCH  18  19
HETATM   19  N   UNL     1     -10.155   8.595  70.559  1.00  0.00    -0.190 N  
HETATM   20  C   UNL     1     -10.682   7.299  70.146  1.00  0.00    -0.244 C  
HETATM   21  C   UNL     1     -11.140   6.464  71.329  1.00  0.00    -0.334 C  
HETATM   22  C   UNL     1      -9.965   5.670  71.826  1.00  0.00    -0.222 A  
HETATM   23  C   UNL     1     -10.024   4.273  71.751  1.00  0.00    -0.254 A  
HETATM   24  C   UNL     1      -8.946   3.481  72.143  1.00  0.00    -0.100 A  
HETATM   25  C   UNL     1      -7.776   4.098  72.619  1.00  0.00    -0.079 A  
HETATM   26  O   UNL     1      -8.203   9.676  71.058  1.00  0.00    -0.270 OA 
HETATM   27  C   UNL     1      -8.957   8.717  71.248  1.00  0.00    -0.231 C  
HETATM   28  C   UNL     1      -7.718   5.500  72.690  1.00  0.00    -0.099 A  
HETATM   29  C   UNL     1      -8.725   7.802  72.447  1.00  0.00    -0.184 C  
HETATM   30  C   UNL     1      -8.801   6.301  72.283  1.00  0.00    -0.136 A  
BRANCH  24  31
HETATM   31  O   UNL     1      -8.948   2.110  72.052  1.00  0.00    -0.071 OA 
HETATM   32  C   UNL     1     -10.224   1.485  71.965  1.00  0.00    -0.152 C  
ENDBRANCH  24  31
BRANCH  25  33
HETATM   33  O   UNL     1      -6.758   3.258  72.996  1.00  0.00    -0.030 OA 
HETATM   34  C   UNL     1      -6.141   3.497  74.254  1.00  0.00    -0.016 C  
ENDBRANCH  25  33
ENDBRANCH  18  19
ENDBRANCH  17  18
ENDBRANCH  16  17
ENDBRANCH  14  16
ENDBRANCH  13  14
ENDBRANCH   9  13
ENDBRANCH   2   3
TORSDOF 10
ENDMDL
MODEL      233
REMARK 921   NORMALIZED FREE ENERGY PREDICTED BY IDOCK:   -3.56 KCAL/MOL
REMARK 922        TOTAL FREE ENERGY PREDICTED BY IDOCK:   -7.60 KCAL/MOL
REMARK 923 INTER-LIGAND FREE ENERGY PREDICTED BY IDOCK:   -6.81 KCAL/MOL
REMARK 924 INTRA-LIGAND FREE ENERGY PREDICTED BY IDOCK:   -0.79 KCAL/MOL
REMARK 927      BINDING AFFINITY PREDICTED BY RF-SCORE:    0.00 PKD
ROOT
HETATM    1  C   UNL     1     -10.714   5.016  65.988  1.00  0.00    -0.183 C  
HETATM    2  O   UNL     1     -11.071   6.058  66.891  1.00  0.00    -0.303 OA 
ENDROOT
BRANCH   2   3
HETATM    3  C   UNL     1     -10.099   6.960  67.240  1.00  0.00    -0.198 A  
HETATM    4  C   UNL     1      -9.093   6.801  68.231  1.00  0.00    -0.124 A  
HETATM    5  C   UNL     1     -10.161   8.158  66.477  1.00  0.00    -0.248 A  
HETATM    6  C   UNL     1      -8.220   7.858  68.494  1.00  0.00    -0.127 A  
HETATM    7  C   UNL     1      -9.256   9.163  66.763  1.00  0.00    -0.195 A  
HETATM    8  C   UNL     1      -8.383   9.021  67.794  1.00  0.00    -0.117 A  
HETATM    9  C   UNL     1      -7.843  10.427  67.720  1.00  0.00    -0.101 C  
HETATM   10  C   UNL     1      -8.669  10.497  66.359  1.00  0.00    -0.152 C  
BRANCH   4  11
HETATM   11  O   UNL     1      -8.954   5.612  68.897  1.00  0.00    -0.111 OA 
HETATM   12  C   UNL     1     -10.026   5.245  69.764  1.00  0.00    -0.236 C  
ENDBRANCH   4  11
BRANCH   9  13
HETATM   13  C   UNL     1      -6.331  10.336  67.964  1.00  0.00    -0.056 C  
BRANCH  13  14
HETATM   14  N   UNL     1      -5.460  11.218  67.184  1.00  0.00    -0.062 NA 
HETATM   15  C   UNL     1      -5.379  10.808  65.793  1.00  0.00    -0.129 C  
BRANCH  14  16
HETATM   16  C   UNL     1      -5.694  12.648  67.425  1.00  0.00    -0.104 C  
BRANCH  16  17
HETATM   17  C   UNL     1      -5.195  13.081  68.800  1.00  0.00    -0.068 C  
BRANCH  17  18
HETATM   18  C   UNL     1      -6.318  13.552  69.734  1.00  0.00    -0.087 C  
BRANCH  18  19
HETATM   19  N   UNL     1      -6.871  14.812  69.231  1.00  0.00    -0.132 N  
HETATM   20  C   UNL     1      -5.923  15.851  68.843  1.00  0.00    -0.113 C  
HETATM   21  C   UNL     1      -6.120  17.130  69.638  1.00  0.00    -0.241 C  
HETATM   22  C   UNL     1      -7.129  17.979  68.918  1.00  0.00    -0.268 A  
HETATM   23  C   UNL     1      -6.719  19.220  68.414  1.00  0.00    -0.295 A  
HETATM   24  C   UNL     1      -7.591  20.030  67.688  1.00  0.00    -0.292 A  
HETATM   25  C   UNL     1      -8.906  19.590  67.456  1.00  0.00    -0.307 A  
HETATM   26  O   UNL     1      -8.893  13.910  68.664  1.00  0.00    -0.161 OA 
HETATM   27  C   UNL     1      -8.225  14.908  68.947  1.00  0.00    -0.171 C  
HETATM   28  C   UNL     1      -9.314  18.344  67.959  1.00  0.00    -0.304 A  
HETATM   29  C   UNL     1      -8.932  16.221  69.271  1.00  0.00    -0.170 C  
HETATM   30  C   UNL     1      -8.431  17.519  68.681  1.00  0.00    -0.258 A  
BRANCH  24  31
HETATM   31  O   UNL     1      -7.220  21.236  67.145  1.00  0.00    -0.475 OA 
HETATM   32  C   UNL     1      -6.144  21.205  66.214  1.00  0.00    -0.277 C  
ENDBRANCH  24  31
BRANCH  25  33
HETATM   33  O   UNL     1      -9.712  20.441  66.742  1.00  0.00    -0.417 OA 
HETATM   34  C   UNL     1     -10.394  19.909  65.614  1.00  0.00    -0.326 C  
ENDBRANCH  25  33
ENDBRANCH  18  19
ENDBRANCH  17  18
ENDBRANCH  16  17
ENDBRANCH  14  16
ENDBRANCH  13  14
ENDBRANCH   9  13
ENDBRANCH   2   3
TORSDOF 10
ENDMDL
MODEL      234
REMARK 921   NORMALIZED FREE ENERGY PREDICTED BY IDOCK:   -3.55 KCAL/MOL
REMARK 922        TOTAL FREE ENERGY PREDICTED BY IDOCK:   -7.59 KCAL/MOL
REMARK 923 INTER-LIGAND FREE ENERGY PREDICTED BY IDOCK:   -6.40 KCAL/MOL
REMARK 924 INTRA-LIGAND FREE ENERGY PREDICTED BY IDOCK:   -1.18 KCAL/MOL
REMARK 927      BINDING AFFINITY PREDICTED BY RF-SCORE:    0.00 PKD
ROOT
HETATM    1  C   UNL     1     -10.852  15.597  70.079  1.00  0.00    -0.330 C  
HETATM    2  O   UNL     1      -9.988  15.831  68.971  1.00  0.00    -0.208 OA 
ENDROOT
BRANCH   2   3
HETATM    3  C   UNL     1      -9.801  14.805  68.081  1.00  0.00    -0.221 A  
HETATM    4  C   UNL     1      -8.570  14.197  67.713  1.00  0.00    -0.184 A  
HETATM    5  C   UNL     1     -11.020  14.343  67.511  1.00  0.00    -0.299 A  
HETATM    6  C   UNL     1      -8.566  13.200  66.738  1.00  0.00    -0.049 A  
HETATM    7  C   UNL     1     -10.959  13.335  66.567  1.00  0.00    -0.299 A  
HETATM    8  C   UNL     1      -9.755  12.858  66.155  1.00  0.00    -0.250 A  
HETATM    9  C   UNL     1     -10.313  11.983  65.061  1.00  0.00    -0.318 C  
HETATM   10  C   UNL     1     -11.720  12.341  65.719  1.00  0.00    -0.445 C  
BRANCH   4  11
HETATM   11  O   UNL     1      -7.404  14.559  68.334  1.00  0.00    -0.100 OA 
HETATM   12  C   UNL     1      -6.377  13.569  68.375  1.00  0.00    -0.093 C  
ENDBRANCH   4  11
BRANCH   9  13
HETATM   13  C   UNL     1      -9.508  10.678  65.081  1.00  0.00    -0.227 C  
BRANCH  13  14
HETATM   14  N   UNL     1      -9.334   9.965  63.814  1.00  0.00    -0.252 NA 
HETATM   15  C   UNL     1      -9.602  10.819  62.670  1.00  0.00    -0.261 C  
BRANCH  14  16
HETATM   16  C   UNL     1      -8.106   9.162  63.748  1.00  0.00    -0.156 C  
BRANCH  16  17
HETATM   17  C   UNL     1      -8.244   7.850  64.516  1.00  0.00    -0.073 C  
BRANCH  17  18
HETATM   18  C   UNL     1      -7.206   7.688  65.634  1.00  0.00    -0.065 C  
BRANCH  18  19
HETATM   19  N   UNL     1      -7.855   7.130  66.823  1.00  0.00    -0.101 N  
HETATM   20  C   UNL     1      -9.125   7.721  67.230  1.00  0.00    -0.131 C  
HETATM   21  C   UNL     1      -9.067   8.287  68.638  1.00  0.00    -0.140 C  
HETATM   22  C   UNL     1      -9.429   7.190  69.600  1.00  0.00    -0.152 A  
HETATM   23  C   UNL     1     -10.588   7.337  70.373  1.00  0.00    -0.240 A  
HETATM   24  C   UNL     1     -11.009   6.331  71.243  1.00  0.00    -0.275 A  
HETATM   25  C   UNL     1     -10.259   5.147  71.340  1.00  0.00    -0.213 A  
HETATM   26  O   UNL     1      -6.740   5.137  66.720  1.00  0.00    -0.057 OA 
HETATM   27  C   UNL     1      -7.372   5.960  67.389  1.00  0.00    -0.077 C  
HETATM   28  C   UNL     1      -9.100   5.000  70.561  1.00  0.00    -0.180 A  
HETATM   29  C   UNL     1      -7.385   5.843  68.910  1.00  0.00    -0.084 C  
HETATM   30  C   UNL     1      -8.679   6.009  69.673  1.00  0.00    -0.133 A  
BRANCH  24  31
HETATM   31  O   UNL     1     -12.158   6.419  71.992  1.00  0.00    -0.335 OA 
HETATM   32  C   UNL     1     -12.772   7.702  72.059  1.00  0.00    -0.232 C  
ENDBRANCH  24  31
BRANCH  25  33
HETATM   33  O   UNL     1     -10.727   4.204  72.222  1.00  0.00    -0.070 OA 
HETATM   34  C   UNL     1     -10.049   2.956  72.269  1.00  0.00    -0.152 C  
ENDBRANCH  25  33
ENDBRANCH  18  19
ENDBRANCH  17  18
ENDBRANCH  16  17
ENDBRANCH  14  16
ENDBRANCH  13  14
ENDBRANCH   9  13
ENDBRANCH   2   3
TORSDOF 10
ENDMDL
MODEL      235
REMARK 921   NORMALIZED FREE ENERGY PREDICTED BY IDOCK:   -3.54 KCAL/MOL
REMARK 922        TOTAL FREE ENERGY PREDICTED BY IDOCK:   -7.58 KCAL/MOL
REMARK 923 INTER-LIGAND FREE ENERGY PREDICTED BY IDOCK:   -5.84 KCAL/MOL
REMARK 924 INTRA-LIGAND FREE ENERGY PREDICTED BY IDOCK:   -1.74 KCAL/MOL
REMARK 927      BINDING AFFINITY PREDICTED BY RF-SCORE:    0.00 PKD
ROOT
HETATM    1  C   UNL     1      -6.016  14.051  70.546  1.00  0.00    -0.177 C  
HETATM    2  O   UNL     1      -6.160  14.428  69.180  1.00  0.00    -0.088 OA 
ENDROOT
BRANCH   2   3
HETATM    3  C   UNL     1      -6.532  13.455  68.287  1.00  0.00    -0.102 A  
HETATM    4  C   UNL     1      -7.829  13.228  67.752  1.00  0.00    -0.157 A  
HETATM    5  C   UNL     1      -5.445  12.626  67.892  1.00  0.00    -0.099 A  
HETATM    6  C   UNL     1      -8.035  12.144  66.897  1.00  0.00    -0.089 A  
HETATM    7  C   UNL     1      -5.702  11.582  67.024  1.00  0.00    -0.119 A  
HETATM    8  C   UNL     1      -6.975  11.325  66.623  1.00  0.00    -0.129 A  
HETATM    9  C   UNL     1      -6.642  10.044  65.900  1.00  0.00    -0.098 C  
HETATM   10  C   UNL     1      -5.132  10.491  66.146  1.00  0.00    -0.066 C  
BRANCH   4  11
HETATM   11  O   UNL     1      -8.859  14.084  68.039  1.00  0.00    -0.165 OA 
HETATM   12  C   UNL     1     -10.130  13.483  68.284  1.00  0.00    -0.247 C  
ENDBRANCH   4  11
BRANCH   9  13
HETATM   13  C   UNL     1      -7.479  10.030  64.614  1.00  0.00    -0.143 C  
BRANCH  13  14
HETATM   14  N   UNL     1      -7.133   9.047  63.586  1.00  0.00    -0.092 NA 
HETATM   15  C   UNL     1      -6.000   9.477  62.784  1.00  0.00    -0.097 C  
BRANCH  14  16
HETATM   16  C   UNL     1      -7.089   7.664  64.077  1.00  0.00    -0.068 C  
BRANCH  16  17
HETATM   17  C   UNL     1      -8.423   7.234  64.683  1.00  0.00     0.144 C  
BRANCH  17  18
HETATM   18  C   UNL     1      -8.270   6.264  65.862  1.00  0.00    -0.129 C  
BRANCH  18  19
HETATM   19  N   UNL     1      -9.152   6.684  66.954  1.00  0.00    -0.131 N  
HETATM   20  C   UNL     1      -9.431   8.110  67.077  1.00  0.00    -0.177 C  
HETATM   21  C   UNL     1      -8.998   8.663  68.424  1.00  0.00    -0.142 C  
HETATM   22  C   UNL     1     -10.140   8.500  69.387  1.00  0.00    -0.205 A  
HETATM   23  C   UNL     1     -10.730   9.652  69.924  1.00  0.00    -0.283 A  
HETATM   24  C   UNL     1     -11.828   9.570  70.779  1.00  0.00    -0.277 A  
HETATM   25  C   UNL     1     -12.355   8.308  71.104  1.00  0.00    -0.206 A  
HETATM   26  O   UNL     1     -10.115   4.626  67.211  1.00  0.00    -0.179 OA 
HETATM   27  C   UNL     1      -9.844   5.732  67.688  1.00  0.00    -0.126 C  
HETATM   28  C   UNL     1     -11.765   7.156  70.560  1.00  0.00    -0.314 A  
HETATM   29  C   UNL     1     -10.012   5.968  69.186  1.00  0.00    -0.205 C  
HETATM   30  C   UNL     1     -10.664   7.236  69.688  1.00  0.00    -0.249 A  
BRANCH  24  31
HETATM   31  O   UNL     1     -12.458  10.675  71.299  1.00  0.00    -0.358 OA 
HETATM   32  C   UNL     1     -12.261  11.901  70.603  1.00  0.00    -0.331 C  
ENDBRANCH  24  31
BRANCH  25  33
HETATM   33  O   UNL     1     -13.431   8.302  71.957  1.00  0.00    -0.330 OA 
HETATM   34  C   UNL     1     -14.395   7.271  71.792  1.00  0.00    -0.402 C  
ENDBRANCH  25  33
ENDBRANCH  18  19
ENDBRANCH  17  18
ENDBRANCH  16  17
ENDBRANCH  14  16
ENDBRANCH  13  14
ENDBRANCH   9  13
ENDBRANCH   2   3
TORSDOF 10
ENDMDL
MODEL      236
REMARK 921   NORMALIZED FREE ENERGY PREDICTED BY IDOCK:   -3.49 KCAL/MOL
REMARK 922        TOTAL FREE ENERGY PREDICTED BY IDOCK:   -7.50 KCAL/MOL
REMARK 923 INTER-LIGAND FREE ENERGY PREDICTED BY IDOCK:   -5.92 KCAL/MOL
REMARK 924 INTRA-LIGAND FREE ENERGY PREDICTED BY IDOCK:   -1.59 KCAL/MOL
REMARK 927      BINDING AFFINITY PREDICTED BY RF-SCORE:    0.00 PKD
ROOT
HETATM    1  C   UNL     1      -8.051   7.380  62.582  1.00  0.00    -0.088 C  
HETATM    2  O   UNL     1      -8.280   5.976  62.645  1.00  0.00    -0.106 OA 
ENDROOT
BRANCH   2   3
HETATM    3  C   UNL     1      -8.030   5.342  63.835  1.00  0.00    -0.111 A  
HETATM    4  C   UNL     1      -8.322   3.993  64.171  1.00  0.00    -0.093 A  
HETATM    5  C   UNL     1      -7.398   6.190  64.787  1.00  0.00    -0.075 A  
HETATM    6  C   UNL     1      -8.050   3.535  65.460  1.00  0.00    -0.093 A  
HETATM    7  C   UNL     1      -7.130   5.677  66.042  1.00  0.00    -0.068 A  
HETATM    8  C   UNL     1      -7.528   4.418  66.364  1.00  0.00    -0.082 A  
HETATM    9  C   UNL     1      -7.146   4.515  67.820  1.00  0.00    -0.064 C  
HETATM   10  C   UNL     1      -6.447   5.877  67.376  1.00  0.00    -0.047 C  
BRANCH   4  11
HETATM   11  O   UNL     1      -8.830   3.137  63.229  1.00  0.00    -0.092 OA 
HETATM   12  C   UNL     1      -9.500   1.978  63.724  1.00  0.00    -0.119 C  
ENDBRANCH   4  11
BRANCH   9  13
HETATM   13  C   UNL     1      -6.534   3.162  68.209  1.00  0.00    -0.036 C  
BRANCH  13  14
HETATM   14  N   UNL     1      -6.747   2.686  69.577  1.00  0.00    -0.033 NA 
HETATM   15  C   UNL     1      -5.786   3.257  70.505  1.00  0.00    -0.018 C  
BRANCH  14  16
HETATM   16  C   UNL     1      -8.152   2.713  70.004  1.00  0.00    -0.041 C  
BRANCH  16  17
HETATM   17  C   UNL     1      -8.379   3.695  71.151  1.00  0.00    -0.086 C  
BRANCH  17  18
HETATM   18  C   UNL     1      -9.858   3.875  71.513  1.00  0.00    -0.177 C  
BRANCH  18  19
HETATM   19  N   UNL     1     -10.246   5.270  71.293  1.00  0.00    -0.215 N  
HETATM   20  C   UNL     1     -10.448   5.697  69.913  1.00  0.00    -0.308 C  
HETATM   21  C   UNL     1      -9.525   6.840  69.527  1.00  0.00    -0.148 C  
HETATM   22  C   UNL     1     -10.206   8.133  69.879  1.00  0.00    -0.204 A  
HETATM   23  C   UNL     1     -10.535   9.017  68.843  1.00  0.00    -0.231 A  
HETATM   24  C   UNL     1     -11.217  10.206  69.098  1.00  0.00    -0.183 A  
HETATM   25  C   UNL     1     -11.584  10.521  70.418  1.00  0.00    -0.342 A  
HETATM   26  O   UNL     1     -11.044   5.575  73.413  1.00  0.00    -0.282 OA 
HETATM   27  C   UNL     1     -10.604   6.067  72.370  1.00  0.00    -0.217 C  
HETATM   28  C   UNL     1     -11.256   9.631  71.453  1.00  0.00    -0.426 A  
HETATM   29  C   UNL     1     -10.177   7.531  72.350  1.00  0.00    -0.261 C  
HETATM   30  C   UNL     1     -10.578   8.424  71.198  1.00  0.00    -0.266 A  
BRANCH  24  31
HETATM   31  O   UNL     1     -11.591  11.083  68.108  1.00  0.00    -0.417 OA 
HETATM   32  C   UNL     1     -10.585  11.441  67.168  1.00  0.00    -0.243 C  
ENDBRANCH  24  31
BRANCH  25  33
HETATM   33  O   UNL     1     -12.244  11.711  70.596  1.00  0.00    -0.369 OA 
HETATM   34  C   UNL     1     -13.080  11.833  71.739  1.00  0.00    -0.375 C  
ENDBRANCH  25  33
ENDBRANCH  18  19
ENDBRANCH  17  18
ENDBRANCH  16  17
ENDBRANCH  14  16
ENDBRANCH  13  14
ENDBRANCH   9  13
ENDBRANCH   2   3
TORSDOF 10
ENDMDL
MODEL      237
REMARK 921   NORMALIZED FREE ENERGY PREDICTED BY IDOCK:   -3.49 KCAL/MOL
REMARK 922        TOTAL FREE ENERGY PREDICTED BY IDOCK:   -7.49 KCAL/MOL
REMARK 923 INTER-LIGAND FREE ENERGY PREDICTED BY IDOCK:   -7.02 KCAL/MOL
REMARK 924 INTRA-LIGAND FREE ENERGY PREDICTED BY IDOCK:   -0.47 KCAL/MOL
REMARK 927      BINDING AFFINITY PREDICTED BY RF-SCORE:    0.00 PKD
ROOT
HETATM    1  C   UNL     1      -6.355   3.650  68.365  1.00  0.00    -0.033 C  
HETATM    2  O   UNL     1      -5.963   4.974  68.716  1.00  0.00    -0.019 OA 
ENDROOT
BRANCH   2   3
HETATM    3  C   UNL     1      -6.548   6.012  68.037  1.00  0.00    -0.055 A  
HETATM    4  C   UNL     1      -7.579   6.874  68.501  1.00  0.00    -0.111 A  
HETATM    5  C   UNL     1      -6.005   6.191  66.734  1.00  0.00    -0.025 A  
HETATM    6  C   UNL     1      -8.097   7.843  67.642  1.00  0.00    -0.124 A  
HETATM    7  C   UNL     1      -6.540   7.183  65.934  1.00  0.00    -0.052 A  
HETATM    8  C   UNL     1      -7.602   7.912  66.369  1.00  0.00    -0.091 A  
HETATM    9  C   UNL     1      -7.823   8.636  65.065  1.00  0.00    -0.116 C  
HETATM   10  C   UNL     1      -6.429   7.980  64.654  1.00  0.00    -0.056 C  
BRANCH   4  11
HETATM   11  O   UNL     1      -8.033   6.781  69.790  1.00  0.00    -0.119 OA 
HETATM   12  C   UNL     1      -9.313   7.356  70.051  1.00  0.00    -0.151 C  
ENDBRANCH   4  11
BRANCH   9  13
HETATM   13  C   UNL     1      -8.176  10.087  65.416  1.00  0.00    -0.149 C  
BRANCH  13  14
HETATM   14  N   UNL     1      -9.588  10.472  65.383  1.00  0.00    -0.217 NA 
HETATM   15  C   UNL     1     -10.298  10.033  66.573  1.00  0.00    -0.198 C  
BRANCH  14  16
HETATM   16  C   UNL     1      -9.815  11.864  64.972  1.00  0.00    -0.209 C  
BRANCH  16  17
HETATM   17  C   UNL     1     -10.555  12.659  66.045  1.00  0.00    -0.294 C  
BRANCH  17  18
HETATM   18  C   UNL     1     -11.155  13.970  65.523  1.00  0.00    -0.309 C  
BRANCH  18  19
HETATM   19  N   UNL     1     -10.330  15.095  65.969  1.00  0.00    -0.293 N  
HETATM   20  C   UNL     1      -9.192  14.788  66.830  1.00  0.00    -0.260 C  
HETATM   21  C   UNL     1      -9.282  15.496  68.170  1.00  0.00    -0.189 C  
HETATM   22  C   UNL     1      -8.635  16.846  68.032  1.00  0.00    -0.214 A  
HETATM   23  C   UNL     1      -7.489  17.116  68.791  1.00  0.00    -0.250 A  
HETATM   24  C   UNL     1      -6.809  18.327  68.667  1.00  0.00    -0.254 A  
HETATM   25  C   UNL     1      -7.282  19.292  67.761  1.00  0.00    -0.245 A  
HETATM   26  O   UNL     1     -10.997  16.491  64.286  1.00  0.00    -0.848 OA 
HETATM   27  C   UNL     1     -10.516  16.353  65.415  1.00  0.00    -0.311 C  
HETATM   28  C   UNL     1      -8.428  19.017  66.999  1.00  0.00    -0.300 A  
HETATM   29  C   UNL     1     -10.383  17.565  66.331  1.00  0.00    -0.334 C  
HETATM   30  C   UNL     1      -9.109  17.791  67.113  1.00  0.00    -0.247 A  
BRANCH  24  31
HETATM   31  O   UNL     1      -5.662  18.619  69.364  1.00  0.00    -0.216 OA 
HETATM   32  C   UNL     1      -5.168  17.598  70.224  1.00  0.00    -0.241 C  
ENDBRANCH  24  31
BRANCH  25  33
HETATM   33  O   UNL     1      -6.569  20.464  67.698  1.00  0.00    -0.239 OA 
HETATM   34  C   UNL     1      -6.076  20.865  66.427  1.00  0.00    -0.255 C  
ENDBRANCH  25  33
ENDBRANCH  18  19
ENDBRANCH  17  18
ENDBRANCH  16  17
ENDBRANCH  14  16
ENDBRANCH  13  14
ENDBRANCH   9  13
ENDBRANCH   2   3
TORSDOF 10
ENDMDL
MODEL      238
REMARK 921   NORMALIZED FREE ENERGY PREDICTED BY IDOCK:   -3.48 KCAL/MOL
REMARK 922        TOTAL FREE ENERGY PREDICTED BY IDOCK:   -7.48 KCAL/MOL
REMARK 923 INTER-LIGAND FREE ENERGY PREDICTED BY IDOCK:   -6.89 KCAL/MOL
REMARK 924 INTRA-LIGAND FREE ENERGY PREDICTED BY IDOCK:   -0.59 KCAL/MOL
REMARK 927      BINDING AFFINITY PREDICTED BY RF-SCORE:    0.00 PKD
ROOT
HETATM    1  C   UNL     1      -8.165   2.222  69.317  1.00  0.00    -0.047 C  
HETATM    2  O   UNL     1      -8.962   2.840  68.311  1.00  0.00    -0.112 OA 
ENDROOT
BRANCH   2   3
HETATM    3  C   UNL     1      -8.730   4.164  68.039  1.00  0.00    -0.100 A  
HETATM    4  C   UNL     1      -8.447   4.746  66.773  1.00  0.00    -0.105 A  
HETATM    5  C   UNL     1      -8.805   4.985  69.197  1.00  0.00    -0.114 A  
HETATM    6  C   UNL     1      -8.175   6.111  66.695  1.00  0.00    -0.110 A  
HETATM    7  C   UNL     1      -8.550   6.336  69.058  1.00  0.00    -0.123 A  
HETATM    8  C   UNL     1      -8.170   6.838  67.853  1.00  0.00    -0.117 A  
HETATM    9  C   UNL     1      -7.873   8.226  68.363  1.00  0.00    -0.118 C  
HETATM   10  C   UNL     1      -8.566   7.705  69.701  1.00  0.00    -0.136 C  
BRANCH   4  11
HETATM   11  O   UNL     1      -8.479   3.983  65.635  1.00  0.00    -0.108 OA 
HETATM   12  C   UNL     1      -8.992   4.617  64.464  1.00  0.00    -0.147 C  
ENDBRANCH   4  11
BRANCH   9  13
HETATM   13  C   UNL     1      -8.377   9.208  67.298  1.00  0.00    -0.121 C  
BRANCH  13  14
HETATM   14  N   UNL     1      -9.621   9.930  67.570  1.00  0.00    -0.154 NA 
HETATM   15  C   UNL     1     -10.784   9.066  67.460  1.00  0.00    -0.169 C  
BRANCH  14  16
HETATM   16  C   UNL     1      -9.562  10.787  68.761  1.00  0.00    -0.189 C  
BRANCH  16  17
HETATM   17  C   UNL     1     -10.955  11.149  69.269  1.00  0.00    -0.300 C  
BRANCH  17  18
HETATM   18  C   UNL     1     -11.755  12.015  68.287  1.00  0.00    -0.334 C  
BRANCH  18  19
HETATM   19  N   UNL     1     -11.136  13.339  68.192  1.00  0.00    -0.247 N  
HETATM   20  C   UNL     1     -10.593  13.731  66.896  1.00  0.00    -0.276 C  
HETATM   21  C   UNL     1      -9.108  14.040  66.968  1.00  0.00    -0.256 C  
HETATM   22  C   UNL     1      -8.947  15.493  67.318  1.00  0.00    -0.216 A  
HETATM   23  C   UNL     1      -8.334  16.339  66.385  1.00  0.00    -0.365 A  
HETATM   24  C   UNL     1      -8.205  17.707  66.625  1.00  0.00    -0.260 A  
HETATM   25  C   UNL     1      -8.704  18.245  67.824  1.00  0.00    -0.256 A  
HETATM   26  O   UNL     1     -12.213  14.176  70.027  1.00  0.00    -0.322 OA 
HETATM   27  C   UNL     1     -11.264  14.239  69.240  1.00  0.00    -0.273 C  
HETATM   28  C   UNL     1      -9.323  17.395  68.755  1.00  0.00    -0.244 A  
HETATM   29  C   UNL     1     -10.068  15.125  69.571  1.00  0.00    -0.222 C  
HETATM   30  C   UNL     1      -9.465  16.017  68.510  1.00  0.00    -0.216 A  
BRANCH  24  31
HETATM   31  O   UNL     1      -7.643  18.577  65.723  1.00  0.00    -0.488 OA 
HETATM   32  C   UNL     1      -6.230  18.501  65.566  1.00  0.00    -0.271 C  
ENDBRANCH  24  31
BRANCH  25  33
HETATM   33  O   UNL     1      -8.535  19.596  67.997  1.00  0.00    -0.304 OA 
HETATM   34  C   UNL     1      -7.561  20.021  68.941  1.00  0.00    -0.072 C  
ENDBRANCH  25  33
ENDBRANCH  18  19
ENDBRANCH  17  18
ENDBRANCH  16  17
ENDBRANCH  14  16
ENDBRANCH  13  14
ENDBRANCH   9  13
ENDBRANCH   2   3
TORSDOF 10
ENDMDL
MODEL      239
REMARK 921   NORMALIZED FREE ENERGY PREDICTED BY IDOCK:   -3.43 KCAL/MOL
REMARK 922        TOTAL FREE ENERGY PREDICTED BY IDOCK:   -7.40 KCAL/MOL
REMARK 923 INTER-LIGAND FREE ENERGY PREDICTED BY IDOCK:   -5.62 KCAL/MOL
REMARK 924 INTRA-LIGAND FREE ENERGY PREDICTED BY IDOCK:   -1.78 KCAL/MOL
REMARK 927      BINDING AFFINITY PREDICTED BY RF-SCORE:    0.00 PKD
ROOT
HETATM    1  C   UNL     1      -5.969  11.122  70.498  1.00  0.00    -0.114 C  
HETATM    2  O   UNL     1      -6.263  10.321  69.358  1.00  0.00    -0.043 OA 
ENDROOT
BRANCH   2   3
HETATM    3  C   UNL     1      -6.307   8.961  69.529  1.00  0.00    -0.043 A  
HETATM    4  C   UNL     1      -6.608   8.253  70.724  1.00  0.00    -0.038 A  
HETATM    5  C   UNL     1      -6.016   8.247  68.334  1.00  0.00    -0.041 A  
HETATM    6  C   UNL     1      -6.543   6.859  70.726  1.00  0.00    -0.052 A  
HETATM    7  C   UNL     1      -5.989   6.866  68.388  1.00  0.00    -0.025 A  
HETATM    8  C   UNL     1      -6.169   6.226  69.573  1.00  0.00    -0.033 A  
HETATM    9  C   UNL     1      -5.856   4.850  69.042  1.00  0.00    -0.020 C  
HETATM   10  C   UNL     1      -5.908   5.566  67.619  1.00  0.00    -0.013 C  
BRANCH   4  11
HETATM   11  O   UNL     1      -6.995   8.926  71.852  1.00  0.00    -0.229 OA 
HETATM   12  C   UNL     1      -6.868   8.219  73.085  1.00  0.00    -0.107 C  
ENDBRANCH   4  11
BRANCH   9  13
HETATM   13  C   UNL     1      -6.843   3.882  69.707  1.00  0.00    -0.041 C  
BRANCH  13  14
HETATM   14  N   UNL     1      -8.270   4.078  69.447  1.00  0.00    -0.058 NA 
HETATM   15  C   UNL     1      -8.752   3.213  68.384  1.00  0.00    -0.105 C  
BRANCH  14  16
HETATM   16  C   UNL     1      -9.094   4.129  70.662  1.00  0.00    -0.111 C  
BRANCH  16  17
HETATM   17  C   UNL     1      -9.634   5.532  70.923  1.00  0.00    -0.219 C  
BRANCH  17  18
HETATM   18  C   UNL     1     -10.920   5.843  70.146  1.00  0.00    -0.342 C  
BRANCH  18  19
HETATM   19  N   UNL     1     -10.825   7.185  69.566  1.00  0.00    -0.240 N  
HETATM   20  C   UNL     1     -10.809   7.284  68.111  1.00  0.00    -0.068 C  
HETATM   21  C   UNL     1      -9.549   7.958  67.598  1.00  0.00    -0.183 C  
HETATM   22  C   UNL     1      -9.793   9.441  67.556  1.00  0.00    -0.220 A  
HETATM   23  C   UNL     1      -9.767  10.086  66.313  1.00  0.00    -0.272 A  
HETATM   24  C   UNL     1     -10.041  11.449  66.200  1.00  0.00    -0.231 A  
HETATM   25  C   UNL     1     -10.352  12.186  67.356  1.00  0.00    -0.205 A  
HETATM   26  O   UNL     1     -11.588   8.248  71.441  1.00  0.00    -0.264 OA 
HETATM   27  C   UNL     1     -10.961   8.300  70.379  1.00  0.00    -0.239 C  
HETATM   28  C   UNL     1     -10.381  11.536  68.600  1.00  0.00    -0.226 A  
HETATM   29  C   UNL     1     -10.084   9.513  70.082  1.00  0.00    -0.293 C  
HETATM   30  C   UNL     1     -10.117  10.158  68.715  1.00  0.00    -0.198 A  
BRANCH  24  31
HETATM   31  O   UNL     1     -10.062  12.113  64.998  1.00  0.00    -0.269 OA 
HETATM   32  C   UNL     1     -10.592  11.395  63.889  1.00  0.00    -0.392 C  
ENDBRANCH  24  31
BRANCH  25  33
HETATM   33  O   UNL     1     -10.602  13.523  67.172  1.00  0.00    -0.261 OA 
HETATM   34  C   UNL     1     -11.958  13.948  67.203  1.00  0.00    -0.420 C  
ENDBRANCH  25  33
ENDBRANCH  18  19
ENDBRANCH  17  18
ENDBRANCH  16  17
ENDBRANCH  14  16
ENDBRANCH  13  14
ENDBRANCH   9  13
ENDBRANCH   2   3
TORSDOF 10
ENDMDL
MODEL      240
REMARK 921   NORMALIZED FREE ENERGY PREDICTED BY IDOCK:   -3.43 KCAL/MOL
REMARK 922        TOTAL FREE ENERGY PREDICTED BY IDOCK:   -7.39 KCAL/MOL
REMARK 923 INTER-LIGAND FREE ENERGY PREDICTED BY IDOCK:   -7.22 KCAL/MOL
REMARK 924 INTRA-LIGAND FREE ENERGY PREDICTED BY IDOCK:   -0.17 KCAL/MOL
REMARK 927      BINDING AFFINITY PREDICTED BY RF-SCORE:    0.00 PKD
ROOT
HETATM    1  C   UNL     1      -6.917  19.641  65.915  1.00  0.00    -0.280 C  
HETATM    2  O   UNL     1      -6.979  18.224  66.040  1.00  0.00    -0.240 OA 
ENDROOT
BRANCH   2   3
HETATM    3  C   UNL     1      -7.970  17.697  66.829  1.00  0.00    -0.239 A  
HETATM    4  C   UNL     1      -9.357  18.006  66.791  1.00  0.00    -0.284 A  
HETATM    5  C   UNL     1      -7.481  16.737  67.757  1.00  0.00    -0.176 A  
HETATM    6  C   UNL     1     -10.214  17.413  67.717  1.00  0.00    -0.345 A  
HETATM    7  C   UNL     1      -8.380  16.163  68.637  1.00  0.00    -0.211 A  
HETATM    8  C   UNL     1      -9.677  16.567  68.648  1.00  0.00    -0.247 A  
HETATM    9  C   UNL     1     -10.066  15.768  69.866  1.00  0.00    -0.232 C  
HETATM   10  C   UNL     1      -8.629  15.103  69.686  1.00  0.00    -0.058 C  
BRANCH   4  11
HETATM   11  O   UNL     1      -9.855  18.846  65.830  1.00  0.00    -0.486 OA 
HETATM   12  C   UNL     1     -11.006  19.608  66.193  1.00  0.00    -0.184 C  
ENDBRANCH   4  11
BRANCH   9  13
HETATM   13  C   UNL     1     -11.467  15.201  69.597  1.00  0.00    -0.293 C  
BRANCH  13  14
HETATM   14  N   UNL     1     -12.237  14.714  70.743  1.00  0.00    -0.301 NA 
HETATM   15  C   UNL     1     -13.535  15.360  70.837  1.00  0.00    -0.367 C  
BRANCH  14  16
HETATM   16  C   UNL     1     -12.229  13.253  70.887  1.00  0.00    -0.260 C  
BRANCH  16  17
HETATM   17  C   UNL     1     -11.448  12.577  69.763  1.00  0.00    -0.211 C  
BRANCH  17  18
HETATM   18  C   UNL     1     -12.144  11.330  69.204  1.00  0.00    -0.279 C  
BRANCH  18  19
HETATM   19  N   UNL     1     -11.182  10.228  69.129  1.00  0.00    -0.229 N  
HETATM   20  C   UNL     1     -10.301  10.189  67.967  1.00  0.00    -0.190 C  
HETATM   21  C   UNL     1     -10.460   8.904  67.172  1.00  0.00    -0.344 C  
HETATM   22  C   UNL     1      -9.522   7.879  67.743  1.00  0.00    -0.165 A  
HETATM   23  C   UNL     1      -8.489   7.394  66.930  1.00  0.00    -0.123 A  
HETATM   24  C   UNL     1      -7.552   6.484  67.418  1.00  0.00    -0.100 A  
HETATM   25  C   UNL     1      -7.644   6.050  68.752  1.00  0.00    -0.091 A  
HETATM   26  O   UNL     1     -11.236   9.786  71.371  1.00  0.00    -0.366 OA 
HETATM   27  C   UNL     1     -10.994   9.398  70.225  1.00  0.00    -0.262 C  
HETATM   28  C   UNL     1      -8.677   6.541  69.566  1.00  0.00    -0.134 A  
HETATM   29  C   UNL     1     -10.758   7.914  69.965  1.00  0.00    -0.244 C  
HETATM   30  C   UNL     1      -9.617   7.469  69.079  1.00  0.00    -0.153 A  
BRANCH  24  31
HETATM   31  O   UNL     1      -6.504   6.010  66.667  1.00  0.00    -0.046 OA 
HETATM   32  C   UNL     1      -5.666   6.990  66.063  1.00  0.00    -0.031 C  
ENDBRANCH  24  31
BRANCH  25  33
HETATM   33  O   UNL     1      -6.694   5.148  69.162  1.00  0.00    -0.049 OA 
HETATM   34  C   UNL     1      -5.364   5.622  69.323  1.00  0.00    -0.004 C  
ENDBRANCH  25  33
ENDBRANCH  18  19
ENDBRANCH  17  18
ENDBRANCH  16  17
ENDBRANCH  14  16
ENDBRANCH  13  14
ENDBRANCH   9  13
ENDBRANCH   2   3
TORSDOF 10
ENDMDL
MODEL      241
REMARK 921   NORMALIZED FREE ENERGY PREDICTED BY IDOCK:   -3.41 KCAL/MOL
REMARK 922        TOTAL FREE ENERGY PREDICTED BY IDOCK:   -7.36 KCAL/MOL
REMARK 923 INTER-LIGAND FREE ENERGY PREDICTED BY IDOCK:   -7.55 KCAL/MOL
REMARK 924 INTRA-LIGAND FREE ENERGY PREDICTED BY IDOCK:    0.18 KCAL/MOL
REMARK 927      BINDING AFFINITY PREDICTED BY RF-SCORE:    0.00 PKD
ROOT
HETATM    1  C   UNL     1     -10.639  19.821  66.046  1.00  0.00    -0.468 C  
HETATM    2  O   UNL     1      -9.419  19.150  65.749  1.00  0.00    -0.398 OA 
ENDROOT
BRANCH   2   3
HETATM    3  C   UNL     1      -9.321  17.826  66.091  1.00  0.00    -0.132 A  
HETATM    4  C   UNL     1      -8.258  17.192  66.790  1.00  0.00    -0.240 A  
HETATM    5  C   UNL     1     -10.449  17.066  65.675  1.00  0.00    -0.229 A  
HETATM    6  C   UNL     1      -8.301  15.813  66.996  1.00  0.00    -0.259 A  
HETATM    7  C   UNL     1     -10.451  15.707  65.927  1.00  0.00    -0.358 A  
HETATM    8  C   UNL     1      -9.366  15.117  66.495  1.00  0.00    -0.308 A  
HETATM    9  C   UNL     1      -9.872  13.705  66.337  1.00  0.00    -0.302 C  
HETATM   10  C   UNL     1     -11.237  14.415  65.922  1.00  0.00    -0.324 C  
BRANCH   4  11
HETATM   11  O   UNL     1      -7.218  17.931  67.290  1.00  0.00    -0.180 OA 
HETATM   12  C   UNL     1      -5.906  17.473  66.968  1.00  0.00    -0.146 C  
ENDBRANCH   4  11
BRANCH   9  13
HETATM   13  C   UNL     1      -9.491  12.951  67.618  1.00  0.00    -0.197 C  
BRANCH  13  14
HETATM   14  N   UNL     1     -10.518  12.125  68.254  1.00  0.00    -0.207 NA 
HETATM   15  C   UNL     1     -11.732  12.062  67.458  1.00  0.00    -0.280 C  
BRANCH  14  16
HETATM   16  C   UNL     1     -10.016  10.845  68.770  1.00  0.00    -0.195 C  
BRANCH  16  17
HETATM   17  C   UNL     1     -10.601  10.517  70.141  1.00  0.00    -0.163 C  
BRANCH  17  18
HETATM   18  C   UNL     1     -11.728   9.478  70.088  1.00  0.00    -0.048 C  
BRANCH  18  19
HETATM   19  N   UNL     1     -11.175   8.147  70.351  1.00  0.00    -0.252 N  
HETATM   20  C   UNL     1     -10.467   7.491  69.257  1.00  0.00    -0.214 C  
HETATM   21  C   UNL     1     -11.099   6.161  68.883  1.00  0.00    -0.417 C  
HETATM   22  C   UNL     1     -10.483   5.090  69.739  1.00  0.00    -0.182 A  
HETATM   23  C   UNL     1      -9.739   4.082  69.112  1.00  0.00    -0.177 A  
HETATM   24  C   UNL     1      -9.096   3.092  69.853  1.00  0.00    -0.126 A  
HETATM   25  C   UNL     1      -9.192   3.110  71.256  1.00  0.00    -0.123 A  
HETATM   26  O   UNL     1     -11.151   8.404  72.622  1.00  0.00    -0.359 OA 
HETATM   27  C   UNL     1     -11.155   7.649  71.645  1.00  0.00    -0.239 C  
HETATM   28  C   UNL     1      -9.934   4.125  71.881  1.00  0.00    -0.253 A  
HETATM   29  C   UNL     1     -11.426   6.161  71.844  1.00  0.00    -0.355 C  
HETATM   30  C   UNL     1     -10.575   5.132  71.136  1.00  0.00    -0.195 A  
BRANCH  24  31
HETATM   31  O   UNL     1      -8.327   2.107  69.282  1.00  0.00    -0.047 OA 
HETATM   32  C   UNL     1      -7.060   2.508  68.775  1.00  0.00    -0.044 C  
ENDBRANCH  24  31
BRANCH  25  33
HETATM   33  O   UNL     1      -8.541   2.101  71.921  1.00  0.00    -0.059 OA 
HETATM   34  C   UNL     1      -8.605   2.102  73.340  1.00  0.00    -0.069 C  
ENDBRANCH  25  33
ENDBRANCH  18  19
ENDBRANCH  17  18
ENDBRANCH  16  17
ENDBRANCH  14  16
ENDBRANCH  13  14
ENDBRANCH   9  13
ENDBRANCH   2   3
TORSDOF 10
ENDMDL
MODEL      242
REMARK 921   NORMALIZED FREE ENERGY PREDICTED BY IDOCK:   -3.37 KCAL/MOL
REMARK 922        TOTAL FREE ENERGY PREDICTED BY IDOCK:   -7.31 KCAL/MOL
REMARK 923 INTER-LIGAND FREE ENERGY PREDICTED BY IDOCK:   -5.64 KCAL/MOL
REMARK 924 INTRA-LIGAND FREE ENERGY PREDICTED BY IDOCK:   -1.67 KCAL/MOL
REMARK 927      BINDING AFFINITY PREDICTED BY RF-SCORE:    0.00 PKD
ROOT
HETATM    1  C   UNL     1     -14.411   8.359  72.211  1.00  0.00    -0.371 C  
HETATM    2  O   UNL     1     -13.092   8.855  72.420  1.00  0.00    -0.407 OA 
ENDROOT
BRANCH   2   3
HETATM    3  C   UNL     1     -12.429   9.375  71.338  1.00  0.00    -0.352 A  
HETATM    4  C   UNL     1     -11.639   8.669  70.390  1.00  0.00    -0.078 A  
HETATM    5  C   UNL     1     -12.604  10.781  71.210  1.00  0.00    -0.532 A  
HETATM    6  C   UNL     1     -10.984   9.378  69.383  1.00  0.00    -0.165 A  
HETATM    7  C   UNL     1     -11.952  11.429  70.178  1.00  0.00    -0.460 A  
HETATM    8  C   UNL     1     -11.113  10.739  69.360  1.00  0.00    -0.324 A  
HETATM    9  C   UNL     1     -10.601  11.952  68.624  1.00  0.00    -0.259 C  
HETATM   10  C   UNL     1     -11.770  12.711  69.397  1.00  0.00    -0.387 C  
BRANCH   4  11
HETATM   11  O   UNL     1     -11.551   7.303  70.439  1.00  0.00    -0.279 OA 
HETATM   12  C   UNL     1     -10.284   6.739  70.104  1.00  0.00    -0.195 C  
ENDBRANCH   4  11
BRANCH   9  13
HETATM   13  C   UNL     1     -10.477  11.555  67.147  1.00  0.00    -0.224 C  
BRANCH  13  14
HETATM   14  N   UNL     1      -9.923  12.543  66.220  1.00  0.00    -0.247 NA 
HETATM   15  C   UNL     1      -8.964  13.419  66.871  1.00  0.00    -0.209 C  
BRANCH  14  16
HETATM   16  C   UNL     1      -9.511  11.980  64.928  1.00  0.00     0.080 C  
BRANCH  16  17
HETATM   17  C   UNL     1      -9.018  10.542  65.067  1.00  0.00    -0.223 C  
BRANCH  17  18
HETATM   18  C   UNL     1      -7.514  10.440  65.353  1.00  0.00    -0.127 C  
BRANCH  18  19
HETATM   19  N   UNL     1      -7.299   9.592  66.528  1.00  0.00    -0.090 N  
HETATM   20  C   UNL     1      -7.456  10.214  67.838  1.00  0.00    -0.088 C  
HETATM   21  C   UNL     1      -6.187  10.128  68.668  1.00  0.00    -0.044 C  
HETATM   22  C   UNL     1      -6.214   8.835  69.434  1.00  0.00    -0.041 A  
HETATM   23  C   UNL     1      -6.254   8.890  70.833  1.00  0.00    -0.047 A  
HETATM   24  C   UNL     1      -6.336   7.729  71.600  1.00  0.00    -0.039 A  
HETATM   25  C   UNL     1      -6.385   6.480  70.955  1.00  0.00    -0.048 A  
HETATM   26  O   UNL     1      -7.649   7.632  65.405  1.00  0.00    -0.084 OA 
HETATM   27  C   UNL     1      -7.163   8.220  66.375  1.00  0.00    -0.075 C  
HETATM   28  C   UNL     1      -6.349   6.429  69.552  1.00  0.00    -0.035 A  
HETATM   29  C   UNL     1      -6.163   7.497  67.272  1.00  0.00    -0.052 C  
HETATM   30  C   UNL     1      -6.277   7.600  68.776  1.00  0.00    -0.036 A  
BRANCH  24  31
HETATM   31  O   UNL     1      -6.415   7.738  72.971  1.00  0.00    -0.060 OA 
HETATM   32  C   UNL     1      -7.528   8.423  73.536  1.00  0.00    -0.069 C  
ENDBRANCH  24  31
BRANCH  25  33
HETATM   33  O   UNL     1      -6.457   5.379  71.772  1.00  0.00    -0.037 OA 
HETATM   34  C   UNL     1      -6.977   4.180  71.213  1.00  0.00    -0.035 C  
ENDBRANCH  25  33
ENDBRANCH  18  19
ENDBRANCH  17  18
ENDBRANCH  16  17
ENDBRANCH  14  16
ENDBRANCH  13  14
ENDBRANCH   9  13
ENDBRANCH   2   3
TORSDOF 10
ENDMDL
MODEL      243
REMARK 921   NORMALIZED FREE ENERGY PREDICTED BY IDOCK:   -3.34 KCAL/MOL
REMARK 922        TOTAL FREE ENERGY PREDICTED BY IDOCK:   -7.25 KCAL/MOL
REMARK 923 INTER-LIGAND FREE ENERGY PREDICTED BY IDOCK:   -5.71 KCAL/MOL
REMARK 924 INTRA-LIGAND FREE ENERGY PREDICTED BY IDOCK:   -1.54 KCAL/MOL
REMARK 927      BINDING AFFINITY PREDICTED BY RF-SCORE:    0.00 PKD
ROOT
HETATM    1  C   UNL     1      -6.045  13.559  70.047  1.00  0.00    -0.129 C  
HETATM    2  O   UNL     1      -7.073  12.911  69.304  1.00  0.00    -0.027 OA 
ENDROOT
BRANCH   2   3
HETATM    3  C   UNL     1      -6.757  11.736  68.670  1.00  0.00    -0.073 A  
HETATM    4  C   UNL     1      -6.646  10.445  69.254  1.00  0.00    -0.056 A  
HETATM    5  C   UNL     1      -6.539  11.906  67.275  1.00  0.00    -0.141 A  
HETATM    6  C   UNL     1      -6.251   9.368  68.460  1.00  0.00    -0.048 A  
HETATM    7  C   UNL     1      -6.174  10.799  66.531  1.00  0.00    -0.107 A  
HETATM    8  C   UNL     1      -5.965   9.604  67.144  1.00  0.00    -0.052 A  
HETATM    9  C   UNL     1      -5.440   8.903  65.916  1.00  0.00    -0.041 C  
HETATM   10  C   UNL     1      -5.934  10.215  65.158  1.00  0.00    -0.119 C  
BRANCH   4  11
HETATM   11  O   UNL     1      -6.958  10.250  70.574  1.00  0.00    -0.282 OA 
HETATM   12  C   UNL     1      -7.472   8.965  70.918  1.00  0.00    -0.102 C  
ENDBRANCH   4  11
BRANCH   9  13
HETATM   13  C   UNL     1      -6.022   7.483  65.933  1.00  0.00    -0.038 C  
BRANCH  13  14
HETATM   14  N   UNL     1      -7.464   7.334  65.726  1.00  0.00    -0.081 NA 
HETATM   15  C   UNL     1      -7.769   6.773  64.421  1.00  0.00    -0.109 C  
BRANCH  14  16
HETATM   16  C   UNL     1      -8.169   6.738  66.868  1.00  0.00    -0.113 C  
BRANCH  16  17
HETATM   17  C   UNL     1      -9.147   7.720  67.506  1.00  0.00    -0.136 C  
BRANCH  17  18
HETATM   18  C   UNL     1     -10.031   8.448  66.485  1.00  0.00    -0.265 C  
BRANCH  18  19
HETATM   19  N   UNL     1     -10.340   9.792  66.980  1.00  0.00    -0.238 N  
HETATM   20  C   UNL     1     -10.452  10.858  65.991  1.00  0.00    -0.225 C  
HETATM   21  C   UNL     1      -9.457  11.978  66.242  1.00  0.00    -0.237 C  
HETATM   22  C   UNL     1     -10.092  12.969  67.177  1.00  0.00    -0.244 A  
HETATM   23  C   UNL     1     -10.327  14.269  66.712  1.00  0.00    -0.274 A  
HETATM   24  C   UNL     1     -10.962  15.219  67.510  1.00  0.00    -0.315 A  
HETATM   25  C   UNL     1     -11.379  14.862  68.805  1.00  0.00    -0.287 A  
HETATM   26  O   UNL     1     -11.227   9.059  68.955  1.00  0.00     0.051 OA 
HETATM   27  C   UNL     1     -10.712   9.972  68.304  1.00  0.00    -0.240 C  
HETATM   28  C   UNL     1     -11.146  13.557  69.267  1.00  0.00    -0.230 A  
HETATM   29  C   UNL     1     -10.215  11.223  69.022  1.00  0.00    -0.169 C  
HETATM   30  C   UNL     1     -10.515  12.593  68.458  1.00  0.00    -0.249 A  
BRANCH  24  31
HETATM   31  O   UNL     1     -11.245  16.493  67.081  1.00  0.00    -0.020 OA 
HETATM   32  C   UNL     1     -10.251  17.125  66.281  1.00  0.00    -0.334 C  
ENDBRANCH  24  31
BRANCH  25  33
HETATM   33  O   UNL     1     -11.990  15.849  69.538  1.00  0.00    -0.347 OA 
HETATM   34  C   UNL     1     -12.782  15.448  70.647  1.00  0.00    -0.437 C  
ENDBRANCH  25  33
ENDBRANCH  18  19
ENDBRANCH  17  18
ENDBRANCH  16  17
ENDBRANCH  14  16
ENDBRANCH  13  14
ENDBRANCH   9  13
ENDBRANCH   2   3
TORSDOF 10
ENDMDL
MODEL      244
REMARK 921   NORMALIZED FREE ENERGY PREDICTED BY IDOCK:   -3.34 KCAL/MOL
REMARK 922        TOTAL FREE ENERGY PREDICTED BY IDOCK:   -7.25 KCAL/MOL
REMARK 923 INTER-LIGAND FREE ENERGY PREDICTED BY IDOCK:   -6.53 KCAL/MOL
REMARK 924 INTRA-LIGAND FREE ENERGY PREDICTED BY IDOCK:   -0.72 KCAL/MOL
REMARK 927      BINDING AFFINITY PREDICTED BY RF-SCORE:    0.00 PKD
ROOT
HETATM    1  C   UNL     1      -9.275   6.739  71.480  1.00  0.00    -0.149 C  
HETATM    2  O   UNL     1      -9.962   7.859  72.031  1.00  0.00    -0.174 OA 
ENDROOT
BRANCH   2   3
HETATM    3  C   UNL     1     -10.086   8.978  71.248  1.00  0.00    -0.314 A  
HETATM    4  C   UNL     1     -11.211   9.841  71.151  1.00  0.00    -0.374 A  
HETATM    5  C   UNL     1      -8.918   9.246  70.482  1.00  0.00    -0.296 A  
HETATM    6  C   UNL     1     -11.181  10.904  70.249  1.00  0.00    -0.271 A  
HETATM    7  C   UNL     1      -8.935  10.327  69.621  1.00  0.00    -0.140 A  
HETATM    8  C   UNL     1     -10.068  11.062  69.470  1.00  0.00     0.019 A  
HETATM    9  C   UNL     1      -9.542  11.906  68.337  1.00  0.00    -0.196 C  
HETATM   10  C   UNL     1      -8.146  11.227  68.697  1.00  0.00    -0.145 C  
BRANCH   4  11
HETATM   11  O   UNL     1     -12.300   9.657  71.963  1.00  0.00    -0.361 OA 
HETATM   12  C   UNL     1     -13.391   8.931  71.400  1.00  0.00    -0.261 C  
ENDBRANCH   4  11
BRANCH   9  13
HETATM   13  C   UNL     1     -10.046  13.336  68.577  1.00  0.00    -0.206 C  
BRANCH  13  14
HETATM   14  N   UNL     1      -9.972  14.281  67.462  1.00  0.00    -0.233 NA 
HETATM   15  C   UNL     1      -8.598  14.598  67.112  1.00  0.00    -0.223 C  
BRANCH  14  16
HETATM   16  C   UNL     1     -10.865  13.953  66.344  1.00  0.00    -0.291 C  
BRANCH  16  17
HETATM   17  C   UNL     1     -10.180  14.147  64.994  1.00  0.00    -0.399 C  
BRANCH  17  18
HETATM   18  C   UNL     1     -10.675  13.174  63.916  1.00  0.00    -0.197 C  
BRANCH  18  19
HETATM   19  N   UNL     1     -10.208  11.822  64.231  1.00  0.00    -0.282 N  
HETATM   20  C   UNL     1     -11.111  10.963  64.989  1.00  0.00     0.160 C  
HETATM   21  C   UNL     1     -10.497  10.503  66.300  1.00  0.00    -0.250 C  
HETATM   22  C   UNL     1      -9.733   9.234  66.041  1.00  0.00    -0.359 A  
HETATM   23  C   UNL     1     -10.161   8.058  66.671  1.00  0.00    -0.329 A  
HETATM   24  C   UNL     1      -9.530   6.838  66.430  1.00  0.00    -0.119 A  
HETATM   25  C   UNL     1      -8.448   6.789  65.533  1.00  0.00    -0.119 A  
HETATM   26  O   UNL     1      -8.646  11.775  62.563  1.00  0.00    -0.124 OA 
HETATM   27  C   UNL     1      -9.049  11.336  63.643  1.00  0.00    -0.037 C  
HETATM   28  C   UNL     1      -8.025   7.968  64.899  1.00  0.00    -0.138 A  
HETATM   29  C   UNL     1      -8.133  10.457  64.489  1.00  0.00    -0.114 C  
HETATM   30  C   UNL     1      -8.668   9.199  65.132  1.00  0.00    -0.228 A  
BRANCH  24  31
HETATM   31  O   UNL     1      -9.938   5.656  66.998  1.00  0.00    -0.138 OA 
HETATM   32  C   UNL     1      -9.113   5.135  68.034  1.00  0.00    -0.112 C  
ENDBRANCH  24  31
BRANCH  25  33
HETATM   33  O   UNL     1      -7.870   5.557  65.349  1.00  0.00    -0.093 OA 
HETATM   34  C   UNL     1      -6.459   5.512  65.188  1.00  0.00    -0.039 C  
ENDBRANCH  25  33
ENDBRANCH  18  19
ENDBRANCH  17  18
ENDBRANCH  16  17
ENDBRANCH  14  16
ENDBRANCH  13  14
ENDBRANCH   9  13
ENDBRANCH   2   3
TORSDOF 10
ENDMDL
MODEL      245
REMARK 921   NORMALIZED FREE ENERGY PREDICTED BY IDOCK:   -3.30 KCAL/MOL
REMARK 922        TOTAL FREE ENERGY PREDICTED BY IDOCK:   -7.19 KCAL/MOL
REMARK 923 INTER-LIGAND FREE ENERGY PREDICTED BY IDOCK:   -6.69 KCAL/MOL
REMARK 924 INTRA-LIGAND FREE ENERGY PREDICTED BY IDOCK:   -0.50 KCAL/MOL
REMARK 927      BINDING AFFINITY PREDICTED BY RF-SCORE:    0.00 PKD
ROOT
HETATM    1  C   UNL     1      -6.339   1.841  67.304  1.00  0.00    -0.024 C  
HETATM    2  O   UNL     1      -7.716   2.145  67.106  1.00  0.00    -0.064 OA 
ENDROOT
BRANCH   2   3
HETATM    3  C   UNL     1      -8.032   3.402  66.655  1.00  0.00    -0.081 A  
HETATM    4  C   UNL     1      -8.914   3.740  65.593  1.00  0.00    -0.136 A  
HETATM    5  C   UNL     1      -7.373   4.429  67.385  1.00  0.00    -0.069 A  
HETATM    6  C   UNL     1      -9.067   5.078  65.232  1.00  0.00    -0.143 A  
HETATM    7  C   UNL     1      -7.580   5.740  66.999  1.00  0.00    -0.099 A  
HETATM    8  C   UNL     1      -8.339   6.018  65.907  1.00  0.00    -0.138 A  
HETATM    9  C   UNL     1      -8.041   7.497  65.897  1.00  0.00    -0.127 C  
HETATM   10  C   UNL     1      -7.376   7.205  67.316  1.00  0.00    -0.091 C  
BRANCH   4  11
HETATM   11  O   UNL     1      -9.637   2.767  64.954  1.00  0.00    -0.138 OA 
HETATM   12  C   UNL     1      -9.615   2.797  63.528  1.00  0.00    -0.103 C  
ENDBRANCH   4  11
BRANCH   9  13
HETATM   13  C   UNL     1      -9.350   8.212  65.538  1.00  0.00     0.211 C  
BRANCH  13  14
HETATM   14  N   UNL     1     -10.176   8.715  66.637  1.00  0.00    -0.289 NA 
HETATM   15  C   UNL     1     -10.725   7.636  67.440  1.00  0.00    -0.248 C  
BRANCH  14  16
HETATM   16  C   UNL     1      -9.566   9.827  67.378  1.00  0.00    -0.155 C  
BRANCH  16  17
HETATM   17  C   UNL     1     -10.382  10.202  68.611  1.00  0.00    -0.208 C  
BRANCH  17  18
HETATM   18  C   UNL     1     -11.676  10.956  68.277  1.00  0.00    -0.184 C  
BRANCH  18  19
HETATM   19  N   UNL     1     -11.350  12.327  67.875  1.00  0.00    -0.276 N  
HETATM   20  C   UNL     1     -10.618  13.147  68.833  1.00  0.00    -0.131 C  
HETATM   21  C   UNL     1     -11.382  14.404  69.211  1.00  0.00    -0.319 C  
HETATM   22  C   UNL     1     -11.027  15.484  68.227  1.00  0.00    -0.305 A  
HETATM   23  C   UNL     1     -10.364  16.624  68.699  1.00  0.00    -0.304 A  
HETATM   24  C   UNL     1      -9.958  17.635  67.829  1.00  0.00    -0.315 A  
HETATM   25  C   UNL     1     -10.214  17.504  66.453  1.00  0.00    -0.354 A  
HETATM   26  O   UNL     1     -11.557  11.914  65.636  1.00  0.00    -0.317 OA 
HETATM   27  C   UNL     1     -11.552  12.729  66.563  1.00  0.00    -0.376 C  
HETATM   28  C   UNL     1     -10.875  16.358  65.983  1.00  0.00    -0.093 A  
HETATM   29  C   UNL     1     -12.052  14.150  66.320  1.00  0.00    -0.463 C  
HETATM   30  C   UNL     1     -11.276  15.330  66.857  1.00  0.00    -0.256 A  
BRANCH  24  31
HETATM   31  O   UNL     1      -9.274  18.752  68.244  1.00  0.00    -0.308 OA 
HETATM   32  C   UNL     1      -9.966  19.624  69.131  1.00  0.00    -0.339 C  
ENDBRANCH  24  31
BRANCH  25  33
HETATM   33  O   UNL     1      -9.795  18.541  65.657  1.00  0.00    -0.428 OA 
HETATM   34  C   UNL     1     -10.740  19.555  65.346  1.00  0.00    -0.019 C  
ENDBRANCH  25  33
ENDBRANCH  18  19
ENDBRANCH  17  18
ENDBRANCH  16  17
ENDBRANCH  14  16
ENDBRANCH  13  14
ENDBRANCH   9  13
ENDBRANCH   2   3
TORSDOF 10
ENDMDL
MODEL      246
REMARK 921   NORMALIZED FREE ENERGY PREDICTED BY IDOCK:   -3.28 KCAL/MOL
REMARK 922        TOTAL FREE ENERGY PREDICTED BY IDOCK:   -7.16 KCAL/MOL
REMARK 923 INTER-LIGAND FREE ENERGY PREDICTED BY IDOCK:   -6.28 KCAL/MOL
REMARK 924 INTRA-LIGAND FREE ENERGY PREDICTED BY IDOCK:   -0.89 KCAL/MOL
REMARK 927      BINDING AFFINITY PREDICTED BY RF-SCORE:    0.00 PKD
ROOT
HETATM    1  C   UNL     1      -6.433   2.273  63.234  1.00  0.00    -0.014 C  
HETATM    2  O   UNL     1      -7.761   2.667  63.564  1.00  0.00    -0.065 OA 
ENDROOT
BRANCH   2   3
HETATM    3  C   UNL     1      -7.931   3.481  64.655  1.00  0.00    -0.086 A  
HETATM    4  C   UNL     1      -7.448   4.807  64.823  1.00  0.00    -0.072 A  
HETATM    5  C   UNL     1      -8.692   2.866  65.687  1.00  0.00    -0.127 A  
HETATM    6  C   UNL     1      -7.666   5.465  66.034  1.00  0.00    -0.091 A  
HETATM    7  C   UNL     1      -8.898   3.573  66.856  1.00  0.00    -0.145 A  
HETATM    8  C   UNL     1      -8.324   4.793  67.026  1.00  0.00    -0.106 A  
HETATM    9  C   UNL     1      -8.735   4.945  68.470  1.00  0.00    -0.106 C  
HETATM   10  C   UNL     1      -9.621   3.652  68.183  1.00  0.00    -0.166 C  
BRANCH   4  11
HETATM   11  O   UNL     1      -6.807   5.449  63.796  1.00  0.00    -0.043 OA 
HETATM   12  C   UNL     1      -7.642   6.104  62.843  1.00  0.00    -0.081 C  
ENDBRANCH   4  11
BRANCH   9  13
HETATM   13  C   UNL     1      -9.146   6.411  68.662  1.00  0.00    -0.127 C  
BRANCH  13  14
HETATM   14  N   UNL     1     -10.563   6.698  68.888  1.00  0.00    -0.211 NA 
HETATM   15  C   UNL     1     -11.368   6.409  67.714  1.00  0.00     0.039 C  
BRANCH  14  16
HETATM   16  C   UNL     1     -11.077   6.188  70.166  1.00  0.00    -0.378 C  
BRANCH  16  17
HETATM   17  C   UNL     1     -11.958   7.213  70.874  1.00  0.00    -0.375 C  
BRANCH  17  18
HETATM   18  C   UNL     1     -11.165   8.201  71.739  1.00  0.00    -0.272 C  
BRANCH  18  19
HETATM   19  N   UNL     1     -10.812   9.375  70.937  1.00  0.00    -0.293 N  
HETATM   20  C   UNL     1     -11.846  10.384  70.738  1.00  0.00    -0.368 C  
HETATM   21  C   UNL     1     -12.160  10.600  69.268  1.00  0.00    -0.206 C  
HETATM   22  C   UNL     1     -11.227  11.653  68.738  1.00  0.00    -0.304 A  
HETATM   23  C   UNL     1     -11.774  12.858  68.280  1.00  0.00    -0.390 A  
HETATM   24  C   UNL     1     -10.960  13.896  67.829  1.00  0.00    -0.256 A  
HETATM   25  C   UNL     1      -9.564  13.730  67.839  1.00  0.00    -0.222 A  
HETATM   26  O   UNL     1      -8.559   9.133  71.242  1.00  0.00    -0.278 OA 
HETATM   27  C   UNL     1      -9.490   9.593  70.575  1.00  0.00    -0.181 C  
HETATM   28  C   UNL     1      -9.018  12.523  68.303  1.00  0.00    -0.178 A  
HETATM   29  C   UNL     1      -9.214  10.166  69.189  1.00  0.00    -0.204 C  
HETATM   30  C   UNL     1      -9.838  11.478  68.770  1.00  0.00    -0.153 A  
BRANCH  24  31
HETATM   31  O   UNL     1     -11.452  15.107  67.405  1.00  0.00    -0.332 OA 
HETATM   32  C   UNL     1     -11.703  16.076  68.417  1.00  0.00    -0.194 C  
ENDBRANCH  24  31
BRANCH  25  33
HETATM   33  O   UNL     1      -8.825  14.789  67.373  1.00  0.00    -0.174 OA 
HETATM   34  C   UNL     1      -7.421  14.606  67.252  1.00  0.00    -0.117 C  
ENDBRANCH  25  33
ENDBRANCH  18  19
ENDBRANCH  17  18
ENDBRANCH  16  17
ENDBRANCH  14  16
ENDBRANCH  13  14
ENDBRANCH   9  13
ENDBRANCH   2   3
TORSDOF 10
ENDMDL
MODEL      247
REMARK 921   NORMALIZED FREE ENERGY PREDICTED BY IDOCK:   -3.27 KCAL/MOL
REMARK 922        TOTAL FREE ENERGY PREDICTED BY IDOCK:   -7.14 KCAL/MOL
REMARK 923 INTER-LIGAND FREE ENERGY PREDICTED BY IDOCK:   -5.25 KCAL/MOL
REMARK 924 INTRA-LIGAND FREE ENERGY PREDICTED BY IDOCK:   -1.90 KCAL/MOL
REMARK 927      BINDING AFFINITY PREDICTED BY RF-SCORE:    0.00 PKD
ROOT
HETATM    1  C   UNL     1      -8.910   9.462  66.420  1.00  0.00    -0.145 C  
HETATM    2  O   UNL     1     -10.261   9.062  66.632  1.00  0.00    -0.269 OA 
ENDROOT
BRANCH   2   3
HETATM    3  C   UNL     1     -10.529   8.284  67.730  1.00  0.00    -0.215 A  
HETATM    4  C   UNL     1     -10.728   6.877  67.760  1.00  0.00    -0.254 A  
HETATM    5  C   UNL     1     -10.591   9.036  68.935  1.00  0.00    -0.203 A  
HETATM    6  C   UNL     1     -11.054   6.259  68.967  1.00  0.00    -0.446 A  
HETATM    7  C   UNL     1     -10.894   8.369  70.107  1.00  0.00    -0.238 A  
HETATM    8  C   UNL     1     -11.191   7.043  70.080  1.00  0.00    -0.310 A  
HETATM    9  C   UNL     1     -11.594   6.956  71.530  1.00  0.00    -0.329 C  
HETATM   10  C   UNL     1     -10.995   8.431  71.614  1.00  0.00    -0.345 C  
BRANCH   4  11
HETATM   11  O   UNL     1     -10.563   6.128  66.625  1.00  0.00    -0.251 OA 
HETATM   12  C   UNL     1      -9.222   5.777  66.288  1.00  0.00    -0.158 C  
ENDBRANCH   4  11
BRANCH   9  13
HETATM   13  C   UNL     1     -11.045   5.626  72.065  1.00  0.00    -0.230 C  
BRANCH  13  14
HETATM   14  N   UNL     1     -10.239   5.663  73.287  1.00  0.00    -0.186 NA 
HETATM   15  C   UNL     1     -10.571   4.573  74.188  1.00  0.00    -0.277 C  
BRANCH  14  16
HETATM   16  C   UNL     1      -8.808   5.892  73.048  1.00  0.00    -0.122 C  
BRANCH  16  17
HETATM   17  C   UNL     1      -8.381   5.419  71.662  1.00  0.00    -0.119 C  
BRANCH  17  18
HETATM   18  C   UNL     1      -7.813   3.994  71.654  1.00  0.00    -0.070 C  
BRANCH  18  19
HETATM   19  N   UNL     1      -7.668   3.536  70.270  1.00  0.00    -0.047 N  
HETATM   20  C   UNL     1      -8.792   3.765  69.370  1.00  0.00    -0.090 C  
HETATM   21  C   UNL     1      -9.332   2.470  68.787  1.00  0.00    -0.231 C  
HETATM   22  C   UNL     1      -8.567   2.167  67.529  1.00  0.00    -0.115 A  
HETATM   23  C   UNL     1      -9.263   2.150  66.314  1.00  0.00     0.013 A  
HETATM   24  C   UNL     1      -8.603   1.931  65.105  1.00  0.00    -0.107 A  
HETATM   25  C   UNL     1      -7.212   1.727  65.109  1.00  0.00    -0.052 A  
HETATM   26  O   UNL     1      -5.383   3.488  70.332  1.00  0.00    -0.010 OA 
HETATM   27  C   UNL     1      -6.433   3.101  69.812  1.00  0.00    -0.033 C  
HETATM   28  C   UNL     1      -6.516   1.748  66.328  1.00  0.00    -0.024 A  
HETATM   29  C   UNL     1      -6.405   1.921  68.845  1.00  0.00    -0.025 C  
HETATM   30  C   UNL     1      -7.179   1.982  67.548  1.00  0.00    -0.054 A  
BRANCH  24  31
HETATM   31  O   UNL     1      -9.240   1.942  63.888  1.00  0.00    -0.100 OA 
HETATM   32  C   UNL     1     -10.225   2.952  63.700  1.00  0.00    -0.180 C  
ENDBRANCH  24  31
BRANCH  25  33
HETATM   33  O   UNL     1      -6.629   1.508  63.886  1.00  0.00    -0.017 OA 
HETATM   34  C   UNL     1      -5.733   2.498  63.399  1.00  0.00    -0.009 C  
ENDBRANCH  25  33
ENDBRANCH  18  19
ENDBRANCH  17  18
ENDBRANCH  16  17
ENDBRANCH  14  16
ENDBRANCH  13  14
ENDBRANCH   9  13
ENDBRANCH   2   3
TORSDOF 10
ENDMDL
MODEL      248
REMARK 921   NORMALIZED FREE ENERGY PREDICTED BY IDOCK:   -3.25 KCAL/MOL
REMARK 922        TOTAL FREE ENERGY PREDICTED BY IDOCK:   -7.12 KCAL/MOL
REMARK 923 INTER-LIGAND FREE ENERGY PREDICTED BY IDOCK:   -6.10 KCAL/MOL
REMARK 924 INTRA-LIGAND FREE ENERGY PREDICTED BY IDOCK:   -1.02 KCAL/MOL
REMARK 927      BINDING AFFINITY PREDICTED BY RF-SCORE:    0.00 PKD
ROOT
HETATM    1  C   UNL     1      -5.612   2.088  68.418  1.00  0.00    -0.018 C  
HETATM    2  O   UNL     1      -6.046   3.005  69.418  1.00  0.00    -0.023 OA 
ENDROOT
BRANCH   2   3
HETATM    3  C   UNL     1      -6.608   4.184  68.999  1.00  0.00    -0.041 A  
HETATM    4  C   UNL     1      -7.965   4.412  68.644  1.00  0.00    -0.077 A  
HETATM    5  C   UNL     1      -5.671   5.252  68.948  1.00  0.00    -0.015 A  
HETATM    6  C   UNL     1      -8.347   5.671  68.178  1.00  0.00    -0.099 A  
HETATM    7  C   UNL     1      -6.109   6.485  68.502  1.00  0.00    -0.025 A  
HETATM    8  C   UNL     1      -7.386   6.637  68.062  1.00  0.00    -0.097 A  
HETATM    9  C   UNL     1      -7.200   8.048  67.565  1.00  0.00    -0.088 C  
HETATM   10  C   UNL     1      -5.798   7.953  68.317  1.00  0.00    -0.036 C  
BRANCH   4  11
HETATM   11  O   UNL     1      -8.899   3.421  68.792  1.00  0.00    -0.093 OA 
HETATM   12  C   UNL     1      -9.696   3.475  69.974  1.00  0.00    -0.077 C  
ENDBRANCH   4  11
BRANCH   9  13
HETATM   13  C   UNL     1      -8.475   8.820  67.930  1.00  0.00    -0.126 C  
BRANCH  13  14
HETATM   14  N   UNL     1      -9.349   9.248  66.836  1.00  0.00    -0.145 NA 
HETATM   15  C   UNL     1     -10.697   8.726  66.984  1.00  0.00    -0.116 C  
BRANCH  14  16
HETATM   16  C   UNL     1      -9.241  10.676  66.513  1.00  0.00    -0.166 C  
BRANCH  16  17
HETATM   17  C   UNL     1      -8.775  11.495  67.714  1.00  0.00    -0.142 C  
BRANCH  17  18
HETATM   18  C   UNL     1      -9.924  12.190  68.458  1.00  0.00    -0.175 C  
BRANCH  18  19
HETATM   19  N   UNL     1      -9.842  13.636  68.236  1.00  0.00    -0.229 N  
HETATM   20  C   UNL     1      -8.527  14.256  68.348  1.00  0.00    -0.166 C  
HETATM   21  C   UNL     1      -8.491  15.332  69.420  1.00  0.00    -0.231 C  
HETATM   22  C   UNL     1      -8.897  16.635  68.790  1.00  0.00    -0.264 A  
HETATM   23  C   UNL     1      -7.959  17.674  68.746  1.00  0.00    -0.244 A  
HETATM   24  C   UNL     1      -8.253  18.888  68.126  1.00  0.00    -0.311 A  
HETATM   25  C   UNL     1      -9.514  19.068  67.530  1.00  0.00    -0.303 A  
HETATM   26  O   UNL     1     -11.799  13.750  67.059  1.00  0.00    -0.365 OA 
HETATM   27  C   UNL     1     -10.940  14.321  67.736  1.00  0.00    -0.264 C  
HETATM   28  C   UNL     1     -10.450  18.023  67.571  1.00  0.00    -0.408 A  
HETATM   29  C   UNL     1     -11.214  15.722  68.276  1.00  0.00    -0.356 C  
HETATM   30  C   UNL     1     -10.151  16.793  68.186  1.00  0.00    -0.282 A  
BRANCH  24  31
HETATM   31  O   UNL     1      -7.352  19.920  68.028  1.00  0.00    -0.285 OA 
HETATM   32  C   UNL     1      -6.534  20.154  69.170  1.00  0.00    -0.306 C  
ENDBRANCH  24  31
BRANCH  25  33
HETATM   33  O   UNL     1      -9.738  20.290  66.946  1.00  0.00    -0.407 OA 
HETATM   34  C   UNL     1     -10.568  20.324  65.792  1.00  0.00    -0.116 C  
ENDBRANCH  25  33
ENDBRANCH  18  19
ENDBRANCH  17  18
ENDBRANCH  16  17
ENDBRANCH  14  16
ENDBRANCH  13  14
ENDBRANCH   9  13
ENDBRANCH   2   3
TORSDOF 10
ENDMDL
MODEL      249
REMARK 921   NORMALIZED FREE ENERGY PREDICTED BY IDOCK:   -3.25 KCAL/MOL
REMARK 922        TOTAL FREE ENERGY PREDICTED BY IDOCK:   -7.11 KCAL/MOL
REMARK 923 INTER-LIGAND FREE ENERGY PREDICTED BY IDOCK:   -5.76 KCAL/MOL
REMARK 924 INTRA-LIGAND FREE ENERGY PREDICTED BY IDOCK:   -1.35 KCAL/MOL
REMARK 927      BINDING AFFINITY PREDICTED BY RF-SCORE:    0.00 PKD
ROOT
HETATM    1  C   UNL     1      -9.411  11.154  65.181  1.00  0.00    -0.226 C  
HETATM    2  O   UNL     1     -10.347  10.257  65.771  1.00  0.00    -0.239 OA 
ENDROOT
BRANCH   2   3
HETATM    3  C   UNL     1      -9.851   9.165  66.435  1.00  0.00    -0.280 A  
HETATM    4  C   UNL     1      -8.501   8.927  66.814  1.00  0.00    -0.115 A  
HETATM    5  C   UNL     1     -10.856   8.211  66.755  1.00  0.00     0.144 A  
HETATM    6  C   UNL     1      -8.168   7.722  67.433  1.00  0.00    -0.123 A  
HETATM    7  C   UNL     1     -10.473   7.046  67.391  1.00  0.00    -0.343 A  
HETATM    8  C   UNL     1      -9.159   6.802  67.635  1.00  0.00    -0.117 A  
HETATM    9  C   UNL     1      -9.364   5.393  68.132  1.00  0.00    -0.131 C  
HETATM   10  C   UNL     1     -10.910   5.780  68.094  1.00  0.00    -0.249 C  
BRANCH   4  11
HETATM   11  O   UNL     1      -7.543   9.884  66.608  1.00  0.00    -0.100 OA 
HETATM   12  C   UNL     1      -6.220   9.554  67.030  1.00  0.00    -0.065 C  
ENDBRANCH   4  11
BRANCH   9  13
HETATM   13  C   UNL     1      -8.414   5.199  69.322  1.00  0.00    -0.093 C  
BRANCH  13  14
HETATM   14  N   UNL     1      -8.549   3.971  70.109  1.00  0.00    -0.064 NA 
HETATM   15  C   UNL     1      -7.680   2.915  69.618  1.00  0.00    -0.043 C  
BRANCH  14  16
HETATM   16  C   UNL     1      -8.542   4.193  71.560  1.00  0.00    -0.106 C  
BRANCH  16  17
HETATM   17  C   UNL     1      -9.676   5.116  71.999  1.00  0.00    -0.205 C  
BRANCH  17  18
HETATM   18  C   UNL     1      -9.204   6.285  72.873  1.00  0.00    -0.133 C  
BRANCH  18  19
HETATM   19  N   UNL     1      -9.673   7.546  72.294  1.00  0.00    -0.155 N  
HETATM   20  C   UNL     1     -10.791   8.210  72.955  1.00  0.00    -0.123 C  
HETATM   21  C   UNL     1     -11.980   8.389  72.027  1.00  0.00    -0.419 C  
HETATM   22  C   UNL     1     -11.816   9.694  71.301  1.00  0.00    -0.460 A  
HETATM   23  C   UNL     1     -12.764  10.702  71.519  1.00  0.00    -0.549 A  
HETATM   24  C   UNL     1     -12.639  11.955  70.920  1.00  0.00    -0.266 A  
HETATM   25  C   UNL     1     -11.537  12.211  70.085  1.00  0.00    -0.118 A  
HETATM   26  O   UNL     1      -7.723   7.970  71.178  1.00  0.00    -0.079 OA 
HETATM   27  C   UNL     1      -8.937   8.163  71.293  1.00  0.00    -0.146 C  
HETATM   28  C   UNL     1     -10.586  11.200  69.871  1.00  0.00     0.147 A  
HETATM   29  C   UNL     1      -9.700   8.855  70.168  1.00  0.00    -0.199 C  
HETATM   30  C   UNL     1     -10.704   9.939  70.485  1.00  0.00    -0.382 A  
BRANCH  24  31
HETATM   31  O   UNL     1     -13.525  12.982  71.135  1.00  0.00    -0.019 OA 
HETATM   32  C   UNL     1     -14.263  12.936  72.351  1.00  0.00     0.031 C  
ENDBRANCH  24  31
BRANCH  25  33
HETATM   33  O   UNL     1     -11.482  13.461  69.521  1.00  0.00    -0.271 OA 
HETATM   34  C   UNL     1     -10.842  13.585  68.258  1.00  0.00    -0.259 C  
ENDBRANCH  25  33
ENDBRANCH  18  19
ENDBRANCH  17  18
ENDBRANCH  16  17
ENDBRANCH  14  16
ENDBRANCH  13  14
ENDBRANCH   9  13
ENDBRANCH   2   3
TORSDOF 10
ENDMDL
MODEL      250
REMARK 921   NORMALIZED FREE ENERGY PREDICTED BY IDOCK:   -3.22 KCAL/MOL
REMARK 922        TOTAL FREE ENERGY PREDICTED BY IDOCK:   -7.07 KCAL/MOL
REMARK 923 INTER-LIGAND FREE ENERGY PREDICTED BY IDOCK:   -4.60 KCAL/MOL
REMARK 924 INTRA-LIGAND FREE ENERGY PREDICTED BY IDOCK:   -2.47 KCAL/MOL
REMARK 927      BINDING AFFINITY PREDICTED BY RF-SCORE:    0.00 PKD
ROOT
HETATM    1  C   UNL     1      -9.833  11.699  65.801  1.00  0.00    -0.239 C  
HETATM    2  O   UNL     1     -11.022  11.024  66.201  1.00  0.00    -0.205 OA 
ENDROOT
BRANCH   2   3
HETATM    3  C   UNL     1     -10.952  10.211  67.304  1.00  0.00    -0.183 A  
HETATM    4  C   UNL     1     -10.565   8.844  67.344  1.00  0.00    -0.235 A  
HETATM    5  C   UNL     1     -11.313  10.882  68.505  1.00  0.00    -0.367 A  
HETATM    6  C   UNL     1     -10.613   8.156  68.556  1.00  0.00    -0.142 A  
HETATM    7  C   UNL     1     -11.321  10.158  69.682  1.00  0.00    -0.289 A  
HETATM    8  C   UNL     1     -11.056   8.825  69.664  1.00  0.00    -0.038 A  
HETATM    9  C   UNL     1     -11.389   8.593  71.116  1.00  0.00    -0.329 C  
HETATM   10  C   UNL     1     -11.439  10.184  71.189  1.00  0.00    -0.387 C  
BRANCH   4  11
HETATM   11  O   UNL     1     -10.111   8.218  66.214  1.00  0.00    -0.215 OA 
HETATM   12  C   UNL     1     -10.076   6.792  66.253  1.00  0.00     0.140 C  
ENDBRANCH   4  11
BRANCH   9  13
HETATM   13  C   UNL     1     -10.349   7.603  71.658  1.00  0.00    -0.189 C  
BRANCH  13  14
HETATM   14  N   UNL     1      -9.943   7.738  73.058  1.00  0.00    -0.269 NA 
HETATM   15  C   UNL     1     -10.383   6.610  73.861  1.00  0.00    -0.360 C  
BRANCH  14  16
HETATM   16  C   UNL     1      -8.545   8.151  73.234  1.00  0.00    -0.242 C  
BRANCH  16  17
HETATM   17  C   UNL     1      -7.979   8.794  71.970  1.00  0.00    -0.050 C  
BRANCH  17  18
HETATM   18  C   UNL     1      -6.543   8.356  71.656  1.00  0.00    -0.067 C  
BRANCH  18  19
HETATM   19  N   UNL     1      -6.413   8.111  70.218  1.00  0.00    -0.036 N  
HETATM   20  C   UNL     1      -6.061   9.249  69.376  1.00  0.00    -0.037 C  
HETATM   21  C   UNL     1      -7.113   9.522  68.315  1.00  0.00    -0.075 C  
HETATM   22  C   UNL     1      -6.781   8.700  67.101  1.00  0.00    -0.063 A  
HETATM   23  C   UNL     1      -6.460   9.366  65.912  1.00  0.00    -0.075 A  
HETATM   24  C   UNL     1      -6.088   8.663  64.767  1.00  0.00    -0.064 A  
HETATM   25  C   UNL     1      -6.032   7.259  64.810  1.00  0.00    -0.037 A  
HETATM   26  O   UNL     1      -6.080   5.861  70.446  1.00  0.00    -0.027 OA 
HETATM   27  C   UNL     1      -6.419   6.811  69.735  1.00  0.00    -0.044 C  
HETATM   28  C   UNL     1      -6.351   6.594  66.005  1.00  0.00    -0.045 A  
HETATM   29  C   UNL     1      -7.123   6.545  68.408  1.00  0.00    -0.083 C  
HETATM   30  C   UNL     1      -6.714   7.302  67.165  1.00  0.00    -0.068 A  
BRANCH  24  31
HETATM   31  O   UNL     1      -5.730   9.277  63.591  1.00  0.00    -0.076 OA 
HETATM   32  C   UNL     1      -5.171  10.581  63.705  1.00  0.00    -0.163 C  
ENDBRANCH  24  31
BRANCH  25  33
HETATM   33  O   UNL     1      -5.668   6.631  63.645  1.00  0.00    -0.029 OA 
HETATM   34  C   UNL     1      -5.345   5.249  63.716  1.00  0.00    -0.013 C  
ENDBRANCH  25  33
ENDBRANCH  18  19
ENDBRANCH  17  18
ENDBRANCH  16  17
ENDBRANCH  14  16
ENDBRANCH  13  14
ENDBRANCH   9  13
ENDBRANCH   2   3
TORSDOF 10
ENDMDL
MODEL      251
REMARK 921   NORMALIZED FREE ENERGY PREDICTED BY IDOCK:   -3.20 KCAL/MOL
REMARK 922        TOTAL FREE ENERGY PREDICTED BY IDOCK:   -7.04 KCAL/MOL
REMARK 923 INTER-LIGAND FREE ENERGY PREDICTED BY IDOCK:   -7.05 KCAL/MOL
REMARK 924 INTRA-LIGAND FREE ENERGY PREDICTED BY IDOCK:    0.01 KCAL/MOL
REMARK 927      BINDING AFFINITY PREDICTED BY RF-SCORE:    0.00 PKD
ROOT
HETATM    1  C   UNL     1     -10.246  19.607  65.818  1.00  0.00    -0.356 C  
HETATM    2  O   UNL     1      -8.966  19.011  66.000  1.00  0.00    -0.456 OA 
ENDROOT
BRANCH   2   3
HETATM    3  C   UNL     1      -8.922  17.670  66.284  1.00  0.00    -0.183 A  
HETATM    4  C   UNL     1      -9.831  16.668  65.849  1.00  0.00    -0.273 A  
HETATM    5  C   UNL     1      -7.814  17.317  67.103  1.00  0.00    -0.223 A  
HETATM    6  C   UNL     1      -9.663  15.355  66.292  1.00  0.00    -0.325 A  
HETATM    7  C   UNL     1      -7.682  15.998  67.492  1.00  0.00    -0.176 A  
HETATM    8  C   UNL     1      -8.633  15.088  67.151  1.00  0.00    -0.246 A  
HETATM    9  C   UNL     1      -8.058  13.964  67.976  1.00  0.00    -0.154 C  
HETATM   10  C   UNL     1      -6.818  14.949  68.153  1.00  0.00    -0.136 C  
BRANCH   4  11
HETATM   11  O   UNL     1     -10.838  16.976  64.974  1.00  0.00    -0.678 OA 
HETATM   12  C   UNL     1     -11.373  15.890  64.218  1.00  0.00    -0.171 C  
ENDBRANCH   4  11
BRANCH   9  13
HETATM   13  C   UNL     1      -8.203  12.683  67.143  1.00  0.00    -0.159 C  
BRANCH  13  14
HETATM   14  N   UNL     1      -7.375  11.533  67.511  1.00  0.00    -0.104 NA 
HETATM   15  C   UNL     1      -6.135  11.940  68.149  1.00  0.00    -0.051 C  
BRANCH  14  16
HETATM   16  C   UNL     1      -8.120  10.454  68.173  1.00  0.00    -0.111 C  
BRANCH  16  17
HETATM   17  C   UNL     1      -9.421  10.958  68.791  1.00  0.00    -0.196 C  
BRANCH  17  18
HETATM   18  C   UNL     1     -10.645  10.120  68.398  1.00  0.00    -0.217 C  
BRANCH  18  19
HETATM   19  N   UNL     1     -10.447   8.737  68.837  1.00  0.00    -0.214 N  
HETATM   20  C   UNL     1     -10.620   8.456  70.258  1.00  0.00    -0.227 C  
HETATM   21  C   UNL     1      -9.362   7.879  70.884  1.00  0.00    -0.162 C  
HETATM   22  C   UNL     1      -9.403   6.384  70.727  1.00  0.00    -0.165 A  
HETATM   23  C   UNL     1      -9.462   5.594  71.882  1.00  0.00    -0.171 A  
HETATM   24  C   UNL     1      -9.558   4.205  71.803  1.00  0.00    -0.156 A  
HETATM   25  C   UNL     1      -9.601   3.589  70.541  1.00  0.00    -0.176 A  
HETATM   26  O   UNL     1     -10.788   7.837  66.763  1.00  0.00    -0.254 OA 
HETATM   27  C   UNL     1     -10.313   7.725  67.897  1.00  0.00    -0.217 C  
HETATM   28  C   UNL     1      -9.546   4.384  69.385  1.00  0.00    -0.269 A  
HETATM   29  C   UNL     1      -9.328   6.600  68.194  1.00  0.00    -0.114 C  
HETATM   30  C   UNL     1      -9.461   5.787  69.461  1.00  0.00    -0.168 A  
BRANCH  24  31
HETATM   31  O   UNL     1      -9.654   3.395  72.909  1.00  0.00    -0.111 OA 
HETATM   32  C   UNL     1     -10.837   3.530  73.690  1.00  0.00    -0.235 C  
ENDBRANCH  24  31
BRANCH  25  33
HETATM   33  O   UNL     1      -9.687   2.219  70.538  1.00  0.00    -0.097 OA 
HETATM   34  C   UNL     1      -9.161   1.530  69.412  1.00  0.00    -0.094 C  
ENDBRANCH  25  33
ENDBRANCH  18  19
ENDBRANCH  17  18
ENDBRANCH  16  17
ENDBRANCH  14  16
ENDBRANCH  13  14
ENDBRANCH   9  13
ENDBRANCH   2   3
TORSDOF 10
ENDMDL
MODEL      252
REMARK 921   NORMALIZED FREE ENERGY PREDICTED BY IDOCK:   -3.16 KCAL/MOL
REMARK 922        TOTAL FREE ENERGY PREDICTED BY IDOCK:   -6.97 KCAL/MOL
REMARK 923 INTER-LIGAND FREE ENERGY PREDICTED BY IDOCK:   -5.29 KCAL/MOL
REMARK 924 INTRA-LIGAND FREE ENERGY PREDICTED BY IDOCK:   -1.68 KCAL/MOL
REMARK 927      BINDING AFFINITY PREDICTED BY RF-SCORE:    0.00 PKD
ROOT
HETATM    1  C   UNL     1     -13.180  11.805  63.120  1.00  0.00     0.623 C  
HETATM    2  O   UNL     1     -11.993  12.570  63.310  1.00  0.00    -0.495 OA 
ENDROOT
BRANCH   2   3
HETATM    3  C   UNL     1     -11.028  12.054  64.135  1.00  0.00    -0.360 A  
HETATM    4  C   UNL     1     -10.928  12.206  65.545  1.00  0.00    -0.301 A  
HETATM    5  C   UNL     1     -10.058  11.285  63.434  1.00  0.00    -0.445 A  
HETATM    6  C   UNL     1      -9.835  11.657  66.216  1.00  0.00    -0.245 A  
HETATM    7  C   UNL     1      -9.009  10.743  64.152  1.00  0.00    -0.167 A  
HETATM    8  C   UNL     1      -8.884  11.006  65.480  1.00  0.00    -0.179 A  
HETATM    9  C   UNL     1      -7.538  10.342  65.631  1.00  0.00    -0.148 C  
HETATM   10  C   UNL     1      -7.816   9.814  64.153  1.00  0.00    -0.134 C  
BRANCH   4  11
HETATM   11  O   UNL     1     -11.912  12.852  66.245  1.00  0.00    -0.397 OA 
HETATM   12  C   UNL     1     -12.060  14.247  65.987  1.00  0.00    -0.408 C  
ENDBRANCH   4  11
BRANCH   9  13
HETATM   13  C   UNL     1      -7.557   9.600  66.974  1.00  0.00    -0.095 C  
BRANCH  13  14
HETATM   14  N   UNL     1      -7.309  10.380  68.188  1.00  0.00    -0.087 NA 
HETATM   15  C   UNL     1      -8.094   9.897  69.312  1.00  0.00    -0.128 C  
BRANCH  14  16
HETATM   16  C   UNL     1      -5.887  10.631  68.452  1.00  0.00    -0.043 C  
BRANCH  16  17
HETATM   17  C   UNL     1      -5.362  11.820  67.652  1.00  0.00    -0.065 C  
BRANCH  17  18
HETATM   18  C   UNL     1      -5.128  13.072  68.507  1.00  0.00    -0.065 C  
BRANCH  18  19
HETATM   19  N   UNL     1      -6.305  13.941  68.430  1.00  0.00    -0.094 N  
HETATM   20  C   UNL     1      -7.358  13.727  69.415  1.00  0.00     0.182 C  
HETATM   21  C   UNL     1      -8.689  13.388  68.766  1.00  0.00     0.126 C  
HETATM   22  C   UNL     1      -9.412  14.674  68.478  1.00  0.00    -0.216 A  
HETATM   23  C   UNL     1     -10.625  14.918  69.134  1.00  0.00    -0.248 A  
HETATM   24  C   UNL     1     -11.317  16.115  68.953  1.00  0.00    -0.350 A  
HETATM   25  C   UNL     1     -10.783  17.096  68.100  1.00  0.00    -0.366 A  
HETATM   26  O   UNL     1      -5.240  15.585  67.251  1.00  0.00    -0.336 OA 
HETATM   27  C   UNL     1      -6.297  15.042  67.587  1.00  0.00    -0.131 C  
HETATM   28  C   UNL     1      -9.564  16.851  67.447  1.00  0.00    -0.241 A  
HETATM   29  C   UNL     1      -7.589  15.393  66.856  1.00  0.00    -0.111 C  
HETATM   30  C   UNL     1      -8.858  15.648  67.637  1.00  0.00    -0.181 A  
BRANCH  24  31
HETATM   31  O   UNL     1     -12.490  16.410  69.604  1.00  0.00     0.188 OA 
HETATM   32  C   UNL     1     -12.845  15.555  70.686  1.00  0.00    -0.413 C  
ENDBRANCH  24  31
BRANCH  25  33
HETATM   33  O   UNL     1     -11.520  18.246  67.963  1.00  0.00     0.445 OA 
HETATM   34  C   UNL     1     -10.855  19.397  67.461  1.00  0.00    -0.404 C  
ENDBRANCH  25  33
ENDBRANCH  18  19
ENDBRANCH  17  18
ENDBRANCH  16  17
ENDBRANCH  14  16
ENDBRANCH  13  14
ENDBRANCH   9  13
ENDBRANCH   2   3
TORSDOF 10
ENDMDL
MODEL      253
REMARK 921   NORMALIZED FREE ENERGY PREDICTED BY IDOCK:   -3.15 KCAL/MOL
REMARK 922        TOTAL FREE ENERGY PREDICTED BY IDOCK:   -6.96 KCAL/MOL
REMARK 923 INTER-LIGAND FREE ENERGY PREDICTED BY IDOCK:   -5.19 KCAL/MOL
REMARK 924 INTRA-LIGAND FREE ENERGY PREDICTED BY IDOCK:   -1.77 KCAL/MOL
REMARK 927      BINDING AFFINITY PREDICTED BY RF-SCORE:    0.00 PKD
ROOT
HETATM    1  C   UNL     1      -9.398  10.862  66.281  1.00  0.00    -0.179 C  
HETATM    2  O   UNL     1     -10.642  10.266  66.635  1.00  0.00    -0.223 OA 
ENDROOT
BRANCH   2   3
HETATM    3  C   UNL     1     -10.665   9.445  67.733  1.00  0.00    -0.229 A  
HETATM    4  C   UNL     1     -10.345   8.061  67.780  1.00  0.00    -0.231 A  
HETATM    5  C   UNL     1     -11.051  10.125  68.921  1.00  0.00    -0.251 A  
HETATM    6  C   UNL     1     -10.485   7.368  68.983  1.00  0.00    -0.217 A  
HETATM    7  C   UNL     1     -11.150   9.394  70.090  1.00  0.00    -0.277 A  
HETATM    8  C   UNL     1     -10.948   8.050  70.073  1.00  0.00    -0.202 A  
HETATM    9  C   UNL     1     -11.362   7.825  71.506  1.00  0.00    -0.289 C  
HETATM   10  C   UNL     1     -11.340   9.416  71.590  1.00  0.00    -0.452 C  
BRANCH   4  11
HETATM   11  O   UNL     1      -9.868   7.420  66.667  1.00  0.00    -0.209 OA 
HETATM   12  C   UNL     1      -9.888   5.994  66.702  1.00  0.00    -0.164 C  
ENDBRANCH   4  11
BRANCH   9  13
HETATM   13  C   UNL     1     -10.397   6.783  72.088  1.00  0.00    -0.200 C  
BRANCH  13  14
HETATM   14  N   UNL     1     -10.065   6.881  73.511  1.00  0.00    -0.257 NA 
HETATM   15  C   UNL     1     -10.422   5.673  74.235  1.00  0.00    -0.232 C  
BRANCH  14  16
HETATM   16  C   UNL     1      -8.725   7.419  73.772  1.00  0.00    -0.197 C  
BRANCH  16  17
HETATM   17  C   UNL     1      -8.267   8.366  72.665  1.00  0.00    -0.190 C  
BRANCH  17  18
HETATM   18  C   UNL     1      -6.787   8.202  72.299  1.00  0.00    -0.083 C  
BRANCH  18  19
HETATM   19  N   UNL     1      -6.631   8.306  70.846  1.00  0.00    -0.037 N  
HETATM   20  C   UNL     1      -7.156   7.212  70.038  1.00  0.00    -0.066 C  
HETATM   21  C   UNL     1      -6.076   6.553  69.197  1.00  0.00    -0.026 C  
HETATM   22  C   UNL     1      -5.985   7.289  67.889  1.00  0.00    -0.034 A  
HETATM   23  C   UNL     1      -6.300   6.598  66.712  1.00  0.00    -0.042 A  
HETATM   24  C   UNL     1      -6.289   7.238  65.473  1.00  0.00    -0.038 A  
HETATM   25  C   UNL     1      -5.961   8.603  65.407  1.00  0.00    -0.048 A  
HETATM   26  O   UNL     1      -6.357  10.576  70.855  1.00  0.00    -0.331 OA 
HETATM   27  C   UNL     1      -6.193   9.495  70.281  1.00  0.00    -0.061 C  
HETATM   28  C   UNL     1      -5.650   9.294  66.589  1.00  0.00    -0.046 A  
HETATM   29  C   UNL     1      -5.256   9.414  69.080  1.00  0.00    -0.036 C  
HETATM   30  C   UNL     1      -5.672   8.653  67.842  1.00  0.00    -0.039 A  
BRANCH  24  31
HETATM   31  O   UNL     1      -6.626   6.608  64.300  1.00  0.00    -0.039 OA 
HETATM   32  C   UNL     1      -6.441   5.197  64.264  1.00  0.00    -0.037 C  
ENDBRANCH  24  31
BRANCH  25  33
HETATM   33  O   UNL     1      -5.962   9.166  64.155  1.00  0.00    -0.070 OA 
HETATM   34  C   UNL     1      -5.316  10.423  64.000  1.00  0.00    -0.152 C  
ENDBRANCH  25  33
ENDBRANCH  18  19
ENDBRANCH  17  18
ENDBRANCH  16  17
ENDBRANCH  14  16
ENDBRANCH  13  14
ENDBRANCH   9  13
ENDBRANCH   2   3
TORSDOF 10
ENDMDL
MODEL      254
REMARK 921   NORMALIZED FREE ENERGY PREDICTED BY IDOCK:   -3.09 KCAL/MOL
REMARK 922        TOTAL FREE ENERGY PREDICTED BY IDOCK:   -6.87 KCAL/MOL
REMARK 923 INTER-LIGAND FREE ENERGY PREDICTED BY IDOCK:   -4.37 KCAL/MOL
REMARK 924 INTRA-LIGAND FREE ENERGY PREDICTED BY IDOCK:   -2.50 KCAL/MOL
REMARK 927      BINDING AFFINITY PREDICTED BY RF-SCORE:    0.00 PKD
ROOT
HETATM    1  C   UNL     1     -11.379   9.521  69.004  1.00  0.00     0.161 C  
HETATM    2  O   UNL     1     -11.632  10.252  67.808  1.00  0.00    -0.331 OA 
ENDROOT
BRANCH   2   3
HETATM    3  C   UNL     1     -11.084  11.504  67.700  1.00  0.00    -0.266 A  
HETATM    4  C   UNL     1     -10.265  11.998  66.648  1.00  0.00    -0.204 A  
HETATM    5  C   UNL     1     -11.423  12.349  68.792  1.00  0.00    -0.350 A  
HETATM    6  C   UNL     1      -9.743  13.288  66.737  1.00  0.00    -0.258 A  
HETATM    7  C   UNL     1     -10.897  13.627  68.817  1.00  0.00    -0.279 A  
HETATM    8  C   UNL     1     -10.026  14.026  67.853  1.00  0.00    -0.237 A  
HETATM    9  C   UNL     1      -9.689  15.346  68.501  1.00  0.00    -0.204 C  
HETATM   10  C   UNL     1     -10.899  14.989  69.476  1.00  0.00    -0.272 C  
BRANCH   4  11
HETATM   11  O   UNL     1     -10.021  11.231  65.539  1.00  0.00    -0.223 OA 
HETATM   12  C   UNL     1      -9.604  11.930  64.367  1.00  0.00    -0.017 C  
ENDBRANCH   4  11
BRANCH   9  13
HETATM   13  C   UNL     1      -9.591  16.381  67.373  1.00  0.00    -0.231 C  
BRANCH  13  14
HETATM   14  N   UNL     1      -8.309  17.062  67.182  1.00  0.00    -0.185 NA 
HETATM   15  C   UNL     1      -8.046  18.028  68.235  1.00  0.00    -0.291 C  
BRANCH  14  16
HETATM   16  C   UNL     1      -7.203  16.159  66.841  1.00  0.00    -0.205 C  
BRANCH  16  17
HETATM   17  C   UNL     1      -6.234  15.983  68.008  1.00  0.00    -0.138 C  
BRANCH  17  18
HETATM   18  C   UNL     1      -5.143  14.939  67.739  1.00  0.00    -0.008 C  
BRANCH  18  19
HETATM   19  N   UNL     1      -5.642  13.610  68.101  1.00  0.00    -0.106 N  
HETATM   20  C   UNL     1      -5.333  12.510  67.194  1.00  0.00     0.033 C  
HETATM   21  C   UNL     1      -6.588  11.841  66.658  1.00  0.00     0.010 C  
HETATM   22  C   UNL     1      -6.985  10.753  67.617  1.00  0.00    -0.082 A  
HETATM   23  C   UNL     1      -6.966   9.428  67.165  1.00  0.00    -0.085 A  
HETATM   24  C   UNL     1      -7.269   8.369  68.020  1.00  0.00    -0.091 A  
HETATM   25  C   UNL     1      -7.595   8.638  69.361  1.00  0.00    -0.092 A  
HETATM   26  O   UNL     1      -5.890  14.106  70.319  1.00  0.00    -0.122 OA 
HETATM   27  C   UNL     1      -6.194  13.397  69.356  1.00  0.00    -0.109 C  
HETATM   28  C   UNL     1      -7.608   9.968  69.812  1.00  0.00    -0.167 A  
HETATM   29  C   UNL     1      -7.392  12.458  69.460  1.00  0.00     0.447 C  
HETATM   30  C   UNL     1      -7.291  11.038  68.954  1.00  0.00    -0.111 A  
BRANCH  24  31
HETATM   31  O   UNL     1      -7.228   7.052  67.629  1.00  0.00    -0.085 OA 
HETATM   32  C   UNL     1      -8.135   6.670  66.600  1.00  0.00    -0.110 C  
ENDBRANCH  24  31
BRANCH  25  33
HETATM   33  O   UNL     1      -7.890   7.549  70.143  1.00  0.00    -0.095 OA 
HETATM   34  C   UNL     1      -7.062   7.308  71.273  1.00  0.00    -0.064 C  
ENDBRANCH  25  33
ENDBRANCH  18  19
ENDBRANCH  17  18
ENDBRANCH  16  17
ENDBRANCH  14  16
ENDBRANCH  13  14
ENDBRANCH   9  13
ENDBRANCH   2   3
TORSDOF 10
ENDMDL
MODEL      255
REMARK 921   NORMALIZED FREE ENERGY PREDICTED BY IDOCK:   -3.08 KCAL/MOL
REMARK 922        TOTAL FREE ENERGY PREDICTED BY IDOCK:   -6.84 KCAL/MOL
REMARK 923 INTER-LIGAND FREE ENERGY PREDICTED BY IDOCK:   -6.23 KCAL/MOL
REMARK 924 INTRA-LIGAND FREE ENERGY PREDICTED BY IDOCK:   -0.61 KCAL/MOL
REMARK 927      BINDING AFFINITY PREDICTED BY RF-SCORE:    0.00 PKD
ROOT
HETATM    1  C   UNL     1      -5.505   8.774  65.370  1.00  0.00    -0.038 C  
HETATM    2  O   UNL     1      -6.493   9.511  64.656  1.00  0.00    -0.081 OA 
ENDROOT
BRANCH   2   3
HETATM    3  C   UNL     1      -7.443  10.177  65.387  1.00  0.00    -0.144 A  
HETATM    4  C   UNL     1      -8.561  10.901  64.891  1.00  0.00    -0.026 A  
HETATM    5  C   UNL     1      -7.225  10.081  66.789  1.00  0.00    -0.091 A  
HETATM    6  C   UNL     1      -9.393  11.572  65.787  1.00  0.00    -0.238 A  
HETATM    7  C   UNL     1      -8.095  10.745  67.633  1.00  0.00    -0.114 A  
HETATM    8  C   UNL     1      -9.085  11.522  67.118  1.00  0.00    -0.167 A  
HETATM    9  C   UNL     1      -9.529  12.085  68.445  1.00  0.00    -0.181 C  
HETATM   10  C   UNL     1      -8.554  10.982  69.054  1.00  0.00    -0.076 C  
BRANCH   4  11
HETATM   11  O   UNL     1      -8.842  10.911  63.550  1.00  0.00    -0.168 OA 
HETATM   12  C   UNL     1     -10.042  11.578  63.161  1.00  0.00    -0.359 C  
ENDBRANCH   4  11
BRANCH   9  13
HETATM   13  C   UNL     1     -11.062  12.150  68.409  1.00  0.00    -0.245 C  
BRANCH  13  14
HETATM   14  N   UNL     1     -11.805  11.010  68.947  1.00  0.00    -0.399 NA 
HETATM   15  C   UNL     1     -11.512   9.783  68.226  1.00  0.00     0.280 C  
BRANCH  14  16
HETATM   16  C   UNL     1     -11.778  10.921  70.413  1.00  0.00    -0.350 C  
BRANCH  16  17
HETATM   17  C   UNL     1     -12.161   9.527  70.904  1.00  0.00    -0.357 C  
BRANCH  17  18
HETATM   18  C   UNL     1     -11.300   9.038  72.076  1.00  0.00    -0.324 C  
BRANCH  18  19
HETATM   19  N   UNL     1     -10.791   7.697  71.779  1.00  0.00    -0.226 N  
HETATM   20  C   UNL     1     -10.267   7.463  70.438  1.00  0.00    -0.198 C  
HETATM   21  C   UNL     1     -11.014   6.354  69.717  1.00  0.00    -0.417 C  
HETATM   22  C   UNL     1     -10.352   5.047  70.052  1.00  0.00    -0.303 A  
HETATM   23  C   UNL     1      -9.752   4.319  69.017  1.00  0.00    -0.209 A  
HETATM   24  C   UNL     1      -9.073   3.128  69.270  1.00  0.00    -0.136 A  
HETATM   25  C   UNL     1      -8.987   2.652  70.590  1.00  0.00    -0.096 A  
HETATM   26  O   UNL     1     -10.461   7.138  73.971  1.00  0.00    -0.353 OA 
HETATM   27  C   UNL     1     -10.632   6.775  72.803  1.00  0.00    -0.235 C  
HETATM   28  C   UNL     1      -9.586   3.386  71.626  1.00  0.00    -0.229 A  
HETATM   29  C   UNL     1     -10.957   5.314  72.508  1.00  0.00    -0.298 C  
HETATM   30  C   UNL     1     -10.261   4.595  71.375  1.00  0.00    -0.212 A  
BRANCH  24  31
HETATM   31  O   UNL     1      -8.440   2.402  68.290  1.00  0.00    -0.067 OA 
HETATM   32  C   UNL     1      -9.275   1.617  67.446  1.00  0.00    -0.089 C  
ENDBRANCH  24  31
BRANCH  25  33
HETATM   33  O   UNL     1      -8.312   1.469  70.765  1.00  0.00    -0.047 OA 
HETATM   34  C   UNL     1      -7.132   1.497  71.556  1.00  0.00    -0.031 C  
ENDBRANCH  25  33
ENDBRANCH  18  19
ENDBRANCH  17  18
ENDBRANCH  16  17
ENDBRANCH  14  16
ENDBRANCH  13  14
ENDBRANCH   9  13
ENDBRANCH   2   3
TORSDOF 10
ENDMDL
MODEL      256
REMARK 921   NORMALIZED FREE ENERGY PREDICTED BY IDOCK:   -3.06 KCAL/MOL
REMARK 922        TOTAL FREE ENERGY PREDICTED BY IDOCK:   -6.81 KCAL/MOL
REMARK 923 INTER-LIGAND FREE ENERGY PREDICTED BY IDOCK:   -5.91 KCAL/MOL
REMARK 924 INTRA-LIGAND FREE ENERGY PREDICTED BY IDOCK:   -0.90 KCAL/MOL
REMARK 927      BINDING AFFINITY PREDICTED BY RF-SCORE:    0.00 PKD
ROOT
HETATM    1  C   UNL     1     -10.816  19.310  66.102  1.00  0.00    -0.263 C  
HETATM    2  O   UNL     1      -9.392  19.298  66.084  1.00  0.00    -0.361 OA 
ENDROOT
BRANCH   2   3
HETATM    3  C   UNL     1      -8.759  18.182  66.569  1.00  0.00    -0.268 A  
HETATM    4  C   UNL     1      -9.009  16.828  66.217  1.00  0.00    -0.290 A  
HETATM    5  C   UNL     1      -7.747  18.494  67.518  1.00  0.00    -0.236 A  
HETATM    6  C   UNL     1      -8.304  15.813  66.864  1.00  0.00    -0.283 A  
HETATM    7  C   UNL     1      -7.062  17.450  68.111  1.00  0.00    -0.196 A  
HETATM    8  C   UNL     1      -7.407  16.164  67.835  1.00  0.00    -0.142 A  
HETATM    9  C   UNL     1      -6.493  15.547  68.863  1.00  0.00    -0.110 C  
HETATM   10  C   UNL     1      -5.909  17.024  68.991  1.00  0.00    -0.162 C  
BRANCH   4  11
HETATM   11  O   UNL     1      -9.904  16.522  65.227  1.00  0.00    -0.488 OA 
HETATM   12  C   UNL     1     -10.544  15.250  65.325  1.00  0.00    -0.417 C  
ENDBRANCH   4  11
BRANCH   9  13
HETATM   13  C   UNL     1      -5.890  14.289  68.223  1.00  0.00    -0.117 C  
BRANCH  13  14
HETATM   14  N   UNL     1      -5.229  13.325  69.104  1.00  0.00    -0.073 NA 
HETATM   15  C   UNL     1      -5.338  13.706  70.502  1.00  0.00    -0.126 C  
BRANCH  14  16
HETATM   16  C   UNL     1      -5.535  11.924  68.789  1.00  0.00    -0.049 C  
BRANCH  16  17
HETATM   17  C   UNL     1      -6.802  11.796  67.948  1.00  0.00    -0.077 C  
BRANCH  17  18
HETATM   18  C   UNL     1      -6.955  10.421  67.285  1.00  0.00    -0.086 C  
BRANCH  18  19
HETATM   19  N   UNL     1      -7.444   9.457  68.274  1.00  0.00    -0.078 N  
HETATM   20  C   UNL     1      -8.854   9.533  68.641  1.00  0.00    -0.132 C  
HETATM   21  C   UNL     1      -9.046   9.784  70.126  1.00  0.00    -0.240 C  
HETATM   22  C   UNL     1      -9.080   8.454  70.826  1.00  0.00    -0.180 A  
HETATM   23  C   UNL     1     -10.259   8.075  71.482  1.00  0.00    -0.243 A  
HETATM   24  C   UNL     1     -10.374   6.832  72.102  1.00  0.00    -0.200 A  
HETATM   25  C   UNL     1      -9.288   5.941  72.063  1.00  0.00    -0.150 A  
HETATM   26  O   UNL     1      -5.744   7.967  67.932  1.00  0.00    -0.036 OA 
HETATM   27  C   UNL     1      -6.637   8.400  68.667  1.00  0.00    -0.055 C  
HETATM   28  C   UNL     1      -8.109   6.321  71.402  1.00  0.00    -0.117 A  
HETATM   29  C   UNL     1      -6.682   7.971  70.130  1.00  0.00    -0.037 C  
HETATM   30  C   UNL     1      -7.994   7.571  70.765  1.00  0.00    -0.103 A  
BRANCH  24  31
HETATM   31  O   UNL     1     -11.523   6.406  72.724  1.00  0.00    -0.229 OA 
HETATM   32  C   UNL     1     -12.719   6.470  71.954  1.00  0.00    -0.128 C  
ENDBRANCH  24  31
BRANCH  25  33
HETATM   33  O   UNL     1      -9.468   4.738  72.701  1.00  0.00    -0.132 OA 
HETATM   34  C   UNL     1      -8.860   4.573  73.975  1.00  0.00    -0.103 C  
ENDBRANCH  25  33
ENDBRANCH  18  19
ENDBRANCH  17  18
ENDBRANCH  16  17
ENDBRANCH  14  16
ENDBRANCH  13  14
ENDBRANCH   9  13
ENDBRANCH   2   3
TORSDOF 10
ENDMDL
MODEL      257
REMARK 921   NORMALIZED FREE ENERGY PREDICTED BY IDOCK:   -3.05 KCAL/MOL
REMARK 922        TOTAL FREE ENERGY PREDICTED BY IDOCK:   -6.80 KCAL/MOL
REMARK 923 INTER-LIGAND FREE ENERGY PREDICTED BY IDOCK:   -6.01 KCAL/MOL
REMARK 924 INTRA-LIGAND FREE ENERGY PREDICTED BY IDOCK:   -0.79 KCAL/MOL
REMARK 927      BINDING AFFINITY PREDICTED BY RF-SCORE:    0.00 PKD
ROOT
HETATM    1  C   UNL     1      -5.906   1.955  68.273  1.00  0.00    -0.023 C  
HETATM    2  O   UNL     1      -5.819   3.206  68.950  1.00  0.00    -0.022 OA 
ENDROOT
BRANCH   2   3
HETATM    3  C   UNL     1      -6.471   4.277  68.394  1.00  0.00    -0.037 A  
HETATM    4  C   UNL     1      -7.745   4.792  68.757  1.00  0.00    -0.072 A  
HETATM    5  C   UNL     1      -5.725   4.895  67.353  1.00  0.00    -0.017 A  
HETATM    6  C   UNL     1      -8.281   5.859  68.034  1.00  0.00    -0.105 A  
HETATM    7  C   UNL     1      -6.295   5.963  66.687  1.00  0.00    -0.041 A  
HETATM    8  C   UNL     1      -7.562   6.356  66.984  1.00  0.00    -0.095 A  
HETATM    9  C   UNL     1      -7.666   7.362  65.865  1.00  0.00    -0.093 C  
HETATM   10  C   UNL     1      -6.105   7.088  65.694  1.00  0.00    -0.036 C  
BRANCH   4  11
HETATM   11  O   UNL     1      -8.425   4.275  69.828  1.00  0.00    -0.061 OA 
HETATM   12  C   UNL     1      -9.629   3.570  69.531  1.00  0.00    -0.109 C  
ENDBRANCH   4  11
BRANCH   9  13
HETATM   13  C   UNL     1      -8.407   8.580  66.431  1.00  0.00    -0.114 C  
BRANCH  13  14
HETATM   14  N   UNL     1      -9.834   8.710  66.132  1.00  0.00    -0.244 NA 
HETATM   15  C   UNL     1     -10.662   8.190  67.206  1.00  0.00    -0.193 C  
BRANCH  14  16
HETATM   16  C   UNL     1     -10.213  10.026  65.602  1.00  0.00    -0.188 C  
BRANCH  16  17
HETATM   17  C   UNL     1     -10.603  10.995  66.715  1.00  0.00    -0.317 C  
BRANCH  17  18
HETATM   18  C   UNL     1     -11.566  12.096  66.253  1.00  0.00    -0.360 C  
BRANCH  18  19
HETATM   19  N   UNL     1     -11.054  13.400  66.681  1.00  0.00    -0.291 N  
HETATM   20  C   UNL     1     -10.536  14.287  65.646  1.00  0.00    -0.324 C  
HETATM   21  C   UNL     1      -9.080  14.652  65.881  1.00  0.00     0.117 C  
HETATM   22  C   UNL     1      -9.038  15.875  66.753  1.00  0.00    -0.275 A  
HETATM   23  C   UNL     1      -8.488  17.051  66.227  1.00  0.00    -0.304 A  
HETATM   24  C   UNL     1      -8.470  18.234  66.964  1.00  0.00    -0.250 A  
HETATM   25  C   UNL     1      -9.019  18.247  68.259  1.00  0.00    -0.305 A  
HETATM   26  O   UNL     1     -12.205  13.408  68.656  1.00  0.00    -0.298 OA 
HETATM   27  C   UNL     1     -11.260  13.830  67.984  1.00  0.00    -0.267 C  
HETATM   28  C   UNL     1      -9.573  17.068  68.782  1.00  0.00    -0.269 A  
HETATM   29  C   UNL     1     -10.140  14.610  68.665  1.00  0.00    -0.238 C  
HETATM   30  C   UNL     1      -9.603  15.875  68.035  1.00  0.00    -0.211 A  
BRANCH  24  31
HETATM   31  O   UNL     1      -7.974  19.418  66.473  1.00  0.00    -0.268 OA 
HETATM   32  C   UNL     1      -6.904  19.315  65.540  1.00  0.00    -0.263 C  
ENDBRANCH  24  31
BRANCH  25  33
HETATM   33  O   UNL     1      -8.959  19.443  68.930  1.00  0.00    -0.366 OA 
HETATM   34  C   UNL     1     -10.189  20.086  69.235  1.00  0.00    -0.072 C  
ENDBRANCH  25  33
ENDBRANCH  18  19
ENDBRANCH  17  18
ENDBRANCH  16  17
ENDBRANCH  14  16
ENDBRANCH  13  14
ENDBRANCH   9  13
ENDBRANCH   2   3
TORSDOF 10
ENDMDL
MODEL      258
REMARK 921   NORMALIZED FREE ENERGY PREDICTED BY IDOCK:   -3.04 KCAL/MOL
REMARK 922        TOTAL FREE ENERGY PREDICTED BY IDOCK:   -6.78 KCAL/MOL
REMARK 923 INTER-LIGAND FREE ENERGY PREDICTED BY IDOCK:   -5.22 KCAL/MOL
REMARK 924 INTRA-LIGAND FREE ENERGY PREDICTED BY IDOCK:   -1.55 KCAL/MOL
REMARK 927      BINDING AFFINITY PREDICTED BY RF-SCORE:    0.00 PKD
ROOT
HETATM    1  C   UNL     1     -10.665  12.228  63.311  1.00  0.00    -0.284 C  
HETATM    2  O   UNL     1     -10.612  11.880  64.691  1.00  0.00    -0.277 OA 
ENDROOT
BRANCH   2   3
HETATM    3  C   UNL     1     -10.164  12.832  65.571  1.00  0.00    -0.279 A  
HETATM    4  C   UNL     1      -9.696  12.627  66.897  1.00  0.00    -0.234 A  
HETATM    5  C   UNL     1     -10.192  14.144  65.022  1.00  0.00    -0.399 A  
HETATM    6  C   UNL     1      -9.335  13.729  67.672  1.00  0.00    -0.213 A  
HETATM    7  C   UNL     1      -9.801  15.197  65.827  1.00  0.00    -0.384 A  
HETATM    8  C   UNL     1      -9.468  14.976  67.127  1.00  0.00    -0.223 A  
HETATM    9  C   UNL     1      -9.336  16.434  67.491  1.00  0.00    -0.214 C  
HETATM   10  C   UNL     1      -9.464  16.669  65.920  1.00  0.00    -0.218 C  
BRANCH   4  11
HETATM   11  O   UNL     1      -9.562  11.359  67.398  1.00  0.00    -0.172 OA 
HETATM   12  C   UNL     1     -10.746  10.759  67.921  1.00  0.00    -0.239 C  
ENDBRANCH   4  11
BRANCH   9  13
HETATM   13  C   UNL     1      -8.121  16.551  68.421  1.00  0.00    -0.196 C  
BRANCH  13  14
HETATM   14  N   UNL     1      -6.797  16.304  67.846  1.00  0.00    -0.129 NA 
HETATM   15  C   UNL     1      -6.498  17.221  66.760  1.00  0.00    -0.209 C  
BRANCH  14  16
HETATM   16  C   UNL     1      -5.739  16.121  68.848  1.00  0.00    -0.117 C  
BRANCH  16  17
HETATM   17  C   UNL     1      -5.435  14.645  69.089  1.00  0.00    -0.092 C  
BRANCH  17  18
HETATM   18  C   UNL     1      -5.620  13.774  67.839  1.00  0.00    -0.103 C  
BRANCH  18  19
HETATM   19  N   UNL     1      -6.008  12.421  68.243  1.00  0.00    -0.055 N  
HETATM   20  C   UNL     1      -6.532  12.251  69.593  1.00  0.00    -0.073 C  
HETATM   21  C   UNL     1      -5.699  11.280  70.413  1.00  0.00    -0.146 C  
HETATM   22  C   UNL     1      -6.232   9.894  70.182  1.00  0.00    -0.073 A  
HETATM   23  C   UNL     1      -6.781   9.201  71.269  1.00  0.00    -0.073 A  
HETATM   24  C   UNL     1      -7.342   7.935  71.111  1.00  0.00    -0.063 A  
HETATM   25  C   UNL     1      -7.360   7.345  69.835  1.00  0.00    -0.083 A  
HETATM   26  O   UNL     1      -6.246  11.653  66.103  1.00  0.00    -0.027 OA 
HETATM   27  C   UNL     1      -6.063  11.406  67.298  1.00  0.00    -0.085 C  
HETATM   28  C   UNL     1      -6.813   8.044  68.746  1.00  0.00    -0.062 A  
HETATM   29  C   UNL     1      -5.610  10.012  67.719  1.00  0.00    -0.038 C  
HETATM   30  C   UNL     1      -6.257   9.327  68.902  1.00  0.00    -0.043 A  
BRANCH  24  31
HETATM   31  O   UNL     1      -7.923   7.236  72.141  1.00  0.00    -0.092 OA 
HETATM   32  C   UNL     1      -7.437   7.520  73.449  1.00  0.00    -0.100 C  
ENDBRANCH  24  31
BRANCH  25  33
HETATM   33  O   UNL     1      -7.920   6.095  69.753  1.00  0.00    -0.106 OA 
HETATM   34  C   UNL     1      -9.036   5.929  68.889  1.00  0.00    -0.120 C  
ENDBRANCH  25  33
ENDBRANCH  18  19
ENDBRANCH  17  18
ENDBRANCH  16  17
ENDBRANCH  14  16
ENDBRANCH  13  14
ENDBRANCH   9  13
ENDBRANCH   2   3
TORSDOF 10
ENDMDL
MODEL      259
REMARK 921   NORMALIZED FREE ENERGY PREDICTED BY IDOCK:   -3.03 KCAL/MOL
REMARK 922        TOTAL FREE ENERGY PREDICTED BY IDOCK:   -6.77 KCAL/MOL
REMARK 923 INTER-LIGAND FREE ENERGY PREDICTED BY IDOCK:   -5.88 KCAL/MOL
REMARK 924 INTRA-LIGAND FREE ENERGY PREDICTED BY IDOCK:   -0.88 KCAL/MOL
REMARK 927      BINDING AFFINITY PREDICTED BY RF-SCORE:    0.00 PKD
ROOT
HETATM    1  C   UNL     1     -11.531   8.812  70.807  1.00  0.00    -0.270 C  
HETATM    2  O   UNL     1     -10.384   9.559  70.412  1.00  0.00    -0.237 OA 
ENDROOT
BRANCH   2   3
HETATM    3  C   UNL     1     -10.583  10.831  69.941  1.00  0.00    -0.076 A  
HETATM    4  C   UNL     1      -9.824  11.512  68.951  1.00  0.00    -0.075 A  
HETATM    5  C   UNL     1     -11.695  11.475  70.550  1.00  0.00    -0.248 A  
HETATM    6  C   UNL     1     -10.138  12.836  68.640  1.00  0.00    -0.132 A  
HETATM    7  C   UNL     1     -11.975  12.779  70.188  1.00  0.00    -0.371 A  
HETATM    8  C   UNL     1     -11.159  13.437  69.322  1.00  0.00    -0.216 A  
HETATM    9  C   UNL     1     -11.839  14.774  69.473  1.00  0.00    -0.366 C  
HETATM   10  C   UNL     1     -12.939  13.941  70.270  1.00  0.00     0.002 C  
BRANCH   4  11
HETATM   11  O   UNL     1      -8.820  10.867  68.279  1.00  0.00    -0.129 OA 
HETATM   12  C   UNL     1      -7.876  11.697  67.604  1.00  0.00    -0.135 C  
ENDBRANCH   4  11
BRANCH   9  13
HETATM   13  C   UNL     1     -11.887  15.408  68.076  1.00  0.00    -0.110 C  
BRANCH  13  14
HETATM   14  N   UNL     1     -10.675  16.064  67.583  1.00  0.00    -0.316 NA 
HETATM   15  C   UNL     1      -9.781  16.436  68.666  1.00  0.00    -0.239 C  
BRANCH  14  16
HETATM   16  C   UNL     1     -10.056  15.385  66.438  1.00  0.00    -0.279 C  
BRANCH  16  17
HETATM   17  C   UNL     1     -10.783  15.697  65.132  1.00  0.00    -0.463 C  
BRANCH  17  18
HETATM   18  C   UNL     1     -11.713  14.568  64.670  1.00  0.00    -0.431 C  
BRANCH  18  19
HETATM   19  N   UNL     1     -11.050  13.278  64.876  1.00  0.00    -0.315 N  
HETATM   20  C   UNL     1      -9.671  13.155  64.419  1.00  0.00     0.313 C  
HETATM   21  C   UNL     1      -9.506  12.051  63.388  1.00  0.00     0.036 C  
HETATM   22  C   UNL     1      -9.231  10.765  64.117  1.00  0.00    -0.251 A  
HETATM   23  C   UNL     1      -7.996  10.136  63.916  1.00  0.00    -0.153 A  
HETATM   24  C   UNL     1      -7.658   8.971  64.605  1.00  0.00    -0.107 A  
HETATM   25  C   UNL     1      -8.573   8.423  65.520  1.00  0.00    -0.176 A  
HETATM   26  O   UNL     1     -12.469  12.608  66.538  1.00  0.00    -0.407 OA 
HETATM   27  C   UNL     1     -11.656  12.307  65.660  1.00  0.00    -0.380 C  
HETATM   28  C   UNL     1      -9.809   9.059  65.723  1.00  0.00    -0.181 A  
HETATM   29  C   UNL     1     -11.517  10.850  65.228  1.00  0.00     0.568 C  
HETATM   30  C   UNL     1     -10.147  10.241  65.038  1.00  0.00    -0.353 A  
BRANCH  24  31
HETATM   31  O   UNL     1      -6.445   8.342  64.465  1.00  0.00    -0.065 OA 
HETATM   32  C   UNL     1      -5.466   9.023  63.688  1.00  0.00    -0.063 C  
ENDBRANCH  24  31
BRANCH  25  33
HETATM   33  O   UNL     1      -8.178   7.272  66.156  1.00  0.00    -0.117 OA 
HETATM   34  C   UNL     1      -8.990   6.118  65.989  1.00  0.00    -0.145 C  
ENDBRANCH  25  33
ENDBRANCH  18  19
ENDBRANCH  17  18
ENDBRANCH  16  17
ENDBRANCH  14  16
ENDBRANCH  13  14
ENDBRANCH   9  13
ENDBRANCH   2   3
TORSDOF 10
ENDMDL
MODEL      260
REMARK 921   NORMALIZED FREE ENERGY PREDICTED BY IDOCK:   -3.01 KCAL/MOL
REMARK 922        TOTAL FREE ENERGY PREDICTED BY IDOCK:   -6.73 KCAL/MOL
REMARK 923 INTER-LIGAND FREE ENERGY PREDICTED BY IDOCK:   -6.60 KCAL/MOL
REMARK 924 INTRA-LIGAND FREE ENERGY PREDICTED BY IDOCK:   -0.14 KCAL/MOL
REMARK 927      BINDING AFFINITY PREDICTED BY RF-SCORE:    0.00 PKD
ROOT
HETATM    1  C   UNL     1     -10.721   3.440  63.651  1.00  0.00    -0.255 C  
HETATM    2  O   UNL     1      -9.345   3.734  63.875  1.00  0.00    -0.129 OA 
ENDROOT
BRANCH   2   3
HETATM    3  C   UNL     1      -9.041   4.655  64.844  1.00  0.00    -0.154 A  
HETATM    4  C   UNL     1      -8.179   5.779  64.725  1.00  0.00    -0.135 A  
HETATM    5  C   UNL     1      -9.703   4.396  66.076  1.00  0.00    -0.218 A  
HETATM    6  C   UNL     1      -7.937   6.577  65.843  1.00  0.00    -0.115 A  
HETATM    7  C   UNL     1      -9.446   5.233  67.145  1.00  0.00    -0.132 A  
HETATM    8  C   UNL     1      -8.529   6.229  67.026  1.00  0.00    -0.108 A  
HETATM    9  C   UNL     1      -8.560   6.627  68.481  1.00  0.00    -0.124 C  
HETATM   10  C   UNL     1      -9.814   5.646  68.552  1.00  0.00    -0.185 C  
BRANCH   4  11
HETATM   11  O   UNL     1      -7.620   6.101  63.516  1.00  0.00    -0.072 OA 
HETATM   12  C   UNL     1      -8.260   7.143  62.782  1.00  0.00     0.001 C  
ENDBRANCH   4  11
BRANCH   9  13
HETATM   13  C   UNL     1      -8.490   8.159  68.524  1.00  0.00    -0.127 C  
BRANCH  13  14
HETATM   14  N   UNL     1      -9.318   8.907  67.576  1.00  0.00    -0.135 NA 
HETATM   15  C   UNL     1     -10.735   8.754  67.858  1.00  0.00    -0.107 C  
BRANCH  14  16
HETATM   16  C   UNL     1      -8.851  10.277  67.331  1.00  0.00    -0.131 C  
BRANCH  16  17
HETATM   17  C   UNL     1      -9.801  11.045  66.414  1.00  0.00    -0.252 C  
BRANCH  17  18
HETATM   18  C   UNL     1     -10.828  11.892  67.176  1.00  0.00    -0.255 C  
BRANCH  18  19
HETATM   19  N   UNL     1     -10.326  13.261  67.309  1.00  0.00    -0.246 N  
HETATM   20  C   UNL     1      -9.173  13.632  66.496  1.00  0.00    -0.179 C  
HETATM   21  C   UNL     1      -7.997  14.083  67.344  1.00  0.00    -0.191 C  
HETATM   22  C   UNL     1      -8.129  15.562  67.581  1.00  0.00    -0.162 A  
HETATM   23  C   UNL     1      -7.142  16.410  67.063  1.00  0.00    -0.259 A  
HETATM   24  C   UNL     1      -7.235  17.795  67.200  1.00  0.00    -0.181 A  
HETATM   25  C   UNL     1      -8.342  18.348  67.866  1.00  0.00    -0.261 A  
HETATM   26  O   UNL     1     -12.281  14.091  68.155  1.00  0.00    -0.325 OA 
HETATM   27  C   UNL     1     -11.060  14.201  68.019  1.00  0.00    -0.267 C  
HETATM   28  C   UNL     1      -9.332  17.495  68.379  1.00  0.00    -0.287 A  
HETATM   29  C   UNL     1     -10.295  15.213  68.867  1.00  0.00    -0.243 C  
HETATM   30  C   UNL     1      -9.247  16.098  68.232  1.00  0.00    -0.197 A  
BRANCH  24  31
HETATM   31  O   UNL     1      -6.309  18.665  66.677  1.00  0.00    -0.175 OA 
HETATM   32  C   UNL     1      -6.519  19.077  65.331  1.00  0.00    -0.273 C  
ENDBRANCH  24  31
BRANCH  25  33
HETATM   33  O   UNL     1      -8.365  19.717  67.971  1.00  0.00    -0.297 OA 
HETATM   34  C   UNL     1      -9.537  20.390  67.534  1.00  0.00    -0.420 C  
ENDBRANCH  25  33
ENDBRANCH  18  19
ENDBRANCH  17  18
ENDBRANCH  16  17
ENDBRANCH  14  16
ENDBRANCH  13  14
ENDBRANCH   9  13
ENDBRANCH   2   3
TORSDOF 10
ENDMDL
MODEL      261
REMARK 921   NORMALIZED FREE ENERGY PREDICTED BY IDOCK:   -3.00 KCAL/MOL
REMARK 922        TOTAL FREE ENERGY PREDICTED BY IDOCK:   -6.72 KCAL/MOL
REMARK 923 INTER-LIGAND FREE ENERGY PREDICTED BY IDOCK:   -6.16 KCAL/MOL
REMARK 924 INTRA-LIGAND FREE ENERGY PREDICTED BY IDOCK:   -0.56 KCAL/MOL
REMARK 927      BINDING AFFINITY PREDICTED BY RF-SCORE:    0.00 PKD
ROOT
HETATM    1  C   UNL     1      -9.980   2.197  72.603  1.00  0.00    -0.129 C  
HETATM    2  O   UNL     1      -9.791   2.231  71.191  1.00  0.00    -0.138 OA 
ENDROOT
BRANCH   2   3
HETATM    3  C   UNL     1      -9.598   3.456  70.605  1.00  0.00    -0.168 A  
HETATM    4  C   UNL     1      -8.755   3.760  69.502  1.00  0.00    -0.079 A  
HETATM    5  C   UNL     1     -10.367   4.485  71.215  1.00  0.00    -0.102 A  
HETATM    6  C   UNL     1      -8.636   5.083  69.077  1.00  0.00    -0.091 A  
HETATM    7  C   UNL     1     -10.229   5.775  70.738  1.00  0.00    -0.279 A  
HETATM    8  C   UNL     1      -9.328   6.047  69.758  1.00  0.00    -0.166 A  
HETATM    9  C   UNL     1      -9.503   7.544  69.813  1.00  0.00    -0.156 C  
HETATM   10  C   UNL     1     -10.736   7.199  70.762  1.00  0.00    -0.251 C  
BRANCH   4  11
HETATM   11  O   UNL     1      -8.093   2.761  68.837  1.00  0.00    -0.055 OA 
HETATM   12  C   UNL     1      -6.723   3.010  68.526  1.00  0.00    -0.040 C  
ENDBRANCH   4  11
BRANCH   9  13
HETATM   13  C   UNL     1      -9.472   8.048  68.364  1.00  0.00    -0.145 C  
BRANCH  13  14
HETATM   14  N   UNL     1      -8.315   8.840  67.943  1.00  0.00    -0.118 NA 
HETATM   15  C   UNL     1      -7.143   8.011  67.718  1.00  0.00    -0.086 C  
BRANCH  14  16
HETATM   16  C   UNL     1      -8.619   9.827  66.899  1.00  0.00    -0.124 C  
BRANCH  16  17
HETATM   17  C   UNL     1      -9.717  10.794  67.335  1.00  0.00    -0.194 C  
BRANCH  17  18
HETATM   18  C   UNL     1     -10.173  11.740  66.216  1.00  0.00    -0.221 C  
BRANCH  18  19
HETATM   19  N   UNL     1      -9.508  13.035  66.374  1.00  0.00    -0.249 N  
HETATM   20  C   UNL     1      -8.353  13.090  67.263  1.00  0.00    -0.185 C  
HETATM   21  C   UNL     1      -8.554  14.074  68.403  1.00  0.00    -0.174 C  
HETATM   22  C   UNL     1      -8.087  15.426  67.943  1.00  0.00    -0.148 A  
HETATM   23  C   UNL     1      -6.997  16.014  68.598  1.00  0.00    -0.133 A  
HETATM   24  C   UNL     1      -6.481  17.241  68.183  1.00  0.00    -0.162 A  
HETATM   25  C   UNL     1      -7.063  17.897  67.085  1.00  0.00    -0.184 A  
HETATM   26  O   UNL     1     -10.329  13.900  64.423  1.00  0.00    -0.384 OA 
HETATM   27  C   UNL     1      -9.850  14.093  65.544  1.00  0.00    -0.230 C  
HETATM   28  C   UNL     1      -8.152  17.304  66.428  1.00  0.00    -0.328 A  
HETATM   29  C   UNL     1      -9.890  15.493  66.150  1.00  0.00    -0.342 C  
HETATM   30  C   UNL     1      -8.668  16.059  66.836  1.00  0.00    -0.259 A  
BRANCH  24  31
HETATM   31  O   UNL     1      -5.391  17.835  68.774  1.00  0.00    -0.159 OA 
HETATM   32  C   UNL     1      -5.314  17.745  70.192  1.00  0.00    -0.234 C  
ENDBRANCH  24  31
BRANCH  25  33
HETATM   33  O   UNL     1      -6.509  19.104  66.738  1.00  0.00    -0.187 OA 
HETATM   34  C   UNL     1      -6.233  19.329  65.362  1.00  0.00    -0.254 C  
ENDBRANCH  25  33
ENDBRANCH  18  19
ENDBRANCH  17  18
ENDBRANCH  16  17
ENDBRANCH  14  16
ENDBRANCH  13  14
ENDBRANCH   9  13
ENDBRANCH   2   3
TORSDOF 10
ENDMDL
MODEL      262
REMARK 921   NORMALIZED FREE ENERGY PREDICTED BY IDOCK:   -2.97 KCAL/MOL
REMARK 922        TOTAL FREE ENERGY PREDICTED BY IDOCK:   -6.67 KCAL/MOL
REMARK 923 INTER-LIGAND FREE ENERGY PREDICTED BY IDOCK:   -5.31 KCAL/MOL
REMARK 924 INTRA-LIGAND FREE ENERGY PREDICTED BY IDOCK:   -1.36 KCAL/MOL
REMARK 927      BINDING AFFINITY PREDICTED BY RF-SCORE:    0.00 PKD
ROOT
HETATM    1  C   UNL     1     -12.017  15.148  63.754  1.00  0.00     0.402 C  
HETATM    2  O   UNL     1     -12.556  14.579  64.944  1.00  0.00    -0.526 OA 
ENDROOT
BRANCH   2   3
HETATM    3  C   UNL     1     -11.954  13.451  65.439  1.00  0.00    -0.387 A  
HETATM    4  C   UNL     1     -11.880  13.039  66.797  1.00  0.00    -0.388 A  
HETATM    5  C   UNL     1     -11.367  12.649  64.421  1.00  0.00    -0.393 A  
HETATM    6  C   UNL     1     -11.169  11.884  67.124  1.00  0.00    -0.377 A  
HETATM    7  C   UNL     1     -10.694  11.503  64.799  1.00  0.00    -0.366 A  
HETATM    8  C   UNL     1     -10.546  11.201  66.116  1.00  0.00    -0.305 A  
HETATM    9  C   UNL     1      -9.625  10.028  65.892  1.00  0.00    -0.283 C  
HETATM   10  C   UNL     1     -10.015  10.225  64.359  1.00  0.00    -0.331 C  
BRANCH   4  11
HETATM   11  O   UNL     1     -12.533  13.744  67.773  1.00  0.00    -0.126 OA 
HETATM   12  C   UNL     1     -11.710  14.412  68.729  1.00  0.00    -0.337 C  
ENDBRANCH   4  11
BRANCH   9  13
HETATM   13  C   UNL     1     -10.038   8.941  66.893  1.00  0.00    -0.273 C  
BRANCH  13  14
HETATM   14  N   UNL     1      -9.114   7.827  67.110  1.00  0.00    -0.130 NA 
HETATM   15  C   UNL     1      -9.813   6.559  67.232  1.00  0.00    -0.140 C  
BRANCH  14  16
HETATM   16  C   UNL     1      -7.949   7.839  66.216  1.00  0.00    -0.100 C  
BRANCH  16  17
HETATM   17  C   UNL     1      -6.745   8.519  66.863  1.00  0.00    -0.062 C  
BRANCH  17  18
HETATM   18  C   UNL     1      -6.925   8.774  68.365  1.00  0.00    -0.066 C  
BRANCH  18  19
HETATM   19  N   UNL     1      -6.647  10.183  68.655  1.00  0.00    -0.052 N  
HETATM   20  C   UNL     1      -7.053  11.164  67.656  1.00  0.00    -0.089 C  
HETATM   21  C   UNL     1      -5.877  11.976  67.140  1.00  0.00    -0.150 C  
HETATM   22  C   UNL     1      -5.703  13.170  68.037  1.00  0.00    -0.115 A  
HETATM   23  C   UNL     1      -5.884  14.447  67.490  1.00  0.00     0.117 A  
HETATM   24  C   UNL     1      -5.791  15.592  68.281  1.00  0.00    -0.114 A  
HETATM   25  C   UNL     1      -5.515  15.460  69.653  1.00  0.00    -0.104 A  
HETATM   26  O   UNL     1      -6.470   9.872  70.913  1.00  0.00    -0.200 OA 
HETATM   27  C   UNL     1      -6.211  10.555  69.919  1.00  0.00    -0.090 C  
HETATM   28  C   UNL     1      -5.338  14.178  70.199  1.00  0.00    -0.097 A  
HETATM   29  C   UNL     1      -5.170  11.666  70.017  1.00  0.00    -0.079 C  
HETATM   30  C   UNL     1      -5.443  13.021  69.406  1.00  0.00    -0.080 A  
BRANCH  24  31
HETATM   31  O   UNL     1      -5.997  16.859  67.794  1.00  0.00    -0.120 OA 
HETATM   32  C   UNL     1      -7.227  17.082  67.113  1.00  0.00    -0.172 C  
ENDBRANCH  24  31
BRANCH  25  33
HETATM   33  O   UNL     1      -5.429  16.628  70.369  1.00  0.00    -0.196 OA 
HETATM   34  C   UNL     1      -5.374  16.528  71.785  1.00  0.00     0.417 C  
ENDBRANCH  25  33
ENDBRANCH  18  19
ENDBRANCH  17  18
ENDBRANCH  16  17
ENDBRANCH  14  16
ENDBRANCH  13  14
ENDBRANCH   9  13
ENDBRANCH   2   3
TORSDOF 10
ENDMDL
MODEL      263
REMARK 921   NORMALIZED FREE ENERGY PREDICTED BY IDOCK:   -2.96 KCAL/MOL
REMARK 922        TOTAL FREE ENERGY PREDICTED BY IDOCK:   -6.65 KCAL/MOL
REMARK 923 INTER-LIGAND FREE ENERGY PREDICTED BY IDOCK:   -5.72 KCAL/MOL
REMARK 924 INTRA-LIGAND FREE ENERGY PREDICTED BY IDOCK:   -0.93 KCAL/MOL
REMARK 927      BINDING AFFINITY PREDICTED BY RF-SCORE:    0.00 PKD
ROOT
HETATM    1  C   UNL     1      -8.766  10.688  63.666  1.00  0.00    -0.145 C  
HETATM    2  O   UNL     1      -9.987  11.420  63.728  1.00  0.00    -0.275 OA 
ENDROOT
BRANCH   2   3
HETATM    3  C   UNL     1     -10.405  11.857  64.959  1.00  0.00    -0.289 A  
HETATM    4  C   UNL     1     -11.686  12.369  65.302  1.00  0.00    -0.390 A  
HETATM    5  C   UNL     1      -9.394  11.749  65.954  1.00  0.00    -0.214 A  
HETATM    6  C   UNL     1     -11.913  12.828  66.600  1.00  0.00    -0.411 A  
HETATM    7  C   UNL     1      -9.681  12.196  67.229  1.00  0.00    -0.193 A  
HETATM    8  C   UNL     1     -10.878  12.785  67.492  1.00  0.00    -0.263 A  
HETATM    9  C   UNL     1     -10.528  13.198  68.900  1.00  0.00    -0.117 C  
HETATM   10  C   UNL     1      -9.244  12.282  68.674  1.00  0.00    -0.005 C  
BRANCH   4  11
HETATM   11  O   UNL     1     -12.700  12.378  64.381  1.00  0.00    -0.626 OA 
HETATM   12  C   UNL     1     -12.491  13.180  63.220  1.00  0.00    -0.162 C  
ENDBRANCH   4  11
BRANCH   9  13
HETATM   13  C   UNL     1     -11.781  12.964  69.755  1.00  0.00    -0.281 C  
BRANCH  13  14
HETATM   14  N   UNL     1     -12.069  11.593  70.182  1.00  0.00    -0.336 NA 
HETATM   15  C   UNL     1     -12.657  10.805  69.112  1.00  0.00     0.513 C  
BRANCH  14  16
HETATM   16  C   UNL     1     -10.973  10.959  70.925  1.00  0.00     0.948 C  
BRANCH  16  17
HETATM   17  C   UNL     1     -11.357   9.571  71.429  1.00  0.00    -0.462 C  
BRANCH  17  18
HETATM   18  C   UNL     1     -10.151   8.652  71.657  1.00  0.00    -0.294 C  
BRANCH  18  19
HETATM   19  N   UNL     1      -9.932   7.831  70.464  1.00  0.00    -0.187 N  
HETATM   20  C   UNL     1      -9.040   8.364  69.441  1.00  0.00    -0.154 C  
HETATM   21  C   UNL     1      -9.736   8.520  68.099  1.00  0.00    -0.175 C  
HETATM   22  C   UNL     1      -9.597   7.226  67.346  1.00  0.00    -0.176 A  
HETATM   23  C   UNL     1      -8.874   7.227  66.147  1.00  0.00    -0.181 A  
HETATM   24  C   UNL     1      -8.662   6.050  65.430  1.00  0.00    -0.083 A  
HETATM   25  C   UNL     1      -9.180   4.840  65.924  1.00  0.00    -0.149 A  
HETATM   26  O   UNL     1     -10.566   5.877  71.467  1.00  0.00    -0.228 OA 
HETATM   27  C   UNL     1     -10.393   6.523  70.430  1.00  0.00    -0.198 C  
HETATM   28  C   UNL     1      -9.901   4.842  67.129  1.00  0.00    -0.222 A  
HETATM   29  C   UNL     1     -10.953   5.997  69.112  1.00  0.00    -0.429 C  
HETATM   30  C   UNL     1     -10.107   6.026  67.860  1.00  0.00    -0.183 A  
BRANCH  24  31
HETATM   31  O   UNL     1      -7.928   6.000  64.269  1.00  0.00    -0.115 OA 
HETATM   32  C   UNL     1      -6.566   6.403  64.365  1.00  0.00    -0.034 C  
ENDBRANCH  24  31
BRANCH  25  33
HETATM   33  O   UNL     1      -8.941   3.723  65.163  1.00  0.00    -0.122 OA 
HETATM   34  C   UNL     1      -8.149   2.693  65.739  1.00  0.00    -0.084 C  
ENDBRANCH  25  33
ENDBRANCH  18  19
ENDBRANCH  17  18
ENDBRANCH  16  17
ENDBRANCH  14  16
ENDBRANCH  13  14
ENDBRANCH   9  13
ENDBRANCH   2   3
TORSDOF 10
ENDMDL
MODEL      264
REMARK 921   NORMALIZED FREE ENERGY PREDICTED BY IDOCK:   -2.92 KCAL/MOL
REMARK 922        TOTAL FREE ENERGY PREDICTED BY IDOCK:   -6.59 KCAL/MOL
REMARK 923 INTER-LIGAND FREE ENERGY PREDICTED BY IDOCK:   -6.33 KCAL/MOL
REMARK 924 INTRA-LIGAND FREE ENERGY PREDICTED BY IDOCK:   -0.26 KCAL/MOL
REMARK 927      BINDING AFFINITY PREDICTED BY RF-SCORE:    0.00 PKD
ROOT
HETATM    1  C   UNL     1      -7.865   4.324  71.700  1.00  0.00    -0.078 C  
HETATM    2  O   UNL     1      -7.506   5.361  70.792  1.00  0.00    -0.075 OA 
ENDROOT
BRANCH   2   3
HETATM    3  C   UNL     1      -8.392   6.393  70.621  1.00  0.00    -0.133 A  
HETATM    4  C   UNL     1      -8.550   7.211  69.469  1.00  0.00    -0.134 A  
HETATM    5  C   UNL     1      -9.217   6.604  71.760  1.00  0.00    -0.148 A  
HETATM    6  C   UNL     1      -9.468   8.262  69.498  1.00  0.00    -0.162 A  
HETATM    7  C   UNL     1     -10.126   7.645  71.725  1.00  0.00    -0.210 A  
HETATM    8  C   UNL     1     -10.170   8.477  70.652  1.00  0.00    -0.230 A  
HETATM    9  C   UNL     1     -11.154   9.444  71.260  1.00  0.00    -0.446 C  
HETATM   10  C   UNL     1     -11.296   8.332  72.393  1.00  0.00    -0.457 C  
BRANCH   4  11
HETATM   11  O   UNL     1      -7.839   6.949  68.328  1.00  0.00    -0.113 OA 
HETATM   12  C   UNL     1      -7.554   5.577  68.062  1.00  0.00    -0.081 C  
ENDBRANCH   4  11
BRANCH   9  13
HETATM   13  C   UNL     1     -12.120   9.857  70.142  1.00  0.00    -0.025 C  
BRANCH  13  14
HETATM   14  N   UNL     1     -12.461  11.276  70.024  1.00  0.00    -0.223 NA 
HETATM   15  C   UNL     1     -12.880  11.840  71.295  1.00  0.00    -0.308 C  
BRANCH  14  16
HETATM   16  C   UNL     1     -11.483  12.060  69.259  1.00  0.00    -0.301 C  
BRANCH  16  17
HETATM   17  C   UNL     1     -11.803  13.552  69.290  1.00  0.00    -0.392 C  
BRANCH  17  18
HETATM   18  C   UNL     1     -11.875  14.187  67.896  1.00  0.00    -0.370 C  
BRANCH  18  19
HETATM   19  N   UNL     1     -10.836  15.212  67.774  1.00  0.00    -0.283 N  
HETATM   20  C   UNL     1      -9.813  15.009  66.754  1.00  0.00    -0.243 C  
HETATM   21  C   UNL     1      -8.416  14.953  67.349  1.00  0.00    -0.212 C  
HETATM   22  C   UNL     1      -7.876  16.354  67.411  1.00  0.00    -0.179 A  
HETATM   23  C   UNL     1      -6.746  16.668  66.645  1.00  0.00    -0.192 A  
HETATM   24  C   UNL     1      -6.230  17.963  66.616  1.00  0.00    -0.168 A  
HETATM   25  C   UNL     1      -6.859  18.971  67.366  1.00  0.00    -0.203 A  
HETATM   26  O   UNL     1     -12.070  16.844  68.795  1.00  0.00     0.582 OA 
HETATM   27  C   UNL     1     -10.963  16.410  68.461  1.00  0.00    -0.350 C  
HETATM   28  C   UNL     1      -7.994  18.655  68.129  1.00  0.00    -0.312 A  
HETATM   29  C   UNL     1      -9.701  17.037  69.046  1.00  0.00    -0.216 C  
HETATM   30  C   UNL     1      -8.524  17.352  68.151  1.00  0.00    -0.241 A  
BRANCH  24  31
HETATM   31  O   UNL     1      -5.146  18.321  65.851  1.00  0.00    -0.140 OA 
HETATM   32  C   UNL     1      -5.368  18.420  64.448  1.00  0.00    -0.011 C  
ENDBRANCH  24  31
BRANCH  25  33
HETATM   33  O   UNL     1      -6.292  20.220  67.297  1.00  0.00    -0.193 OA 
HETATM   34  C   UNL     1      -7.163  21.341  67.351  1.00  0.00    -0.084 C  
ENDBRANCH  25  33
ENDBRANCH  18  19
ENDBRANCH  17  18
ENDBRANCH  16  17
ENDBRANCH  14  16
ENDBRANCH  13  14
ENDBRANCH   9  13
ENDBRANCH   2   3
TORSDOF 10
ENDMDL
MODEL      265
REMARK 921   NORMALIZED FREE ENERGY PREDICTED BY IDOCK:   -2.91 KCAL/MOL
REMARK 922        TOTAL FREE ENERGY PREDICTED BY IDOCK:   -6.57 KCAL/MOL
REMARK 923 INTER-LIGAND FREE ENERGY PREDICTED BY IDOCK:   -6.32 KCAL/MOL
REMARK 924 INTRA-LIGAND FREE ENERGY PREDICTED BY IDOCK:   -0.25 KCAL/MOL
REMARK 927      BINDING AFFINITY PREDICTED BY RF-SCORE:    0.00 PKD
ROOT
HETATM    1  C   UNL     1      -7.888   3.458  65.391  1.00  0.00    -0.082 C  
HETATM    2  O   UNL     1      -7.936   4.865  65.610  1.00  0.00    -0.100 OA 
ENDROOT
BRANCH   2   3
HETATM    3  C   UNL     1      -8.020   5.305  66.907  1.00  0.00    -0.101 A  
HETATM    4  C   UNL     1      -7.343   6.412  67.485  1.00  0.00    -0.091 A  
HETATM    5  C   UNL     1      -8.906   4.522  67.697  1.00  0.00    -0.117 A  
HETATM    6  C   UNL     1      -7.502   6.675  68.846  1.00  0.00    -0.096 A  
HETATM    7  C   UNL     1      -9.045   4.842  69.034  1.00  0.00    -0.150 A  
HETATM    8  C   UNL     1      -8.295   5.837  69.579  1.00  0.00    -0.112 A  
HETATM    9  C   UNL     1      -8.733   5.584  71.000  1.00  0.00    -0.134 C  
HETATM   10  C   UNL     1      -9.797   4.608  70.325  1.00  0.00    -0.314 C  
BRANCH   4  11
HETATM   11  O   UNL     1      -6.571   7.237  66.710  1.00  0.00    -0.052 OA 
HETATM   12  C   UNL     1      -7.149   8.493  66.355  1.00  0.00    -0.079 C  
ENDBRANCH   4  11
BRANCH   9  13
HETATM   13  C   UNL     1      -8.917   6.957  71.659  1.00  0.00    -0.135 C  
BRANCH  13  14
HETATM   14  N   UNL     1     -10.184   7.656  71.434  1.00  0.00    -0.186 NA 
HETATM   15  C   UNL     1     -11.182   7.303  72.430  1.00  0.00    -0.281 C  
BRANCH  14  16
HETATM   16  C   UNL     1     -10.030   9.089  71.153  1.00  0.00    -0.295 C  
BRANCH  16  17
HETATM   17  C   UNL     1      -9.606   9.342  69.709  1.00  0.00    -0.203 C  
BRANCH  17  18
HETATM   18  C   UNL     1     -10.633  10.152  68.908  1.00  0.00    -0.215 C  
BRANCH  18  19
HETATM   19  N   UNL     1     -10.097  11.490  68.643  1.00  0.00    -0.214 N  
HETATM   20  C   UNL     1     -10.851  12.626  69.159  1.00  0.00    -0.077 C  
HETATM   21  C   UNL     1     -11.290  13.571  68.054  1.00  0.00    -0.318 C  
HETATM   22  C   UNL     1     -10.195  14.577  67.835  1.00  0.00    -0.231 A  
HETATM   23  C   UNL     1     -10.467  15.926  68.096  1.00  0.00    -0.270 A  
HETATM   24  C   UNL     1      -9.478  16.901  67.966  1.00  0.00    -0.243 A  
HETATM   25  C   UNL     1      -8.184  16.521  67.570  1.00  0.00    -0.154 A  
HETATM   26  O   UNL     1      -7.964  10.759  68.264  1.00  0.00    -0.109 OA 
HETATM   27  C   UNL     1      -8.824  11.631  68.110  1.00  0.00    -0.164 C  
HETATM   28  C   UNL     1      -7.914  15.167  67.312  1.00  0.00    -0.234 A  
HETATM   29  C   UNL     1      -8.594  12.746  67.094  1.00  0.00    -0.197 C  
HETATM   30  C   UNL     1      -8.907  14.180  67.454  1.00  0.00    -0.211 A  
BRANCH  24  31
HETATM   31  O   UNL     1      -9.692  18.229  68.247  1.00  0.00    -0.302 OA 
HETATM   32  C   UNL     1     -10.304  19.002  67.220  1.00  0.00    -0.424 C  
ENDBRANCH  24  31
BRANCH  25  33
HETATM   33  O   UNL     1      -7.264  17.533  67.454  1.00  0.00    -0.164 OA 
HETATM   34  C   UNL     1      -6.572  17.653  66.219  1.00  0.00    -0.265 C  
ENDBRANCH  25  33
ENDBRANCH  18  19
ENDBRANCH  17  18
ENDBRANCH  16  17
ENDBRANCH  14  16
ENDBRANCH  13  14
ENDBRANCH   9  13
ENDBRANCH   2   3
TORSDOF 10
ENDMDL
MODEL      266
REMARK 921   NORMALIZED FREE ENERGY PREDICTED BY IDOCK:   -2.90 KCAL/MOL
REMARK 922        TOTAL FREE ENERGY PREDICTED BY IDOCK:   -6.56 KCAL/MOL
REMARK 923 INTER-LIGAND FREE ENERGY PREDICTED BY IDOCK:   -7.28 KCAL/MOL
REMARK 924 INTRA-LIGAND FREE ENERGY PREDICTED BY IDOCK:    0.72 KCAL/MOL
REMARK 927      BINDING AFFINITY PREDICTED BY RF-SCORE:    0.00 PKD
ROOT
HETATM    1  C   UNL     1     -10.729   3.945  64.005  1.00  0.00    -0.208 C  
HETATM    2  O   UNL     1      -9.629   3.174  64.480  1.00  0.00    -0.146 OA 
ENDROOT
BRANCH   2   3
HETATM    3  C   UNL     1      -9.206   3.394  65.766  1.00  0.00    -0.155 A  
HETATM    4  C   UNL     1      -9.534   4.495  66.604  1.00  0.00    -0.174 A  
HETATM    5  C   UNL     1      -8.357   2.362  66.250  1.00  0.00    -0.094 A  
HETATM    6  C   UNL     1      -8.957   4.584  67.871  1.00  0.00    -0.133 A  
HETATM    7  C   UNL     1      -7.832   2.490  67.522  1.00  0.00    -0.064 A  
HETATM    8  C   UNL     1      -8.075   3.611  68.251  1.00  0.00    -0.079 A  
HETATM    9  C   UNL     1      -7.138   3.255  69.378  1.00  0.00    -0.041 C  
HETATM   10  C   UNL     1      -7.066   1.839  68.652  1.00  0.00    -0.039 C  
BRANCH   4  11
HETATM   11  O   UNL     1     -10.435   5.440  66.190  1.00  0.00    -0.210 OA 
HETATM   12  C   UNL     1     -10.682   6.517  67.092  1.00  0.00    -0.368 C  
ENDBRANCH   4  11
BRANCH   9  13
HETATM   13  C   UNL     1      -7.833   3.672  70.682  1.00  0.00    -0.053 C  
BRANCH  13  14
HETATM   14  N   UNL     1      -9.147   3.093  70.969  1.00  0.00    -0.102 NA 
HETATM   15  C   UNL     1      -9.067   1.661  71.207  1.00  0.00    -0.074 C  
BRANCH  14  16
HETATM   16  C   UNL     1      -9.938   3.865  71.935  1.00  0.00    -0.168 C  
BRANCH  16  17
HETATM   17  C   UNL     1     -10.219   5.280  71.436  1.00  0.00    -0.279 C  
BRANCH  17  18
HETATM   18  C   UNL     1     -10.578   6.261  72.560  1.00  0.00    -0.212 C  
BRANCH  18  19
HETATM   19  N   UNL     1     -10.808   7.590  71.989  1.00  0.00    -0.226 N  
HETATM   20  C   UNL     1     -11.528   8.555  72.812  1.00  0.00    -0.039 C  
HETATM   21  C   UNL     1     -12.802   9.041  72.142  1.00  0.00    -0.478 C  
HETATM   22  C   UNL     1     -12.459  10.233  71.292  1.00  0.00    -0.514 A  
HETATM   23  C   UNL     1     -13.027  11.470  71.620  1.00  0.00    -0.499 A  
HETATM   24  C   UNL     1     -12.707  12.625  70.906  1.00  0.00    -0.188 A  
HETATM   25  C   UNL     1     -11.793  12.544  69.841  1.00  0.00    -0.303 A  
HETATM   26  O   UNL     1      -9.116   7.427  70.459  1.00  0.00    -0.155 OA 
HETATM   27  C   UNL     1     -10.176   7.955  70.809  1.00  0.00    -0.194 C  
HETATM   28  C   UNL     1     -11.222  11.303  69.517  1.00  0.00    -0.337 A  
HETATM   29  C   UNL     1     -10.956   8.809  69.815  1.00  0.00    -0.146 C  
HETATM   30  C   UNL     1     -11.535  10.138  70.244  1.00  0.00    -0.381 A  
BRANCH  24  31
HETATM   31  O   UNL     1     -13.213  13.864  71.216  1.00  0.00    -0.325 OA 
HETATM   32  C   UNL     1     -13.497  14.105  72.590  1.00  0.00    -0.534 C  
ENDBRANCH  24  31
BRANCH  25  33
HETATM   33  O   UNL     1     -11.531  13.716  69.177  1.00  0.00    -0.261 OA 
HETATM   34  C   UNL     1     -10.686  14.661  69.821  1.00  0.00    -0.104 C  
ENDBRANCH  25  33
ENDBRANCH  18  19
ENDBRANCH  17  18
ENDBRANCH  16  17
ENDBRANCH  14  16
ENDBRANCH  13  14
ENDBRANCH   9  13
ENDBRANCH   2   3
TORSDOF 10
ENDMDL
MODEL      267
REMARK 921   NORMALIZED FREE ENERGY PREDICTED BY IDOCK:   -2.90 KCAL/MOL
REMARK 922        TOTAL FREE ENERGY PREDICTED BY IDOCK:   -6.56 KCAL/MOL
REMARK 923 INTER-LIGAND FREE ENERGY PREDICTED BY IDOCK:   -5.37 KCAL/MOL
REMARK 924 INTRA-LIGAND FREE ENERGY PREDICTED BY IDOCK:   -1.19 KCAL/MOL
REMARK 927      BINDING AFFINITY PREDICTED BY RF-SCORE:    0.00 PKD
ROOT
HETATM    1  C   UNL     1      -7.837   5.466  72.072  1.00  0.00    -0.106 C  
HETATM    2  O   UNL     1      -7.926   6.775  72.626  1.00  0.00    -0.100 OA 
ENDROOT
BRANCH   2   3
HETATM    3  C   UNL     1      -8.733   7.683  71.989  1.00  0.00    -0.117 A  
HETATM    4  C   UNL     1     -10.139   7.831  72.128  1.00  0.00    -0.210 A  
HETATM    5  C   UNL     1      -8.011   8.542  71.116  1.00  0.00    -0.144 A  
HETATM    6  C   UNL     1     -10.807   8.775  71.348  1.00  0.00    -0.359 A  
HETATM    7  C   UNL     1      -8.720   9.476  70.384  1.00  0.00    -0.265 A  
HETATM    8  C   UNL     1     -10.077   9.512  70.457  1.00  0.00    -0.347 A  
HETATM    9  C   UNL     1     -10.252  10.536  69.364  1.00  0.00    -0.245 C  
HETATM   10  C   UNL     1      -8.669  10.680  69.471  1.00  0.00     0.030 C  
BRANCH   4  11
HETATM   11  O   UNL     1     -10.830   7.083  73.045  1.00  0.00    -0.269 OA 
HETATM   12  C   UNL     1     -11.611   6.009  72.524  1.00  0.00    -0.267 C  
ENDBRANCH   4  11
BRANCH   9  13
HETATM   13  C   UNL     1     -11.372  11.483  69.818  1.00  0.00    -0.226 C  
BRANCH  13  14
HETATM   14  N   UNL     1     -11.664  12.646  68.977  1.00  0.00    -0.305 NA 
HETATM   15  C   UNL     1     -10.751  13.745  69.237  1.00  0.00    -0.055 C  
BRANCH  14  16
HETATM   16  C   UNL     1     -11.892  12.315  67.565  1.00  0.00    -0.261 C  
BRANCH  16  17
HETATM   17  C   UNL     1     -10.652  12.575  66.713  1.00  0.00    -0.253 C  
BRANCH  17  18
HETATM   18  C   UNL     1     -10.817  12.141  65.251  1.00  0.00    -0.293 C  
BRANCH  18  19
HETATM   19  N   UNL     1     -10.153  10.851  65.049  1.00  0.00    -0.279 N  
HETATM   20  C   UNL     1     -10.722   9.693  65.728  1.00  0.00     0.666 C  
HETATM   21  C   UNL     1      -9.726   9.034  66.667  1.00  0.00    -0.295 C  
HETATM   22  C   UNL     1      -8.945   8.016  65.884  1.00  0.00    -0.181 A  
HETATM   23  C   UNL     1      -9.064   6.667  66.241  1.00  0.00    -0.168 A  
HETATM   24  C   UNL     1      -8.411   5.668  65.519  1.00  0.00    -0.139 A  
HETATM   25  C   UNL     1      -7.623   6.023  64.411  1.00  0.00    -0.093 A  
HETATM   26  O   UNL     1      -9.121  11.481  63.108  1.00  0.00    -0.204 OA 
HETATM   27  C   UNL     1      -9.162  10.727  64.085  1.00  0.00    -0.224 C  
HETATM   28  C   UNL     1      -7.509   7.376  64.053  1.00  0.00    -0.100 A  
HETATM   29  C   UNL     1      -7.966   9.835  64.400  1.00  0.00    -0.145 C  
HETATM   30  C   UNL     1      -8.177   8.385  64.772  1.00  0.00    -0.162 A  
BRANCH  24  31
HETATM   31  O   UNL     1      -8.529   4.331  65.813  1.00  0.00    -0.112 OA 
HETATM   32  C   UNL     1      -7.640   3.819  66.799  1.00  0.00    -0.080 C  
ENDBRANCH  24  31
BRANCH  25  33
HETATM   33  O   UNL     1      -7.002   4.990  63.753  1.00  0.00    -0.046 OA 
HETATM   34  C   UNL     1      -5.584   5.026  63.665  1.00  0.00    -0.017 C  
ENDBRANCH  25  33
ENDBRANCH  18  19
ENDBRANCH  17  18
ENDBRANCH  16  17
ENDBRANCH  14  16
ENDBRANCH  13  14
ENDBRANCH   9  13
ENDBRANCH   2   3
TORSDOF 10
ENDMDL
MODEL      268
REMARK 921   NORMALIZED FREE ENERGY PREDICTED BY IDOCK:   -2.88 KCAL/MOL
REMARK 922        TOTAL FREE ENERGY PREDICTED BY IDOCK:   -6.53 KCAL/MOL
REMARK 923 INTER-LIGAND FREE ENERGY PREDICTED BY IDOCK:   -5.87 KCAL/MOL
REMARK 924 INTRA-LIGAND FREE ENERGY PREDICTED BY IDOCK:   -0.66 KCAL/MOL
REMARK 927      BINDING AFFINITY PREDICTED BY RF-SCORE:    0.00 PKD
ROOT
HETATM    1  C   UNL     1     -10.119  19.697  65.794  1.00  0.00    -0.292 C  
HETATM    2  O   UNL     1      -8.910  18.969  65.988  1.00  0.00    -0.460 OA 
ENDROOT
BRANCH   2   3
HETATM    3  C   UNL     1      -9.011  17.666  66.402  1.00  0.00    -0.231 A  
HETATM    4  C   UNL     1      -8.003  16.880  67.024  1.00  0.00    -0.196 A  
HETATM    5  C   UNL     1     -10.296  17.109  66.158  1.00  0.00    -0.327 A  
HETATM    6  C   UNL     1      -8.267  15.543  67.323  1.00  0.00    -0.224 A  
HETATM    7  C   UNL     1     -10.510  15.786  66.497  1.00  0.00    -0.304 A  
HETATM    8  C   UNL     1      -9.489  15.033  66.984  1.00  0.00    -0.240 A  
HETATM    9  C   UNL     1     -10.253  13.732  66.972  1.00  0.00    -0.254 C  
HETATM   10  C   UNL     1     -11.509  14.662  66.658  1.00  0.00    -0.363 C  
BRANCH   4  11
HETATM   11  O   UNL     1      -6.798  17.436  67.363  1.00  0.00    -0.152 OA 
HETATM   12  C   UNL     1      -6.177  16.929  68.543  1.00  0.00    -0.146 C  
ENDBRANCH   4  11
BRANCH   9  13
HETATM   13  C   UNL     1      -9.866  12.979  68.252  1.00  0.00    -0.225 C  
BRANCH  13  14
HETATM   14  N   UNL     1     -10.634  11.781  68.597  1.00  0.00    -0.218 NA 
HETATM   15  C   UNL     1     -11.896  11.722  67.879  1.00  0.00    -0.219 C  
BRANCH  14  16
HETATM   16  C   UNL     1      -9.838  10.547  68.608  1.00  0.00    -0.178 C  
BRANCH  16  17
HETATM   17  C   UNL     1      -8.475  10.746  67.950  1.00  0.00    -0.122 C  
BRANCH  17  18
HETATM   18  C   UNL     1      -7.298  10.438  68.886  1.00  0.00    -0.094 C  
BRANCH  18  19
HETATM   19  N   UNL     1      -7.452   9.086  69.430  1.00  0.00    -0.075 N  
HETATM   20  C   UNL     1      -7.368   7.974  68.491  1.00  0.00    -0.097 C  
HETATM   21  C   UNL     1      -8.635   7.136  68.482  1.00  0.00    -0.124 C  
HETATM   22  C   UNL     1      -8.502   6.073  69.536  1.00  0.00    -0.119 A  
HETATM   23  C   UNL     1      -8.484   4.732  69.132  1.00  0.00    -0.087 A  
HETATM   24  C   UNL     1      -8.308   3.701  70.054  1.00  0.00    -0.055 A  
HETATM   25  C   UNL     1      -8.140   4.016  71.413  1.00  0.00    -0.073 A  
HETATM   26  O   UNL     1      -6.913   9.690  71.569  1.00  0.00    -0.316 OA 
HETATM   27  C   UNL     1      -7.462   8.892  70.804  1.00  0.00    -0.099 C  
HETATM   28  C   UNL     1      -8.153   5.361  71.815  1.00  0.00    -0.118 A  
HETATM   29  C   UNL     1      -8.404   7.833  71.369  1.00  0.00    -0.118 C  
HETATM   30  C   UNL     1      -8.319   6.404  70.885  1.00  0.00    -0.126 A  
BRANCH  24  31
HETATM   31  O   UNL     1      -8.248   2.376  69.696  1.00  0.00    -0.044 OA 
HETATM   32  C   UNL     1      -7.041   1.941  69.080  1.00  0.00    -0.039 C  
ENDBRANCH  24  31
BRANCH  25  33
HETATM   33  O   UNL     1      -7.980   2.952  72.266  1.00  0.00    -0.054 OA 
HETATM   34  C   UNL     1      -9.021   2.694  73.198  1.00  0.00    -0.081 C  
ENDBRANCH  25  33
ENDBRANCH  18  19
ENDBRANCH  17  18
ENDBRANCH  16  17
ENDBRANCH  14  16
ENDBRANCH  13  14
ENDBRANCH   9  13
ENDBRANCH   2   3
TORSDOF 10
ENDMDL
MODEL      269
REMARK 921   NORMALIZED FREE ENERGY PREDICTED BY IDOCK:   -2.82 KCAL/MOL
REMARK 922        TOTAL FREE ENERGY PREDICTED BY IDOCK:   -6.43 KCAL/MOL
REMARK 923 INTER-LIGAND FREE ENERGY PREDICTED BY IDOCK:   -6.07 KCAL/MOL
REMARK 924 INTRA-LIGAND FREE ENERGY PREDICTED BY IDOCK:   -0.36 KCAL/MOL
REMARK 927      BINDING AFFINITY PREDICTED BY RF-SCORE:    0.00 PKD
ROOT
HETATM    1  C   UNL     1      -8.930   2.083  64.777  1.00  0.00    -0.124 C  
HETATM    2  O   UNL     1      -9.005   2.099  66.199  1.00  0.00    -0.128 OA 
ENDROOT
BRANCH   2   3
HETATM    3  C   UNL     1      -8.746   3.285  66.837  1.00  0.00    -0.125 A  
HETATM    4  C   UNL     1      -8.121   3.465  68.101  1.00  0.00    -0.074 A  
HETATM    5  C   UNL     1      -9.169   4.417  66.086  1.00  0.00    -0.141 A  
HETATM    6  C   UNL     1      -7.995   4.752  68.623  1.00  0.00    -0.080 A  
HETATM    7  C   UNL     1      -8.998   5.670  66.642  1.00  0.00    -0.120 A  
HETATM    8  C   UNL     1      -8.501   5.797  67.901  1.00  0.00    -0.103 A  
HETATM    9  C   UNL     1      -8.726   7.285  67.995  1.00  0.00    -0.127 C  
HETATM   10  C   UNL     1      -9.054   7.168  66.440  1.00  0.00    -0.189 C  
BRANCH   4  11
HETATM   11  O   UNL     1      -7.612   2.391  68.783  1.00  0.00    -0.047 OA 
HETATM   12  C   UNL     1      -6.264   2.033  68.482  1.00  0.00    -0.025 C  
ENDBRANCH   4  11
BRANCH   9  13
HETATM   13  C   UNL     1      -7.505   7.874  68.715  1.00  0.00    -0.095 C  
BRANCH  13  14
HETATM   14  N   UNL     1      -6.456   8.481  67.893  1.00  0.00    -0.056 NA 
HETATM   15  C   UNL     1      -5.810   7.505  67.031  1.00  0.00    -0.039 C  
BRANCH  14  16
HETATM   16  C   UNL     1      -6.857   9.741  67.255  1.00  0.00    -0.083 C  
BRANCH  16  17
HETATM   17  C   UNL     1      -7.983  10.431  68.020  1.00  0.00    -0.105 C  
BRANCH  17  18
HETATM   18  C   UNL     1      -9.168  10.827  67.129  1.00  0.00    -0.147 C  
BRANCH  18  19
HETATM   19  N   UNL     1      -9.199  12.284  66.980  1.00  0.00    -0.198 N  
HETATM   20  C   UNL     1      -8.055  13.032  67.489  1.00  0.00    -0.179 C  
HETATM   21  C   UNL     1      -8.457  14.039  68.552  1.00  0.00    -0.143 C  
HETATM   22  C   UNL     1      -8.815  15.328  67.866  1.00  0.00    -0.165 A  
HETATM   23  C   UNL     1      -8.035  16.461  68.126  1.00  0.00    -0.160 A  
HETATM   24  C   UNL     1      -8.280  17.672  67.479  1.00  0.00    -0.216 A  
HETATM   25  C   UNL     1      -9.328  17.753  66.545  1.00  0.00    -0.279 A  
HETATM   26  O   UNL     1     -10.732  12.261  65.284  1.00  0.00    -0.275 OA 
HETATM   27  C   UNL     1     -10.179  12.879  66.199  1.00  0.00    -0.278 C  
HETATM   28  C   UNL     1     -10.106  16.614  66.283  1.00  0.00    -0.342 A  
HETATM   29  C   UNL     1     -10.761  14.207  66.671  1.00  0.00    -0.289 C  
HETATM   30  C   UNL     1      -9.852  15.388  66.926  1.00  0.00    -0.251 A  
BRANCH  24  31
HETATM   31  O   UNL     1      -7.518  18.797  67.678  1.00  0.00    -0.227 OA 
HETATM   32  C   UNL     1      -7.408  19.257  69.021  1.00  0.00    -0.345 C  
ENDBRANCH  24  31
BRANCH  25  33
HETATM   33  O   UNL     1      -9.518  18.977  65.954  1.00  0.00    -0.450 OA 
HETATM   34  C   UNL     1     -10.659  19.727  66.347  1.00  0.00    -0.464 C  
ENDBRANCH  25  33
ENDBRANCH  18  19
ENDBRANCH  17  18
ENDBRANCH  16  17
ENDBRANCH  14  16
ENDBRANCH  13  14
ENDBRANCH   9  13
ENDBRANCH   2   3
TORSDOF 10
ENDMDL
MODEL      270
REMARK 921   NORMALIZED FREE ENERGY PREDICTED BY IDOCK:   -2.73 KCAL/MOL
REMARK 922        TOTAL FREE ENERGY PREDICTED BY IDOCK:   -6.29 KCAL/MOL
REMARK 923 INTER-LIGAND FREE ENERGY PREDICTED BY IDOCK:   -4.74 KCAL/MOL
REMARK 924 INTRA-LIGAND FREE ENERGY PREDICTED BY IDOCK:   -1.55 KCAL/MOL
REMARK 927      BINDING AFFINITY PREDICTED BY RF-SCORE:    0.00 PKD
ROOT
HETATM    1  C   UNL     1      -8.385   8.945  73.719  1.00  0.00     0.734 C  
HETATM    2  O   UNL     1      -8.809   9.429  72.449  1.00  0.00     0.289 OA 
ENDROOT
BRANCH   2   3
HETATM    3  C   UNL     1      -8.477   8.688  71.343  1.00  0.00    -0.188 A  
HETATM    4  C   UNL     1      -9.338   7.865  70.568  1.00  0.00    -0.162 A  
HETATM    5  C   UNL     1      -7.106   8.815  70.987  1.00  0.00    -0.084 A  
HETATM    6  C   UNL     1      -8.809   7.132  69.506  1.00  0.00    -0.137 A  
HETATM    7  C   UNL     1      -6.640   8.084  69.911  1.00  0.00    -0.036 A  
HETATM    8  C   UNL     1      -7.466   7.220  69.264  1.00  0.00    -0.096 A  
HETATM    9  C   UNL     1      -6.394   6.630  68.382  1.00  0.00    -0.038 C  
HETATM   10  C   UNL     1      -5.500   7.820  68.953  1.00  0.00    -0.026 C  
BRANCH   4  11
HETATM   11  O   UNL     1     -10.681   7.819  70.834  1.00  0.00    -0.217 OA 
HETATM   12  C   UNL     1     -11.249   6.521  70.999  1.00  0.00    -0.309 C  
ENDBRANCH   4  11
BRANCH   9  13
HETATM   13  C   UNL     1      -7.020   6.431  66.995  1.00  0.00    -0.071 C  
BRANCH  13  14
HETATM   14  N   UNL     1      -6.117   6.197  65.867  1.00  0.00    -0.032 NA 
HETATM   15  C   UNL     1      -5.318   4.997  66.051  1.00  0.00    -0.013 C  
BRANCH  14  16
HETATM   16  C   UNL     1      -6.754   6.354  64.553  1.00  0.00    -0.038 C  
BRANCH  16  17
HETATM   17  C   UNL     1      -6.897   7.823  64.164  1.00  0.00    -0.061 C  
BRANCH  17  18
HETATM   18  C   UNL     1      -8.291   8.177  63.630  1.00  0.00     0.013 C  
BRANCH  18  19
HETATM   19  N   UNL     1      -8.771   9.392  64.292  1.00  0.00    -0.201 N  
HETATM   20  C   UNL     1      -8.622   9.467  65.741  1.00  0.00    -0.145 C  
HETATM   21  C   UNL     1      -9.956   9.642  66.445  1.00  0.00    -0.323 C  
HETATM   22  C   UNL     1     -10.246  11.114  66.540  1.00  0.00    -0.275 A  
HETATM   23  C   UNL     1     -10.327  11.697  67.812  1.00  0.00    -0.202 A  
HETATM   24  C   UNL     1     -10.537  13.067  67.967  1.00  0.00    -0.235 A  
HETATM   25  C   UNL     1     -10.667  13.877  66.825  1.00  0.00    -0.281 A  
HETATM   26  O   UNL     1      -8.696  10.674  62.400  1.00  0.00    -0.213 OA 
HETATM   27  C   UNL     1      -9.150  10.490  63.533  1.00  0.00    -0.247 C  
HETATM   28  C   UNL     1     -10.581  13.291  65.552  1.00  0.00    -0.295 A  
HETATM   29  C   UNL     1     -10.347  11.308  64.007  1.00  0.00    -0.430 C  
HETATM   30  C   UNL     1     -10.356  11.910  65.393  1.00  0.00    -0.306 A  
BRANCH  24  31
HETATM   31  O   UNL     1     -10.587  13.685  69.193  1.00  0.00    -0.176 OA 
HETATM   32  C   UNL     1     -11.854  13.702  69.841  1.00  0.00    -0.320 C  
ENDBRANCH  24  31
BRANCH  25  33
HETATM   33  O   UNL     1     -10.881  15.214  67.052  1.00  0.00    -0.303 OA 
HETATM   34  C   UNL     1     -10.107  16.140  66.302  1.00  0.00    -0.321 C  
ENDBRANCH  25  33
ENDBRANCH  18  19
ENDBRANCH  17  18
ENDBRANCH  16  17
ENDBRANCH  14  16
ENDBRANCH  13  14
ENDBRANCH   9  13
ENDBRANCH   2   3
TORSDOF 10
ENDMDL
MODEL      271
REMARK 921   NORMALIZED FREE ENERGY PREDICTED BY IDOCK:   -2.70 KCAL/MOL
REMARK 922        TOTAL FREE ENERGY PREDICTED BY IDOCK:   -6.24 KCAL/MOL
REMARK 923 INTER-LIGAND FREE ENERGY PREDICTED BY IDOCK:   -5.85 KCAL/MOL
REMARK 924 INTRA-LIGAND FREE ENERGY PREDICTED BY IDOCK:   -0.39 KCAL/MOL
REMARK 927      BINDING AFFINITY PREDICTED BY RF-SCORE:    0.00 PKD
ROOT
HETATM    1  C   UNL     1      -8.196  20.213  65.766  1.00  0.00    -0.012 C  
HETATM    2  O   UNL     1      -9.345  19.414  66.031  1.00  0.00    -0.397 OA 
ENDROOT
BRANCH   2   3
HETATM    3  C   UNL     1      -9.143  18.106  66.391  1.00  0.00    -0.241 A  
HETATM    4  C   UNL     1      -7.980  17.547  66.987  1.00  0.00    -0.216 A  
HETATM    5  C   UNL     1     -10.266  17.279  66.115  1.00  0.00    -0.338 A  
HETATM    6  C   UNL     1      -7.928  16.174  67.228  1.00  0.00    -0.203 A  
HETATM    7  C   UNL     1     -10.169  15.930  66.396  1.00  0.00    -0.311 A  
HETATM    8  C   UNL     1      -9.001  15.411  66.859  1.00  0.00    -0.273 A  
HETATM    9  C   UNL     1      -9.445  13.972  66.788  1.00  0.00    -0.292 C  
HETATM   10  C   UNL     1     -10.882  14.600  66.504  1.00  0.00    -0.315 C  
BRANCH   4  11
HETATM   11  O   UNL     1      -6.934  18.351  67.357  1.00  0.00    -0.200 OA 
HETATM   12  C   UNL     1      -6.615  18.373  68.747  1.00  0.00    -0.247 C  
ENDBRANCH   4  11
BRANCH   9  13
HETATM   13  C   UNL     1      -8.892  13.274  68.038  1.00  0.00    -0.190 C  
BRANCH  13  14
HETATM   14  N   UNL     1      -7.585  12.623  67.934  1.00  0.00    -0.118 NA 
HETATM   15  C   UNL     1      -6.782  12.827  69.127  1.00  0.00    -0.080 C  
BRANCH  14  16
HETATM   16  C   UNL     1      -7.646  11.248  67.422  1.00  0.00    -0.120 C  
BRANCH  16  17
HETATM   17  C   UNL     1      -7.593  11.207  65.898  1.00  0.00     0.085 C  
BRANCH  17  18
HETATM   18  C   UNL     1      -8.897  10.714  65.257  1.00  0.00    -0.189 C  
BRANCH  18  19
HETATM   19  N   UNL     1      -8.887   9.251  65.199  1.00  0.00    -0.188 N  
HETATM   20  C   UNL     1      -9.487   8.533  66.318  1.00  0.00    -0.231 C  
HETATM   21  C   UNL     1      -8.495   7.610  67.004  1.00  0.00    -0.125 C  
HETATM   22  C   UNL     1      -8.536   6.277  66.309  1.00  0.00    -0.138 A  
HETATM   23  C   UNL     1      -8.965   5.160  67.036  1.00  0.00    -0.112 A  
HETATM   24  C   UNL     1      -9.079   3.907  66.435  1.00  0.00    -0.147 A  
HETATM   25  C   UNL     1      -8.763   3.765  65.073  1.00  0.00    -0.115 A  
HETATM   26  O   UNL     1      -8.620   9.161  62.930  1.00  0.00    -0.205 OA 
HETATM   27  C   UNL     1      -8.511   8.608  64.028  1.00  0.00    -0.066 C  
HETATM   28  C   UNL     1      -8.338   4.888  64.345  1.00  0.00    -0.133 A  
HETATM   29  C   UNL     1      -7.698   7.323  64.147  1.00  0.00    -0.120 C  
HETATM   30  C   UNL     1      -8.233   6.157  64.947  1.00  0.00    -0.125 A  
BRANCH  24  31
HETATM   31  O   UNL     1      -9.530   2.793  67.102  1.00  0.00    -0.141 OA 
HETATM   32  C   UNL     1      -8.923   2.521  68.361  1.00  0.00    -0.136 C  
ENDBRANCH  24  31
BRANCH  25  33
HETATM   33  O   UNL     1      -8.890   2.503  64.550  1.00  0.00    -0.101 OA 
HETATM   34  C   UNL     1      -9.670   2.356  63.370  1.00  0.00    -0.106 C  
ENDBRANCH  25  33
ENDBRANCH  18  19
ENDBRANCH  17  18
ENDBRANCH  16  17
ENDBRANCH  14  16
ENDBRANCH  13  14
ENDBRANCH   9  13
ENDBRANCH   2   3
TORSDOF 10
ENDMDL
MODEL      272
REMARK 921   NORMALIZED FREE ENERGY PREDICTED BY IDOCK:   -2.66 KCAL/MOL
REMARK 922        TOTAL FREE ENERGY PREDICTED BY IDOCK:   -6.17 KCAL/MOL
REMARK 923 INTER-LIGAND FREE ENERGY PREDICTED BY IDOCK:   -5.84 KCAL/MOL
REMARK 924 INTRA-LIGAND FREE ENERGY PREDICTED BY IDOCK:   -0.34 KCAL/MOL
REMARK 927      BINDING AFFINITY PREDICTED BY RF-SCORE:    0.00 PKD
ROOT
HETATM    1  C   UNL     1      -5.598  14.251  72.365  1.00  0.00    -0.080 C  
HETATM    2  O   UNL     1      -5.179  13.756  71.097  1.00  0.00    -0.124 OA 
ENDROOT
BRANCH   2   3
HETATM    3  C   UNL     1      -5.617  12.511  70.723  1.00  0.00    -0.157 A  
HETATM    4  C   UNL     1      -6.375  12.175  69.569  1.00  0.00    -0.122 A  
HETATM    5  C   UNL     1      -5.223  11.493  71.635  1.00  0.00     0.086 A  
HETATM    6  C   UNL     1      -6.787  10.856  69.382  1.00  0.00    -0.114 A  
HETATM    7  C   UNL     1      -5.639  10.198  71.388  1.00  0.00    -0.012 A  
HETATM    8  C   UNL     1      -6.459   9.934  70.337  1.00  0.00    -0.115 A  
HETATM    9  C   UNL     1      -6.692   8.488  70.697  1.00  0.00    -0.040 C  
HETATM   10  C   UNL     1      -5.532   8.737  71.761  1.00  0.00    -0.047 C  
BRANCH   4  11
HETATM   11  O   UNL     1      -6.667  13.128  68.628  1.00  0.00    -0.083 OA 
HETATM   12  C   UNL     1      -5.862  14.305  68.650  1.00  0.00    -0.086 C  
ENDBRANCH   4  11
BRANCH   9  13
HETATM   13  C   UNL     1      -6.684   7.696  69.382  1.00  0.00    -0.040 C  
BRANCH  13  14
HETATM   14  N   UNL     1      -7.895   6.953  69.027  1.00  0.00    -0.110 NA 
HETATM   15  C   UNL     1      -8.226   5.949  70.024  1.00  0.00    -0.121 C  
BRANCH  14  16
HETATM   16  C   UNL     1      -9.002   7.803  68.572  1.00  0.00    -0.133 C  
BRANCH  16  17
HETATM   17  C   UNL     1      -9.136   7.795  67.052  1.00  0.00    -0.162 C  
BRANCH  17  18
HETATM   18  C   UNL     1     -10.490   8.321  66.558  1.00  0.00     0.012 C  
BRANCH  18  19
HETATM   19  N   UNL     1     -10.466   9.786  66.543  1.00  0.00    -0.182 N  
HETATM   20  C   UNL     1     -10.752  10.472  67.797  1.00  0.00    -0.272 C  
HETATM   21  C   UNL     1     -11.955  11.393  67.685  1.00  0.00     0.002 C  
HETATM   22  C   UNL     1     -11.474  12.739  67.220  1.00  0.00    -0.393 A  
HETATM   23  C   UNL     1     -11.634  13.836  68.077  1.00  0.00    -0.368 A  
HETATM   24  C   UNL     1     -11.158  15.100  67.729  1.00  0.00    -0.313 A  
HETATM   25  C   UNL     1     -10.503  15.274  66.498  1.00  0.00    -0.298 A  
HETATM   26  O   UNL     1      -9.177   9.927  64.659  1.00  0.00    -0.225 OA 
HETATM   27  C   UNL     1      -9.984  10.457  65.429  1.00  0.00    -0.295 C  
HETATM   28  C   UNL     1     -10.341  14.172  65.643  1.00  0.00    -0.348 A  
HETATM   29  C   UNL     1     -10.681  11.750  65.016  1.00  0.00    -0.344 C  
HETATM   30  C   UNL     1     -10.809  12.892  65.997  1.00  0.00    -0.300 A  
BRANCH  24  31
HETATM   31  O   UNL     1     -11.262  16.194  68.554  1.00  0.00    -0.337 OA 
HETATM   32  C   UNL     1     -11.396  15.926  69.945  1.00  0.00    -0.348 C  
ENDBRANCH  24  31
BRANCH  25  33
HETATM   33  O   UNL     1     -10.069  16.545  66.217  1.00  0.00    -0.300 OA 
HETATM   34  C   UNL     1      -8.696  16.715  65.895  1.00  0.00    -0.066 C  
ENDBRANCH  25  33
ENDBRANCH  18  19
ENDBRANCH  17  18
ENDBRANCH  16  17
ENDBRANCH  14  16
ENDBRANCH  13  14
ENDBRANCH   9  13
ENDBRANCH   2   3
TORSDOF 10
ENDMDL
MODEL      273
REMARK 921   NORMALIZED FREE ENERGY PREDICTED BY IDOCK:   -2.65 KCAL/MOL
REMARK 922        TOTAL FREE ENERGY PREDICTED BY IDOCK:   -6.16 KCAL/MOL
REMARK 923 INTER-LIGAND FREE ENERGY PREDICTED BY IDOCK:   -4.64 KCAL/MOL
REMARK 924 INTRA-LIGAND FREE ENERGY PREDICTED BY IDOCK:   -1.52 KCAL/MOL
REMARK 927      BINDING AFFINITY PREDICTED BY RF-SCORE:    0.00 PKD
ROOT
HETATM    1  C   UNL     1     -10.920  13.083  63.977  1.00  0.00    -0.389 C  
HETATM    2  O   UNL     1     -11.048  13.588  65.302  1.00  0.00    -0.289 OA 
ENDROOT
BRANCH   2   3
HETATM    3  C   UNL     1     -10.581  12.807  66.328  1.00  0.00    -0.257 A  
HETATM    4  C   UNL     1      -9.417  13.022  67.114  1.00  0.00    -0.230 A  
HETATM    5  C   UNL     1     -11.410  11.679  66.582  1.00  0.00    -0.338 A  
HETATM    6  C   UNL     1      -9.061  12.082  68.081  1.00  0.00    -0.191 A  
HETATM    7  C   UNL     1     -11.022  10.792  67.569  1.00  0.00    -0.372 A  
HETATM    8  C   UNL     1      -9.843  10.970  68.221  1.00  0.00    -0.185 A  
HETATM    9  C   UNL     1      -9.899   9.665  68.976  1.00  0.00    -0.183 C  
HETATM   10  C   UNL     1     -11.389   9.593  68.414  1.00  0.00     0.109 C  
BRANCH   4  11
HETATM   11  O   UNL     1      -8.670  14.160  66.952  1.00  0.00    -0.215 OA 
HETATM   12  C   UNL     1      -9.313  15.390  67.285  1.00  0.00    -0.210 C  
ENDBRANCH   4  11
BRANCH   9  13
HETATM   13  C   UNL     1      -9.381   9.948  70.392  1.00  0.00    -0.004 C  
BRANCH  13  14
HETATM   14  N   UNL     1      -9.454   8.866  71.375  1.00  0.00    -0.260 NA 
HETATM   15  C   UNL     1     -10.251   7.750  70.893  1.00  0.00    -0.199 C  
BRANCH  14  16
HETATM   16  C   UNL     1      -8.160   8.523  71.978  1.00  0.00    -0.117 C  
BRANCH  16  17
HETATM   17  C   UNL     1      -8.034   7.023  72.237  1.00  0.00    -0.092 C  
BRANCH  17  18
HETATM   18  C   UNL     1      -6.771   6.405  71.624  1.00  0.00    -0.063 C  
BRANCH  18  19
HETATM   19  N   UNL     1      -7.004   6.131  70.204  1.00  0.00    -0.060 N  
HETATM   20  C   UNL     1      -6.189   6.861  69.240  1.00  0.00    -0.030 C  
HETATM   21  C   UNL     1      -7.033   7.690  68.287  1.00  0.00    -0.072 C  
HETATM   22  C   UNL     1      -7.400   6.827  67.112  1.00  0.00    -0.086 A  
HETATM   23  C   UNL     1      -6.925   7.189  65.846  1.00  0.00    -0.065 A  
HETATM   24  C   UNL     1      -7.183   6.401  64.724  1.00  0.00    -0.064 A  
HETATM   25  C   UNL     1      -7.929   5.219  64.871  1.00  0.00    -0.105 A  
HETATM   26  O   UNL     1      -7.983   4.098  70.569  1.00  0.00    -0.054 OA 
HETATM   27  C   UNL     1      -7.816   5.071  69.829  1.00  0.00    -0.071 C  
HETATM   28  C   UNL     1      -8.401   4.856  66.143  1.00  0.00    -0.112 A  
HETATM   29  C   UNL     1      -8.722   5.258  68.615  1.00  0.00    -0.096 C  
HETATM   30  C   UNL     1      -8.131   5.644  67.278  1.00  0.00    -0.102 A  
BRANCH  24  31
HETATM   31  O   UNL     1      -6.706   6.699  63.471  1.00  0.00    -0.046 OA 
HETATM   32  C   UNL     1      -7.223   7.877  62.862  1.00  0.00    -0.091 C  
ENDBRANCH  24  31
BRANCH  25  33
HETATM   33  O   UNL     1      -8.152   4.497  63.725  1.00  0.00    -0.089 OA 
HETATM   34  C   UNL     1      -9.478   4.470  63.213  1.00  0.00    -0.011 C  
ENDBRANCH  25  33
ENDBRANCH  18  19
ENDBRANCH  17  18
ENDBRANCH  16  17
ENDBRANCH  14  16
ENDBRANCH  13  14
ENDBRANCH   9  13
ENDBRANCH   2   3
TORSDOF 10
ENDMDL
MODEL      274
REMARK 921   NORMALIZED FREE ENERGY PREDICTED BY IDOCK:   -2.64 KCAL/MOL
REMARK 922        TOTAL FREE ENERGY PREDICTED BY IDOCK:   -6.15 KCAL/MOL
REMARK 923 INTER-LIGAND FREE ENERGY PREDICTED BY IDOCK:   -7.30 KCAL/MOL
REMARK 924 INTRA-LIGAND FREE ENERGY PREDICTED BY IDOCK:    1.15 KCAL/MOL
REMARK 927      BINDING AFFINITY PREDICTED BY RF-SCORE:    0.00 PKD
ROOT
HETATM    1  C   UNL     1      -6.194  20.524  70.276  1.00  0.00    -0.065 C  
HETATM    2  O   UNL     1      -6.018  19.713  69.118  1.00  0.00    -0.240 OA 
ENDROOT
BRANCH   2   3
HETATM    3  C   UNL     1      -6.776  18.575  69.017  1.00  0.00    -0.272 A  
HETATM    4  C   UNL     1      -8.158  18.487  68.696  1.00  0.00    -0.310 A  
HETATM    5  C   UNL     1      -6.028  17.391  69.265  1.00  0.00    -0.219 A  
HETATM    6  C   UNL     1      -8.782  17.240  68.699  1.00  0.00    -0.268 A  
HETATM    7  C   UNL     1      -6.692  16.180  69.231  1.00  0.00    -0.198 A  
HETATM    8  C   UNL     1      -8.036  16.144  69.034  1.00  0.00    -0.237 A  
HETATM    9  C   UNL     1      -8.178  14.663  69.282  1.00  0.00    -0.003 C  
HETATM   10  C   UNL     1      -6.584  14.672  69.248  1.00  0.00    -0.128 C  
BRANCH   4  11
HETATM   11  O   UNL     1      -8.864  19.609  68.349  1.00  0.00    -0.340 OA 
HETATM   12  C   UNL     1     -10.192  19.398  67.873  1.00  0.00    -0.420 C  
ENDBRANCH   4  11
BRANCH   9  13
HETATM   13  C   UNL     1      -9.193  14.136  68.259  1.00  0.00    -0.198 C  
BRANCH  13  14
HETATM   14  N   UNL     1      -9.560  15.016  67.147  1.00  0.00    -0.213 NA 
HETATM   15  C   UNL     1      -9.468  14.337  65.866  1.00  0.00    -0.125 C  
BRANCH  14  16
HETATM   16  C   UNL     1     -10.785  15.790  67.382  1.00  0.00    -0.317 C  
BRANCH  16  17
HETATM   17  C   UNL     1     -11.900  14.926  67.966  1.00  0.00    -0.296 C  
BRANCH  17  18
HETATM   18  C   UNL     1     -12.271  13.732  67.077  1.00  0.00    -0.340 C  
BRANCH  18  19
HETATM   19  N   UNL     1     -11.991  12.486  67.796  1.00  0.00    -0.312 N  
HETATM   20  C   UNL     1     -12.608  12.318  69.107  1.00  0.00     0.669 C  
HETATM   21  C   UNL     1     -11.576  12.122  70.204  1.00  0.00    -0.202 C  
HETATM   22  C   UNL     1     -11.278  10.652  70.310  1.00  0.00    -0.365 A  
HETATM   23  C   UNL     1     -11.599   9.992  71.503  1.00  0.00    -0.300 A  
HETATM   24  C   UNL     1     -11.400   8.619  71.645  1.00  0.00    -0.307 A  
HETATM   25  C   UNL     1     -10.870   7.885  70.570  1.00  0.00    -0.241 A  
HETATM   26  O   UNL     1     -11.388  11.326  65.920  1.00  0.00    -0.123 OA 
HETATM   27  C   UNL     1     -11.341  11.446  67.148  1.00  0.00    -0.255 C  
HETATM   28  C   UNL     1     -10.552   8.549  69.374  1.00  0.00    -0.203 A  
HETATM   29  C   UNL     1     -10.337  10.621  67.948  1.00  0.00    -0.231 C  
HETATM   30  C   UNL     1     -10.764   9.933  69.223  1.00  0.00    -0.247 A  
BRANCH  24  31
HETATM   31  O   UNL     1     -11.735   7.926  72.783  1.00  0.00    -0.364 OA 
HETATM   32  C   UNL     1     -10.661   7.575  73.649  1.00  0.00    -0.178 C  
ENDBRANCH  24  31
BRANCH  25  33
HETATM   33  O   UNL     1     -10.692   6.541  70.783  1.00  0.00    -0.222 OA 
HETATM   34  C   UNL     1     -11.009   5.659  69.714  1.00  0.00    -0.231 C  
ENDBRANCH  25  33
ENDBRANCH  18  19
ENDBRANCH  17  18
ENDBRANCH  16  17
ENDBRANCH  14  16
ENDBRANCH  13  14
ENDBRANCH   9  13
ENDBRANCH   2   3
TORSDOF 10
ENDMDL
MODEL      275
REMARK 921   NORMALIZED FREE ENERGY PREDICTED BY IDOCK:   -2.64 KCAL/MOL
REMARK 922        TOTAL FREE ENERGY PREDICTED BY IDOCK:   -6.15 KCAL/MOL
REMARK 923 INTER-LIGAND FREE ENERGY PREDICTED BY IDOCK:   -5.39 KCAL/MOL
REMARK 924 INTRA-LIGAND FREE ENERGY PREDICTED BY IDOCK:   -0.77 KCAL/MOL
REMARK 927      BINDING AFFINITY PREDICTED BY RF-SCORE:    0.00 PKD
ROOT
HETATM    1  C   UNL     1      -6.077   1.656  68.804  1.00  0.00    -0.024 C  
HETATM    2  O   UNL     1      -6.560   2.651  69.702  1.00  0.00    -0.032 OA 
ENDROOT
BRANCH   2   3
HETATM    3  C   UNL     1      -6.933   3.860  69.172  1.00  0.00    -0.046 A  
HETATM    4  C   UNL     1      -8.135   4.160  68.474  1.00  0.00    -0.076 A  
HETATM    5  C   UNL     1      -5.966   4.879  69.390  1.00  0.00    -0.018 A  
HETATM    6  C   UNL     1      -8.318   5.439  67.948  1.00  0.00    -0.099 A  
HETATM    7  C   UNL     1      -6.210   6.135  68.867  1.00  0.00    -0.036 A  
HETATM    8  C   UNL     1      -7.316   6.355  68.108  1.00  0.00    -0.089 A  
HETATM    9  C   UNL     1      -6.936   7.757  67.705  1.00  0.00    -0.081 C  
HETATM   10  C   UNL     1      -5.790   7.586  68.799  1.00  0.00    -0.023 C  
BRANCH   4  11
HETATM   11  O   UNL     1      -9.121   3.217  68.352  1.00  0.00    -0.125 OA 
HETATM   12  C   UNL     1      -9.251   2.601  67.071  1.00  0.00    -0.113 C  
ENDBRANCH   4  11
BRANCH   9  13
HETATM   13  C   UNL     1      -8.224   8.592  67.734  1.00  0.00    -0.122 C  
BRANCH  13  14
HETATM   14  N   UNL     1      -8.629   9.263  66.498  1.00  0.00    -0.129 NA 
HETATM   15  C   UNL     1     -10.050   9.108  66.238  1.00  0.00    -0.249 C  
BRANCH  14  16
HETATM   16  C   UNL     1      -8.090  10.621  66.356  1.00  0.00    -0.148 C  
BRANCH  16  17
HETATM   17  C   UNL     1      -7.474  11.127  67.658  1.00  0.00    -0.100 C  
BRANCH  17  18
HETATM   18  C   UNL     1      -8.456  11.926  68.524  1.00  0.00    -0.113 C  
BRANCH  18  19
HETATM   19  N   UNL     1      -8.268  13.357  68.278  1.00  0.00    -0.156 N  
HETATM   20  C   UNL     1      -9.429  14.116  67.827  1.00  0.00    -0.207 C  
HETATM   21  C   UNL     1      -9.191  14.776  66.479  1.00  0.00    -0.304 C  
HETATM   22  C   UNL     1      -8.578  16.127  66.721  1.00  0.00    -0.282 A  
HETATM   23  C   UNL     1      -9.296  17.265  66.331  1.00  0.00    -0.281 A  
HETATM   24  C   UNL     1      -8.808  18.548  66.577  1.00  0.00    -0.293 A  
HETATM   25  C   UNL     1      -7.574  18.700  67.232  1.00  0.00    -0.226 A  
HETATM   26  O   UNL     1      -6.399  13.522  69.585  1.00  0.00    -0.118 OA 
HETATM   27  C   UNL     1      -7.089  13.977  68.668  1.00  0.00    -0.108 C  
HETATM   28  C   UNL     1      -6.858  17.558  67.626  1.00  0.00    -0.175 A  
HETATM   29  C   UNL     1      -6.516  15.060  67.759  1.00  0.00    -0.183 C  
HETATM   30  C   UNL     1      -7.354  16.262  67.389  1.00  0.00    -0.193 A  
BRANCH  24  31
HETATM   31  O   UNL     1      -9.496  19.689  66.245  1.00  0.00    -0.368 OA 
HETATM   32  C   UNL     1     -10.781  19.505  65.660  1.00  0.00    -0.325 C  
ENDBRANCH  24  31
BRANCH  25  33
HETATM   33  O   UNL     1      -7.150  19.990  67.434  1.00  0.00    -0.232 OA 
HETATM   34  C   UNL     1      -6.311  20.239  68.554  1.00  0.00    -0.311 C  
ENDBRANCH  25  33
ENDBRANCH  18  19
ENDBRANCH  17  18
ENDBRANCH  16  17
ENDBRANCH  14  16
ENDBRANCH  13  14
ENDBRANCH   9  13
ENDBRANCH   2   3
TORSDOF 10
ENDMDL
MODEL      276
REMARK 921   NORMALIZED FREE ENERGY PREDICTED BY IDOCK:   -2.62 KCAL/MOL
REMARK 922        TOTAL FREE ENERGY PREDICTED BY IDOCK:   -6.12 KCAL/MOL
REMARK 923 INTER-LIGAND FREE ENERGY PREDICTED BY IDOCK:   -3.72 KCAL/MOL
REMARK 924 INTRA-LIGAND FREE ENERGY PREDICTED BY IDOCK:   -2.40 KCAL/MOL
REMARK 927      BINDING AFFINITY PREDICTED BY RF-SCORE:    0.00 PKD
ROOT
HETATM    1  C   UNL     1     -12.016  14.158  68.022  1.00  0.00    -0.337 C  
HETATM    2  O   UNL     1     -10.644  14.432  68.289  1.00  0.00    -0.234 OA 
ENDROOT
BRANCH   2   3
HETATM    3  C   UNL     1      -9.814  13.365  68.516  1.00  0.00    -0.178 A  
HETATM    4  C   UNL     1      -8.413  13.298  68.283  1.00  0.00    -0.160 A  
HETATM    5  C   UNL     1     -10.499  12.240  69.053  1.00  0.00    -0.049 A  
HETATM    6  C   UNL     1      -7.738  12.099  68.518  1.00  0.00    -0.119 A  
HETATM    7  C   UNL     1      -9.776  11.086  69.289  1.00  0.00    -0.033 A  
HETATM    8  C   UNL     1      -8.462  11.022  68.947  1.00  0.00    -0.124 A  
HETATM    9  C   UNL     1      -8.306   9.553  69.252  1.00  0.00    -0.129 C  
HETATM   10  C   UNL     1      -9.757   9.701  69.895  1.00  0.00    -0.262 C  
BRANCH   4  11
HETATM   11  O   UNL     1      -7.724  14.407  67.870  1.00  0.00    -0.119 OA 
HETATM   12  C   UNL     1      -7.222  15.258  68.899  1.00  0.00    -0.137 C  
ENDBRANCH   4  11
BRANCH   9  13
HETATM   13  C   UNL     1      -6.934   9.382  69.918  1.00  0.00    -0.071 C  
BRANCH  13  14
HETATM   14  N   UNL     1      -6.001   8.425  69.320  1.00  0.00    -0.037 NA 
HETATM   15  C   UNL     1      -5.184   7.765  70.325  1.00  0.00    -0.023 C  
BRANCH  14  16
HETATM   16  C   UNL     1      -6.611   7.554  68.308  1.00  0.00    -0.050 C  
BRANCH  16  17
HETATM   17  C   UNL     1      -5.697   7.360  67.101  1.00  0.00    -0.030 C  
BRANCH  17  18
HETATM   18  C   UNL     1      -6.457   7.028  65.811  1.00  0.00    -0.051 C  
BRANCH  18  19
HETATM   19  N   UNL     1      -7.528   8.007  65.612  1.00  0.00    -0.078 N  
HETATM   20  C   UNL     1      -7.188   9.235  64.904  1.00  0.00    -0.102 C  
HETATM   21  C   UNL     1      -7.448  10.472  65.747  1.00  0.00    -0.139 C  
HETATM   22  C   UNL     1      -8.870  10.903  65.523  1.00  0.00    -0.199 A  
HETATM   23  C   UNL     1      -9.104  12.151  64.931  1.00  0.00     0.536 A  
HETATM   24  C   UNL     1     -10.398  12.584  64.645  1.00  0.00    -0.317 A  
HETATM   25  C   UNL     1     -11.487  11.750  64.953  1.00  0.00    -0.203 A  
HETATM   26  O   UNL     1      -9.215   6.488  65.887  1.00  0.00    -0.108 OA 
HETATM   27  C   UNL     1      -8.840   7.664  65.904  1.00  0.00    -0.130 C  
HETATM   28  C   UNL     1     -11.250  10.498  65.542  1.00  0.00     0.630 A  
HETATM   29  C   UNL     1      -9.737   8.732  66.524  1.00  0.00    -0.328 C  
HETATM   30  C   UNL     1      -9.944  10.053  65.820  1.00  0.00    -0.346 A  
BRANCH  24  31
HETATM   31  O   UNL     1     -10.669  13.784  64.033  1.00  0.00    -0.165 OA 
HETATM   32  C   UNL     1     -10.507  14.951  64.831  1.00  0.00    -0.359 C  
ENDBRANCH  24  31
BRANCH  25  33
HETATM   33  O   UNL     1     -12.732  12.244  64.652  1.00  0.00    -0.555 OA 
HETATM   34  C   UNL     1     -13.271  11.932  63.375  1.00  0.00     0.285 C  
ENDBRANCH  25  33
ENDBRANCH  18  19
ENDBRANCH  17  18
ENDBRANCH  16  17
ENDBRANCH  14  16
ENDBRANCH  13  14
ENDBRANCH   9  13
ENDBRANCH   2   3
TORSDOF 10
ENDMDL
MODEL      277
REMARK 921   NORMALIZED FREE ENERGY PREDICTED BY IDOCK:   -2.62 KCAL/MOL
REMARK 922        TOTAL FREE ENERGY PREDICTED BY IDOCK:   -6.11 KCAL/MOL
REMARK 923 INTER-LIGAND FREE ENERGY PREDICTED BY IDOCK:   -6.87 KCAL/MOL
REMARK 924 INTRA-LIGAND FREE ENERGY PREDICTED BY IDOCK:    0.75 KCAL/MOL
REMARK 927      BINDING AFFINITY PREDICTED BY RF-SCORE:    0.00 PKD
ROOT
HETATM    1  C   UNL     1      -7.232   9.125  63.387  1.00  0.00    -0.095 C  
HETATM    2  O   UNL     1      -6.547   8.332  64.351  1.00  0.00    -0.065 OA 
ENDROOT
BRANCH   2   3
HETATM    3  C   UNL     1      -6.980   8.394  65.651  1.00  0.00    -0.067 A  
HETATM    4  C   UNL     1      -7.415   9.546  66.359  1.00  0.00    -0.097 A  
HETATM    5  C   UNL     1      -6.974   7.125  66.294  1.00  0.00    -0.065 A  
HETATM    6  C   UNL     1      -7.764   9.430  67.705  1.00  0.00    -0.088 A  
HETATM    7  C   UNL     1      -7.352   7.064  67.622  1.00  0.00    -0.096 A  
HETATM    8  C   UNL     1      -7.652   8.203  68.299  1.00  0.00    -0.102 A  
HETATM    9  C   UNL     1      -7.785   7.538  69.646  1.00  0.00    -0.100 C  
HETATM   10  C   UNL     1      -7.697   6.188  68.805  1.00  0.00    -0.096 C  
BRANCH   4  11
HETATM   11  O   UNL     1      -7.528  10.753  65.721  1.00  0.00    -0.138 OA 
HETATM   12  C   UNL     1      -8.743  11.469  65.935  1.00  0.00    -0.058 C  
ENDBRANCH   4  11
BRANCH   9  13
HETATM   13  C   UNL     1      -8.978   8.197  70.351  1.00  0.00    -0.146 C  
BRANCH  13  14
HETATM   14  N   UNL     1      -9.239   7.825  71.742  1.00  0.00    -0.137 NA 
HETATM   15  C   UNL     1      -8.019   7.786  72.530  1.00  0.00    -0.113 C  
BRANCH  14  16
HETATM   16  C   UNL     1     -10.375   8.534  72.344  1.00  0.00    -0.302 C  
BRANCH  16  17
HETATM   17  C   UNL     1     -11.683   7.769  72.161  1.00  0.00    -0.368 C  
BRANCH  17  18
HETATM   18  C   UNL     1     -12.597   8.376  71.088  1.00  0.00    -0.143 C  
BRANCH  18  19
HETATM   19  N   UNL     1     -12.259   9.789  70.905  1.00  0.00    -0.304 N  
HETATM   20  C   UNL     1     -12.430  10.671  72.054  1.00  0.00     0.087 C  
HETATM   21  C   UNL     1     -13.404  11.801  71.768  1.00  0.00    -0.342 C  
HETATM   22  C   UNL     1     -12.632  12.949  71.180  1.00  0.00    -0.373 A  
HETATM   23  C   UNL     1     -12.579  14.153  71.894  1.00  0.00    -0.371 A  
HETATM   24  C   UNL     1     -11.834  15.236  71.430  1.00  0.00    -0.372 A  
HETATM   25  C   UNL     1     -11.119  15.115  70.225  1.00  0.00    -0.262 A  
HETATM   26  O   UNL     1     -10.913   9.422  69.094  1.00  0.00    -0.192 OA 
HETATM   27  C   UNL     1     -11.610  10.201  69.750  1.00  0.00    -0.182 C  
HETATM   28  C   UNL     1     -11.170  13.905  69.514  1.00  0.00    -0.237 A  
HETATM   29  C   UNL     1     -12.002  11.549  69.152  1.00  0.00    -0.386 C  
HETATM   30  C   UNL     1     -11.912  12.806  69.986  1.00  0.00    -0.371 A  
BRANCH  24  31
HETATM   31  O   UNL     1     -11.726  16.422  72.115  1.00  0.00    -0.506 OA 
HETATM   32  C   UNL     1     -12.426  16.502  73.352  1.00  0.00    -0.319 C  
ENDBRANCH  24  31
BRANCH  25  33
HETATM   33  O   UNL     1     -10.415  16.222  69.825  1.00  0.00    -0.281 OA 
HETATM   34  C   UNL     1     -10.971  17.013  68.783  1.00  0.00    -0.180 C  
ENDBRANCH  25  33
ENDBRANCH  18  19
ENDBRANCH  17  18
ENDBRANCH  16  17
ENDBRANCH  14  16
ENDBRANCH  13  14
ENDBRANCH   9  13
ENDBRANCH   2   3
TORSDOF 10
ENDMDL
MODEL      278
REMARK 921   NORMALIZED FREE ENERGY PREDICTED BY IDOCK:   -2.59 KCAL/MOL
REMARK 922        TOTAL FREE ENERGY PREDICTED BY IDOCK:   -6.06 KCAL/MOL
REMARK 923 INTER-LIGAND FREE ENERGY PREDICTED BY IDOCK:   -5.79 KCAL/MOL
REMARK 924 INTRA-LIGAND FREE ENERGY PREDICTED BY IDOCK:   -0.27 KCAL/MOL
REMARK 927      BINDING AFFINITY PREDICTED BY RF-SCORE:    0.00 PKD
ROOT
HETATM    1  C   UNL     1      -7.373   1.789  66.767  1.00  0.00    -0.056 C  
HETATM    2  O   UNL     1      -8.740   2.187  66.744  1.00  0.00    -0.108 OA 
ENDROOT
BRANCH   2   3
HETATM    3  C   UNL     1      -9.042   3.454  67.175  1.00  0.00    -0.173 A  
HETATM    4  C   UNL     1      -9.433   3.849  68.483  1.00  0.00    -0.148 A  
HETATM    5  C   UNL     1      -8.919   4.429  66.146  1.00  0.00    -0.121 A  
HETATM    6  C   UNL     1      -9.762   5.183  68.724  1.00  0.00    -0.215 A  
HETATM    7  C   UNL     1      -9.235   5.740  66.447  1.00  0.00    -0.160 A  
HETATM    8  C   UNL     1      -9.715   6.061  67.677  1.00  0.00    -0.120 A  
HETATM    9  C   UNL     1     -10.030   7.496  67.338  1.00  0.00    -0.246 C  
HETATM   10  C   UNL     1      -9.227   7.184  65.997  1.00  0.00    -0.069 C  
BRANCH   4  11
HETATM   11  O   UNL     1      -9.450   2.939  69.507  1.00  0.00    -0.149 OA 
HETATM   12  C   UNL     1      -8.251   2.193  69.709  1.00  0.00    -0.044 C  
ENDBRANCH   4  11
BRANCH   9  13
HETATM   13  C   UNL     1      -9.638   8.337  68.561  1.00  0.00    -0.149 C  
BRANCH  13  14
HETATM   14  N   UNL     1     -10.703   8.738  69.482  1.00  0.00    -0.217 NA 
HETATM   15  C   UNL     1     -10.393   8.382  70.856  1.00  0.00    -0.194 C  
BRANCH  14  16
HETATM   16  C   UNL     1     -11.195  10.104  69.263  1.00  0.00    -0.196 C  
BRANCH  16  17
HETATM   17  C   UNL     1     -10.209  10.939  68.450  1.00  0.00    -0.193 C  
BRANCH  17  18
HETATM   18  C   UNL     1     -10.890  11.981  67.553  1.00  0.00    -0.241 C  
BRANCH  18  19
HETATM   19  N   UNL     1      -9.970  13.097  67.321  1.00  0.00    -0.227 N  
HETATM   20  C   UNL     1      -9.071  13.460  68.410  1.00  0.00    -0.142 C  
HETATM   21  C   UNL     1      -9.267  14.898  68.858  1.00  0.00    -0.192 C  
HETATM   22  C   UNL     1      -8.379  15.776  68.020  1.00  0.00    -0.153 A  
HETATM   23  C   UNL     1      -7.352  16.486  68.655  1.00  0.00    -0.194 A  
HETATM   24  C   UNL     1      -6.460  17.273  67.927  1.00  0.00    -0.153 A  
HETATM   25  C   UNL     1      -6.592  17.350  66.530  1.00  0.00    -0.247 A  
HETATM   26  O   UNL     1     -10.081  12.952  65.042  1.00  0.00    -0.275 OA 
HETATM   27  C   UNL     1      -9.834  13.626  66.045  1.00  0.00    -0.276 C  
HETATM   28  C   UNL     1      -7.620  16.633  65.895  1.00  0.00     0.410 A  
HETATM   29  C   UNL     1      -9.652  15.135  65.913  1.00  0.00    -0.373 C  
HETATM   30  C   UNL     1      -8.514  15.829  66.626  1.00  0.00    -0.323 A  
BRANCH  24  31
HETATM   31  O   UNL     1      -5.418  17.956  68.505  1.00  0.00    -0.157 OA 
HETATM   32  C   UNL     1      -5.747  18.799  69.604  1.00  0.00    -0.241 C  
ENDBRANCH  24  31
BRANCH  25  33
HETATM   33  O   UNL     1      -5.686  18.149  65.879  1.00  0.00    -0.162 OA 
HETATM   34  C   UNL     1      -6.198  19.146  65.005  1.00  0.00    -0.282 C  
ENDBRANCH  25  33
ENDBRANCH  18  19
ENDBRANCH  17  18
ENDBRANCH  16  17
ENDBRANCH  14  16
ENDBRANCH  13  14
ENDBRANCH   9  13
ENDBRANCH   2   3
TORSDOF 10
ENDMDL
MODEL      279
REMARK 921   NORMALIZED FREE ENERGY PREDICTED BY IDOCK:   -2.56 KCAL/MOL
REMARK 922        TOTAL FREE ENERGY PREDICTED BY IDOCK:   -6.03 KCAL/MOL
REMARK 923 INTER-LIGAND FREE ENERGY PREDICTED BY IDOCK:   -6.30 KCAL/MOL
REMARK 924 INTRA-LIGAND FREE ENERGY PREDICTED BY IDOCK:    0.27 KCAL/MOL
REMARK 927      BINDING AFFINITY PREDICTED BY RF-SCORE:    0.00 PKD
ROOT
HETATM    1  C   UNL     1      -5.836   7.759  72.030  1.00  0.00    -0.036 C  
HETATM    2  O   UNL     1      -7.162   8.062  71.610  1.00  0.00    -0.064 OA 
ENDROOT
BRANCH   2   3
HETATM    3  C   UNL     1      -7.398   8.150  70.261  1.00  0.00    -0.059 A  
HETATM    4  C   UNL     1      -7.754   7.095  69.378  1.00  0.00    -0.107 A  
HETATM    5  C   UNL     1      -7.260   9.476  69.765  1.00  0.00    -0.084 A  
HETATM    6  C   UNL     1      -7.895   7.363  68.016  1.00  0.00    -0.118 A  
HETATM    7  C   UNL     1      -7.434   9.688  68.410  1.00  0.00    -0.080 A  
HETATM    8  C   UNL     1      -7.661   8.637  67.579  1.00  0.00    -0.094 A  
HETATM    9  C   UNL     1      -7.572   9.440  66.305  1.00  0.00    -0.097 C  
HETATM   10  C   UNL     1      -7.573  10.694  67.289  1.00  0.00    -0.100 C  
BRANCH   4  11
HETATM   11  O   UNL     1      -7.996   5.837  69.861  1.00  0.00    -0.093 OA 
HETATM   12  C   UNL     1      -7.646   4.752  69.002  1.00  0.00    -0.067 C  
ENDBRANCH   4  11
BRANCH   9  13
HETATM   13  C   UNL     1      -8.665   8.909  65.368  1.00  0.00    -0.191 C  
BRANCH  13  14
HETATM   14  N   UNL     1     -10.036   9.373  65.587  1.00  0.00    -0.250 NA 
HETATM   15  C   UNL     1     -10.640   8.747  66.751  1.00  0.00    -0.150 C  
BRANCH  14  16
HETATM   16  C   UNL     1     -10.194  10.828  65.481  1.00  0.00    -0.266 C  
BRANCH  16  17
HETATM   17  C   UNL     1     -10.971  11.403  66.663  1.00  0.00    -0.341 C  
BRANCH  17  18
HETATM   18  C   UNL     1     -11.611  12.765  66.365  1.00  0.00    -0.378 C  
BRANCH  18  19
HETATM   19  N   UNL     1     -10.721  13.832  66.827  1.00  0.00    -0.276 N  
HETATM   20  C   UNL     1     -10.979  15.179  66.332  1.00  0.00    -0.329 C  
HETATM   21  C   UNL     1      -9.790  15.751  65.580  1.00  0.00    -0.300 C  
HETATM   22  C   UNL     1      -8.894  16.438  66.571  1.00  0.00    -0.316 A  
HETATM   23  C   UNL     1      -8.704  17.821  66.451  1.00  0.00    -0.255 A  
HETATM   24  C   UNL     1      -7.930  18.527  67.372  1.00  0.00    -0.239 A  
HETATM   25  C   UNL     1      -7.334  17.837  68.441  1.00  0.00    -0.257 A  
HETATM   26  O   UNL     1     -10.017  12.692  68.680  1.00  0.00    -0.194 OA 
HETATM   27  C   UNL     1      -9.817  13.584  67.850  1.00  0.00    -0.235 C  
HETATM   28  C   UNL     1      -7.529  16.452  68.561  1.00  0.00    -0.181 A  
HETATM   29  C   UNL     1      -8.441  14.238  67.762  1.00  0.00    -0.177 C  
HETATM   30  C   UNL     1      -8.319  15.739  67.641  1.00  0.00    -0.170 A  
BRANCH  24  31
HETATM   31  O   UNL     1      -7.748  19.887  67.313  1.00  0.00    -0.255 OA 
HETATM   32  C   UNL     1      -7.169  20.396  66.116  1.00  0.00    -0.213 C  
ENDBRANCH  24  31
BRANCH  25  33
HETATM   33  O   UNL     1      -6.579  18.593  69.304  1.00  0.00    -0.266 OA 
HETATM   34  C   UNL     1      -5.907  17.915  70.357  1.00  0.00    -0.065 C  
ENDBRANCH  25  33
ENDBRANCH  18  19
ENDBRANCH  17  18
ENDBRANCH  16  17
ENDBRANCH  14  16
ENDBRANCH  13  14
ENDBRANCH   9  13
ENDBRANCH   2   3
TORSDOF 10
ENDMDL
MODEL      280
REMARK 921   NORMALIZED FREE ENERGY PREDICTED BY IDOCK:   -2.44 KCAL/MOL
REMARK 922        TOTAL FREE ENERGY PREDICTED BY IDOCK:   -5.83 KCAL/MOL
REMARK 923 INTER-LIGAND FREE ENERGY PREDICTED BY IDOCK:   -6.59 KCAL/MOL
REMARK 924 INTRA-LIGAND FREE ENERGY PREDICTED BY IDOCK:    0.76 KCAL/MOL
REMARK 927      BINDING AFFINITY PREDICTED BY RF-SCORE:    0.00 PKD
ROOT
HETATM    1  C   UNL     1     -14.381  14.935  71.960  1.00  0.00    -0.561 C  
HETATM    2  O   UNL     1     -12.986  14.696  71.796  1.00  0.00    -0.306 OA 
ENDROOT
BRANCH   2   3
HETATM    3  C   UNL     1     -12.569  14.146  70.611  1.00  0.00    -0.351 A  
HETATM    4  C   UNL     1     -12.521  12.766  70.272  1.00  0.00    -0.105 A  
HETATM    5  C   UNL     1     -12.164  15.124  69.663  1.00  0.00    -0.292 A  
HETATM    6  C   UNL     1     -12.006  12.385  69.033  1.00  0.00    -0.291 A  
HETATM    7  C   UNL     1     -11.685  14.691  68.441  1.00  0.00    -0.352 A  
HETATM    8  C   UNL     1     -11.545  13.362  68.195  1.00  0.00    -0.376 A  
HETATM    9  C   UNL     1     -10.846  13.533  66.870  1.00  0.00    -0.286 C  
HETATM   10  C   UNL     1     -11.250  15.066  67.042  1.00  0.00    -0.328 C  
BRANCH   4  11
HETATM   11  O   UNL     1     -13.009  11.821  71.136  1.00  0.00    -0.310 OA 
HETATM   12  C   UNL     1     -12.093  10.806  71.545  1.00  0.00    -0.102 C  
ENDBRANCH   4  11
BRANCH   9  13
HETATM   13  C   UNL     1     -11.404  12.456  65.931  1.00  0.00    -0.356 C  
BRANCH  13  14
HETATM   14  N   UNL     1     -10.471  11.456  65.409  1.00  0.00    -0.272 NA 
HETATM   15  C   UNL     1     -10.740  11.138  64.017  1.00  0.00    -0.339 C  
BRANCH  14  16
HETATM   16  C   UNL     1      -9.067  11.718  65.752  1.00  0.00    -0.083 C  
BRANCH  16  17
HETATM   17  C   UNL     1      -8.220  10.450  65.682  1.00  0.00    -0.158 C  
BRANCH  17  18
HETATM   18  C   UNL     1      -7.099  10.409  66.728  1.00  0.00    -0.105 C  
BRANCH  18  19
HETATM   19  N   UNL     1      -7.483   9.507  67.817  1.00  0.00    -0.084 N  
HETATM   20  C   UNL     1      -6.914   9.770  69.134  1.00  0.00    -0.055 C  
HETATM   21  C   UNL     1      -6.109   8.591  69.654  1.00  0.00    -0.032 C  
HETATM   22  C   UNL     1      -7.044   7.676  70.395  1.00  0.00    -0.058 A  
HETATM   23  C   UNL     1      -6.840   7.484  71.768  1.00  0.00    -0.057 A  
HETATM   24  C   UNL     1      -7.704   6.692  72.523  1.00  0.00    -0.098 A  
HETATM   25  C   UNL     1      -8.803   6.080  71.895  1.00  0.00    -0.138 A  
HETATM   26  O   UNL     1      -9.388   8.777  66.785  1.00  0.00    -0.157 OA 
HETATM   27  C   UNL     1      -8.504   8.587  67.625  1.00  0.00    -0.129 C  
HETATM   28  C   UNL     1      -9.008   6.278  70.520  1.00  0.00    -0.151 A  
HETATM   29  C   UNL     1      -8.355   7.211  68.267  1.00  0.00    -0.124 C  
HETATM   30  C   UNL     1      -8.143   7.087  69.758  1.00  0.00    -0.126 A  
BRANCH  24  31
HETATM   31  O   UNL     1      -7.562   6.507  73.877  1.00  0.00    -0.085 OA 
HETATM   32  C   UNL     1      -7.212   5.194  74.301  1.00  0.00    -0.082 C  
ENDBRANCH  24  31
BRANCH  25  33
HETATM   33  O   UNL     1      -9.607   5.309  72.697  1.00  0.00    -0.146 OA 
HETATM   34  C   UNL     1     -10.335   4.257  72.079  1.00  0.00    -0.099 C  
ENDBRANCH  25  33
ENDBRANCH  18  19
ENDBRANCH  17  18
ENDBRANCH  16  17
ENDBRANCH  14  16
ENDBRANCH  13  14
ENDBRANCH   9  13
ENDBRANCH   2   3
TORSDOF 10
ENDMDL
MODEL      281
REMARK 921   NORMALIZED FREE ENERGY PREDICTED BY IDOCK:   -2.44 KCAL/MOL
REMARK 922        TOTAL FREE ENERGY PREDICTED BY IDOCK:   -5.82 KCAL/MOL
REMARK 923 INTER-LIGAND FREE ENERGY PREDICTED BY IDOCK:   -5.85 KCAL/MOL
REMARK 924 INTRA-LIGAND FREE ENERGY PREDICTED BY IDOCK:    0.03 KCAL/MOL
REMARK 927      BINDING AFFINITY PREDICTED BY RF-SCORE:    0.00 PKD
ROOT
HETATM    1  C   UNL     1     -11.154  12.917  64.153  1.00  0.00    -0.399 C  
HETATM    2  O   UNL     1     -11.700  12.828  65.465  1.00  0.00    -0.352 OA 
ENDROOT
BRANCH   2   3
HETATM    3  C   UNL     1     -10.961  12.176  66.419  1.00  0.00    -0.288 A  
HETATM    4  C   UNL     1     -10.136  12.761  67.418  1.00  0.00    -0.219 A  
HETATM    5  C   UNL     1     -11.092  10.762  66.345  1.00  0.00    -0.013 A  
HETATM    6  C   UNL     1      -9.405  11.934  68.270  1.00  0.00    -0.193 A  
HETATM    7  C   UNL     1     -10.363   9.991  67.230  1.00  0.00    -0.293 A  
HETATM    8  C   UNL     1      -9.497  10.581  68.096  1.00  0.00    -0.157 A  
HETATM    9  C   UNL     1      -8.910   9.291  68.613  1.00  0.00    -0.132 C  
HETATM   10  C   UNL     1     -10.102   8.615  67.800  1.00  0.00    -0.266 C  
BRANCH   4  11
HETATM   11  O   UNL     1     -10.087  14.122  67.569  1.00  0.00    -0.233 OA 
HETATM   12  C   UNL     1      -9.218  14.825  66.681  1.00  0.00    -0.275 C  
ENDBRANCH   4  11
BRANCH   9  13
HETATM   13  C   UNL     1      -8.710   9.469  70.124  1.00  0.00    -0.230 C  
BRANCH  13  14
HETATM   14  N   UNL     1      -9.854   9.205  70.999  1.00  0.00    -0.278 NA 
HETATM   15  C   UNL     1     -11.002   8.713  70.257  1.00  0.00    -0.236 C  
BRANCH  14  16
HETATM   16  C   UNL     1      -9.509   8.467  72.221  1.00  0.00    -0.297 C  
BRANCH  16  17
HETATM   17  C   UNL     1     -10.089   7.055  72.214  1.00  0.00    -0.195 C  
BRANCH  17  18
HETATM   18  C   UNL     1      -9.018   5.957  72.251  1.00  0.00    -0.142 C  
BRANCH  18  19
HETATM   19  N   UNL     1      -8.632   5.608  70.882  1.00  0.00    -0.127 N  
HETATM   20  C   UNL     1      -9.689   5.577  69.877  1.00  0.00    -0.174 C  
HETATM   21  C   UNL     1      -9.818   4.212  69.224  1.00  0.00    -0.138 C  
HETATM   22  C   UNL     1      -8.888   4.166  68.044  1.00  0.00    -0.134 A  
HETATM   23  C   UNL     1      -9.440   4.021  66.765  1.00  0.00    -0.219 A  
HETATM   24  C   UNL     1      -8.636   4.027  65.626  1.00  0.00    -0.110 A  
HETATM   25  C   UNL     1      -7.246   4.187  65.765  1.00  0.00    -0.072 A  
HETATM   26  O   UNL     1      -6.429   6.146  71.171  1.00  0.00    -0.046 OA 
HETATM   27  C   UNL     1      -7.290   5.524  70.542  1.00  0.00    -0.075 C  
HETATM   28  C   UNL     1      -6.696   4.337  67.048  1.00  0.00    -0.051 A  
HETATM   29  C   UNL     1      -6.867   4.431  69.565  1.00  0.00    -0.045 C  
HETATM   30  C   UNL     1      -7.507   4.343  68.199  1.00  0.00    -0.065 A  
BRANCH  24  31
HETATM   31  O   UNL     1      -9.139   3.924  64.352  1.00  0.00    -0.124 OA 
HETATM   32  C   UNL     1     -10.547   3.748  64.241  1.00  0.00    -0.228 C  
ENDBRANCH  24  31
BRANCH  25  33
HETATM   33  O   UNL     1      -6.516   4.175  64.603  1.00  0.00    -0.039 OA 
HETATM   34  C   UNL     1      -5.133   3.860  64.699  1.00  0.00    -0.009 C  
ENDBRANCH  25  33
ENDBRANCH  18  19
ENDBRANCH  17  18
ENDBRANCH  16  17
ENDBRANCH  14  16
ENDBRANCH  13  14
ENDBRANCH   9  13
ENDBRANCH   2   3
TORSDOF 10
ENDMDL
MODEL      282
REMARK 921   NORMALIZED FREE ENERGY PREDICTED BY IDOCK:   -2.43 KCAL/MOL
REMARK 922        TOTAL FREE ENERGY PREDICTED BY IDOCK:   -5.81 KCAL/MOL
REMARK 923 INTER-LIGAND FREE ENERGY PREDICTED BY IDOCK:   -5.38 KCAL/MOL
REMARK 924 INTRA-LIGAND FREE ENERGY PREDICTED BY IDOCK:   -0.43 KCAL/MOL
REMARK 927      BINDING AFFINITY PREDICTED BY RF-SCORE:    0.00 PKD
ROOT
HETATM    1  C   UNL     1      -6.136   8.359  64.370  1.00  0.00    -0.065 C  
HETATM    2  O   UNL     1      -5.502   7.377  65.183  1.00  0.00    -0.031 OA 
ENDROOT
BRANCH   2   3
HETATM    3  C   UNL     1      -5.641   7.490  66.543  1.00  0.00    -0.025 A  
HETATM    4  C   UNL     1      -5.527   8.671  67.325  1.00  0.00    -0.038 A  
HETATM    5  C   UNL     1      -5.939   6.249  67.170  1.00  0.00    -0.021 A  
HETATM    6  C   UNL     1      -5.639   8.585  68.712  1.00  0.00    -0.040 A  
HETATM    7  C   UNL     1      -6.063   6.226  68.546  1.00  0.00    -0.031 A  
HETATM    8  C   UNL     1      -5.835   7.353  69.271  1.00  0.00    -0.026 A  
HETATM    9  C   UNL     1      -5.930   6.679  70.617  1.00  0.00    -0.027 C  
HETATM   10  C   UNL     1      -6.455   5.433  69.773  1.00  0.00    -0.035 C  
BRANCH   4  11
HETATM   11  O   UNL     1      -5.348   9.889  66.722  1.00  0.00    -0.043 OA 
HETATM   12  C   UNL     1      -5.432  11.032  67.572  1.00  0.00    -0.041 C  
ENDBRANCH   4  11
BRANCH   9  13
HETATM   13  C   UNL     1      -6.683   7.643  71.544  1.00  0.00    -0.045 C  
BRANCH  13  14
HETATM   14  N   UNL     1      -7.269   7.094  72.768  1.00  0.00    -0.072 NA 
HETATM   15  C   UNL     1      -6.254   6.574  73.668  1.00  0.00    -0.064 C  
BRANCH  14  16
HETATM   16  C   UNL     1      -8.292   7.954  73.375  1.00  0.00    -0.203 C  
BRANCH  16  17
HETATM   17  C   UNL     1      -9.380   7.140  74.069  1.00  0.00    -0.291 C  
BRANCH  17  18
HETATM   18  C   UNL     1     -10.505   6.698  73.124  1.00  0.00    -0.253 C  
BRANCH  18  19
HETATM   19  N   UNL     1     -10.463   7.510  71.906  1.00  0.00    -0.200 N  
HETATM   20  C   UNL     1     -10.452   8.960  72.069  1.00  0.00    -0.313 C  
HETATM   21  C   UNL     1     -11.636   9.621  71.384  1.00  0.00    -0.472 C  
HETATM   22  C   UNL     1     -11.249   9.919  69.962  1.00  0.00    -0.327 A  
HETATM   23  C   UNL     1     -11.198  11.257  69.552  1.00  0.00    -0.337 A  
HETATM   24  C   UNL     1     -10.793  11.603  68.263  1.00  0.00    -0.219 A  
HETATM   25  C   UNL     1     -10.424  10.589  67.362  1.00  0.00    -0.244 A  
HETATM   26  O   UNL     1      -9.622   5.834  70.598  1.00  0.00    -0.167 OA 
HETATM   27  C   UNL     1     -10.229   6.905  70.679  1.00  0.00    -0.195 C  
HETATM   28  C   UNL     1     -10.472   9.248  67.778  1.00  0.00    -0.313 A  
HETATM   29  C   UNL     1     -10.981   7.439  69.464  1.00  0.00    -0.155 C  
HETATM   30  C   UNL     1     -10.870   8.897  69.082  1.00  0.00    -0.091 A  
BRANCH  24  31
HETATM   31  O   UNL     1     -10.694  12.903  67.831  1.00  0.00    -0.212 OA 
HETATM   32  C   UNL     1     -11.813  13.743  68.092  1.00  0.00    -0.376 C  
ENDBRANCH  24  31
BRANCH  25  33
HETATM   33  O   UNL     1     -10.044  11.000  66.109  1.00  0.00    -0.221 OA 
HETATM   34  C   UNL     1      -8.664  10.915  65.780  1.00  0.00    -0.190 C  
ENDBRANCH  25  33
ENDBRANCH  18  19
ENDBRANCH  17  18
ENDBRANCH  16  17
ENDBRANCH  14  16
ENDBRANCH  13  14
ENDBRANCH   9  13
ENDBRANCH   2   3
TORSDOF 10
ENDMDL
MODEL      283
REMARK 921   NORMALIZED FREE ENERGY PREDICTED BY IDOCK:   -2.36 KCAL/MOL
REMARK 922        TOTAL FREE ENERGY PREDICTED BY IDOCK:   -5.71 KCAL/MOL
REMARK 923 INTER-LIGAND FREE ENERGY PREDICTED BY IDOCK:   -5.15 KCAL/MOL
REMARK 924 INTRA-LIGAND FREE ENERGY PREDICTED BY IDOCK:   -0.56 KCAL/MOL
REMARK 927      BINDING AFFINITY PREDICTED BY RF-SCORE:    0.00 PKD
ROOT
HETATM    1  C   UNL     1      -6.303  15.095  70.823  1.00  0.00     0.210 C  
HETATM    2  O   UNL     1      -6.533  15.352  69.441  1.00  0.00    -0.128 OA 
ENDROOT
BRANCH   2   3
HETATM    3  C   UNL     1      -7.419  14.540  68.781  1.00  0.00    -0.132 A  
HETATM    4  C   UNL     1      -8.810  14.761  68.586  1.00  0.00    -0.180 A  
HETATM    5  C   UNL     1      -6.806  13.370  68.254  1.00  0.00    -0.106 A  
HETATM    6  C   UNL     1      -9.572  13.789  67.939  1.00  0.00    -0.222 A  
HETATM    7  C   UNL     1      -7.605  12.451  67.600  1.00  0.00    -0.141 A  
HETATM    8  C   UNL     1      -8.949  12.641  67.533  1.00  0.00    -0.187 A  
HETATM    9  C   UNL     1      -9.253  11.300  66.915  1.00  0.00    -0.184 C  
HETATM   10  C   UNL     1      -7.670  11.199  66.755  1.00  0.00    -0.153 C  
BRANCH   4  11
HETATM   11  O   UNL     1      -9.391  15.933  68.993  1.00  0.00    -0.213 OA 
HETATM   12  C   UNL     1     -10.512  16.380  68.233  1.00  0.00    -0.302 C  
ENDBRANCH   4  11
BRANCH   9  13
HETATM   13  C   UNL     1     -10.347  11.533  65.864  1.00  0.00    -0.247 C  
BRANCH  13  14
HETATM   14  N   UNL     1     -10.191  10.883  64.561  1.00  0.00    -0.335 NA 
HETATM   15  C   UNL     1     -10.143  11.849  63.477  1.00  0.00    -0.441 C  
BRANCH  14  16
HETATM   16  C   UNL     1      -9.162   9.835  64.540  1.00  0.00    -0.253 C  
BRANCH  16  17
HETATM   17  C   UNL     1      -9.647   8.550  65.206  1.00  0.00     0.467 C  
BRANCH  17  18
HETATM   18  C   UNL     1      -8.505   7.620  65.635  1.00  0.00    -0.142 C  
BRANCH  18  19
HETATM   19  N   UNL     1      -8.860   6.964  66.896  1.00  0.00    -0.117 N  
HETATM   20  C   UNL     1      -9.150   7.824  68.038  1.00  0.00    -0.128 C  
HETATM   21  C   UNL     1      -8.220   7.554  69.208  1.00  0.00    -0.130 C  
HETATM   22  C   UNL     1      -8.828   6.468  70.050  1.00  0.00    -0.144 A  
HETATM   23  C   UNL     1      -9.203   6.774  71.364  1.00  0.00    -0.153 A  
HETATM   24  C   UNL     1      -9.823   5.827  72.178  1.00  0.00    -0.156 A  
HETATM   25  C   UNL     1     -10.079   4.543  71.668  1.00  0.00    -0.179 A  
HETATM   26  O   UNL     1      -9.486   4.999  65.909  1.00  0.00    -0.154 OA 
HETATM   27  C   UNL     1      -9.109   5.600  66.919  1.00  0.00    -0.116 C  
HETATM   28  C   UNL     1      -9.705   4.240  70.349  1.00  0.00    -0.280 A  
HETATM   29  C   UNL     1      -8.635   4.807  68.134  1.00  0.00    -0.106 C  
HETATM   30  C   UNL     1      -9.091   5.198  69.521  1.00  0.00    -0.145 A  
BRANCH  24  31
HETATM   31  O   UNL     1     -10.240   6.096  73.459  1.00  0.00    -0.193 OA 
HETATM   32  C   UNL     1      -9.599   7.183  74.118  1.00  0.00    -0.232 C  
ENDBRANCH  24  31
BRANCH  25  33
HETATM   33  O   UNL     1     -10.684   3.659  72.527  1.00  0.00    -0.082 OA 
HETATM   34  C   UNL     1     -10.071   2.389  72.701  1.00  0.00    -0.151 C  
ENDBRANCH  25  33
ENDBRANCH  18  19
ENDBRANCH  17  18
ENDBRANCH  16  17
ENDBRANCH  14  16
ENDBRANCH  13  14
ENDBRANCH   9  13
ENDBRANCH   2   3
TORSDOF 10
ENDMDL
MODEL      284
REMARK 921   NORMALIZED FREE ENERGY PREDICTED BY IDOCK:   -2.33 KCAL/MOL
REMARK 922        TOTAL FREE ENERGY PREDICTED BY IDOCK:   -5.65 KCAL/MOL
REMARK 923 INTER-LIGAND FREE ENERGY PREDICTED BY IDOCK:   -5.97 KCAL/MOL
REMARK 924 INTRA-LIGAND FREE ENERGY PREDICTED BY IDOCK:    0.32 KCAL/MOL
REMARK 927      BINDING AFFINITY PREDICTED BY RF-SCORE:    0.00 PKD
ROOT
HETATM    1  C   UNL     1     -10.689  19.791  66.225  1.00  0.00    -0.394 C  
HETATM    2  O   UNL     1      -9.343  19.405  65.966  1.00  0.00    -0.397 OA 
ENDROOT
BRANCH   2   3
HETATM    3  C   UNL     1      -8.855  18.311  66.635  1.00  0.00    -0.284 A  
HETATM    4  C   UNL     1      -9.213  16.950  66.436  1.00  0.00    -0.279 A  
HETATM    5  C   UNL     1      -7.881  18.653  67.613  1.00  0.00    -0.249 A  
HETATM    6  C   UNL     1      -8.655  15.970  67.257  1.00  0.00    -0.205 A  
HETATM    7  C   UNL     1      -7.343  17.639  68.382  1.00  0.00    -0.243 A  
HETATM    8  C   UNL     1      -7.794  16.364  68.243  1.00  0.00    -0.168 A  
HETATM    9  C   UNL     1      -7.013  15.808  69.407  1.00  0.00    -0.202 C  
HETATM   10  C   UNL     1      -6.297  17.231  69.395  1.00  0.00    -0.244 C  
BRANCH   4  11
HETATM   11  O   UNL     1     -10.068  16.597  65.425  1.00  0.00    -0.578 OA 
HETATM   12  C   UNL     1     -10.835  15.411  65.631  1.00  0.00    -0.355 C  
ENDBRANCH   4  11
BRANCH   9  13
HETATM   13  C   UNL     1      -6.496  14.428  68.977  1.00  0.00    -0.098 C  
BRANCH  13  14
HETATM   14  N   UNL     1      -5.555  13.746  69.866  1.00  0.00    -0.103 NA 
HETATM   15  C   UNL     1      -5.748  14.126  71.255  1.00  0.00    -0.228 C  
BRANCH  14  16
HETATM   16  C   UNL     1      -5.425  12.307  69.602  1.00  0.00    -0.084 C  
BRANCH  16  17
HETATM   17  C   UNL     1      -6.773  11.664  69.286  1.00  0.00    -0.115 C  
BRANCH  17  18
HETATM   18  C   UNL     1      -6.650  10.342  68.517  1.00  0.00    -0.052 C  
BRANCH  18  19
HETATM   19  N   UNL     1      -7.246   9.263  69.309  1.00  0.00    -0.064 N  
HETATM   20  C   UNL     1      -6.344   8.242  69.831  1.00  0.00    -0.032 C  
HETATM   21  C   UNL     1      -6.706   6.852  69.334  1.00  0.00    -0.050 C  
HETATM   22  C   UNL     1      -7.705   6.258  70.288  1.00  0.00    -0.098 A  
HETATM   23  C   UNL     1      -7.341   5.112  71.005  1.00  0.00    -0.073 A  
HETATM   24  C   UNL     1      -8.200   4.545  71.946  1.00  0.00    -0.104 A  
HETATM   25  C   UNL     1      -9.452   5.139  72.180  1.00  0.00    -0.140 A  
HETATM   26  O   UNL     1      -9.136  10.439  69.828  1.00  0.00    -0.125 OA 
HETATM   27  C   UNL     1      -8.572   9.348  69.707  1.00  0.00    -0.175 C  
HETATM   28  C   UNL     1      -9.812   6.291  71.463  1.00  0.00    -0.193 A  
HETATM   29  C   UNL     1      -9.399   8.066  69.716  1.00  0.00    -0.159 C  
HETATM   30  C   UNL     1      -8.942   6.872  70.521  1.00  0.00    -0.155 A  
BRANCH  24  31
HETATM   31  O   UNL     1      -7.869   3.443  72.697  1.00  0.00    -0.064 OA 
HETATM   32  C   UNL     1      -6.744   3.580  73.558  1.00  0.00    -0.035 C  
ENDBRANCH  24  31
BRANCH  25  33
HETATM   33  O   UNL     1     -10.250   4.523  73.113  1.00  0.00    -0.149 OA 
HETATM   34  C   UNL     1     -10.681   3.198  72.836  1.00  0.00    -0.078 C  
ENDBRANCH  25  33
ENDBRANCH  18  19
ENDBRANCH  17  18
ENDBRANCH  16  17
ENDBRANCH  14  16
ENDBRANCH  13  14
ENDBRANCH   9  13
ENDBRANCH   2   3
TORSDOF 10
ENDMDL
MODEL      285
REMARK 921   NORMALIZED FREE ENERGY PREDICTED BY IDOCK:   -2.32 KCAL/MOL
REMARK 922        TOTAL FREE ENERGY PREDICTED BY IDOCK:   -5.63 KCAL/MOL
REMARK 923 INTER-LIGAND FREE ENERGY PREDICTED BY IDOCK:   -4.37 KCAL/MOL
REMARK 924 INTRA-LIGAND FREE ENERGY PREDICTED BY IDOCK:   -1.27 KCAL/MOL
REMARK 927      BINDING AFFINITY PREDICTED BY RF-SCORE:    0.00 PKD
ROOT
HETATM    1  C   UNL     1      -7.389   6.207  71.070  1.00  0.00    -0.083 C  
HETATM    2  O   UNL     1      -6.989   7.532  71.404  1.00  0.00    -0.053 OA 
ENDROOT
BRANCH   2   3
HETATM    3  C   UNL     1      -7.659   8.569  70.806  1.00  0.00    -0.074 A  
HETATM    4  C   UNL     1      -9.059   8.811  70.820  1.00  0.00    -0.192 A  
HETATM    5  C   UNL     1      -6.790   9.465  70.124  1.00  0.00    -0.071 A  
HETATM    6  C   UNL     1      -9.573   9.890  70.100  1.00  0.00    -0.237 A  
HETATM    7  C   UNL     1      -7.351  10.530  69.446  1.00  0.00    -0.133 A  
HETATM    8  C   UNL     1      -8.702  10.666  69.386  1.00  0.00    -0.040 A  
HETATM    9  C   UNL     1      -8.687  11.820  68.416  1.00  0.00    -0.155 C  
HETATM   10  C   UNL     1      -7.119  11.825  68.699  1.00  0.00    -0.101 C  
BRANCH   4  11
HETATM   11  O   UNL     1      -9.894   8.019  71.563  1.00  0.00    -0.161 OA 
HETATM   12  C   UNL     1     -11.268   8.013  71.177  1.00  0.00    -0.261 C  
ENDBRANCH   4  11
BRANCH   9  13
HETATM   13  C   UNL     1      -9.784  12.794  68.868  1.00  0.00     0.201 C  
BRANCH  13  14
HETATM   14  N   UNL     1     -10.010  13.991  68.057  1.00  0.00    -0.229 NA 
HETATM   15  C   UNL     1     -10.148  15.183  68.877  1.00  0.00    -0.238 C  
BRANCH  14  16
HETATM   16  C   UNL     1      -9.113  14.103  66.900  1.00  0.00    -0.245 C  
BRANCH  16  17
HETATM   17  C   UNL     1      -9.835  14.654  65.673  1.00  0.00    -0.354 C  
BRANCH  17  18
HETATM   18  C   UNL     1     -10.353  13.560  64.731  1.00  0.00    -0.385 C  
BRANCH  18  19
HETATM   19  N   UNL     1     -10.077  12.245  65.315  1.00  0.00    -0.276 N  
HETATM   20  C   UNL     1      -8.681  11.833  65.405  1.00  0.00     0.359 C  
HETATM   21  C   UNL     1      -8.414  10.546  64.643  1.00  0.00    -0.141 C  
HETATM   22  C   UNL     1      -8.669   9.391  65.571  1.00  0.00    -0.190 A  
HETATM   23  C   UNL     1      -7.595   8.556  65.906  1.00  0.00    -0.085 A  
HETATM   24  C   UNL     1      -7.752   7.501  66.805  1.00  0.00    -0.102 A  
HETATM   25  C   UNL     1      -9.012   7.276  67.387  1.00  0.00    -0.122 A  
HETATM   26  O   UNL     1     -12.074  12.115  66.421  1.00  0.00    -0.630 OA 
HETATM   27  C   UNL     1     -11.096  11.538  65.937  1.00  0.00    -0.214 C  
HETATM   28  C   UNL     1     -10.085   8.117  67.052  1.00  0.00    -0.350 A  
HETATM   29  C   UNL     1     -11.125  10.022  65.763  1.00  0.00     0.940 C  
HETATM   30  C   UNL     1      -9.926   9.189  66.155  1.00  0.00    -0.338 A  
BRANCH  24  31
HETATM   31  O   UNL     1      -6.719   6.682  67.189  1.00  0.00    -0.058 OA 
HETATM   32  C   UNL     1      -6.183   5.828  66.184  1.00  0.00    -0.034 C  
ENDBRANCH  24  31
BRANCH  25  33
HETATM   33  O   UNL     1      -9.097   6.216  68.255  1.00  0.00    -0.115 OA 
HETATM   34  C   UNL     1     -10.389   5.692  68.528  1.00  0.00    -0.199 C  
ENDBRANCH  25  33
ENDBRANCH  18  19
ENDBRANCH  17  18
ENDBRANCH  16  17
ENDBRANCH  14  16
ENDBRANCH  13  14
ENDBRANCH   9  13
ENDBRANCH   2   3
TORSDOF 10
ENDMDL
MODEL      286
REMARK 921   NORMALIZED FREE ENERGY PREDICTED BY IDOCK:   -2.31 KCAL/MOL
REMARK 922        TOTAL FREE ENERGY PREDICTED BY IDOCK:   -5.63 KCAL/MOL
REMARK 923 INTER-LIGAND FREE ENERGY PREDICTED BY IDOCK:   -4.74 KCAL/MOL
REMARK 924 INTRA-LIGAND FREE ENERGY PREDICTED BY IDOCK:   -0.89 KCAL/MOL
REMARK 927      BINDING AFFINITY PREDICTED BY RF-SCORE:    0.00 PKD
ROOT
HETATM    1  C   UNL     1      -8.238   8.561  73.621  1.00  0.00     0.009 C  
HETATM    2  O   UNL     1      -8.675   9.029  72.349  1.00  0.00    -0.347 OA 
ENDROOT
BRANCH   2   3
HETATM    3  C   UNL     1      -8.350   8.279  71.248  1.00  0.00    -0.131 A  
HETATM    4  C   UNL     1      -9.214   7.442  70.490  1.00  0.00    -0.157 A  
HETATM    5  C   UNL     1      -6.983   8.409  70.878  1.00  0.00    -0.052 A  
HETATM    6  C   UNL     1      -8.690   6.700  69.431  1.00  0.00    -0.135 A  
HETATM    7  C   UNL     1      -6.523   7.669  69.805  1.00  0.00    -0.031 A  
HETATM    8  C   UNL     1      -7.350   6.793  69.176  1.00  0.00    -0.093 A  
HETATM    9  C   UNL     1      -6.284   6.199  68.290  1.00  0.00    -0.032 C  
HETATM   10  C   UNL     1      -5.391   7.400  68.839  1.00  0.00    -0.021 C  
BRANCH   4  11
HETATM   11  O   UNL     1     -10.554   7.392  70.770  1.00  0.00    -0.219 OA 
HETATM   12  C   UNL     1     -11.181   6.118  70.633  1.00  0.00    -0.319 C  
ENDBRANCH   4  11
BRANCH   9  13
HETATM   13  C   UNL     1      -6.921   5.982  66.911  1.00  0.00    -0.068 C  
BRANCH  13  14
HETATM   14  N   UNL     1      -6.027   5.756  65.774  1.00  0.00    -0.024 NA 
HETATM   15  C   UNL     1      -5.191   4.584  65.967  1.00  0.00    -0.009 C  
BRANCH  14  16
HETATM   16  C   UNL     1      -6.687   5.872  64.468  1.00  0.00    -0.046 C  
BRANCH  16  17
HETATM   17  C   UNL     1      -6.916   7.329  64.075  1.00  0.00    -0.057 C  
BRANCH  17  18
HETATM   18  C   UNL     1      -8.322   7.596  63.522  1.00  0.00     0.152 C  
BRANCH  18  19
HETATM   19  N   UNL     1      -8.890   8.773  64.185  1.00  0.00     0.012 N  
HETATM   20  C   UNL     1      -9.526   9.774  63.337  1.00  0.00     0.064 C  
HETATM   21  C   UNL     1      -8.871  11.138  63.471  1.00  0.00     0.015 C  
HETATM   22  C   UNL     1      -9.540  11.871  64.600  1.00  0.00    -0.048 A  
HETATM   23  C   UNL     1     -10.241  13.048  64.307  1.00  0.00    -0.316 A  
HETATM   24  C   UNL     1     -10.930  13.745  65.299  1.00  0.00    -0.322 A  
HETATM   25  C   UNL     1     -10.924  13.253  66.616  1.00  0.00    -0.283 A  
HETATM   26  O   UNL     1      -9.060   7.766  66.230  1.00  0.00    -0.172 OA 
HETATM   27  C   UNL     1      -8.993   8.805  65.568  1.00  0.00    -0.181 C  
HETATM   28  C   UNL     1     -10.224  12.071  66.906  1.00  0.00    -0.230 A  
HETATM   29  C   UNL     1      -8.734  10.133  66.272  1.00  0.00    -0.152 C  
HETATM   30  C   UNL     1      -9.538  11.359  65.904  1.00  0.00    -0.254 A  
BRANCH  24  31
HETATM   31  O   UNL     1     -11.659  14.882  65.049  1.00  0.00    -0.363 OA 
HETATM   32  C   UNL     1     -10.922  16.094  64.939  1.00  0.00    -0.349 C  
ENDBRANCH  24  31
BRANCH  25  33
HETATM   33  O   UNL     1     -11.615  13.993  67.542  1.00  0.00    -0.325 OA 
HETATM   34  C   UNL     1     -10.951  14.312  68.757  1.00  0.00    -0.255 C  
ENDBRANCH  25  33
ENDBRANCH  18  19
ENDBRANCH  17  18
ENDBRANCH  16  17
ENDBRANCH  14  16
ENDBRANCH  13  14
ENDBRANCH   9  13
ENDBRANCH   2   3
TORSDOF 10
ENDMDL
MODEL      287
REMARK 921   NORMALIZED FREE ENERGY PREDICTED BY IDOCK:   -2.30 KCAL/MOL
REMARK 922        TOTAL FREE ENERGY PREDICTED BY IDOCK:   -5.61 KCAL/MOL
REMARK 923 INTER-LIGAND FREE ENERGY PREDICTED BY IDOCK:   -6.41 KCAL/MOL
REMARK 924 INTRA-LIGAND FREE ENERGY PREDICTED BY IDOCK:    0.80 KCAL/MOL
REMARK 927      BINDING AFFINITY PREDICTED BY RF-SCORE:    0.00 PKD
ROOT
HETATM    1  C   UNL     1     -12.334  14.215  65.104  1.00  0.00    -0.451 C  
HETATM    2  O   UNL     1     -11.159  14.836  65.616  1.00  0.00    -0.324 OA 
ENDROOT
BRANCH   2   3
HETATM    3  C   UNL     1     -10.278  14.052  66.316  1.00  0.00    -0.296 A  
HETATM    4  C   UNL     1     -10.425  12.679  66.651  1.00  0.00    -0.245 A  
HETATM    5  C   UNL     1      -9.106  14.757  66.708  1.00  0.00    -0.291 A  
HETATM    6  C   UNL     1      -9.447  12.056  67.427  1.00  0.00    -0.177 A  
HETATM    7  C   UNL     1      -8.158  14.084  67.455  1.00  0.00    -0.197 A  
HETATM    8  C   UNL     1      -8.386  12.805  67.855  1.00  0.00    -0.172 A  
HETATM    9  C   UNL     1      -7.163  12.708  68.731  1.00  0.00    -0.083 C  
HETATM   10  C   UNL     1      -6.770  14.096  68.054  1.00  0.00    -0.153 C  
BRANCH   4  11
HETATM   11  O   UNL     1     -11.496  11.961  66.187  1.00  0.00    -0.343 OA 
HETATM   12  C   UNL     1     -11.196  10.860  65.331  1.00  0.00     0.282 C  
ENDBRANCH   4  11
BRANCH   9  13
HETATM   13  C   UNL     1      -6.582  11.302  68.530  1.00  0.00    -0.060 C  
BRANCH  13  14
HETATM   14  N   UNL     1      -6.241  10.894  67.166  1.00  0.00    -0.063 NA 
HETATM   15  C   UNL     1      -5.220  11.748  66.584  1.00  0.00    -0.047 C  
BRANCH  14  16
HETATM   16  C   UNL     1      -6.039   9.448  67.012  1.00  0.00    -0.064 C  
BRANCH  16  17
HETATM   17  C   UNL     1      -6.884   8.875  65.877  1.00  0.00    -0.072 C  
BRANCH  17  18
HETATM   18  C   UNL     1      -7.449   7.482  66.183  1.00  0.00    -0.083 C  
BRANCH  18  19
HETATM   19  N   UNL     1      -8.326   7.559  67.353  1.00  0.00    -0.112 N  
HETATM   20  C   UNL     1      -7.694   7.511  68.667  1.00  0.00    -0.119 C  
HETATM   21  C   UNL     1      -8.193   6.342  69.499  1.00  0.00    -0.118 C  
HETATM   22  C   UNL     1      -9.411   6.792  70.257  1.00  0.00    -0.159 A  
HETATM   23  C   UNL     1      -9.353   6.818  71.656  1.00  0.00    -0.151 A  
HETATM   24  C   UNL     1     -10.428   7.278  72.415  1.00  0.00    -0.229 A  
HETATM   25  C   UNL     1     -11.589   7.728  71.763  1.00  0.00    -0.272 A  
HETATM   26  O   UNL     1     -10.060   8.525  66.217  1.00  0.00    -0.258 OA 
HETATM   27  C   UNL     1      -9.667   7.877  67.192  1.00  0.00    -0.191 C  
HETATM   28  C   UNL     1     -11.643   7.705  70.360  1.00  0.00    -0.138 A  
HETATM   29  C   UNL     1     -10.681   7.172  68.087  1.00  0.00    -0.214 C  
HETATM   30  C   UNL     1     -10.554   7.252  69.591  1.00  0.00    -0.246 A  
BRANCH  24  31
HETATM   31  O   UNL     1     -10.401   7.355  73.787  1.00  0.00    -0.348 OA 
HETATM   32  C   UNL     1     -10.284   6.121  74.486  1.00  0.00    -0.300 C  
ENDBRANCH  24  31
BRANCH  25  33
HETATM   33  O   UNL     1     -12.611   8.159  72.572  1.00  0.00    -0.266 OA 
HETATM   34  C   UNL     1     -13.541   9.082  72.022  1.00  0.00    -0.445 C  
ENDBRANCH  25  33
ENDBRANCH  18  19
ENDBRANCH  17  18
ENDBRANCH  16  17
ENDBRANCH  14  16
ENDBRANCH  13  14
ENDBRANCH   9  13
ENDBRANCH   2   3
TORSDOF 10
ENDMDL
MODEL      288
REMARK 921   NORMALIZED FREE ENERGY PREDICTED BY IDOCK:   -2.30 KCAL/MOL
REMARK 922        TOTAL FREE ENERGY PREDICTED BY IDOCK:   -5.60 KCAL/MOL
REMARK 923 INTER-LIGAND FREE ENERGY PREDICTED BY IDOCK:   -6.30 KCAL/MOL
REMARK 924 INTRA-LIGAND FREE ENERGY PREDICTED BY IDOCK:    0.70 KCAL/MOL
REMARK 927      BINDING AFFINITY PREDICTED BY RF-SCORE:    0.00 PKD
ROOT
HETATM    1  C   UNL     1      -9.917   3.208  64.171  1.00  0.00    -0.166 C  
HETATM    2  O   UNL     1      -8.854   3.745  64.952  1.00  0.00    -0.115 OA 
ENDROOT
BRANCH   2   3
HETATM    3  C   UNL     1      -8.921   5.071  65.293  1.00  0.00    -0.151 A  
HETATM    4  C   UNL     1      -9.652   5.649  66.367  1.00  0.00    -0.157 A  
HETATM    5  C   UNL     1      -8.142   5.899  64.438  1.00  0.00    -0.128 A  
HETATM    6  C   UNL     1      -9.652   7.035  66.526  1.00  0.00    -0.201 A  
HETATM    7  C   UNL     1      -8.160   7.264  64.656  1.00  0.00    -0.081 A  
HETATM    8  C   UNL     1      -8.960   7.791  65.620  1.00  0.00    -0.050 A  
HETATM    9  C   UNL     1      -8.696   9.230  65.255  1.00  0.00    -0.214 C  
HETATM   10  C   UNL     1      -7.569   8.613  64.313  1.00  0.00    -0.120 C  
BRANCH   4  11
HETATM   11  O   UNL     1     -10.318   4.853  67.261  1.00  0.00    -0.170 OA 
HETATM   12  C   UNL     1      -9.926   4.974  68.628  1.00  0.00    -0.144 C  
ENDBRANCH   4  11
BRANCH   9  13
HETATM   13  C   UNL     1      -8.579  10.008  66.572  1.00  0.00    -0.125 C  
BRANCH  13  14
HETATM   14  N   UNL     1      -7.550   9.585  67.525  1.00  0.00    -0.094 NA 
HETATM   15  C   UNL     1      -6.240   9.498  66.904  1.00  0.00    -0.065 C  
BRANCH  14  16
HETATM   16  C   UNL     1      -7.610  10.285  68.814  1.00  0.00    -0.093 C  
BRANCH  16  17
HETATM   17  C   UNL     1      -6.693  11.504  68.840  1.00  0.00    -0.086 C  
BRANCH  17  18
HETATM   18  C   UNL     1      -6.619  12.238  67.495  1.00  0.00    -0.141 C  
BRANCH  18  19
HETATM   19  N   UNL     1      -7.062  13.624  67.672  1.00  0.00    -0.162 N  
HETATM   20  C   UNL     1      -6.030  14.632  67.891  1.00  0.00    -0.139 C  
HETATM   21  C   UNL     1      -6.212  15.359  69.212  1.00  0.00    -0.124 C  
HETATM   22  C   UNL     1      -7.117  16.536  68.979  1.00  0.00    -0.213 A  
HETATM   23  C   UNL     1      -6.600  17.823  69.179  1.00  0.00    -0.246 A  
HETATM   24  C   UNL     1      -7.370  18.958  68.927  1.00  0.00    -0.310 A  
HETATM   25  C   UNL     1      -8.687  18.806  68.459  1.00  0.00    -0.346 A  
HETATM   26  O   UNL     1      -9.085  13.299  66.658  1.00  0.00    -0.234 OA 
HETATM   27  C   UNL     1      -8.384  13.963  67.427  1.00  0.00    -0.198 C  
HETATM   28  C   UNL     1      -9.201  17.515  68.256  1.00  0.00    -0.277 A  
HETATM   29  C   UNL     1      -9.037  14.997  68.340  1.00  0.00    -0.184 C  
HETATM   30  C   UNL     1      -8.421  16.368  68.498  1.00  0.00    -0.211 A  
BRANCH  24  31
HETATM   31  O   UNL     1      -6.892  20.237  69.074  1.00  0.00    -0.250 OA 
HETATM   32  C   UNL     1      -5.841  20.414  70.018  1.00  0.00    -0.352 C  
ENDBRANCH  24  31
BRANCH  25  33
HETATM   33  O   UNL     1      -9.390  19.965  68.240  1.00  0.00    -0.335 OA 
HETATM   34  C   UNL     1     -10.467  19.915  67.314  1.00  0.00    -0.421 C  
ENDBRANCH  25  33
ENDBRANCH  18  19
ENDBRANCH  17  18
ENDBRANCH  16  17
ENDBRANCH  14  16
ENDBRANCH  13  14
ENDBRANCH   9  13
ENDBRANCH   2   3
TORSDOF 10
ENDMDL
MODEL      289
REMARK 921   NORMALIZED FREE ENERGY PREDICTED BY IDOCK:   -2.28 KCAL/MOL
REMARK 922        TOTAL FREE ENERGY PREDICTED BY IDOCK:   -5.58 KCAL/MOL
REMARK 923 INTER-LIGAND FREE ENERGY PREDICTED BY IDOCK:   -3.80 KCAL/MOL
REMARK 924 INTRA-LIGAND FREE ENERGY PREDICTED BY IDOCK:   -1.78 KCAL/MOL
REMARK 927      BINDING AFFINITY PREDICTED BY RF-SCORE:    0.00 PKD
ROOT
HETATM    1  C   UNL     1      -7.395   3.980  74.550  1.00  0.00    -0.070 C  
HETATM    2  O   UNL     1      -7.687   4.893  73.497  1.00  0.00    -0.093 OA 
ENDROOT
BRANCH   2   3
HETATM    3  C   UNL     1      -7.557   4.441  72.208  1.00  0.00    -0.078 A  
HETATM    4  C   UNL     1      -8.042   3.218  71.671  1.00  0.00    -0.058 A  
HETATM    5  C   UNL     1      -6.856   5.354  71.374  1.00  0.00    -0.057 A  
HETATM    6  C   UNL     1      -7.759   2.895  70.344  1.00  0.00    -0.043 A  
HETATM    7  C   UNL     1      -6.625   4.994  70.060  1.00  0.00    -0.036 A  
HETATM    8  C   UNL     1      -7.003   3.767  69.612  1.00  0.00    -0.042 A  
HETATM    9  C   UNL     1      -6.347   3.899  68.261  1.00  0.00    -0.037 C  
HETATM   10  C   UNL     1      -6.140   5.419  68.692  1.00  0.00    -0.022 C  
BRANCH   4  11
HETATM   11  O   UNL     1      -8.811   2.380  72.435  1.00  0.00    -0.066 OA 
HETATM   12  C   UNL     1     -10.160   2.195  72.008  1.00  0.00    -0.149 C  
ENDBRANCH   4  11
BRANCH   9  13
HETATM   13  C   UNL     1      -7.306   3.275  67.239  1.00  0.00    -0.059 C  
BRANCH  13  14
HETATM   14  N   UNL     1      -6.725   2.482  66.154  1.00  0.00    -0.038 NA 
HETATM   15  C   UNL     1      -5.772   1.503  66.648  1.00  0.00    -0.018 C  
BRANCH  14  16
HETATM   16  C   UNL     1      -7.711   1.991  65.182  1.00  0.00    -0.072 C  
BRANCH  16  17
HETATM   17  C   UNL     1      -7.490   2.592  63.797  1.00  0.00    -0.066 C  
BRANCH  17  18
HETATM   18  C   UNL     1      -8.725   3.314  63.243  1.00  0.00    -0.089 C  
BRANCH  18  19
HETATM   19  N   UNL     1      -9.044   4.458  64.101  1.00  0.00    -0.150 N  
HETATM   20  C   UNL     1      -8.260   5.673  63.915  1.00  0.00    -0.094 C  
HETATM   21  C   UNL     1      -7.529   6.082  65.182  1.00  0.00    -0.084 C  
HETATM   22  C   UNL     1      -8.442   6.963  65.987  1.00  0.00    -0.140 A  
HETATM   23  C   UNL     1      -8.060   8.292  66.210  1.00  0.00    -0.109 A  
HETATM   24  C   UNL     1      -8.889   9.176  66.901  1.00  0.00    -0.123 A  
HETATM   25  C   UNL     1     -10.131   8.724  67.378  1.00  0.00    -0.226 A  
HETATM   26  O   UNL     1     -11.153   3.727  64.600  1.00  0.00    -0.190 OA 
HETATM   27  C   UNL     1     -10.181   4.430  64.896  1.00  0.00    -0.108 C  
HETATM   28  C   UNL     1     -10.513   7.393  67.149  1.00  0.00    -0.403 A  
HETATM   29  C   UNL     1     -10.099   5.057  66.284  1.00  0.00    -0.275 C  
HETATM   30  C   UNL     1      -9.684   6.502  66.441  1.00  0.00    -0.133 A  
BRANCH  24  31
HETATM   31  O   UNL     1      -8.570  10.496  67.110  1.00  0.00    -0.126 OA 
HETATM   32  C   UNL     1      -7.554  11.041  66.274  1.00  0.00    -0.111 C  
ENDBRANCH  24  31
BRANCH  25  33
HETATM   33  O   UNL     1     -10.891   9.645  68.056  1.00  0.00    -0.242 OA 
HETATM   34  C   UNL     1     -10.968   9.520  69.469  1.00  0.00    -0.195 C  
ENDBRANCH  25  33
ENDBRANCH  18  19
ENDBRANCH  17  18
ENDBRANCH  16  17
ENDBRANCH  14  16
ENDBRANCH  13  14
ENDBRANCH   9  13
ENDBRANCH   2   3
TORSDOF 10
ENDMDL
MODEL      290
REMARK 921   NORMALIZED FREE ENERGY PREDICTED BY IDOCK:   -2.25 KCAL/MOL
REMARK 922        TOTAL FREE ENERGY PREDICTED BY IDOCK:   -5.53 KCAL/MOL
REMARK 923 INTER-LIGAND FREE ENERGY PREDICTED BY IDOCK:   -6.29 KCAL/MOL
REMARK 924 INTRA-LIGAND FREE ENERGY PREDICTED BY IDOCK:    0.76 KCAL/MOL
REMARK 927      BINDING AFFINITY PREDICTED BY RF-SCORE:    0.00 PKD
ROOT
HETATM    1  C   UNL     1     -10.604   4.705  66.791  1.00  0.00     0.127 C  
HETATM    2  O   UNL     1      -9.724   5.465  65.968  1.00  0.00    -0.157 OA 
ENDROOT
BRANCH   2   3
HETATM    3  C   UNL     1      -9.232   6.640  66.477  1.00  0.00    -0.158 A  
HETATM    4  C   UNL     1      -7.870   6.980  66.699  1.00  0.00    -0.106 A  
HETATM    5  C   UNL     1     -10.257   7.576  66.785  1.00  0.00    -0.324 A  
HETATM    6  C   UNL     1      -7.559   8.206  67.287  1.00  0.00    -0.097 A  
HETATM    7  C   UNL     1      -9.891   8.787  67.343  1.00  0.00    -0.250 A  
HETATM    8  C   UNL     1      -8.589   9.031  67.647  1.00  0.00    -0.120 A  
HETATM    9  C   UNL     1      -8.849  10.338  68.352  1.00  0.00    -0.129 C  
HETATM   10  C   UNL     1     -10.321  10.174  67.764  1.00  0.00    -0.253 C  
BRANCH   4  11
HETATM   11  O   UNL     1      -6.870   6.131  66.307  1.00  0.00    -0.058 OA 
HETATM   12  C   UNL     1      -6.062   5.583  67.348  1.00  0.00    -0.030 C  
ENDBRANCH   4  11
BRANCH   9  13
HETATM   13  C   UNL     1      -7.717  11.293  67.951  1.00  0.00    -0.110 C  
BRANCH  13  14
HETATM   14  N   UNL     1      -7.750  11.861  66.602  1.00  0.00    -0.049 NA 
HETATM   15  C   UNL     1      -7.010  11.047  65.653  1.00  0.00     0.156 C  
BRANCH  14  16
HETATM   16  C   UNL     1      -9.084  12.301  66.176  1.00  0.00    -0.074 C  
BRANCH  16  17
HETATM   17  C   UNL     1      -9.083  13.756  65.716  1.00  0.00     0.468 C  
BRANCH  17  18
HETATM   18  C   UNL     1      -8.448  14.714  66.734  1.00  0.00    -0.110 C  
BRANCH  18  19
HETATM   19  N   UNL     1      -9.356  14.887  67.870  1.00  0.00    -0.189 N  
HETATM   20  C   UNL     1     -10.031  13.697  68.374  1.00  0.00    -0.235 C  
HETATM   21  C   UNL     1     -11.543  13.825  68.309  1.00  0.00    -0.373 C  
HETATM   22  C   UNL     1     -12.016  14.462  69.585  1.00  0.00    -0.385 A  
HETATM   23  C   UNL     1     -12.846  13.718  70.434  1.00  0.00    -0.160 A  
HETATM   24  C   UNL     1     -13.273  14.231  71.658  1.00  0.00    -0.356 A  
HETATM   25  C   UNL     1     -12.858  15.516  72.049  1.00  0.00    -0.420 A  
HETATM   26  O   UNL     1      -8.420  16.858  68.552  1.00  0.00    -0.238 OA 
HETATM   27  C   UNL     1      -9.391  16.097  68.548  1.00  0.00    -0.209 C  
HETATM   28  C   UNL     1     -12.021  16.257  71.199  1.00  0.00    -0.219 A  
HETATM   29  C   UNL     1     -10.743  16.597  69.048  1.00  0.00    -0.343 C  
HETATM   30  C   UNL     1     -11.579  15.737  69.968  1.00  0.00    -0.361 A  
BRANCH  24  31
HETATM   31  O   UNL     1     -14.058  13.523  72.536  1.00  0.00    -0.731 OA 
HETATM   32  C   UNL     1     -13.990  12.104  72.441  1.00  0.00     0.385 C  
ENDBRANCH  24  31
BRANCH  25  33
HETATM   33  O   UNL     1     -13.323  15.960  73.262  1.00  0.00    -0.561 OA 
HETATM   34  C   UNL     1     -12.422  15.930  74.361  1.00  0.00    -0.621 C  
ENDBRANCH  25  33
ENDBRANCH  18  19
ENDBRANCH  17  18
ENDBRANCH  16  17
ENDBRANCH  14  16
ENDBRANCH  13  14
ENDBRANCH   9  13
ENDBRANCH   2   3
TORSDOF 10
ENDMDL
MODEL      291
REMARK 921   NORMALIZED FREE ENERGY PREDICTED BY IDOCK:   -2.24 KCAL/MOL
REMARK 922        TOTAL FREE ENERGY PREDICTED BY IDOCK:   -5.51 KCAL/MOL
REMARK 923 INTER-LIGAND FREE ENERGY PREDICTED BY IDOCK:   -4.14 KCAL/MOL
REMARK 924 INTRA-LIGAND FREE ENERGY PREDICTED BY IDOCK:   -1.37 KCAL/MOL
REMARK 927      BINDING AFFINITY PREDICTED BY RF-SCORE:    0.00 PKD
ROOT
HETATM    1  C   UNL     1      -7.166   8.994  64.262  1.00  0.00    -0.091 C  
HETATM    2  O   UNL     1      -6.118   8.306  64.938  1.00  0.00    -0.048 OA 
ENDROOT
BRANCH   2   3
HETATM    3  C   UNL     1      -6.185   8.230  66.305  1.00  0.00    -0.046 A  
HETATM    4  C   UNL     1      -5.997   9.287  67.237  1.00  0.00    -0.049 A  
HETATM    5  C   UNL     1      -6.487   6.920  66.769  1.00  0.00    -0.047 A  
HETATM    6  C   UNL     1      -6.042   9.009  68.603  1.00  0.00    -0.045 A  
HETATM    7  C   UNL     1      -6.543   6.706  68.134  1.00  0.00    -0.059 A  
HETATM    8  C   UNL     1      -6.245   7.715  68.995  1.00  0.00    -0.035 A  
HETATM    9  C   UNL     1      -6.292   6.861  70.237  1.00  0.00    -0.039 C  
HETATM   10  C   UNL     1      -6.895   5.758  69.257  1.00  0.00    -0.062 C  
BRANCH   4  11
HETATM   11  O   UNL     1      -5.813  10.572  66.802  1.00  0.00    -0.054 OA 
HETATM   12  C   UNL     1      -5.933  11.597  67.787  1.00  0.00    -0.052 C  
ENDBRANCH   4  11
BRANCH   9  13
HETATM   13  C   UNL     1      -6.969   7.701  71.328  1.00  0.00    -0.050 C  
BRANCH  13  14
HETATM   14  N   UNL     1      -7.150   7.089  72.646  1.00  0.00    -0.069 NA 
HETATM   15  C   UNL     1      -5.913   6.519  73.153  1.00  0.00    -0.057 C  
BRANCH  14  16
HETATM   16  C   UNL     1      -7.912   7.920  73.587  1.00  0.00    -0.182 C  
BRANCH  16  17
HETATM   17  C   UNL     1      -9.029   7.130  74.265  1.00  0.00    -0.250 C  
BRANCH  17  18
HETATM   18  C   UNL     1     -10.414   7.394  73.660  1.00  0.00    -0.299 C  
BRANCH  18  19
HETATM   19  N   UNL     1     -10.321   7.360  72.199  1.00  0.00    -0.194 N  
HETATM   20  C   UNL     1     -10.111   8.630  71.512  1.00  0.00    -0.274 C  
HETATM   21  C   UNL     1     -11.228   8.940  70.530  1.00  0.00    -0.287 C  
HETATM   22  C   UNL     1     -10.871   8.325  69.205  1.00  0.00    -0.063 A  
HETATM   23  C   UNL     1     -10.662   9.175  68.111  1.00  0.00    -0.186 A  
HETATM   24  C   UNL     1     -10.275   8.672  66.869  1.00  0.00    -0.296 A  
HETATM   25  C   UNL     1     -10.086   7.288  66.716  1.00  0.00    -0.221 A  
HETATM   26  O   UNL     1      -9.771   5.143  72.103  1.00  0.00    -0.155 OA 
HETATM   27  C   UNL     1     -10.226   6.142  71.540  1.00  0.00    -0.203 C  
HETATM   28  C   UNL     1     -10.291   6.439  67.815  1.00  0.00    -0.238 A  
HETATM   29  C   UNL     1     -10.956   5.991  70.209  1.00  0.00    -0.412 C  
HETATM   30  C   UNL     1     -10.671   6.945  69.073  1.00  0.00    -0.259 A  
BRANCH  24  31
HETATM   31  O   UNL     1     -10.024   9.472  65.781  1.00  0.00    -0.300 OA 
HETATM   32  C   UNL     1     -10.075  10.877  66.004  1.00  0.00    -0.249 C  
ENDBRANCH  24  31
BRANCH  25  33
HETATM   33  O   UNL     1      -9.713   6.863  65.465  1.00  0.00     0.532 OA 
HETATM   34  C   UNL     1      -9.417   5.482  65.302  1.00  0.00     0.202 C  
ENDBRANCH  25  33
ENDBRANCH  18  19
ENDBRANCH  17  18
ENDBRANCH  16  17
ENDBRANCH  14  16
ENDBRANCH  13  14
ENDBRANCH   9  13
ENDBRANCH   2   3
TORSDOF 10
ENDMDL
MODEL      292
REMARK 921   NORMALIZED FREE ENERGY PREDICTED BY IDOCK:   -2.17 KCAL/MOL
REMARK 922        TOTAL FREE ENERGY PREDICTED BY IDOCK:   -5.41 KCAL/MOL
REMARK 923 INTER-LIGAND FREE ENERGY PREDICTED BY IDOCK:   -4.05 KCAL/MOL
REMARK 924 INTRA-LIGAND FREE ENERGY PREDICTED BY IDOCK:   -1.36 KCAL/MOL
REMARK 927      BINDING AFFINITY PREDICTED BY RF-SCORE:    0.00 PKD
ROOT
HETATM    1  C   UNL     1      -8.682  16.545  67.517  1.00  0.00    -0.182 C  
HETATM    2  O   UNL     1      -7.549  16.278  68.338  1.00  0.00    -0.153 OA 
ENDROOT
BRANCH   2   3
HETATM    3  C   UNL     1      -7.112  14.981  68.417  1.00  0.00    -0.108 A  
HETATM    4  C   UNL     1      -6.389  14.378  69.483  1.00  0.00    -0.128 A  
HETATM    5  C   UNL     1      -7.465  14.211  67.275  1.00  0.00    -0.068 A  
HETATM    6  C   UNL     1      -5.971  13.053  69.362  1.00  0.00    -0.103 A  
HETATM    7  C   UNL     1      -7.045  12.895  67.218  1.00  0.00    -0.071 A  
HETATM    8  C   UNL     1      -6.258  12.387  68.203  1.00  0.00    -0.065 A  
HETATM    9  C   UNL     1      -6.000  11.070  67.515  1.00  0.00    -0.046 C  
HETATM   10  C   UNL     1      -7.126  11.566  66.502  1.00  0.00    -0.009 C  
BRANCH   4  11
HETATM   11  O   UNL     1      -6.138  15.078  70.634  1.00  0.00    -0.123 OA 
HETATM   12  C   UNL     1      -6.394  16.481  70.590  1.00  0.00     0.829 C  
ENDBRANCH   4  11
BRANCH   9  13
HETATM   13  C   UNL     1      -6.043   9.986  68.600  1.00  0.00    -0.044 C  
BRANCH  13  14
HETATM   14  N   UNL     1      -7.024   8.909  68.450  1.00  0.00    -0.065 NA 
HETATM   15  C   UNL     1      -6.526   7.838  67.604  1.00  0.00    -0.055 C  
BRANCH  14  16
HETATM   16  C   UNL     1      -7.653   8.498  69.711  1.00  0.00    -0.083 C  
BRANCH  16  17
HETATM   17  C   UNL     1      -8.792   7.508  69.480  1.00  0.00    -0.137 C  
BRANCH  17  18
HETATM   18  C   UNL     1     -10.156   8.032  69.946  1.00  0.00    -0.198 C  
BRANCH  18  19
HETATM   19  N   UNL     1     -10.538   9.187  69.129  1.00  0.00    -0.223 N  
HETATM   20  C   UNL     1     -10.918   8.930  67.745  1.00  0.00     0.106 C  
HETATM   21  C   UNL     1     -10.030   9.671  66.761  1.00  0.00    -0.289 C  
HETATM   22  C   UNL     1     -10.624  11.032  66.524  1.00  0.00    -0.310 A  
HETATM   23  C   UNL     1     -11.072  11.348  65.236  1.00  0.00    -0.198 A  
HETATM   24  C   UNL     1     -11.684  12.571  64.963  1.00  0.00    -0.362 A  
HETATM   25  C   UNL     1     -11.858  13.501  66.004  1.00  0.00    -0.379 A  
HETATM   26  O   UNL     1     -11.028  10.522  70.919  1.00  0.00    -0.088 OA 
HETATM   27  C   UNL     1     -10.724  10.425  69.727  1.00  0.00    -0.278 C  
HETATM   28  C   UNL     1     -11.412  13.179  67.295  1.00  0.00    -0.375 A  
HETATM   29  C   UNL     1     -10.270  11.664  68.962  1.00  0.00    -0.077 C  
HETATM   30  C   UNL     1     -10.805  11.940  67.575  1.00  0.00    -0.283 A  
BRANCH  24  31
HETATM   31  O   UNL     1     -12.171  12.908  63.723  1.00  0.00    -0.481 OA 
HETATM   32  C   UNL     1     -13.276  12.146  63.250  1.00  0.00     0.436 C  
ENDBRANCH  24  31
BRANCH  25  33
HETATM   33  O   UNL     1     -12.460  14.686  65.662  1.00  0.00    -0.250 OA 
HETATM   34  C   UNL     1     -11.735  15.571  64.819  1.00  0.00    -0.187 C  
ENDBRANCH  25  33
ENDBRANCH  18  19
ENDBRANCH  17  18
ENDBRANCH  16  17
ENDBRANCH  14  16
ENDBRANCH  13  14
ENDBRANCH   9  13
ENDBRANCH   2   3
TORSDOF 10
ENDMDL
MODEL      293
REMARK 921   NORMALIZED FREE ENERGY PREDICTED BY IDOCK:   -2.12 KCAL/MOL
REMARK 922        TOTAL FREE ENERGY PREDICTED BY IDOCK:   -5.32 KCAL/MOL
REMARK 923 INTER-LIGAND FREE ENERGY PREDICTED BY IDOCK:   -4.83 KCAL/MOL
REMARK 924 INTRA-LIGAND FREE ENERGY PREDICTED BY IDOCK:   -0.49 KCAL/MOL
REMARK 927      BINDING AFFINITY PREDICTED BY RF-SCORE:    0.00 PKD
ROOT
HETATM    1  C   UNL     1      -6.657   8.091  64.342  1.00  0.00    -0.061 C  
HETATM    2  O   UNL     1      -5.967   7.139  65.146  1.00  0.00    -0.036 OA 
ENDROOT
BRANCH   2   3
HETATM    3  C   UNL     1      -6.176   7.180  66.501  1.00  0.00    -0.039 A  
HETATM    4  C   UNL     1      -6.116   8.320  67.348  1.00  0.00    -0.052 A  
HETATM    5  C   UNL     1      -6.491   5.905  67.047  1.00  0.00    -0.050 A  
HETATM    6  C   UNL     1      -6.297   8.161  68.721  1.00  0.00    -0.045 A  
HETATM    7  C   UNL     1      -6.684   5.809  68.412  1.00  0.00    -0.054 A  
HETATM    8  C   UNL     1      -6.506   6.899  69.205  1.00  0.00    -0.043 A  
HETATM    9  C   UNL     1      -6.661   6.155  70.508  1.00  0.00    -0.053 C  
HETATM   10  C   UNL     1      -7.127   4.950  69.575  1.00  0.00    -0.055 C  
BRANCH   4  11
HETATM   11  O   UNL     1      -5.921   9.569  66.819  1.00  0.00    -0.057 OA 
HETATM   12  C   UNL     1      -6.152  10.669  67.697  1.00  0.00    -0.048 C  
ENDBRANCH   4  11
BRANCH   9  13
HETATM   13  C   UNL     1      -7.472   7.062  71.443  1.00  0.00    -0.081 C  
BRANCH  13  14
HETATM   14  N   UNL     1      -7.974   6.481  72.689  1.00  0.00    -0.103 NA 
HETATM   15  C   UNL     1      -6.905   6.230  73.640  1.00  0.00    -0.079 C  
BRANCH  14  16
HETATM   16  C   UNL     1      -9.167   7.154  73.220  1.00  0.00    -0.157 C  
BRANCH  16  17
HETATM   17  C   UNL     1     -10.417   6.292  73.074  1.00  0.00    -0.249 C  
BRANCH  17  18
HETATM   18  C   UNL     1     -11.071   6.398  71.690  1.00  0.00    -0.267 C  
BRANCH  18  19
HETATM   19  N   UNL     1     -11.132   7.805  71.288  1.00  0.00    -0.243 N  
HETATM   20  C   UNL     1     -11.383   8.789  72.335  1.00  0.00    -0.202 C  
HETATM   21  C   UNL     1     -12.641   9.597  72.070  1.00  0.00    -0.443 C  
HETATM   22  C   UNL     1     -12.265  10.789  71.235  1.00  0.00    -0.426 A  
HETATM   23  C   UNL     1     -12.438  12.067  71.782  1.00  0.00     0.026 A  
HETATM   24  C   UNL     1     -12.057  13.211  71.081  1.00  0.00     0.100 A  
HETATM   25  C   UNL     1     -11.485  13.077  69.803  1.00  0.00    -0.143 A  
HETATM   26  O   UNL     1      -9.965   7.490  69.347  1.00  0.00    -0.172 OA 
HETATM   27  C   UNL     1     -10.754   8.174  70.005  1.00  0.00    -0.243 C  
HETATM   28  C   UNL     1     -11.310  11.794  69.259  1.00  0.00    -0.348 A  
HETATM   29  C   UNL     1     -11.548   9.281  69.318  1.00  0.00     0.450 C  
HETATM   30  C   UNL     1     -11.683  10.638  69.970  1.00  0.00    -0.405 A  
BRANCH  24  31
HETATM   31  O   UNL     1     -12.174  14.480  71.594  1.00  0.00    -0.335 OA 
HETATM   32  C   UNL     1     -13.451  14.836  72.113  1.00  0.00    -0.391 C  
ENDBRANCH  24  31
BRANCH  25  33
HETATM   33  O   UNL     1     -11.142  14.244  69.167  1.00  0.00    -0.248 OA 
HETATM   34  C   UNL     1     -11.110  14.233  67.747  1.00  0.00    -0.280 C  
ENDBRANCH  25  33
ENDBRANCH  18  19
ENDBRANCH  17  18
ENDBRANCH  16  17
ENDBRANCH  14  16
ENDBRANCH  13  14
ENDBRANCH   9  13
ENDBRANCH   2   3
TORSDOF 10
ENDMDL
MODEL      294
REMARK 921   NORMALIZED FREE ENERGY PREDICTED BY IDOCK:   -2.08 KCAL/MOL
REMARK 922        TOTAL FREE ENERGY PREDICTED BY IDOCK:   -5.26 KCAL/MOL
REMARK 923 INTER-LIGAND FREE ENERGY PREDICTED BY IDOCK:   -4.52 KCAL/MOL
REMARK 924 INTRA-LIGAND FREE ENERGY PREDICTED BY IDOCK:   -0.73 KCAL/MOL
REMARK 927      BINDING AFFINITY PREDICTED BY RF-SCORE:    0.00 PKD
ROOT
HETATM    1  C   UNL     1     -12.832   7.021  70.917  1.00  0.00    -0.105 C  
HETATM    2  O   UNL     1     -12.101   5.817  70.705  1.00  0.00     0.526 OA 
ENDROOT
BRANCH   2   3
HETATM    3  C   UNL     1     -10.732   5.900  70.679  1.00  0.00    -0.285 A  
HETATM    4  C   UNL     1      -9.862   5.456  69.646  1.00  0.00    -0.193 A  
HETATM    5  C   UNL     1     -10.196   6.518  71.842  1.00  0.00    -0.214 A  
HETATM    6  C   UNL     1      -8.483   5.568  69.820  1.00  0.00    -0.105 A  
HETATM    7  C   UNL     1      -8.822   6.624  71.952  1.00  0.00    -0.132 A  
HETATM    8  C   UNL     1      -8.018   6.085  70.997  1.00  0.00    -0.116 A  
HETATM    9  C   UNL     1      -6.728   6.341  71.736  1.00  0.00    -0.063 C  
HETATM   10  C   UNL     1      -7.649   7.199  72.713  1.00  0.00    -0.088 C  
BRANCH   4  11
HETATM   11  O   UNL     1     -10.371   4.959  68.475  1.00  0.00    -0.088 OA 
HETATM   12  C   UNL     1      -9.597   5.196  67.300  1.00  0.00    -0.142 C  
ENDBRANCH   4  11
BRANCH   9  13
HETATM   13  C   UNL     1      -5.699   6.789  70.689  1.00  0.00    -0.024 C  
BRANCH  13  14
HETATM   14  N   UNL     1      -5.774   8.168  70.205  1.00  0.00    -0.022 NA 
HETATM   15  C   UNL     1      -5.428   9.126  71.241  1.00  0.00    -0.047 C  
BRANCH  14  16
HETATM   16  C   UNL     1      -5.140   8.374  68.896  1.00  0.00    -0.028 C  
BRANCH  16  17
HETATM   17  C   UNL     1      -6.173   8.496  67.779  1.00  0.00    -0.052 C  
BRANCH  17  18
HETATM   18  C   UNL     1      -7.619   8.346  68.268  1.00  0.00    -0.098 C  
BRANCH  18  19
HETATM   19  N   UNL     1      -8.300   9.640  68.177  1.00  0.00    -0.117 N  
HETATM   20  C   UNL     1      -9.189   9.848  67.039  1.00  0.00    -0.142 C  
HETATM   21  C   UNL     1      -8.763  11.034  66.191  1.00  0.00    -0.188 C  
HETATM   22  C   UNL     1      -9.416  12.268  66.748  1.00  0.00    -0.222 A  
HETATM   23  C   UNL     1     -10.335  12.956  65.945  1.00  0.00    -0.297 A  
HETATM   24  C   UNL     1     -11.016  14.075  66.423  1.00  0.00    -0.308 A  
HETATM   25  C   UNL     1     -10.778  14.516  67.736  1.00  0.00    -0.256 A  
HETATM   26  O   UNL     1      -8.065  10.126  70.398  1.00  0.00    -0.146 OA 
HETATM   27  C   UNL     1      -8.250  10.524  69.245  1.00  0.00    -0.145 C  
HETATM   28  C   UNL     1      -9.860  13.822  68.540  1.00  0.00    -0.204 A  
HETATM   29  C   UNL     1      -8.143  12.014  68.935  1.00  0.00     0.101 C  
HETATM   30  C   UNL     1      -9.180  12.685  68.064  1.00  0.00    -0.208 A  
BRANCH  24  31
HETATM   31  O   UNL     1     -11.951  14.757  65.683  1.00  0.00    -0.284 OA 
HETATM   32  C   UNL     1     -11.563  15.135  64.367  1.00  0.00    -0.271 C  
ENDBRANCH  24  31
BRANCH  25  33
HETATM   33  O   UNL     1     -11.477  15.628  68.137  1.00  0.00    -0.352 OA 
HETATM   34  C   UNL     1     -12.200  15.544  69.357  1.00  0.00    -0.205 C  
ENDBRANCH  25  33
ENDBRANCH  18  19
ENDBRANCH  17  18
ENDBRANCH  16  17
ENDBRANCH  14  16
ENDBRANCH  13  14
ENDBRANCH   9  13
ENDBRANCH   2   3
TORSDOF 10
ENDMDL
MODEL      295
REMARK 921   NORMALIZED FREE ENERGY PREDICTED BY IDOCK:   -1.80 KCAL/MOL
REMARK 922        TOTAL FREE ENERGY PREDICTED BY IDOCK:   -4.82 KCAL/MOL
REMARK 923 INTER-LIGAND FREE ENERGY PREDICTED BY IDOCK:   -3.74 KCAL/MOL
REMARK 924 INTRA-LIGAND FREE ENERGY PREDICTED BY IDOCK:   -1.08 KCAL/MOL
REMARK 927      BINDING AFFINITY PREDICTED BY RF-SCORE:    0.00 PKD
ROOT
HETATM    1  C   UNL     1      -8.247   5.906  73.594  1.00  0.00    -0.110 C  
HETATM    2  O   UNL     1      -8.442   4.831  72.680  1.00  0.00    -0.113 OA 
ENDROOT
BRANCH   2   3
HETATM    3  C   UNL     1      -7.839   4.924  71.451  1.00  0.00    -0.104 A  
HETATM    4  C   UNL     1      -7.343   3.858  70.653  1.00  0.00    -0.041 A  
HETATM    5  C   UNL     1      -7.743   6.264  70.986  1.00  0.00    -0.105 A  
HETATM    6  C   UNL     1      -6.700   4.148  69.449  1.00  0.00    -0.044 A  
HETATM    7  C   UNL     1      -7.118   6.492  69.774  1.00  0.00    -0.072 A  
HETATM    8  C   UNL     1      -6.554   5.460  69.093  1.00  0.00    -0.051 A  
HETATM    9  C   UNL     1      -5.911   6.321  68.035  1.00  0.00    -0.020 C  
HETATM   10  C   UNL     1      -6.788   7.484  68.682  1.00  0.00    -0.066 C  
BRANCH   4  11
HETATM   11  O   UNL     1      -7.527   2.556  71.040  1.00  0.00    -0.033 OA 
HETATM   12  C   UNL     1      -6.661   1.592  70.443  1.00  0.00    -0.028 C  
ENDBRANCH   4  11
BRANCH   9  13
HETATM   13  C   UNL     1      -6.070   5.578  66.701  1.00  0.00    -0.030 C  
BRANCH  13  14
HETATM   14  N   UNL     1      -6.772   6.266  65.616  1.00  0.00    -0.047 NA 
HETATM   15  C   UNL     1      -6.139   6.035  64.329  1.00  0.00    -0.026 C  
BRANCH  14  16
HETATM   16  C   UNL     1      -8.231   6.108  65.658  1.00  0.00    -0.141 C  
BRANCH  16  17
HETATM   17  C   UNL     1      -8.942   7.446  65.840  1.00  0.00    -0.114 C  
BRANCH  17  18
HETATM   18  C   UNL     1      -8.306   8.586  65.035  1.00  0.00    -0.165 C  
BRANCH  18  19
HETATM   19  N   UNL     1      -8.269   9.799  65.856  1.00  0.00    -0.115 N  
HETATM   20  C   UNL     1      -9.543  10.319  66.338  1.00  0.00    -0.185 C  
HETATM   21  C   UNL     1      -9.798  11.739  65.862  1.00  0.00    -0.265 C  
HETATM   22  C   UNL     1      -9.194  12.685  66.862  1.00  0.00    -0.216 A  
HETATM   23  C   UNL     1     -10.047  13.545  67.565  1.00  0.00    -0.234 A  
HETATM   24  C   UNL     1      -9.556  14.407  68.546  1.00  0.00    -0.217 A  
HETATM   25  C   UNL     1      -8.181  14.406  68.836  1.00  0.00    -0.082 A  
HETATM   26  O   UNL     1      -6.078   9.544  66.458  1.00  0.00    -0.058 OA 
HETATM   27  C   UNL     1      -7.054  10.286  66.315  1.00  0.00    -0.117 C  
HETATM   28  C   UNL     1      -7.329  13.539  68.133  1.00  0.00    -0.121 A  
HETATM   29  C   UNL     1      -6.863  11.799  66.365  1.00  0.00     0.229 C  
HETATM   30  C   UNL     1      -7.824  12.660  67.151  1.00  0.00    -0.110 A  
BRANCH  24  31
HETATM   31  O   UNL     1     -10.361  15.241  69.284  1.00  0.00    -0.234 OA 
HETATM   32  C   UNL     1     -11.413  15.890  68.578  1.00  0.00    -0.377 C  
ENDBRANCH  24  31
BRANCH  25  33
HETATM   33  O   UNL     1      -7.767  15.285  69.806  1.00  0.00    -0.204 OA 
HETATM   34  C   UNL     1      -7.322  16.567  69.384  1.00  0.00    -0.123 C  
ENDBRANCH  25  33
ENDBRANCH  18  19
ENDBRANCH  17  18
ENDBRANCH  16  17
ENDBRANCH  14  16
ENDBRANCH  13  14
ENDBRANCH   9  13
ENDBRANCH   2   3
TORSDOF 10
ENDMDL
MODEL      296
REMARK 921   NORMALIZED FREE ENERGY PREDICTED BY IDOCK:   -1.75 KCAL/MOL
REMARK 922        TOTAL FREE ENERGY PREDICTED BY IDOCK:   -4.73 KCAL/MOL
REMARK 923 INTER-LIGAND FREE ENERGY PREDICTED BY IDOCK:   -4.79 KCAL/MOL
REMARK 924 INTRA-LIGAND FREE ENERGY PREDICTED BY IDOCK:    0.06 KCAL/MOL
REMARK 927      BINDING AFFINITY PREDICTED BY RF-SCORE:    0.00 PKD
ROOT
HETATM    1  C   UNL     1      -7.696  20.696  65.614  1.00  0.00     0.302 C  
HETATM    2  O   UNL     1      -8.502  19.538  65.808  1.00  0.00    -0.418 OA 
ENDROOT
BRANCH   2   3
HETATM    3  C   UNL     1      -8.042  18.581  66.676  1.00  0.00    -0.264 A  
HETATM    4  C   UNL     1      -7.397  18.789  67.926  1.00  0.00    -0.241 A  
HETATM    5  C   UNL     1      -8.279  17.258  66.211  1.00  0.00    -0.302 A  
HETATM    6  C   UNL     1      -6.938  17.688  68.650  1.00  0.00    -0.237 A  
HETATM    7  C   UNL     1      -7.824  16.203  66.981  1.00  0.00    -0.258 A  
HETATM    8  C   UNL     1      -7.111  16.443  68.113  1.00  0.00    -0.145 A  
HETATM    9  C   UNL     1      -6.763  14.998  68.372  1.00  0.00    -0.111 C  
HETATM   10  C   UNL     1      -7.812  14.708  67.207  1.00  0.00    -0.213 C  
BRANCH   4  11
HETATM   11  O   UNL     1      -7.260  20.054  68.434  1.00  0.00    -0.299 OA 
HETATM   12  C   UNL     1      -6.150  20.268  69.305  1.00  0.00    -0.336 C  
ENDBRANCH   4  11
BRANCH   9  13
HETATM   13  C   UNL     1      -6.872  14.780  69.887  1.00  0.00    -0.158 C  
BRANCH  13  14
HETATM   14  N   UNL     1      -5.642  14.480  70.622  1.00  0.00    -0.141 NA 
HETATM   15  C   UNL     1      -5.132  15.645  71.324  1.00  0.00    -0.136 C  
BRANCH  14  16
HETATM   16  C   UNL     1      -5.701  13.233  71.396  1.00  0.00     0.004 C  
BRANCH  16  17
HETATM   17  C   UNL     1      -5.173  12.044  70.598  1.00  0.00    -0.136 C  
BRANCH  17  18
HETATM   18  C   UNL     1      -5.848  11.883  69.229  1.00  0.00    -0.072 C  
BRANCH  18  19
HETATM   19  N   UNL     1      -6.433  10.543  69.131  1.00  0.00    -0.050 N  
HETATM   20  C   UNL     1      -7.649  10.287  69.893  1.00  0.00    -0.143 C  
HETATM   21  C   UNL     1      -7.473   9.151  70.886  1.00  0.00    -0.136 C  
HETATM   22  C   UNL     1      -7.808   7.862  70.188  1.00  0.00    -0.097 A  
HETATM   23  C   UNL     1      -8.904   7.121  70.647  1.00  0.00    -0.149 A  
HETATM   24  C   UNL     1      -9.300   5.946  70.008  1.00  0.00    -0.148 A  
HETATM   25  C   UNL     1      -8.587   5.502  68.881  1.00  0.00    -0.100 A  
HETATM   26  O   UNL     1      -5.400  10.039  67.154  1.00  0.00    -0.041 OA 
HETATM   27  C   UNL     1      -5.954   9.647  68.186  1.00  0.00    -0.047 C  
HETATM   28  C   UNL     1      -7.492   6.249  68.421  1.00  0.00    -0.088 A  
HETATM   29  C   UNL     1      -5.866   8.175  68.576  1.00  0.00    -0.040 C  
HETATM   30  C   UNL     1      -7.097   7.442  69.057  1.00  0.00    -0.079 A  
BRANCH  24  31
HETATM   31  O   UNL     1     -10.390   5.208  70.403  1.00  0.00    -0.266 OA 
HETATM   32  C   UNL     1     -10.117   4.029  71.151  1.00  0.00    -0.041 C  
ENDBRANCH  24  31
BRANCH  25  33
HETATM   33  O   UNL     1      -9.027   4.334  68.308  1.00  0.00    -0.106 OA 
HETATM   34  C   UNL     1      -8.367   3.892  67.130  1.00  0.00    -0.099 C  
ENDBRANCH  25  33
ENDBRANCH  18  19
ENDBRANCH  17  18
ENDBRANCH  16  17
ENDBRANCH  14  16
ENDBRANCH  13  14
ENDBRANCH   9  13
ENDBRANCH   2   3
TORSDOF 10
ENDMDL
MODEL      297
REMARK 921   NORMALIZED FREE ENERGY PREDICTED BY IDOCK:   -1.66 KCAL/MOL
REMARK 922        TOTAL FREE ENERGY PREDICTED BY IDOCK:   -4.60 KCAL/MOL
REMARK 923 INTER-LIGAND FREE ENERGY PREDICTED BY IDOCK:   -7.11 KCAL/MOL
REMARK 924 INTRA-LIGAND FREE ENERGY PREDICTED BY IDOCK:    2.51 KCAL/MOL
REMARK 927      BINDING AFFINITY PREDICTED BY RF-SCORE:    0.00 PKD
ROOT
HETATM    1  C   UNL     1      -6.424  11.565  68.785  1.00  0.00    -0.058 C  
HETATM    2  O   UNL     1      -5.467  12.579  69.073  1.00  0.00    -0.065 OA 
ENDROOT
BRANCH   2   3
HETATM    3  C   UNL     1      -5.846  13.884  68.888  1.00  0.00    -0.083 A  
HETATM    4  C   UNL     1      -5.747  14.951  69.822  1.00  0.00    -0.106 A  
HETATM    5  C   UNL     1      -6.381  14.122  67.592  1.00  0.00    -0.129 A  
HETATM    6  C   UNL     1      -6.244  16.208  69.479  1.00  0.00    -0.181 A  
HETATM    7  C   UNL     1      -6.838  15.393  67.297  1.00  0.00    -0.143 A  
HETATM    8  C   UNL     1      -6.832  16.359  68.253  1.00  0.00    -0.134 A  
HETATM    9  C   UNL     1      -7.577  17.380  67.430  1.00  0.00    -0.209 C  
HETATM   10  C   UNL     1      -7.345  16.347  66.239  1.00  0.00     0.094 C  
BRANCH   4  11
HETATM   11  O   UNL     1      -5.135  14.759  71.033  1.00  0.00    -0.117 OA 
HETATM   12  C   UNL     1      -5.747  13.813  71.908  1.00  0.00    -0.066 C  
ENDBRANCH   4  11
BRANCH   9  13
HETATM   13  C   UNL     1      -6.923  18.740  67.711  1.00  0.00    -0.215 C  
BRANCH  13  14
HETATM   14  N   UNL     1      -7.760  19.792  68.289  1.00  0.00    -0.311 NA 
HETATM   15  C   UNL     1      -7.990  20.878  67.351  1.00  0.00    -0.125 C  
BRANCH  14  16
HETATM   16  C   UNL     1      -8.943  19.288  68.998  1.00  0.00    -0.234 C  
BRANCH  16  17
HETATM   17  C   UNL     1     -10.222  19.975  68.528  1.00  0.00    -0.484 C  
BRANCH  17  18
HETATM   18  C   UNL     1     -10.698  19.495  67.151  1.00  0.00    -0.482 C  
BRANCH  18  19
HETATM   19  N   UNL     1     -10.621  18.033  67.092  1.00  0.00    -0.358 N  
HETATM   20  C   UNL     1     -10.067  17.442  65.880  1.00  0.00    -0.205 C  
HETATM   21  C   UNL     1     -11.054  16.513  65.194  1.00  0.00    -0.134 C  
HETATM   22  C   UNL     1     -10.885  15.137  65.774  1.00  0.00    -0.358 A  
HETATM   23  C   UNL     1     -10.450  14.107  64.931  1.00  0.00    -0.461 A  
HETATM   24  C   UNL     1     -10.220  12.821  65.420  1.00  0.00    -0.283 A  
HETATM   25  C   UNL     1     -10.425  12.557  66.786  1.00  0.00    -0.225 A  
HETATM   26  O   UNL     1     -10.711  17.755  69.360  1.00  0.00     0.019 OA 
HETATM   27  C   UNL     1     -10.871  17.282  68.231  1.00  0.00    -0.287 C  
HETATM   28  C   UNL     1     -10.857  13.593  67.629  1.00  0.00    -0.268 A  
HETATM   29  C   UNL     1     -11.617  15.961  68.066  1.00  0.00    -0.168 C  
HETATM   30  C   UNL     1     -11.079  14.895  67.140  1.00  0.00    -0.332 A  
BRANCH  24  31
HETATM   31  O   UNL     1      -9.759  11.791  64.637  1.00  0.00    -0.227 OA 
HETATM   32  C   UNL     1     -10.656  11.300  63.646  1.00  0.00    -0.388 C  
ENDBRANCH  24  31
BRANCH  25  33
HETATM   33  O   UNL     1     -10.188  11.269  67.196  1.00  0.00    -0.192 OA 
HETATM   34  C   UNL     1     -10.396  10.968  68.569  1.00  0.00    -0.190 C  
ENDBRANCH  25  33
ENDBRANCH  18  19
ENDBRANCH  17  18
ENDBRANCH  16  17
ENDBRANCH  14  16
ENDBRANCH  13  14
ENDBRANCH   9  13
ENDBRANCH   2   3
TORSDOF 10
ENDMDL
MODEL      298
REMARK 921   NORMALIZED FREE ENERGY PREDICTED BY IDOCK:   -1.50 KCAL/MOL
REMARK 922        TOTAL FREE ENERGY PREDICTED BY IDOCK:   -4.34 KCAL/MOL
REMARK 923 INTER-LIGAND FREE ENERGY PREDICTED BY IDOCK:   -4.57 KCAL/MOL
REMARK 924 INTRA-LIGAND FREE ENERGY PREDICTED BY IDOCK:    0.24 KCAL/MOL
REMARK 927      BINDING AFFINITY PREDICTED BY RF-SCORE:    0.00 PKD
ROOT
HETATM    1  C   UNL     1     -10.824   4.432  64.492  1.00  0.00     0.050 C  
HETATM    2  O   UNL     1      -9.466   4.023  64.628  1.00  0.00    -0.149 OA 
ENDROOT
BRANCH   2   3
HETATM    3  C   UNL     1      -8.731   4.586  65.640  1.00  0.00    -0.124 A  
HETATM    4  C   UNL     1      -9.051   4.616  67.024  1.00  0.00    -0.121 A  
HETATM    5  C   UNL     1      -7.524   5.180  65.177  1.00  0.00    -0.073 A  
HETATM    6  C   UNL     1      -8.208   5.292  67.906  1.00  0.00    -0.099 A  
HETATM    7  C   UNL     1      -6.714   5.816  66.099  1.00  0.00    -0.057 A  
HETATM    8  C   UNL     1      -7.108   5.924  67.395  1.00  0.00    -0.074 A  
HETATM    9  C   UNL     1      -5.974   6.823  67.816  1.00  0.00    -0.027 C  
HETATM   10  C   UNL     1      -5.382   6.477  66.377  1.00  0.00    -0.013 C  
BRANCH   4  11
HETATM   11  O   UNL     1     -10.154   3.955  67.496  1.00  0.00     0.003 OA 
HETATM   12  C   UNL     1      -9.984   3.231  68.714  1.00  0.00     0.523 C  
ENDBRANCH   4  11
BRANCH   9  13
HETATM   13  C   UNL     1      -5.534   6.360  69.212  1.00  0.00    -0.013 C  
BRANCH  13  14
HETATM   14  N   UNL     1      -6.084   5.100  69.716  1.00  0.00    -0.021 NA 
HETATM   15  C   UNL     1      -5.211   3.974  69.427  1.00  0.00    -0.008 C  
BRANCH  14  16
HETATM   16  C   UNL     1      -6.598   5.183  71.089  1.00  0.00    -0.039 C  
BRANCH  16  17
HETATM   17  C   UNL     1      -7.975   5.840  71.140  1.00  0.00    -0.112 C  
BRANCH  17  18
HETATM   18  C   UNL     1      -8.097   6.912  72.230  1.00  0.00    -0.093 C  
BRANCH  18  19
HETATM   19  N   UNL     1      -8.818   8.070  71.696  1.00  0.00    -0.130 N  
HETATM   20  C   UNL     1      -9.836   8.674  72.547  1.00  0.00    -0.198 C  
HETATM   21  C   UNL     1     -11.208   8.661  71.894  1.00  0.00    -0.413 C  
HETATM   22  C   UNL     1     -11.350   9.913  71.074  1.00  0.00    -0.460 A  
HETATM   23  C   UNL     1     -12.337  10.838  71.437  1.00  0.00    -0.433 A  
HETATM   24  C   UNL     1     -12.484  12.044  70.752  1.00  0.00    -0.279 A  
HETATM   25  C   UNL     1     -11.621  12.336  69.681  1.00  0.00    -0.278 A  
HETATM   26  O   UNL     1      -7.210   8.589  70.155  1.00  0.00    -0.048 OA 
HETATM   27  C   UNL     1      -8.385   8.672  70.523  1.00  0.00    -0.140 C  
HETATM   28  C   UNL     1     -10.630  11.409  69.323  1.00  0.00    -0.148 A  
HETATM   29  C   UNL     1      -9.443   9.192  69.555  1.00  0.00    -0.170 C  
HETATM   30  C   UNL     1     -10.472  10.196  70.021  1.00  0.00    -0.325 A  
BRANCH  24  31
HETATM   31  O   UNL     1     -13.414  12.994  71.096  1.00  0.00    -0.019 OA 
HETATM   32  C   UNL     1     -13.561  13.260  72.487  1.00  0.00    -0.532 C  
ENDBRANCH  24  31
BRANCH  25  33
HETATM   33  O   UNL     1     -11.828  13.536  69.048  1.00  0.00    -0.305 OA 
HETATM   34  C   UNL     1     -10.728  14.432  68.962  1.00  0.00    -0.250 C  
ENDBRANCH  25  33
ENDBRANCH  18  19
ENDBRANCH  17  18
ENDBRANCH  16  17
ENDBRANCH  14  16
ENDBRANCH  13  14
ENDBRANCH   9  13
ENDBRANCH   2   3
TORSDOF 10
ENDMDL
MODEL      299
REMARK 921   NORMALIZED FREE ENERGY PREDICTED BY IDOCK:   -1.49 KCAL/MOL
REMARK 922        TOTAL FREE ENERGY PREDICTED BY IDOCK:   -4.32 KCAL/MOL
REMARK 923 INTER-LIGAND FREE ENERGY PREDICTED BY IDOCK:   -3.50 KCAL/MOL
REMARK 924 INTRA-LIGAND FREE ENERGY PREDICTED BY IDOCK:   -0.81 KCAL/MOL
REMARK 927      BINDING AFFINITY PREDICTED BY RF-SCORE:    0.00 PKD
ROOT
HETATM    1  C   UNL     1     -13.602  11.538  62.985  1.00  0.00     2.037 C  
HETATM    2  O   UNL     1     -12.758  12.507  63.600  1.00  0.00    -0.712 OA 
ENDROOT
BRANCH   2   3
HETATM    3  C   UNL     1     -11.850  12.065  64.527  1.00  0.00    -0.285 A  
HETATM    4  C   UNL     1     -10.726  11.225  64.299  1.00  0.00    -0.349 A  
HETATM    5  C   UNL     1     -12.123  12.546  65.837  1.00  0.00    -0.420 A  
HETATM    6  C   UNL     1      -9.942  10.825  65.382  1.00  0.00    -0.330 A  
HETATM    7  C   UNL     1     -11.300  12.136  66.869  1.00  0.00    -0.402 A  
HETATM    8  C   UNL     1     -10.303  11.242  66.633  1.00  0.00    -0.279 A  
HETATM    9  C   UNL     1      -9.924  11.064  68.081  1.00  0.00    -0.190 C  
HETATM   10  C   UNL     1     -10.904  12.298  68.319  1.00  0.00    -0.254 C  
BRANCH   4  11
HETATM   11  O   UNL     1     -10.390  10.844  63.027  1.00  0.00    -0.249 OA 
HETATM   12  C   UNL     1      -9.001  10.628  62.778  1.00  0.00    -0.276 C  
ENDBRANCH   4  11
BRANCH   9  13
HETATM   13  C   UNL     1      -8.392  10.984  68.132  1.00  0.00    -0.130 C  
BRANCH  13  14
HETATM   14  N   UNL     1      -7.789   9.715  68.545  1.00  0.00    -0.084 NA 
HETATM   15  C   UNL     1      -8.004   8.668  67.560  1.00  0.00    -0.106 C  
BRANCH  14  16
HETATM   16  C   UNL     1      -6.421   9.848  69.060  1.00  0.00    -0.048 C  
BRANCH  16  17
HETATM   17  C   UNL     1      -6.385  10.593  70.392  1.00  0.00    -0.117 C  
BRANCH  17  18
HETATM   18  C   UNL     1      -5.625   9.839  71.490  1.00  0.00    -0.055 C  
BRANCH  18  19
HETATM   19  N   UNL     1      -6.169   8.485  71.616  1.00  0.00    -0.052 N  
HETATM   20  C   UNL     1      -5.322   7.381  71.177  1.00  0.00    -0.027 C  
HETATM   21  C   UNL     1      -5.974   6.564  70.074  1.00  0.00    -0.022 C  
HETATM   22  C   UNL     1      -6.804   5.488  70.715  1.00  0.00    -0.052 A  
HETATM   23  C   UNL     1      -6.449   4.151  70.493  1.00  0.00    -0.031 A  
HETATM   24  C   UNL     1      -7.144   3.108  71.104  1.00  0.00    -0.033 A  
HETATM   25  C   UNL     1      -8.217   3.405  71.961  1.00  0.00    -0.067 A  
HETATM   26  O   UNL     1      -7.714   9.056  73.201  1.00  0.00    -0.263 OA 
HETATM   27  C   UNL     1      -7.347   8.275  72.318  1.00  0.00    -0.105 C  
HETATM   28  C   UNL     1      -8.568   4.746  72.185  1.00  0.00    -0.123 A  
HETATM   29  C   UNL     1      -8.319   7.226  71.787  1.00  0.00    -0.107 C  
HETATM   30  C   UNL     1      -7.861   5.801  71.580  1.00  0.00    -0.112 A  
BRANCH  24  31
HETATM   31  O   UNL     1      -6.807   1.786  70.942  1.00  0.00    -0.030 OA 
HETATM   32  C   UNL     1      -5.546   1.524  70.336  1.00  0.00    -0.016 C  
ENDBRANCH  24  31
BRANCH  25  33
HETATM   33  O   UNL     1      -8.861   2.329  72.520  1.00  0.00    -0.066 OA 
HETATM   34  C   UNL     1     -10.001   1.820  71.841  1.00  0.00    -0.151 C  
ENDBRANCH  25  33
ENDBRANCH  18  19
ENDBRANCH  17  18
ENDBRANCH  16  17
ENDBRANCH  14  16
ENDBRANCH  13  14
ENDBRANCH   9  13
ENDBRANCH   2   3
TORSDOF 10
ENDMDL
MODEL      300
REMARK 921   NORMALIZED FREE ENERGY PREDICTED BY IDOCK:   -1.24 KCAL/MOL
REMARK 922        TOTAL FREE ENERGY PREDICTED BY IDOCK:   -3.92 KCAL/MOL
REMARK 923 INTER-LIGAND FREE ENERGY PREDICTED BY IDOCK:   -3.67 KCAL/MOL
REMARK 924 INTRA-LIGAND FREE ENERGY PREDICTED BY IDOCK:   -0.26 KCAL/MOL
REMARK 927      BINDING AFFINITY PREDICTED BY RF-SCORE:    0.00 PKD
ROOT
HETATM    1  C   UNL     1     -10.020  16.025  70.512  1.00  0.00     0.759 C  
HETATM    2  O   UNL     1     -10.815  15.490  69.459  1.00  0.00    -0.229 OA 
ENDROOT
BRANCH   2   3
HETATM    3  C   UNL     1     -10.222  14.598  68.603  1.00  0.00    -0.244 A  
HETATM    4  C   UNL     1      -9.006  14.769  67.887  1.00  0.00    -0.172 A  
HETATM    5  C   UNL     1     -10.957  13.387  68.474  1.00  0.00    -0.292 A  
HETATM    6  C   UNL     1      -8.584  13.771  67.008  1.00  0.00    -0.182 A  
HETATM    7  C   UNL     1     -10.481  12.422  67.607  1.00  0.00    -0.229 A  
HETATM    8  C   UNL     1      -9.376  12.667  66.854  1.00  0.00    -0.228 A  
HETATM    9  C   UNL     1      -9.477  11.404  66.037  1.00  0.00    -0.245 C  
HETATM   10  C   UNL     1     -10.601  11.005  67.094  1.00  0.00    -0.294 C  
BRANCH   4  11
HETATM   11  O   UNL     1      -8.234  15.883  68.085  1.00  0.00    -0.146 OA 
HETATM   12  C   UNL     1      -7.132  16.054  67.195  1.00  0.00    -0.213 C  
ENDBRANCH   4  11
BRANCH   9  13
HETATM   13  C   UNL     1      -8.047  10.876  65.856  1.00  0.00    -0.120 C  
BRANCH  13  14
HETATM   14  N   UNL     1      -7.844   9.428  65.907  1.00  0.00    -0.099 NA 
HETATM   15  C   UNL     1      -8.550   8.743  64.838  1.00  0.00    -0.150 C  
BRANCH  14  16
HETATM   16  C   UNL     1      -6.445   9.031  66.115  1.00  0.00    -0.065 C  
BRANCH  16  17
HETATM   17  C   UNL     1      -6.165   7.633  65.573  1.00  0.00    -0.038 C  
BRANCH  17  18
HETATM   18  C   UNL     1      -5.714   6.641  66.653  1.00  0.00    -0.014 C  
BRANCH  18  19
HETATM   19  N   UNL     1      -6.756   6.530  67.676  1.00  0.00    -0.064 N  
HETATM   20  C   UNL     1      -6.577   7.303  68.900  1.00  0.00    -0.048 C  
HETATM   21  C   UNL     1      -6.538   6.419  70.134  1.00  0.00    -0.045 C  
HETATM   22  C   UNL     1      -7.947   6.235  70.624  1.00  0.00    -0.112 A  
HETATM   23  C   UNL     1      -8.284   6.735  71.888  1.00  0.00    -0.102 A  
HETATM   24  C   UNL     1      -9.587   6.647  72.377  1.00  0.00    -0.147 A  
HETATM   25  C   UNL     1     -10.581   6.048  71.583  1.00  0.00    -0.236 A  
HETATM   26  O   UNL     1      -8.361   5.796  66.222  1.00  0.00    -0.110 OA 
HETATM   27  C   UNL     1      -7.948   5.882  67.382  1.00  0.00    -0.102 C  
HETATM   28  C   UNL     1     -10.241   5.551  70.314  1.00  0.00    -0.326 A  
HETATM   29  C   UNL     1      -8.589   5.035  68.476  1.00  0.00    -0.097 C  
HETATM   30  C   UNL     1      -8.929   5.650  69.814  1.00  0.00    -0.140 A  
BRANCH  24  31
HETATM   31  O   UNL     1      -9.969   7.156  73.595  1.00  0.00    -0.258 OA 
HETATM   32  C   UNL     1      -8.919   7.533  74.479  1.00  0.00    -0.015 C  
ENDBRANCH  24  31
BRANCH  25  33
HETATM   33  O   UNL     1     -11.838   5.987  72.130  1.00  0.00    -0.312 OA 
HETATM   34  C   UNL     1     -12.261   4.742  72.669  1.00  0.00     0.646 C  
ENDBRANCH  25  33
ENDBRANCH  18  19
ENDBRANCH  17  18
ENDBRANCH  16  17
ENDBRANCH  14  16
ENDBRANCH  13  14
ENDBRANCH   9  13
ENDBRANCH   2   3
TORSDOF 10
ENDMDL
MODEL      301
REMARK 921   NORMALIZED FREE ENERGY PREDICTED BY IDOCK:   -1.12 KCAL/MOL
REMARK 922        TOTAL FREE ENERGY PREDICTED BY IDOCK:   -3.75 KCAL/MOL
REMARK 923 INTER-LIGAND FREE ENERGY PREDICTED BY IDOCK:   -4.31 KCAL/MOL
REMARK 924 INTRA-LIGAND FREE ENERGY PREDICTED BY IDOCK:    0.56 KCAL/MOL
REMARK 927      BINDING AFFINITY PREDICTED BY RF-SCORE:    0.00 PKD
ROOT
HETATM    1  C   UNL     1      -8.114   6.675  72.090  1.00  0.00    -0.105 C  
HETATM    2  O   UNL     1      -8.473   6.067  70.853  1.00  0.00    -0.124 OA 
ENDROOT
BRANCH   2   3
HETATM    3  C   UNL     1      -8.198   6.758  69.700  1.00  0.00    -0.131 A  
HETATM    4  C   UNL     1      -7.615   6.248  68.509  1.00  0.00    -0.092 A  
HETATM    5  C   UNL     1      -8.573   8.128  69.777  1.00  0.00    -0.133 A  
HETATM    6  C   UNL     1      -7.350   7.118  67.451  1.00  0.00    -0.092 A  
HETATM    7  C   UNL     1      -8.310   8.940  68.690  1.00  0.00    -0.124 A  
HETATM    8  C   UNL     1      -7.647   8.443  67.613  1.00  0.00    -0.098 A  
HETATM    9  C   UNL     1      -7.507   9.769  66.907  1.00  0.00    -0.091 C  
HETATM   10  C   UNL     1      -8.506  10.288  68.035  1.00  0.00    -0.118 C  
BRANCH   4  11
HETATM   11  O   UNL     1      -7.349   4.910  68.383  1.00  0.00    -0.064 OA 
HETATM   12  C   UNL     1      -6.500   4.534  67.299  1.00  0.00    -0.042 C  
ENDBRANCH   4  11
BRANCH   9  13
HETATM   13  C   UNL     1      -7.741   9.504  65.414  1.00  0.00    -0.109 C  
BRANCH  13  14
HETATM   14  N   UNL     1      -8.798  10.265  64.744  1.00  0.00    -0.182 NA 
HETATM   15  C   UNL     1      -8.823  10.013  63.313  1.00  0.00    -0.237 C  
BRANCH  14  16
HETATM   16  C   UNL     1     -10.093  10.214  65.433  1.00  0.00    -0.272 C  
BRANCH  16  17
HETATM   17  C   UNL     1     -10.289  11.409  66.362  1.00  0.00    -0.284 C  
BRANCH  17  18
HETATM   18  C   UNL     1     -11.339  12.407  65.857  1.00  0.00    -0.356 C  
BRANCH  18  19
HETATM   19  N   UNL     1     -10.886  13.772  66.136  1.00  0.00    -0.279 N  
HETATM   20  C   UNL     1     -10.693  14.139  67.535  1.00  0.00    -0.269 C  
HETATM   21  C   UNL     1     -11.566  15.313  67.943  1.00  0.00    -0.301 C  
HETATM   22  C   UNL     1     -10.813  16.581  67.652  1.00  0.00    -0.269 A  
HETATM   23  C   UNL     1     -10.463  17.409  68.726  1.00  0.00    -0.333 A  
HETATM   24  C   UNL     1      -9.716  18.571  68.529  1.00  0.00    -0.367 A  
HETATM   25  C   UNL     1      -9.305  18.912  67.229  1.00  0.00    -0.293 A  
HETATM   26  O   UNL     1     -10.027  14.110  64.045  1.00  0.00     0.551 OA 
HETATM   27  C   UNL     1     -10.465  14.587  65.096  1.00  0.00    -0.416 C  
HETATM   28  C   UNL     1      -9.654  18.078  66.155  1.00  0.00    -0.184 A  
HETATM   29  C   UNL     1     -10.817  16.070  65.161  1.00  0.00    -0.411 C  
HETATM   30  C   UNL     1     -10.397  16.899  66.353  1.00  0.00    -0.302 A  
BRANCH  24  31
HETATM   31  O   UNL     1      -9.320  19.392  69.557  1.00  0.00    -0.114 OA 
HETATM   32  C   UNL     1     -10.067  19.297  70.765  1.00  0.00     1.880 C  
ENDBRANCH  24  31
BRANCH  25  33
HETATM   33  O   UNL     1      -8.581  20.072  67.108  1.00  0.00    -0.311 OA 
HETATM   34  C   UNL     1      -7.216  19.958  66.729  1.00  0.00    -0.233 C  
ENDBRANCH  25  33
ENDBRANCH  18  19
ENDBRANCH  17  18
ENDBRANCH  16  17
ENDBRANCH  14  16
ENDBRANCH  13  14
ENDBRANCH   9  13
ENDBRANCH   2   3
TORSDOF 10
ENDMDL
MODEL      302
REMARK 921   NORMALIZED FREE ENERGY PREDICTED BY IDOCK:   -1.07 KCAL/MOL
REMARK 922        TOTAL FREE ENERGY PREDICTED BY IDOCK:   -3.66 KCAL/MOL
REMARK 923 INTER-LIGAND FREE ENERGY PREDICTED BY IDOCK:   -5.83 KCAL/MOL
REMARK 924 INTRA-LIGAND FREE ENERGY PREDICTED BY IDOCK:    2.17 KCAL/MOL
REMARK 927      BINDING AFFINITY PREDICTED BY RF-SCORE:    0.00 PKD
ROOT
HETATM    1  C   UNL     1     -10.481   3.393  62.799  1.00  0.00    -0.186 C  
HETATM    2  O   UNL     1      -9.115   3.653  63.107  1.00  0.00    -0.095 OA 
ENDROOT
BRANCH   2   3
HETATM    3  C   UNL     1      -8.850   4.521  64.136  1.00  0.00    -0.148 A  
HETATM    4  C   UNL     1      -8.119   5.738  64.070  1.00  0.00    -0.116 A  
HETATM    5  C   UNL     1      -9.406   4.093  65.373  1.00  0.00    -0.163 A  
HETATM    6  C   UNL     1      -7.894   6.465  65.239  1.00  0.00    -0.108 A  
HETATM    7  C   UNL     1      -9.173   4.865  66.496  1.00  0.00    -0.135 A  
HETATM    8  C   UNL     1      -8.373   5.961  66.417  1.00  0.00    -0.114 A  
HETATM    9  C   UNL     1      -8.357   6.235  67.900  1.00  0.00    -0.118 C  
HETATM   10  C   UNL     1      -9.496   5.121  67.951  1.00  0.00    -0.155 C  
BRANCH   4  11
HETATM   11  O   UNL     1      -7.671   6.215  62.866  1.00  0.00    -0.078 OA 
HETATM   12  C   UNL     1      -8.233   7.451  62.428  1.00  0.00    -0.084 C  
ENDBRANCH   4  11
BRANCH   9  13
HETATM   13  C   UNL     1      -8.445   7.757  68.071  1.00  0.00    -0.123 C  
BRANCH  13  14
HETATM   14  N   UNL     1      -9.403   8.484  67.236  1.00  0.00    -0.145 NA 
HETATM   15  C   UNL     1     -10.774   8.249  67.655  1.00  0.00    -0.125 C  
BRANCH  14  16
HETATM   16  C   UNL     1      -9.033   9.883  66.988  1.00  0.00    -0.138 C  
BRANCH  16  17
HETATM   17  C   UNL     1     -10.169  10.661  66.329  1.00  0.00    -0.304 C  
BRANCH  17  18
HETATM   18  C   UNL     1     -11.012  11.467  67.326  1.00  0.00    -0.282 C  
BRANCH  18  19
HETATM   19  N   UNL     1     -10.548  12.856  67.344  1.00  0.00    -0.232 N  
HETATM   20  C   UNL     1     -11.406  13.839  67.996  1.00  0.00    -0.288 C  
HETATM   21  C   UNL     1     -11.834  14.945  67.047  1.00  0.00    -0.216 C  
HETATM   22  C   UNL     1     -10.795  16.030  67.092  1.00  0.00    -0.239 A  
HETATM   23  C   UNL     1     -11.170  17.292  67.568  1.00  0.00     0.205 A  
HETATM   24  C   UNL     1     -10.241  18.325  67.687  1.00  0.00    -0.382 A  
HETATM   25  C   UNL     1      -8.902  18.092  67.327  1.00  0.00    -0.247 A  
HETATM   26  O   UNL     1      -8.352  12.319  67.002  1.00  0.00    -0.177 OA 
HETATM   27  C   UNL     1      -9.255  13.159  66.942  1.00  0.00    -0.236 C  
HETATM   28  C   UNL     1      -8.528  16.823  66.855  1.00  0.00    -0.242 A  
HETATM   29  C   UNL     1      -9.034  14.449  66.160  1.00  0.00     0.080 C  
HETATM   30  C   UNL     1      -9.461  15.776  66.745  1.00  0.00    -0.259 A  
BRANCH  24  31
HETATM   31  O   UNL     1     -10.558  19.567  68.183  1.00  0.00    -0.405 OA 
HETATM   32  C   UNL     1      -9.973  19.917  69.432  1.00  0.00    -0.102 C  
ENDBRANCH  24  31
BRANCH  25  33
HETATM   33  O   UNL     1      -8.044  19.155  67.462  1.00  0.00    -0.267 OA 
HETATM   34  C   UNL     1      -6.670  18.866  67.686  1.00  0.00    -0.208 C  
ENDBRANCH  25  33
ENDBRANCH  18  19
ENDBRANCH  17  18
ENDBRANCH  16  17
ENDBRANCH  14  16
ENDBRANCH  13  14
ENDBRANCH   9  13
ENDBRANCH   2   3
TORSDOF 10
ENDMDL
MODEL      303
REMARK 921   NORMALIZED FREE ENERGY PREDICTED BY IDOCK:   -0.97 KCAL/MOL
REMARK 922        TOTAL FREE ENERGY PREDICTED BY IDOCK:   -3.50 KCAL/MOL
REMARK 923 INTER-LIGAND FREE ENERGY PREDICTED BY IDOCK:   -4.75 KCAL/MOL
REMARK 924 INTRA-LIGAND FREE ENERGY PREDICTED BY IDOCK:    1.25 KCAL/MOL
REMARK 927      BINDING AFFINITY PREDICTED BY RF-SCORE:    0.00 PKD
ROOT
HETATM    1  C   UNL     1      -7.694  20.695  65.614  1.00  0.00     0.302 C  
HETATM    2  O   UNL     1      -8.508  19.545  65.821  1.00  0.00    -0.418 OA 
ENDROOT
BRANCH   2   3
HETATM    3  C   UNL     1      -8.052  18.591  66.695  1.00  0.00    -0.264 A  
HETATM    4  C   UNL     1      -7.406  18.804  67.943  1.00  0.00    -0.241 A  
HETATM    5  C   UNL     1      -8.293  17.266  66.237  1.00  0.00    -0.289 A  
HETATM    6  C   UNL     1      -6.952  17.706  68.674  1.00  0.00    -0.237 A  
HETATM    7  C   UNL     1      -7.843  16.215  67.013  1.00  0.00    -0.258 A  
HETATM    8  C   UNL     1      -7.129  16.458  68.144  1.00  0.00    -0.145 A  
HETATM    9  C   UNL     1      -6.787  15.014  68.411  1.00  0.00    -0.110 C  
HETATM   10  C   UNL     1      -7.836  14.721  67.248  1.00  0.00    -0.223 C  
BRANCH   4  11
HETATM   11  O   UNL     1      -7.265  20.071  68.445  1.00  0.00    -0.299 OA 
HETATM   12  C   UNL     1      -5.928  20.534  68.624  1.00  0.00    -0.331 C  
ENDBRANCH   4  11
BRANCH   9  13
HETATM   13  C   UNL     1      -6.897  14.804  69.928  1.00  0.00    -0.158 C  
BRANCH  13  14
HETATM   14  N   UNL     1      -5.666  14.519  70.667  1.00  0.00    -0.156 NA 
HETATM   15  C   UNL     1      -5.169  15.692  71.365  1.00  0.00    -0.040 C  
BRANCH  14  16
HETATM   16  C   UNL     1      -5.717  13.276  71.447  1.00  0.00     0.004 C  
BRANCH  16  17
HETATM   17  C   UNL     1      -5.164  12.090  70.661  1.00  0.00    -0.136 C  
BRANCH  17  18
HETATM   18  C   UNL     1      -6.100  11.614  69.542  1.00  0.00    -0.103 C  
BRANCH  18  19
HETATM   19  N   UNL     1      -6.576  10.263  69.850  1.00  0.00    -0.096 N  
HETATM   20  C   UNL     1      -6.996   9.431  68.727  1.00  0.00    -0.064 C  
HETATM   21  C   UNL     1      -8.445   8.992  68.851  1.00  0.00    -0.130 C  
HETATM   22  C   UNL     1      -8.482   7.709  69.634  1.00  0.00    -0.135 A  
HETATM   23  C   UNL     1      -8.948   6.553  68.997  1.00  0.00    -0.129 A  
HETATM   24  C   UNL     1      -8.955   5.321  69.650  1.00  0.00    -0.107 A  
HETATM   25  C   UNL     1      -8.480   5.239  70.970  1.00  0.00    -0.122 A  
HETATM   26  O   UNL     1      -5.538  10.162  71.884  1.00  0.00    -0.271 OA 
HETATM   27  C   UNL     1      -6.425   9.751  71.130  1.00  0.00     0.045 C  
HETATM   28  C   UNL     1      -8.008   6.399  71.605  1.00  0.00    -0.102 A  
HETATM   29  C   UNL     1      -7.546   8.880  71.689  1.00  0.00    -0.058 C  
HETATM   30  C   UNL     1      -7.989   7.642  70.944  1.00  0.00    -0.094 A  
BRANCH  24  31
HETATM   31  O   UNL     1      -9.370   4.156  69.051  1.00  0.00    -0.138 OA 
HETATM   32  C   UNL     1      -9.887   4.274  67.730  1.00  0.00    -0.074 C  
ENDBRANCH  24  31
BRANCH  25  33
HETATM   33  O   UNL     1      -8.524   3.997  71.554  1.00  0.00    -0.089 OA 
HETATM   34  C   UNL     1      -7.946   3.857  72.845  1.00  0.00    -0.079 C  
ENDBRANCH  25  33
ENDBRANCH  18  19
ENDBRANCH  17  18
ENDBRANCH  16  17
ENDBRANCH  14  16
ENDBRANCH  13  14
ENDBRANCH   9  13
ENDBRANCH   2   3
TORSDOF 10
ENDMDL
MODEL      304
REMARK 921   NORMALIZED FREE ENERGY PREDICTED BY IDOCK:   -0.93 KCAL/MOL
REMARK 922        TOTAL FREE ENERGY PREDICTED BY IDOCK:   -3.44 KCAL/MOL
REMARK 923 INTER-LIGAND FREE ENERGY PREDICTED BY IDOCK:   -3.22 KCAL/MOL
REMARK 924 INTRA-LIGAND FREE ENERGY PREDICTED BY IDOCK:   -0.22 KCAL/MOL
REMARK 927      BINDING AFFINITY PREDICTED BY RF-SCORE:    0.00 PKD
ROOT
HETATM    1  C   UNL     1      -7.275   2.889  74.450  1.00  0.00    -0.042 C  
HETATM    2  O   UNL     1      -7.498   4.094  73.724  1.00  0.00    -0.073 OA 
ENDROOT
BRANCH   2   3
HETATM    3  C   UNL     1      -7.284   4.070  72.369  1.00  0.00    -0.057 A  
HETATM    4  C   UNL     1      -7.967   3.282  71.404  1.00  0.00    -0.059 A  
HETATM    5  C   UNL     1      -6.258   4.965  71.958  1.00  0.00    -0.029 A  
HETATM    6  C   UNL     1      -7.570   3.343  70.068  1.00  0.00    -0.044 A  
HETATM    7  C   UNL     1      -5.922   5.002  70.618  1.00  0.00    -0.018 A  
HETATM    8  C   UNL     1      -6.517   4.151  69.741  1.00  0.00    -0.032 A  
HETATM    9  C   UNL     1      -5.647   4.524  68.567  1.00  0.00    -0.016 C  
HETATM   10  C   UNL     1      -5.141   5.694  69.524  1.00  0.00    -0.004 C  
BRANCH   4  11
HETATM   11  O   UNL     1      -9.029   2.498  71.771  1.00  0.00    -0.075 OA 
HETATM   12  C   UNL     1     -10.234   3.184  72.107  1.00  0.00    -0.073 C  
ENDBRANCH   4  11
BRANCH   9  13
HETATM   13  C   UNL     1      -6.560   4.569  67.335  1.00  0.00    -0.047 C  
BRANCH  13  14
HETATM   14  N   UNL     1      -6.325   3.586  66.275  1.00  0.00    -0.032 NA 
HETATM   15  C   UNL     1      -5.215   2.703  66.592  1.00  0.00    -0.008 C  
BRANCH  14  16
HETATM   16  C   UNL     1      -7.547   2.938  65.784  1.00  0.00    -0.073 C  
BRANCH  16  17
HETATM   17  C   UNL     1      -7.681   3.054  64.268  1.00  0.00    -0.077 C  
BRANCH  17  18
HETATM   18  C   UNL     1      -8.780   4.031  63.828  1.00  0.00    -0.110 C  
BRANCH  18  19
HETATM   19  N   UNL     1      -8.850   5.143  64.779  1.00  0.00    -0.135 N  
HETATM   20  C   UNL     1      -9.504   4.889  66.057  1.00  0.00    -0.163 C  
HETATM   21  C   UNL     1     -10.692   5.808  66.284  1.00  0.00    -0.092 C  
HETATM   22  C   UNL     1     -10.196   7.063  66.947  1.00  0.00    -0.318 A  
HETATM   23  C   UNL     1     -10.650   7.359  68.238  1.00  0.00    -0.204 A  
HETATM   24  C   UNL     1     -10.185   8.477  68.930  1.00  0.00    -0.207 A  
HETATM   25  C   UNL     1      -9.239   9.319  68.319  1.00  0.00    -0.131 A  
HETATM   26  O   UNL     1      -7.119   6.300  63.833  1.00  0.00    -0.048 OA 
HETATM   27  C   UNL     1      -8.135   6.307  64.536  1.00  0.00    -0.102 C  
HETATM   28  C   UNL     1      -8.782   9.017  67.026  1.00  0.00    -0.124 A  
HETATM   29  C   UNL     1      -8.781   7.636  64.913  1.00  0.00     0.198 C  
HETATM   30  C   UNL     1      -9.241   7.882  66.331  1.00  0.00    -0.241 A  
BRANCH  24  31
HETATM   31  O   UNL     1     -10.576   8.785  70.210  1.00  0.00    -0.205 OA 
HETATM   32  C   UNL     1     -11.227   7.749  70.938  1.00  0.00    -0.271 C  
ENDBRANCH  24  31
BRANCH  25  33
HETATM   33  O   UNL     1      -8.831  10.405  69.053  1.00  0.00    -0.154 OA 
HETATM   34  C   UNL     1      -8.624  11.627  68.358  1.00  0.00    -0.156 C  
ENDBRANCH  25  33
ENDBRANCH  18  19
ENDBRANCH  17  18
ENDBRANCH  16  17
ENDBRANCH  14  16
ENDBRANCH  13  14
ENDBRANCH   9  13
ENDBRANCH   2   3
TORSDOF 10
ENDMDL
MODEL      305
REMARK 921   NORMALIZED FREE ENERGY PREDICTED BY IDOCK:   -0.87 KCAL/MOL
REMARK 922        TOTAL FREE ENERGY PREDICTED BY IDOCK:   -3.34 KCAL/MOL
REMARK 923 INTER-LIGAND FREE ENERGY PREDICTED BY IDOCK:   -4.41 KCAL/MOL
REMARK 924 INTRA-LIGAND FREE ENERGY PREDICTED BY IDOCK:    1.07 KCAL/MOL
REMARK 927      BINDING AFFINITY PREDICTED BY RF-SCORE:    0.00 PKD
ROOT
HETATM    1  C   UNL     1      -9.625  18.840  66.406  1.00  0.00    -0.335 C  
HETATM    2  O   UNL     1     -10.548  17.877  66.906  1.00  0.00    -0.338 OA 
ENDROOT
BRANCH   2   3
HETATM    3  C   UNL     1     -10.039  16.705  67.405  1.00  0.00    -0.274 A  
HETATM    4  C   UNL     1     -10.649  15.831  68.344  1.00  0.00    -0.264 A  
HETATM    5  C   UNL     1      -8.758  16.391  66.870  1.00  0.00    -0.233 A  
HETATM    6  C   UNL     1      -9.951  14.708  68.786  1.00  0.00    -0.235 A  
HETATM    7  C   UNL     1      -8.121  15.253  67.326  1.00  0.00    -0.229 A  
HETATM    8  C   UNL     1      -8.686  14.502  68.309  1.00  0.00    -0.173 A  
HETATM    9  C   UNL     1      -7.503  13.584  68.485  1.00  0.00    -0.122 C  
HETATM   10  C   UNL     1      -6.963  14.294  67.165  1.00  0.00     0.337 C  
BRANCH   4  11
HETATM   11  O   UNL     1     -11.926  16.065  68.783  1.00  0.00    -0.340 OA 
HETATM   12  C   UNL     1     -12.339  15.339  69.940  1.00  0.00    -0.288 C  
ENDBRANCH   4  11
BRANCH   9  13
HETATM   13  C   UNL     1      -8.065  12.172  68.698  1.00  0.00    -0.048 C  
BRANCH  13  14
HETATM   14  N   UNL     1      -7.963  11.223  67.588  1.00  0.00    -0.114 NA 
HETATM   15  C   UNL     1      -8.911  11.524  66.529  1.00  0.00    -0.189 C  
BRANCH  14  16
HETATM   16  C   UNL     1      -6.584  10.951  67.164  1.00  0.00    -0.083 C  
BRANCH  16  17
HETATM   17  C   UNL     1      -6.520  10.475  65.715  1.00  0.00    -0.124 C  
BRANCH  17  18
HETATM   18  C   UNL     1      -7.868   9.976  65.179  1.00  0.00    -0.136 C  
BRANCH  18  19
HETATM   19  N   UNL     1      -7.771   8.545  64.877  1.00  0.00    -0.098 N  
HETATM   20  C   UNL     1      -8.648   7.646  65.617  1.00  0.00    -0.123 C  
HETATM   21  C   UNL     1      -7.869   6.608  66.407  1.00  0.00    -0.104 C  
HETATM   22  C   UNL     1      -7.634   5.420  65.516  1.00  0.00    -0.082 A  
HETATM   23  C   UNL     1      -8.210   4.195  65.874  1.00  0.00    -0.109 A  
HETATM   24  C   UNL     1      -8.077   3.069  65.062  1.00  0.00    -0.086 A  
HETATM   25  C   UNL     1      -7.355   3.168  63.860  1.00  0.00    -0.061 A  
HETATM   26  O   UNL     1      -6.823   8.857  62.820  1.00  0.00    -0.095 OA 
HETATM   27  C   UNL     1      -7.027   8.118  63.787  1.00  0.00    -0.076 C  
HETATM   28  C   UNL     1      -6.783   4.399  63.502  1.00  0.00    -0.042 A  
HETATM   29  C   UNL     1      -6.229   6.825  63.929  1.00  0.00    -0.035 C  
HETATM   30  C   UNL     1      -6.926   5.540  64.314  1.00  0.00    -0.048 A  
BRANCH  24  31
HETATM   31  O   UNL     1      -8.656   1.858  65.357  1.00  0.00    -0.099 OA 
HETATM   32  C   UNL     1      -8.848   1.569  66.738  1.00  0.00    -0.116 C  
ENDBRANCH  24  31
BRANCH  25  33
HETATM   33  O   UNL     1      -7.257   2.019  63.115  1.00  0.00    -0.038 OA 
HETATM   34  C   UNL     1      -5.959   1.479  62.909  1.00  0.00    -0.008 C  
ENDBRANCH  25  33
ENDBRANCH  18  19
ENDBRANCH  17  18
ENDBRANCH  16  17
ENDBRANCH  14  16
ENDBRANCH  13  14
ENDBRANCH   9  13
ENDBRANCH   2   3
TORSDOF 10
ENDMDL
MODEL      306
REMARK 921   NORMALIZED FREE ENERGY PREDICTED BY IDOCK:   -0.75 KCAL/MOL
REMARK 922        TOTAL FREE ENERGY PREDICTED BY IDOCK:   -3.15 KCAL/MOL
REMARK 923 INTER-LIGAND FREE ENERGY PREDICTED BY IDOCK:   -3.22 KCAL/MOL
REMARK 924 INTRA-LIGAND FREE ENERGY PREDICTED BY IDOCK:    0.07 KCAL/MOL
REMARK 927      BINDING AFFINITY PREDICTED BY RF-SCORE:    0.00 PKD
ROOT
HETATM    1  C   UNL     1     -10.174  12.196  63.357  1.00  0.00    -0.388 C  
HETATM    2  O   UNL     1      -9.940  11.328  64.462  1.00  0.00    -0.247 OA 
ENDROOT
BRANCH   2   3
HETATM    3  C   UNL     1      -9.484  11.890  65.627  1.00  0.00    -0.166 A  
HETATM    4  C   UNL     1      -9.257  11.235  66.868  1.00  0.00    -0.175 A  
HETATM    5  C   UNL     1      -9.224  13.282  65.501  1.00  0.00     0.498 A  
HETATM    6  C   UNL     1      -8.847  11.985  67.971  1.00  0.00    -0.179 A  
HETATM    7  C   UNL     1      -8.797  13.972  66.620  1.00  0.00    -0.117 A  
HETATM    8  C   UNL     1      -8.700  13.335  67.817  1.00  0.00    -0.194 A  
HETATM    9  C   UNL     1      -8.397  14.578  68.616  1.00  0.00    -0.164 C  
HETATM   10  C   UNL     1      -8.251  15.264  67.185  1.00  0.00    -0.250 C  
BRANCH   4  11
HETATM   11  O   UNL     1      -9.399   9.877  66.973  1.00  0.00    -0.143 OA 
HETATM   12  C   UNL     1     -10.709   9.360  66.743  1.00  0.00    -0.059 C  
ENDBRANCH   4  11
BRANCH   9  13
HETATM   13  C   UNL     1      -7.330  14.192  69.649  1.00  0.00     0.176 C  
BRANCH  13  14
HETATM   14  N   UNL     1      -6.078  13.618  69.155  1.00  0.00    -0.087 NA 
HETATM   15  C   UNL     1      -5.339  14.558  68.329  1.00  0.00    -0.114 C  
BRANCH  14  16
HETATM   16  C   UNL     1      -5.302  12.911  70.181  1.00  0.00    -0.112 C  
BRANCH  16  17
HETATM   17  C   UNL     1      -5.185  11.419  69.878  1.00  0.00    -0.059 C  
BRANCH  17  18
HETATM   18  C   UNL     1      -5.915  11.002  68.594  1.00  0.00    -0.042 C  
BRANCH  18  19
HETATM   19  N   UNL     1      -6.344   9.606  68.712  1.00  0.00    -0.046 N  
HETATM   20  C   UNL     1      -5.715   8.636  67.823  1.00  0.00    -0.039 C  
HETATM   21  C   UNL     1      -6.729   7.927  66.941  1.00  0.00    -0.068 C  
HETATM   22  C   UNL     1      -7.227   6.717  67.679  1.00  0.00    -0.090 A  
HETATM   23  C   UNL     1      -6.963   5.451  67.140  1.00  0.00    -0.065 A  
HETATM   24  C   UNL     1      -7.350   4.287  67.804  1.00  0.00    -0.068 A  
HETATM   25  C   UNL     1      -8.012   4.388  69.039  1.00  0.00    -0.069 A  
HETATM   26  O   UNL     1      -7.165   9.846  70.832  1.00  0.00    -0.330 OA 
HETATM   27  C   UNL     1      -7.155   9.219  69.769  1.00  0.00    -0.064 C  
HETATM   28  C   UNL     1      -8.272   5.657  69.580  1.00  0.00    -0.103 A  
HETATM   29  C   UNL     1      -8.239   8.181  69.496  1.00  0.00    -0.121 C  
HETATM   30  C   UNL     1      -7.872   6.833  68.917  1.00  0.00    -0.111 A  
BRANCH  24  31
HETATM   31  O   UNL     1      -7.079   3.027  67.329  1.00  0.00    -0.052 OA 
HETATM   32  C   UNL     1      -8.073   2.438  66.496  1.00  0.00    -0.083 C  
ENDBRANCH  24  31
BRANCH  25  33
HETATM   33  O   UNL     1      -8.371   3.203  69.632  1.00  0.00    -0.054 OA 
HETATM   34  C   UNL     1      -7.385   2.530  70.405  1.00  0.00    -0.033 C  
ENDBRANCH  25  33
ENDBRANCH  18  19
ENDBRANCH  17  18
ENDBRANCH  16  17
ENDBRANCH  14  16
ENDBRANCH  13  14
ENDBRANCH   9  13
ENDBRANCH   2   3
TORSDOF 10
ENDMDL
MODEL      307
REMARK 921   NORMALIZED FREE ENERGY PREDICTED BY IDOCK:   -0.69 KCAL/MOL
REMARK 922        TOTAL FREE ENERGY PREDICTED BY IDOCK:   -3.05 KCAL/MOL
REMARK 923 INTER-LIGAND FREE ENERGY PREDICTED BY IDOCK:   -2.87 KCAL/MOL
REMARK 924 INTRA-LIGAND FREE ENERGY PREDICTED BY IDOCK:   -0.18 KCAL/MOL
REMARK 927      BINDING AFFINITY PREDICTED BY RF-SCORE:    0.00 PKD
ROOT
HETATM    1  C   UNL     1      -7.696  20.696  65.614  1.00  0.00     0.302 C  
HETATM    2  O   UNL     1      -8.502  19.538  65.808  1.00  0.00    -0.418 OA 
ENDROOT
BRANCH   2   3
HETATM    3  C   UNL     1      -8.042  18.581  66.676  1.00  0.00    -0.264 A  
HETATM    4  C   UNL     1      -7.397  18.789  67.926  1.00  0.00    -0.241 A  
HETATM    5  C   UNL     1      -8.279  17.258  66.211  1.00  0.00    -0.302 A  
HETATM    6  C   UNL     1      -6.938  17.688  68.650  1.00  0.00    -0.237 A  
HETATM    7  C   UNL     1      -7.824  16.203  66.981  1.00  0.00    -0.258 A  
HETATM    8  C   UNL     1      -7.111  16.443  68.113  1.00  0.00    -0.145 A  
HETATM    9  C   UNL     1      -6.763  14.998  68.372  1.00  0.00    -0.111 C  
HETATM   10  C   UNL     1      -7.812  14.708  67.207  1.00  0.00    -0.213 C  
BRANCH   4  11
HETATM   11  O   UNL     1      -7.260  20.054  68.434  1.00  0.00    -0.299 OA 
HETATM   12  C   UNL     1      -6.150  20.268  69.305  1.00  0.00    -0.336 C  
ENDBRANCH   4  11
BRANCH   9  13
HETATM   13  C   UNL     1      -6.872  14.780  69.887  1.00  0.00    -0.158 C  
BRANCH  13  14
HETATM   14  N   UNL     1      -5.642  14.480  70.622  1.00  0.00    -0.141 NA 
HETATM   15  C   UNL     1      -5.132  15.645  71.324  1.00  0.00    -0.136 C  
BRANCH  14  16
HETATM   16  C   UNL     1      -5.701  13.233  71.396  1.00  0.00     0.004 C  
BRANCH  16  17
HETATM   17  C   UNL     1      -5.173  12.044  70.598  1.00  0.00    -0.136 C  
BRANCH  17  18
HETATM   18  C   UNL     1      -5.848  11.883  69.229  1.00  0.00    -0.072 C  
BRANCH  18  19
HETATM   19  N   UNL     1      -6.433  10.543  69.131  1.00  0.00    -0.050 N  
HETATM   20  C   UNL     1      -5.512   9.412  69.113  1.00  0.00    -0.036 C  
HETATM   21  C   UNL     1      -5.652   8.580  67.850  1.00  0.00    -0.035 C  
HETATM   22  C   UNL     1      -6.708   7.537  68.090  1.00  0.00    -0.058 A  
HETATM   23  C   UNL     1      -6.331   6.188  68.062  1.00  0.00    -0.036 A  
HETATM   24  C   UNL     1      -7.250   5.175  68.332  1.00  0.00    -0.063 A  
HETATM   25  C   UNL     1      -8.578   5.515  68.642  1.00  0.00    -0.103 A  
HETATM   26  O   UNL     1      -8.490  11.186  69.892  1.00  0.00     0.645 OA 
HETATM   27  C   UNL     1      -7.803  10.375  69.264  1.00  0.00    -0.147 C  
HETATM   28  C   UNL     1      -8.952   6.868  68.674  1.00  0.00    -0.129 A  
HETATM   29  C   UNL     1      -8.485   9.332  68.384  1.00  0.00    -0.120 C  
HETATM   30  C   UNL     1      -8.023   7.893  68.414  1.00  0.00    -0.122 A  
BRANCH  24  31
HETATM   31  O   UNL     1      -6.915   3.843  68.350  1.00  0.00    -0.049 OA 
HETATM   32  C   UNL     1      -5.565   3.526  68.027  1.00  0.00    -0.018 C  
ENDBRANCH  24  31
BRANCH  25  33
HETATM   33  O   UNL     1      -9.430   4.468  68.888  1.00  0.00    -0.136 OA 
HETATM   34  C   UNL     1     -10.764   4.781  69.267  1.00  0.00     0.751 C  
ENDBRANCH  25  33
ENDBRANCH  18  19
ENDBRANCH  17  18
ENDBRANCH  16  17
ENDBRANCH  14  16
ENDBRANCH  13  14
ENDBRANCH   9  13
ENDBRANCH   2   3
TORSDOF 10
ENDMDL
MODEL      308
REMARK 921   NORMALIZED FREE ENERGY PREDICTED BY IDOCK:   -0.59 KCAL/MOL
REMARK 922        TOTAL FREE ENERGY PREDICTED BY IDOCK:   -2.90 KCAL/MOL
REMARK 923 INTER-LIGAND FREE ENERGY PREDICTED BY IDOCK:   -2.34 KCAL/MOL
REMARK 924 INTRA-LIGAND FREE ENERGY PREDICTED BY IDOCK:   -0.56 KCAL/MOL
REMARK 927      BINDING AFFINITY PREDICTED BY RF-SCORE:    0.00 PKD
ROOT
HETATM    1  C   UNL     1      -9.213  10.526  63.449  1.00  0.00    -0.276 C  
HETATM    2  O   UNL     1      -8.325  10.112  64.483  1.00  0.00    -0.155 OA 
ENDROOT
BRANCH   2   3
HETATM    3  C   UNL     1      -8.221   8.768  64.733  1.00  0.00    -0.162 A  
HETATM    4  C   UNL     1      -7.154   7.903  64.366  1.00  0.00    -0.074 A  
HETATM    5  C   UNL     1      -9.337   8.254  65.449  1.00  0.00     0.206 A  
HETATM    6  C   UNL     1      -7.249   6.541  64.652  1.00  0.00    -0.064 A  
HETATM    7  C   UNL     1      -9.369   6.901  65.727  1.00  0.00     0.158 A  
HETATM    8  C   UNL     1      -8.386   6.085  65.261  1.00  0.00    -0.148 A  
HETATM    9  C   UNL     1      -9.045   4.801  65.698  1.00  0.00    -0.145 C  
HETATM   10  C   UNL     1     -10.050   5.771  66.467  1.00  0.00    -0.216 C  
BRANCH   4  11
HETATM   11  O   UNL     1      -6.026   8.405  63.773  1.00  0.00    -0.069 OA 
HETATM   12  C   UNL     1      -6.231   9.290  62.673  1.00  0.00    -0.093 C  
ENDBRANCH   4  11
BRANCH   9  13
HETATM   13  C   UNL     1      -7.932   3.891  66.234  1.00  0.00    -0.094 C  
BRANCH  13  14
HETATM   14  N   UNL     1      -8.115   3.300  67.561  1.00  0.00    -0.080 NA 
HETATM   15  C   UNL     1      -8.410   1.879  67.485  1.00  0.00    -0.071 C  
BRANCH  14  16
HETATM   16  C   UNL     1      -7.091   3.697  68.535  1.00  0.00    -0.051 C  
BRANCH  16  17
HETATM   17  C   UNL     1      -7.543   4.882  69.384  1.00  0.00    -0.060 C  
BRANCH  17  18
HETATM   18  C   UNL     1      -6.382   5.631  70.050  1.00  0.00    -0.030 C  
BRANCH  18  19
HETATM   19  N   UNL     1      -6.594   7.074  69.915  1.00  0.00    -0.043 N  
HETATM   20  C   UNL     1      -7.735   7.510  69.118  1.00  0.00    -0.113 C  
HETATM   21  C   UNL     1      -7.314   8.378  67.944  1.00  0.00    -0.096 C  
HETATM   22  C   UNL     1      -7.270   9.807  68.408  1.00  0.00    -0.077 A  
HETATM   23  C   UNL     1      -8.155  10.723  67.826  1.00  0.00    -0.111 A  
HETATM   24  C   UNL     1      -8.204  12.051  68.251  1.00  0.00    -0.161 A  
HETATM   25  C   UNL     1      -7.351  12.473  69.286  1.00  0.00     0.220 A  
HETATM   26  O   UNL     1      -5.379   7.612  71.776  1.00  0.00    -0.035 OA 
HETATM   27  C   UNL     1      -5.857   7.957  70.691  1.00  0.00    -0.029 C  
HETATM   28  C   UNL     1      -6.468  11.551  69.870  1.00  0.00    -0.106 A  
HETATM   29  C   UNL     1      -5.407   9.267  70.052  1.00  0.00    -0.028 C  
HETATM   30  C   UNL     1      -6.426  10.208  69.451  1.00  0.00    -0.050 A  
BRANCH  24  31
HETATM   31  O   UNL     1      -9.081  12.973  67.734  1.00  0.00    -0.182 OA 
HETATM   32  C   UNL     1     -10.439  12.562  67.625  1.00  0.00    -0.217 C  
ENDBRANCH  24  31
BRANCH  25  33
HETATM   33  O   UNL     1      -7.446  13.794  69.647  1.00  0.00     0.231 OA 
HETATM   34  C   UNL     1      -7.188  14.770  68.646  1.00  0.00    -0.119 C  
ENDBRANCH  25  33
ENDBRANCH  18  19
ENDBRANCH  17  18
ENDBRANCH  16  17
ENDBRANCH  14  16
ENDBRANCH  13  14
ENDBRANCH   9  13
ENDBRANCH   2   3
TORSDOF 10
ENDMDL
MODEL      309
REMARK 921   NORMALIZED FREE ENERGY PREDICTED BY IDOCK:   -0.31 KCAL/MOL
REMARK 922        TOTAL FREE ENERGY PREDICTED BY IDOCK:   -2.46 KCAL/MOL
REMARK 923 INTER-LIGAND FREE ENERGY PREDICTED BY IDOCK:   -4.44 KCAL/MOL
REMARK 924 INTRA-LIGAND FREE ENERGY PREDICTED BY IDOCK:    1.98 KCAL/MOL
REMARK 927      BINDING AFFINITY PREDICTED BY RF-SCORE:    0.00 PKD
ROOT
HETATM    1  C   UNL     1      -7.695  20.697  65.615  1.00  0.00     0.302 C  
HETATM    2  O   UNL     1      -8.503  19.543  65.824  1.00  0.00    -0.418 OA 
ENDROOT
BRANCH   2   3
HETATM    3  C   UNL     1      -8.042  18.594  66.701  1.00  0.00    -0.271 A  
HETATM    4  C   UNL     1      -7.398  18.815  67.949  1.00  0.00    -0.241 A  
HETATM    5  C   UNL     1      -8.278  17.266  66.249  1.00  0.00    -0.302 A  
HETATM    6  C   UNL     1      -6.939  17.721  68.683  1.00  0.00    -0.247 A  
HETATM    7  C   UNL     1      -7.823  16.220  67.029  1.00  0.00    -0.253 A  
HETATM    8  C   UNL     1      -7.111  16.470  68.159  1.00  0.00    -0.149 A  
HETATM    9  C   UNL     1      -6.763  15.028  68.431  1.00  0.00    -0.111 C  
HETATM   10  C   UNL     1      -7.811  14.727  67.269  1.00  0.00    -0.223 C  
BRANCH   4  11
HETATM   11  O   UNL     1      -7.262  20.084  68.445  1.00  0.00    -0.299 OA 
HETATM   12  C   UNL     1      -5.929  20.584  68.544  1.00  0.00    -0.322 C  
ENDBRANCH   4  11
BRANCH   9  13
HETATM   13  C   UNL     1      -6.871  14.825  69.949  1.00  0.00    -0.158 C  
BRANCH  13  14
HETATM   14  N   UNL     1      -5.640  14.541  70.688  1.00  0.00    -0.141 NA 
HETATM   15  C   UNL     1      -5.140  15.716  71.381  1.00  0.00    -0.118 C  
BRANCH  14  16
HETATM   16  C   UNL     1      -5.691  13.301  71.473  1.00  0.00     0.071 C  
BRANCH  16  17
HETATM   17  C   UNL     1      -5.146  12.110  70.688  1.00  0.00    -0.120 C  
BRANCH  17  18
HETATM   18  C   UNL     1      -5.344  12.239  69.173  1.00  0.00    -0.063 C  
BRANCH  18  19
HETATM   19  N   UNL     1      -6.085  11.075  68.679  1.00  0.00    -0.043 N  
HETATM   20  C   UNL     1      -5.907  10.716  67.277  1.00  0.00    -0.046 C  
HETATM   21  C   UNL     1      -7.218  10.741  66.509  1.00  0.00    -0.139 C  
HETATM   22  C   UNL     1      -7.858   9.386  66.630  1.00  0.00    -0.104 A  
HETATM   23  C   UNL     1      -8.035   8.626  65.467  1.00  0.00    -0.108 A  
HETATM   24  C   UNL     1      -8.571   7.340  65.518  1.00  0.00    -0.075 A  
HETATM   25  C   UNL     1      -8.936   6.796  66.761  1.00  0.00    -0.134 A  
HETATM   26  O   UNL     1      -6.394  10.163  70.752  1.00  0.00    -0.188 OA 
HETATM   27  C   UNL     1      -6.749  10.248  69.573  1.00  0.00    -0.073 C  
HETATM   28  C   UNL     1      -8.754   7.558  67.926  1.00  0.00    -0.124 A  
HETATM   29  C   UNL     1      -8.094   9.668  69.146  1.00  0.00    -0.104 C  
HETATM   30  C   UNL     1      -8.202   8.852  67.879  1.00  0.00    -0.110 A  
BRANCH  24  31
HETATM   31  O   UNL     1      -8.728   6.547  64.407  1.00  0.00     0.210 OA 
HETATM   32  C   UNL     1      -7.867   6.824  63.307  1.00  0.00    -0.102 C  
ENDBRANCH  24  31
BRANCH  25  33
HETATM   33  O   UNL     1      -9.465   5.529  66.736  1.00  0.00    -0.129 OA 
HETATM   34  C   UNL     1      -8.650   4.488  66.216  1.00  0.00    -0.113 C  
ENDBRANCH  25  33
ENDBRANCH  18  19
ENDBRANCH  17  18
ENDBRANCH  16  17
ENDBRANCH  14  16
ENDBRANCH  13  14
ENDBRANCH   9  13
ENDBRANCH   2   3
TORSDOF 10
ENDMDL
MODEL      310
REMARK 921   NORMALIZED FREE ENERGY PREDICTED BY IDOCK:   -0.03 KCAL/MOL
REMARK 922        TOTAL FREE ENERGY PREDICTED BY IDOCK:   -2.00 KCAL/MOL
REMARK 923 INTER-LIGAND FREE ENERGY PREDICTED BY IDOCK:   -4.39 KCAL/MOL
REMARK 924 INTRA-LIGAND FREE ENERGY PREDICTED BY IDOCK:    2.39 KCAL/MOL
REMARK 927      BINDING AFFINITY PREDICTED BY RF-SCORE:    0.00 PKD
ROOT
HETATM    1  C   UNL     1      -6.018   8.161  72.575  1.00  0.00    -0.051 C  
HETATM    2  O   UNL     1      -7.142   8.247  71.704  1.00  0.00    -0.068 OA 
ENDROOT
BRANCH   2   3
HETATM    3  C   UNL     1      -6.916   8.107  70.359  1.00  0.00    -0.037 A  
HETATM    4  C   UNL     1      -7.159   6.957  69.559  1.00  0.00    -0.075 A  
HETATM    5  C   UNL     1      -6.390   9.287  69.764  1.00  0.00    -0.039 A  
HETATM    6  C   UNL     1      -6.808   6.977  68.210  1.00  0.00    -0.074 A  
HETATM    7  C   UNL     1      -6.082   9.259  68.417  1.00  0.00    -0.045 A  
HETATM    8  C   UNL     1      -6.220   8.106  67.710  1.00  0.00    -0.052 A  
HETATM    9  C   UNL     1      -5.587   8.636  66.448  1.00  0.00    -0.042 C  
HETATM   10  C   UNL     1      -5.673  10.043  67.191  1.00  0.00    -0.046 C  
BRANCH   4  11
HETATM   11  O   UNL     1      -7.765   5.853  70.097  1.00  0.00    -0.091 OA 
HETATM   12  C   UNL     1      -8.519   5.044  69.195  1.00  0.00    -0.085 C  
ENDBRANCH   4  11
BRANCH   9  13
HETATM   13  C   UNL     1      -6.402   8.077  65.274  1.00  0.00    -0.045 C  
BRANCH  13  14
HETATM   14  N   UNL     1      -7.837   7.870  65.478  1.00  0.00    -0.105 NA 
HETATM   15  C   UNL     1      -8.142   6.492  65.823  1.00  0.00    -0.128 C  
BRANCH  14  16
HETATM   16  C   UNL     1      -8.474   8.901  66.307  1.00  0.00    -0.123 C  
BRANCH  16  17
HETATM   17  C   UNL     1      -9.742   8.383  66.981  1.00  0.00    -0.268 C  
BRANCH  17  18
HETATM   18  C   UNL     1     -10.967   9.274  66.738  1.00  0.00     0.274 C  
BRANCH  18  19
HETATM   19  N   UNL     1     -10.588  10.679  66.912  1.00  0.00    -0.257 N  
HETATM   20  C   UNL     1     -11.068  11.629  65.915  1.00  0.00    -0.264 C  
HETATM   21  C   UNL     1      -9.928  12.348  65.215  1.00  0.00    -0.234 C  
HETATM   22  C   UNL     1      -9.586  13.575  66.014  1.00  0.00    -0.179 A  
HETATM   23  C   UNL     1      -9.773  14.830  65.421  1.00  0.00    -0.193 A  
HETATM   24  C   UNL     1      -9.528  16.007  66.128  1.00  0.00    -0.336 A  
HETATM   25  C   UNL     1      -9.090  15.930  67.461  1.00  0.00    -0.199 A  
HETATM   26  O   UNL     1     -10.146  10.474  69.146  1.00  0.00    -0.205 OA 
HETATM   27  C   UNL     1      -9.981  11.091  68.089  1.00  0.00    -0.177 C  
HETATM   28  C   UNL     1      -8.908  14.670  68.054  1.00  0.00    -0.169 A  
HETATM   29  C   UNL     1      -8.883  12.146  67.997  1.00  0.00    -0.181 C  
HETATM   30  C   UNL     1      -9.166  13.481  67.347  1.00  0.00    -0.223 A  
BRANCH  24  31
HETATM   31  O   UNL     1      -9.733  17.258  65.597  1.00  0.00    -0.535 OA 
HETATM   32  C   UNL     1     -11.017  17.503  65.035  1.00  0.00     0.460 C  
ENDBRANCH  24  31
BRANCH  25  33
HETATM   33  O   UNL     1      -8.860  17.127  68.093  1.00  0.00    -0.223 OA 
HETATM   34  C   UNL     1      -9.993  17.900  68.468  1.00  0.00    -0.379 C  
ENDBRANCH  25  33
ENDBRANCH  18  19
ENDBRANCH  17  18
ENDBRANCH  16  17
ENDBRANCH  14  16
ENDBRANCH  13  14
ENDBRANCH   9  13
ENDBRANCH   2   3
TORSDOF 10
ENDMDL
MODEL      311
REMARK 921   NORMALIZED FREE ENERGY PREDICTED BY IDOCK:    0.10 KCAL/MOL
REMARK 922        TOTAL FREE ENERGY PREDICTED BY IDOCK:   -1.81 KCAL/MOL
REMARK 923 INTER-LIGAND FREE ENERGY PREDICTED BY IDOCK:   -3.67 KCAL/MOL
REMARK 924 INTRA-LIGAND FREE ENERGY PREDICTED BY IDOCK:    1.86 KCAL/MOL
REMARK 927      BINDING AFFINITY PREDICTED BY RF-SCORE:    0.00 PKD
ROOT
HETATM    1  C   UNL     1     -13.550  15.848  72.933  1.00  0.00    -0.541 C  
HETATM    2  O   UNL     1     -13.285  16.322  71.616  1.00  0.00    -0.023 OA 
ENDROOT
BRANCH   2   3
HETATM    3  C   UNL     1     -12.691  15.455  70.734  1.00  0.00    -0.459 A  
HETATM    4  C   UNL     1     -12.062  14.217  71.036  1.00  0.00    -0.335 A  
HETATM    5  C   UNL     1     -12.760  15.907  69.388  1.00  0.00     0.609 A  
HETATM    6  C   UNL     1     -11.454  13.492  70.011  1.00  0.00    -0.141 A  
HETATM    7  C   UNL     1     -12.161  15.138  68.409  1.00  0.00    -0.107 A  
HETATM    8  C   UNL     1     -11.469  14.018  68.749  1.00  0.00    -0.327 A  
HETATM    9  C   UNL     1     -10.933  13.755  67.364  1.00  0.00    -0.296 C  
HETATM   10  C   UNL     1     -11.950  14.902  66.930  1.00  0.00    -0.118 C  
BRANCH   4  11
HETATM   11  O   UNL     1     -12.085  13.719  72.312  1.00  0.00     0.206 OA 
HETATM   12  C   UNL     1     -11.568  14.571  73.332  1.00  0.00     0.580 C  
ENDBRANCH   4  11
BRANCH   9  13
HETATM   13  C   UNL     1     -10.990  12.237  67.147  1.00  0.00    -0.262 C  
BRANCH  13  14
HETATM   14  N   UNL     1     -10.213  11.388  68.052  1.00  0.00    -0.180 NA 
HETATM   15  C   UNL     1     -10.712  10.024  68.077  1.00  0.00    -0.256 C  
BRANCH  14  16
HETATM   16  C   UNL     1      -8.760  11.543  67.910  1.00  0.00    -0.144 C  
BRANCH  16  17
HETATM   17  C   UNL     1      -8.021  10.235  68.182  1.00  0.00    -0.109 C  
BRANCH  17  18
HETATM   18  C   UNL     1      -7.615  10.061  69.651  1.00  0.00    -0.147 C  
BRANCH  18  19
HETATM   19  N   UNL     1      -7.828   8.668  70.052  1.00  0.00    -0.098 N  
HETATM   20  C   UNL     1      -6.752   7.722  69.780  1.00  0.00    -0.039 C  
HETATM   21  C   UNL     1      -7.205   6.584  68.882  1.00  0.00    -0.084 C  
HETATM   22  C   UNL     1      -7.758   5.490  69.752  1.00  0.00    -0.078 A  
HETATM   23  C   UNL     1      -7.104   4.251  69.762  1.00  0.00    -0.049 A  
HETATM   24  C   UNL     1      -7.533   3.214  70.589  1.00  0.00    -0.040 A  
HETATM   25  C   UNL     1      -8.639   3.418  71.432  1.00  0.00    -0.072 A  
HETATM   26  O   UNL     1      -9.452   9.167  71.582  1.00  0.00    -0.282 OA 
HETATM   27  C   UNL     1      -8.920   8.336  70.840  1.00  0.00    -0.151 C  
HETATM   28  C   UNL     1      -9.290   4.663  71.423  1.00  0.00    -0.206 A  
HETATM   29  C   UNL     1      -9.626   7.012  70.563  1.00  0.00    -0.169 C  
HETATM   30  C   UNL     1      -8.851   5.715  70.598  1.00  0.00    -0.145 A  
BRANCH  24  31
HETATM   31  O   UNL     1      -6.899   1.997  70.657  1.00  0.00    -0.031 OA 
HETATM   32  C   UNL     1      -6.388   1.482  69.432  1.00  0.00    -0.025 C  
ENDBRANCH  24  31
BRANCH  25  33
HETATM   33  O   UNL     1      -9.011   2.352  72.212  1.00  0.00    -0.072 OA 
HETATM   34  C   UNL     1      -9.427   2.626  73.543  1.00  0.00    -0.083 C  
ENDBRANCH  25  33
ENDBRANCH  18  19
ENDBRANCH  17  18
ENDBRANCH  16  17
ENDBRANCH  14  16
ENDBRANCH  13  14
ENDBRANCH   9  13
ENDBRANCH   2   3
TORSDOF 10
ENDMDL
MODEL      312
REMARK 921   NORMALIZED FREE ENERGY PREDICTED BY IDOCK:    1.06 KCAL/MOL
REMARK 922        TOTAL FREE ENERGY PREDICTED BY IDOCK:   -0.28 KCAL/MOL
REMARK 923 INTER-LIGAND FREE ENERGY PREDICTED BY IDOCK:   -4.27 KCAL/MOL
REMARK 924 INTRA-LIGAND FREE ENERGY PREDICTED BY IDOCK:    3.98 KCAL/MOL
REMARK 927      BINDING AFFINITY PREDICTED BY RF-SCORE:    0.00 PKD
ROOT
HETATM    1  C   UNL     1      -6.008  14.829  70.270  1.00  0.00    -0.160 C  
HETATM    2  O   UNL     1      -5.805  14.234  68.992  1.00  0.00    -0.086 OA 
ENDROOT
BRANCH   2   3
HETATM    3  C   UNL     1      -6.862  13.571  68.423  1.00  0.00    -0.102 A  
HETATM    4  C   UNL     1      -8.242  13.893  68.536  1.00  0.00    -0.131 A  
HETATM    5  C   UNL     1      -6.456  12.454  67.642  1.00  0.00    -0.130 A  
HETATM    6  C   UNL     1      -9.189  13.064  67.935  1.00  0.00    -0.208 A  
HETATM    7  C   UNL     1      -7.435  11.681  67.049  1.00  0.00    -0.150 A  
HETATM    8  C   UNL     1      -8.748  11.952  67.272  1.00  0.00    -0.171 A  
HETATM    9  C   UNL     1      -9.270  10.728  66.562  1.00  0.00    -0.187 C  
HETATM   10  C   UNL     1      -7.759  10.564  66.082  1.00  0.00    -0.142 C  
BRANCH   4  11
HETATM   11  O   UNL     1      -8.639  15.027  69.195  1.00  0.00    -0.196 OA 
HETATM   12  C   UNL     1     -10.030  15.129  69.495  1.00  0.00    -0.201 C  
ENDBRANCH   4  11
BRANCH   9  13
HETATM   13  C   UNL     1     -10.520  11.165  65.786  1.00  0.00    -0.246 C  
BRANCH  13  14
HETATM   14  N   UNL     1     -10.568  10.875  64.352  1.00  0.00    -0.339 NA 
HETATM   15  C   UNL     1     -10.871  12.061  63.569  1.00  0.00    -0.444 C  
BRANCH  14  16
HETATM   16  C   UNL     1      -9.449  10.053  63.874  1.00  0.00    -0.220 C  
BRANCH  16  17
HETATM   17  C   UNL     1      -9.154   8.892  64.820  1.00  0.00    -0.007 C  
BRANCH  17  18
HETATM   18  C   UNL     1      -8.151   7.882  64.247  1.00  0.00    -0.093 C  
BRANCH  18  19
HETATM   19  N   UNL     1      -7.928   6.812  65.223  1.00  0.00    -0.121 N  
HETATM   20  C   UNL     1      -8.516   6.982  66.547  1.00  0.00    -0.125 C  
HETATM   21  C   UNL     1      -7.468   6.968  67.645  1.00  0.00    -0.098 C  
HETATM   22  C   UNL     1      -7.258   5.543  68.075  1.00  0.00    -0.072 A  
HETATM   23  C   UNL     1      -7.586   5.188  69.390  1.00  0.00    -0.061 A  
HETATM   24  C   UNL     1      -7.467   3.872  69.834  1.00  0.00    -0.048 A  
HETATM   25  C   UNL     1      -7.014   2.883  68.944  1.00  0.00    -0.044 A  
HETATM   26  O   UNL     1      -7.451   5.226  63.648  1.00  0.00    -0.050 OA 
HETATM   27  C   UNL     1      -7.362   5.613  64.817  1.00  0.00    -0.068 C  
HETATM   28  C   UNL     1      -6.690   3.241  67.625  1.00  0.00    -0.042 A  
HETATM   29  C   UNL     1      -6.388   4.923  65.767  1.00  0.00    -0.035 C  
HETATM   30  C   UNL     1      -6.820   4.567  67.171  1.00  0.00    -0.055 A  
BRANCH  24  31
HETATM   31  O   UNL     1      -7.812   3.474  71.103  1.00  0.00    -0.056 OA 
HETATM   32  C   UNL     1      -9.204   3.350  71.370  1.00  0.00    -0.123 C  
ENDBRANCH  24  31
BRANCH  25  33
HETATM   33  O   UNL     1      -6.913   1.611  69.451  1.00  0.00    -0.033 OA 
HETATM   34  C   UNL     1      -6.438   1.471  70.783  1.00  0.00    -0.024 C  
ENDBRANCH  25  33
ENDBRANCH  18  19
ENDBRANCH  17  18
ENDBRANCH  16  17
ENDBRANCH  14  16
ENDBRANCH  13  14
ENDBRANCH   9  13
ENDBRANCH   2   3
TORSDOF 10
ENDMDL
MODEL      313
REMARK 921   NORMALIZED FREE ENERGY PREDICTED BY IDOCK:    1.15 KCAL/MOL
REMARK 922        TOTAL FREE ENERGY PREDICTED BY IDOCK:   -0.13 KCAL/MOL
REMARK 923 INTER-LIGAND FREE ENERGY PREDICTED BY IDOCK:   -2.04 KCAL/MOL
REMARK 924 INTRA-LIGAND FREE ENERGY PREDICTED BY IDOCK:    1.91 KCAL/MOL
REMARK 927      BINDING AFFINITY PREDICTED BY RF-SCORE:    0.00 PKD
ROOT
HETATM    1  C   UNL     1     -10.414  13.267  62.985  1.00  0.00     2.593 C  
HETATM    2  O   UNL     1     -10.961  12.236  63.802  1.00  0.00    -0.360 OA 
ENDROOT
BRANCH   2   3
HETATM    3  C   UNL     1     -10.327  11.958  64.986  1.00  0.00    -0.289 A  
HETATM    4  C   UNL     1     -10.582  12.541  66.257  1.00  0.00    -0.248 A  
HETATM    5  C   UNL     1      -9.321  10.962  64.851  1.00  0.00    -0.258 A  
HETATM    6  C   UNL     1      -9.790  12.178  67.346  1.00  0.00    -0.193 A  
HETATM    7  C   UNL     1      -8.582  10.623  65.968  1.00  0.00    -0.177 A  
HETATM    8  C   UNL     1      -8.777  11.283  67.141  1.00  0.00    -0.151 A  
HETATM    9  C   UNL     1      -7.622  10.636  67.863  1.00  0.00    -0.091 C  
HETATM   10  C   UNL     1      -7.569   9.685  66.585  1.00  0.00    -0.098 C  
BRANCH   4  11
HETATM   11  O   UNL     1     -11.619  13.421  66.423  1.00  0.00    -0.318 OA 
HETATM   12  C   UNL     1     -12.373  13.289  67.626  1.00  0.00     0.052 C  
ENDBRANCH   4  11
BRANCH   9  13
HETATM   13  C   UNL     1      -8.095  10.354  69.295  1.00  0.00    -0.157 C  
BRANCH  13  14
HETATM   14  N   UNL     1      -9.448   9.824  69.475  1.00  0.00    -0.198 NA 
HETATM   15  C   UNL     1      -9.719   8.716  68.574  1.00  0.00    -0.163 C  
BRANCH  14  16
HETATM   16  C   UNL     1      -9.826   9.623  70.879  1.00  0.00    -0.098 C  
BRANCH  16  17
HETATM   17  C   UNL     1     -10.711   8.392  71.058  1.00  0.00    -0.267 C  
BRANCH  17  18
HETATM   18  C   UNL     1     -10.064   7.297  71.915  1.00  0.00    -0.178 C  
BRANCH  18  19
HETATM   19  N   UNL     1      -9.281   6.406  71.055  1.00  0.00    -0.154 N  
HETATM   20  C   UNL     1      -9.993   5.708  69.991  1.00  0.00    -0.204 C  
HETATM   21  C   UNL     1      -9.880   4.199  70.121  1.00  0.00    -0.242 C  
HETATM   22  C   UNL     1      -8.643   3.757  69.391  1.00  0.00    -0.113 A  
HETATM   23  C   UNL     1      -8.789   2.918  68.280  1.00  0.00    -0.167 A  
HETATM   24  C   UNL     1      -7.686   2.517  67.526  1.00  0.00    -0.061 A  
HETATM   25  C   UNL     1      -6.405   2.968  67.888  1.00  0.00    -0.033 A  
HETATM   26  O   UNL     1      -7.279   7.398  71.540  1.00  0.00    -0.069 OA 
HETATM   27  C   UNL     1      -7.896   6.409  71.136  1.00  0.00    -0.114 C  
HETATM   28  C   UNL     1      -6.262   3.813  69.001  1.00  0.00    -0.028 A  
HETATM   29  C   UNL     1      -7.169   5.075  70.990  1.00  0.00    -0.060 C  
HETATM   30  C   UNL     1      -7.375   4.228  69.756  1.00  0.00    -0.050 A  
BRANCH  24  31
HETATM   31  O   UNL     1      -7.788   1.725  66.408  1.00  0.00    -0.068 OA 
HETATM   32  C   UNL     1      -9.105   1.473  65.930  1.00  0.00    -0.053 C  
ENDBRANCH  24  31
BRANCH  25  33
HETATM   33  O   UNL     1      -5.365   2.528  67.108  1.00  0.00    -0.015 OA 
HETATM   34  C   UNL     1      -5.689   1.824  65.917  1.00  0.00    -0.013 C  
ENDBRANCH  25  33
ENDBRANCH  18  19
ENDBRANCH  17  18
ENDBRANCH  16  17
ENDBRANCH  14  16
ENDBRANCH  13  14
ENDBRANCH   9  13
ENDBRANCH   2   3
TORSDOF 10
ENDMDL
MODEL      314
REMARK 921   NORMALIZED FREE ENERGY PREDICTED BY IDOCK:    1.44 KCAL/MOL
REMARK 922        TOTAL FREE ENERGY PREDICTED BY IDOCK:    0.31 KCAL/MOL
REMARK 923 INTER-LIGAND FREE ENERGY PREDICTED BY IDOCK:   -0.12 KCAL/MOL
REMARK 924 INTRA-LIGAND FREE ENERGY PREDICTED BY IDOCK:    0.43 KCAL/MOL
REMARK 927      BINDING AFFINITY PREDICTED BY RF-SCORE:    0.00 PKD
ROOT
HETATM    1  C   UNL     1     -14.411   6.939  72.948  1.00  0.00     1.287 C  
HETATM    2  O   UNL     1     -13.357   6.550  72.073  1.00  0.00    -0.150 OA 
ENDROOT
BRANCH   2   3
HETATM    3  C   UNL     1     -12.464   7.516  71.683  1.00  0.00    -0.342 A  
HETATM    4  C   UNL     1     -11.105   7.643  72.077  1.00  0.00    -0.255 A  
HETATM    5  C   UNL     1     -13.031   8.455  70.777  1.00  0.00     0.346 A  
HETATM    6  C   UNL     1     -10.361   8.733  71.625  1.00  0.00    -0.391 A  
HETATM    7  C   UNL     1     -12.241   9.502  70.341  1.00  0.00     0.003 A  
HETATM    8  C   UNL     1     -10.981   9.655  70.829  1.00  0.00    -0.397 A  
HETATM    9  C   UNL     1     -10.732  10.986  70.166  1.00  0.00     0.173 C  
HETATM   10  C   UNL     1     -12.091  10.672  69.395  1.00  0.00    -0.250 C  
BRANCH   4  11
HETATM   11  O   UNL     1     -10.517   6.686  72.862  1.00  0.00    -0.204 OA 
HETATM   12  C   UNL     1      -9.698   5.732  72.189  1.00  0.00    -0.152 C  
ENDBRANCH   4  11
BRANCH   9  13
HETATM   13  C   UNL     1      -9.279  10.971  69.671  1.00  0.00     0.553 C  
BRANCH  13  14
HETATM   14  N   UNL     1      -8.820  12.106  68.869  1.00  0.00     0.138 NA 
HETATM   15  C   UNL     1      -9.710  13.248  68.987  1.00  0.00     0.305 C  
BRANCH  14  16
HETATM   16  C   UNL     1      -7.385  12.387  69.005  1.00  0.00     0.031 C  
BRANCH  16  17
HETATM   17  C   UNL     1      -6.589  11.864  67.812  1.00  0.00    -0.084 C  
BRANCH  17  18
HETATM   18  C   UNL     1      -5.623  12.900  67.224  1.00  0.00     0.071 C  
BRANCH  18  19
HETATM   19  N   UNL     1      -6.123  14.247  67.511  1.00  0.00    -0.034 N  
HETATM   20  C   UNL     1      -5.198  15.183  68.141  1.00  0.00    -0.116 C  
HETATM   21  C   UNL     1      -5.716  15.687  69.477  1.00  0.00    -0.120 C  
HETATM   22  C   UNL     1      -6.557  16.907  69.223  1.00  0.00    -0.232 A  
HETATM   23  C   UNL     1      -6.132  18.132  69.753  1.00  0.00    -0.202 A  
HETATM   24  C   UNL     1      -6.836  19.310  69.508  1.00  0.00    -0.235 A  
HETATM   25  C   UNL     1      -7.992  19.266  68.709  1.00  0.00    -0.357 A  
HETATM   26  O   UNL     1      -7.824  14.139  65.987  1.00  0.00     1.612 OA 
HETATM   27  C   UNL     1      -7.349  14.652  67.004  1.00  0.00     0.260 C  
HETATM   28  C   UNL     1      -8.414  18.038  68.175  1.00  0.00    -0.273 A  
HETATM   29  C   UNL     1      -8.228  15.537  67.883  1.00  0.00    -0.149 C  
HETATM   30  C   UNL     1      -7.698  16.849  68.412  1.00  0.00    -0.219 A  
BRANCH  24  31
HETATM   31  O   UNL     1      -6.435  20.537  69.977  1.00  0.00    -0.310 OA 
HETATM   32  C   UNL     1      -5.280  21.101  69.365  1.00  0.00    -0.275 C  
ENDBRANCH  24  31
BRANCH  25  33
HETATM   33  O   UNL     1      -8.640  20.461  68.516  1.00  0.00     0.139 OA 
HETATM   34  C   UNL     1      -9.941  20.418  67.945  1.00  0.00    -0.288 C  
ENDBRANCH  25  33
ENDBRANCH  18  19
ENDBRANCH  17  18
ENDBRANCH  16  17
ENDBRANCH  14  16
ENDBRANCH  13  14
ENDBRANCH   9  13
ENDBRANCH   2   3
TORSDOF 10
ENDMDL
MODEL      315
REMARK 921   NORMALIZED FREE ENERGY PREDICTED BY IDOCK:    2.08 KCAL/MOL
REMARK 922        TOTAL FREE ENERGY PREDICTED BY IDOCK:    1.33 KCAL/MOL
REMARK 923 INTER-LIGAND FREE ENERGY PREDICTED BY IDOCK:   -1.03 KCAL/MOL
REMARK 924 INTRA-LIGAND FREE ENERGY PREDICTED BY IDOCK:    2.36 KCAL/MOL
REMARK 927      BINDING AFFINITY PREDICTED BY RF-SCORE:    0.00 PKD
ROOT
HETATM    1  C   UNL     1      -8.388  12.423  67.120  1.00  0.00    -0.181 C  
HETATM    2  O   UNL     1      -7.254  12.774  67.907  1.00  0.00    -0.094 OA 
ENDROOT
BRANCH   2   3
HETATM    3  C   UNL     1      -6.947  14.105  68.023  1.00  0.00    -0.145 A  
HETATM    4  C   UNL     1      -6.926  14.884  69.212  1.00  0.00    -0.151 A  
HETATM    5  C   UNL     1      -6.616  14.704  66.776  1.00  0.00     1.617 A  
HETATM    6  C   UNL     1      -6.649  16.249  69.129  1.00  0.00    -0.185 A  
HETATM    7  C   UNL     1      -6.326  16.055  66.756  1.00  0.00     0.322 A  
HETATM    8  C   UNL     1      -6.427  16.792  67.894  1.00  0.00    -0.151 A  
HETATM    9  C   UNL     1      -6.192  18.122  67.225  1.00  0.00    -0.182 C  
HETATM   10  C   UNL     1      -5.815  17.233  65.957  1.00  0.00     0.038 C  
BRANCH   4  11
HETATM   11  O   UNL     1      -7.137  14.297  70.431  1.00  0.00     0.160 OA 
HETATM   12  C   UNL     1      -6.174  14.582  71.445  1.00  0.00     0.221 C  
ENDBRANCH   4  11
BRANCH   9  13
HETATM   13  C   UNL     1      -5.300  18.942  68.168  1.00  0.00    -0.179 C  
BRANCH  13  14
HETATM   14  N   UNL     1      -5.940  19.609  69.303  1.00  0.00    -0.250 NA 
HETATM   15  C   UNL     1      -5.442  20.961  69.488  1.00  0.00    -0.374 C  
BRANCH  14  16
HETATM   16  C   UNL     1      -7.399  19.445  69.343  1.00  0.00    -0.205 C  
BRANCH  16  17
HETATM   17  C   UNL     1      -8.123  20.785  69.233  1.00  0.00     1.655 C  
BRANCH  17  18
HETATM   18  C   UNL     1      -8.958  20.920  67.953  1.00  0.00     0.240 C  
BRANCH  18  19
HETATM   19  N   UNL     1      -9.425  19.596  67.535  1.00  0.00    -0.318 N  
HETATM   20  C   UNL     1      -9.972  18.724  68.568  1.00  0.00    -0.400 C  
HETATM   21  C   UNL     1      -9.203  17.419  68.681  1.00  0.00    -0.265 C  
HETATM   22  C   UNL     1      -9.810  16.432  67.723  1.00  0.00    -0.239 A  
HETATM   23  C   UNL     1     -10.408  15.278  68.245  1.00  0.00    -0.234 A  
HETATM   24  C   UNL     1     -11.038  14.351  67.415  1.00  0.00    -0.308 A  
HETATM   25  C   UNL     1     -11.076  14.584  66.029  1.00  0.00    -0.329 A  
HETATM   26  O   UNL     1      -9.684  20.179  65.340  1.00  0.00    -0.174 OA 
HETATM   27  C   UNL     1      -9.527  19.294  66.185  1.00  0.00    -0.282 C  
HETATM   28  C   UNL     1     -10.480  15.744  65.509  1.00  0.00    -0.425 A  
HETATM   29  C   UNL     1      -9.158  17.883  65.739  1.00  0.00     0.342 C  
HETATM   30  C   UNL     1      -9.854  16.686  66.346  1.00  0.00    -0.308 A  
BRANCH  24  31
HETATM   31  O   UNL     1     -11.668  13.226  67.888  1.00  0.00    -0.317 OA 
HETATM   32  C   UNL     1     -12.415  13.378  69.090  1.00  0.00     0.197 C  
ENDBRANCH  24  31
BRANCH  25  33
HETATM   33  O   UNL     1     -11.704  13.626  65.272  1.00  0.00    -0.317 OA 
HETATM   34  C   UNL     1     -12.888  13.043  65.800  1.00  0.00     0.186 C  
ENDBRANCH  25  33
ENDBRANCH  18  19
ENDBRANCH  17  18
ENDBRANCH  16  17
ENDBRANCH  14  16
ENDBRANCH  13  14
ENDBRANCH   9  13
ENDBRANCH   2   3
TORSDOF 10
ENDMDL
MODEL      316
REMARK 921   NORMALIZED FREE ENERGY PREDICTED BY IDOCK:    2.11 KCAL/MOL
REMARK 922        TOTAL FREE ENERGY PREDICTED BY IDOCK:    1.37 KCAL/MOL
REMARK 923 INTER-LIGAND FREE ENERGY PREDICTED BY IDOCK:   -1.26 KCAL/MOL
REMARK 924 INTRA-LIGAND FREE ENERGY PREDICTED BY IDOCK:    2.63 KCAL/MOL
REMARK 927      BINDING AFFINITY PREDICTED BY RF-SCORE:    0.00 PKD
ROOT
HETATM    1  C   UNL     1      -7.441  11.675  67.363  1.00  0.00    -0.135 C  
HETATM    2  O   UNL     1      -8.387  12.141  68.320  1.00  0.00    -0.163 OA 
ENDROOT
BRANCH   2   3
HETATM    3  C   UNL     1      -8.452  13.492  68.545  1.00  0.00    -0.092 A  
HETATM    4  C   UNL     1      -7.383  14.428  68.488  1.00  0.00    -0.122 A  
HETATM    5  C   UNL     1      -9.767  13.936  68.856  1.00  0.00    -0.013 A  
HETATM    6  C   UNL     1      -7.626  15.763  68.810  1.00  0.00    -0.173 A  
HETATM    7  C   UNL     1      -9.955  15.274  69.143  1.00  0.00    -0.238 A  
HETATM    8  C   UNL     1      -8.890  16.118  69.191  1.00  0.00    -0.239 A  
HETATM    9  C   UNL     1      -9.668  17.302  69.706  1.00  0.00     0.584 C  
HETATM   10  C   UNL     1     -10.940  16.393  69.396  1.00  0.00    -0.325 C  
BRANCH   4  11
HETATM   11  O   UNL     1      -6.135  14.032  68.084  1.00  0.00    -0.104 OA 
HETATM   12  C   UNL     1      -5.183  13.791  69.119  1.00  0.00    -0.077 C  
ENDBRANCH   4  11
BRANCH   9  13
HETATM   13  C   UNL     1      -9.127  18.540  68.978  1.00  0.00    -0.070 C  
BRANCH  13  14
HETATM   14  N   UNL     1      -7.945  19.198  69.539  1.00  0.00     0.088 NA 
HETATM   15  C   UNL     1      -7.106  18.269  70.276  1.00  0.00     1.344 C  
BRANCH  14  16
HETATM   16  C   UNL     1      -7.254  20.083  68.593  1.00  0.00    -0.235 C  
BRANCH  16  17
HETATM   17  C   UNL     1      -7.285  19.530  67.171  1.00  0.00    -0.231 C  
BRANCH  17  18
HETATM   18  C   UNL     1      -8.605  19.807  66.440  1.00  0.00    -0.360 C  
BRANCH  18  19
HETATM   19  N   UNL     1      -9.301  18.541  66.196  1.00  0.00    -0.222 N  
HETATM   20  C   UNL     1      -8.592  17.313  66.538  1.00  0.00    -0.264 C  
HETATM   21  C   UNL     1      -8.413  16.402  65.336  1.00  0.00     1.617 C  
HETATM   22  C   UNL     1      -9.621  15.512  65.237  1.00  0.00    -0.002 A  
HETATM   23  C   UNL     1      -9.445  14.131  65.390  1.00  0.00     0.212 A  
HETATM   24  C   UNL     1     -10.531  13.257  65.365  1.00  0.00    -0.297 A  
HETATM   25  C   UNL     1     -11.826  13.774  65.188  1.00  0.00    -0.352 A  
HETATM   26  O   UNL     1     -11.386  19.479  66.180  1.00  0.00     0.076 OA 
HETATM   27  C   UNL     1     -10.646  18.546  65.857  1.00  0.00    -0.300 C  
HETATM   28  C   UNL     1     -12.000  15.159  65.039  1.00  0.00    -0.111 A  
HETATM   29  C   UNL     1     -11.129  17.520  64.835  1.00  0.00     0.763 C  
HETATM   30  C   UNL     1     -10.906  16.045  65.076  1.00  0.00    -0.421 A  
BRANCH  24  31
HETATM   31  O   UNL     1     -10.408  11.901  65.547  1.00  0.00    -0.245 OA 
HETATM   32  C   UNL     1      -9.742  11.183  64.514  1.00  0.00    -0.265 C  
ENDBRANCH  24  31
BRANCH  25  33
HETATM   33  O   UNL     1     -12.847  12.856  65.165  1.00  0.00    -0.702 OA 
HETATM   34  C   UNL     1     -13.026  12.102  63.974  1.00  0.00    -0.179 C  
ENDBRANCH  25  33
ENDBRANCH  18  19
ENDBRANCH  17  18
ENDBRANCH  16  17
ENDBRANCH  14  16
ENDBRANCH  13  14
ENDBRANCH   9  13
ENDBRANCH   2   3
TORSDOF 10
ENDMDL
MODEL      317
REMARK 921   NORMALIZED FREE ENERGY PREDICTED BY IDOCK:    2.12 KCAL/MOL
REMARK 922        TOTAL FREE ENERGY PREDICTED BY IDOCK:    1.39 KCAL/MOL
REMARK 923 INTER-LIGAND FREE ENERGY PREDICTED BY IDOCK:    1.74 KCAL/MOL
REMARK 924 INTRA-LIGAND FREE ENERGY PREDICTED BY IDOCK:   -0.35 KCAL/MOL
REMARK 927      BINDING AFFINITY PREDICTED BY RF-SCORE:    0.00 PKD
ROOT
HETATM    1  C   UNL     1      -7.350  14.656  71.256  1.00  0.00     2.125 C  
HETATM    2  O   UNL     1      -8.037  14.707  70.009  1.00  0.00     0.250 OA 
ENDROOT
BRANCH   2   3
HETATM    3  C   UNL     1      -7.869  13.654  69.146  1.00  0.00     0.239 A  
HETATM    4  C   UNL     1      -8.815  12.641  68.828  1.00  0.00     0.179 A  
HETATM    5  C   UNL     1      -6.585  13.644  68.534  1.00  0.00    -0.088 A  
HETATM    6  C   UNL     1      -8.444  11.606  67.970  1.00  0.00    -0.151 A  
HETATM    7  C   UNL     1      -6.280  12.607  67.673  1.00  0.00    -0.148 A  
HETATM    8  C   UNL     1      -7.167  11.595  67.481  1.00  0.00    -0.119 A  
HETATM    9  C   UNL     1      -6.238  10.745  66.652  1.00  0.00    -0.092 C  
HETATM   10  C   UNL     1      -5.310  12.041  66.660  1.00  0.00     0.104 C  
BRANCH   4  11
HETATM   11  O   UNL     1     -10.089  12.700  69.327  1.00  0.00     0.230 OA 
HETATM   12  C   UNL     1     -10.945  13.691  68.759  1.00  0.00    -0.264 C  
ENDBRANCH   4  11
BRANCH   9  13
HETATM   13  C   UNL     1      -7.083  10.132  65.527  1.00  0.00    -0.138 C  
BRANCH  13  14
HETATM   14  N   UNL     1      -6.571   8.929  64.868  1.00  0.00    -0.069 NA 
HETATM   15  C   UNL     1      -5.140   8.772  65.063  1.00  0.00    -0.038 C  
BRANCH  14  16
HETATM   16  C   UNL     1      -7.390   7.732  65.099  1.00  0.00    -0.071 C  
BRANCH  16  17
HETATM   17  C   UNL     1      -8.762   7.847  64.440  1.00  0.00     0.347 C  
BRANCH  17  18
HETATM   18  C   UNL     1      -9.777   6.825  64.967  1.00  0.00     1.871 C  
BRANCH  18  19
HETATM   19  N   UNL     1      -9.628   6.695  66.418  1.00  0.00    -0.137 N  
HETATM   20  C   UNL     1      -8.515   5.890  66.907  1.00  0.00    -0.108 C  
HETATM   21  C   UNL     1      -8.983   4.725  67.761  1.00  0.00    -0.122 C  
HETATM   22  C   UNL     1      -9.083   5.197  69.185  1.00  0.00    -0.135 A  
HETATM   23  C   UNL     1      -8.243   4.612  70.141  1.00  0.00    -0.068 A  
HETATM   24  C   UNL     1      -8.247   5.044  71.467  1.00  0.00    -0.114 A  
HETATM   25  C   UNL     1      -9.107   6.089  71.848  1.00  0.00    -0.141 A  
HETATM   26  O   UNL     1     -10.846   8.571  66.894  1.00  0.00    -0.190 OA 
HETATM   27  C   UNL     1     -10.394   7.484  67.265  1.00  0.00    -0.296 C  
HETATM   28  C   UNL     1      -9.944   6.676  70.886  1.00  0.00    -0.204 A  
HETATM   29  C   UNL     1     -10.905   6.856  68.558  1.00  0.00    -0.234 C  
HETATM   30  C   UNL     1      -9.934   6.250  69.544  1.00  0.00    -0.198 A  
BRANCH  24  31
HETATM   31  O   UNL     1      -7.415   4.524  72.429  1.00  0.00    -0.077 OA 
HETATM   32  C   UNL     1      -6.452   3.574  71.985  1.00  0.00    -0.015 C  
ENDBRANCH  24  31
BRANCH  25  33
HETATM   33  O   UNL     1      -9.064   6.457  73.170  1.00  0.00    -0.130 OA 
HETATM   34  C   UNL     1     -10.149   6.060  73.998  1.00  0.00    -0.260 C  
ENDBRANCH  25  33
ENDBRANCH  18  19
ENDBRANCH  17  18
ENDBRANCH  16  17
ENDBRANCH  14  16
ENDBRANCH  13  14
ENDBRANCH   9  13
ENDBRANCH   2   3
TORSDOF 10
ENDMDL
MODEL      318
REMARK 921   NORMALIZED FREE ENERGY PREDICTED BY IDOCK:    2.46 KCAL/MOL
REMARK 922        TOTAL FREE ENERGY PREDICTED BY IDOCK:    1.94 KCAL/MOL
REMARK 923 INTER-LIGAND FREE ENERGY PREDICTED BY IDOCK:   -2.12 KCAL/MOL
REMARK 924 INTRA-LIGAND FREE ENERGY PREDICTED BY IDOCK:    4.06 KCAL/MOL
REMARK 927      BINDING AFFINITY PREDICTED BY RF-SCORE:    0.00 PKD
ROOT
HETATM    1  C   UNL     1      -7.995  13.237  67.108  1.00  0.00    -0.065 C  
HETATM    2  O   UNL     1      -6.954  13.723  67.950  1.00  0.00    -0.118 OA 
ENDROOT
BRANCH   2   3
HETATM    3  C   UNL     1      -6.689  15.068  67.922  1.00  0.00    -0.156 A  
HETATM    4  C   UNL     1      -6.826  15.996  68.991  1.00  0.00    -0.159 A  
HETATM    5  C   UNL     1      -6.220  15.511  66.654  1.00  0.00     1.357 A  
HETATM    6  C   UNL     1      -6.567  17.347  68.760  1.00  0.00    -0.206 A  
HETATM    7  C   UNL     1      -5.956  16.857  66.489  1.00  0.00    -0.084 A  
HETATM    8  C   UNL     1      -6.208  17.731  67.498  1.00  0.00    -0.171 A  
HETATM    9  C   UNL     1      -5.918  18.971  66.690  1.00  0.00    -0.178 C  
HETATM   10  C   UNL     1      -5.374  17.938  65.606  1.00  0.00    -0.195 C  
BRANCH   4  11
HETATM   11  O   UNL     1      -7.172  15.565  70.244  1.00  0.00     0.103 OA 
HETATM   12  C   UNL     1      -6.197  14.786  70.936  1.00  0.00     0.036 C  
ENDBRANCH   4  11
BRANCH   9  13
HETATM   13  C   UNL     1      -5.164  19.937  67.614  1.00  0.00    -0.177 C  
BRANCH  13  14
HETATM   14  N   UNL     1      -5.597  20.024  69.009  1.00  0.00    -0.218 NA 
HETATM   15  C   UNL     1      -5.247  21.302  69.606  1.00  0.00    -0.139 C  
BRANCH  14  16
HETATM   16  C   UNL     1      -6.971  19.560  69.235  1.00  0.00    -0.350 C  
BRANCH  16  17
HETATM   17  C   UNL     1      -7.976  20.707  69.166  1.00  0.00     1.122 C  
BRANCH  17  18
HETATM   18  C   UNL     1      -8.862  20.664  67.915  1.00  0.00     0.082 C  
BRANCH  18  19
HETATM   19  N   UNL     1      -9.385  19.308  67.735  1.00  0.00    -0.305 N  
HETATM   20  C   UNL     1      -9.166  18.674  66.440  1.00  0.00    -0.291 C  
HETATM   21  C   UNL     1     -10.471  18.292  65.763  1.00  0.00    -0.228 C  
HETATM   22  C   UNL     1     -10.849  16.910  66.218  1.00  0.00     0.026 A  
HETATM   23  C   UNL     1     -10.901  15.885  65.264  1.00  0.00    -0.401 A  
HETATM   24  C   UNL     1     -11.191  14.571  65.631  1.00  0.00    -0.335 A  
HETATM   25  C   UNL     1     -11.430  14.271  66.983  1.00  0.00    -0.361 A  
HETATM   26  O   UNL     1      -9.488  18.854  69.974  1.00  0.00     0.728 OA 
HETATM   27  C   UNL     1      -9.871  18.604  68.827  1.00  0.00    -0.379 C  
HETATM   28  C   UNL     1     -11.373  15.299  67.937  1.00  0.00    -0.339 A  
HETATM   29  C   UNL     1     -11.093  17.714  68.618  1.00  0.00     0.362 C  
HETATM   30  C   UNL     1     -11.069  16.624  67.571  1.00  0.00    -0.055 A  
BRANCH  24  31
HETATM   31  O   UNL     1     -11.216  13.530  64.734  1.00  0.00    -0.325 OA 
HETATM   32  C   UNL     1      -9.963  12.929  64.429  1.00  0.00    -0.134 C  
ENDBRANCH  24  31
BRANCH  25  33
HETATM   33  O   UNL     1     -11.717  12.959  67.270  1.00  0.00    -0.341 OA 
HETATM   34  C   UNL     1     -12.028  12.635  68.619  1.00  0.00    -0.223 C  
ENDBRANCH  25  33
ENDBRANCH  18  19
ENDBRANCH  17  18
ENDBRANCH  16  17
ENDBRANCH  14  16
ENDBRANCH  13  14
ENDBRANCH   9  13
ENDBRANCH   2   3
TORSDOF 10
ENDMDL
MODEL      319
REMARK 921   NORMALIZED FREE ENERGY PREDICTED BY IDOCK:    3.17 KCAL/MOL
REMARK 922        TOTAL FREE ENERGY PREDICTED BY IDOCK:    3.06 KCAL/MOL
REMARK 923 INTER-LIGAND FREE ENERGY PREDICTED BY IDOCK:    2.27 KCAL/MOL
REMARK 924 INTRA-LIGAND FREE ENERGY PREDICTED BY IDOCK:    0.79 KCAL/MOL
REMARK 927      BINDING AFFINITY PREDICTED BY RF-SCORE:    0.00 PKD
ROOT
HETATM    1  C   UNL     1     -14.169   6.401  73.465  1.00  0.00     4.899 C  
HETATM    2  O   UNL     1     -13.125   5.806  72.701  1.00  0.00     0.248 OA 
ENDROOT
BRANCH   2   3
HETATM    3  C   UNL     1     -12.096   6.615  72.290  1.00  0.00    -0.188 A  
HETATM    4  C   UNL     1     -10.717   6.482  72.605  1.00  0.00    -0.231 A  
HETATM    5  C   UNL     1     -12.534   7.678  71.452  1.00  0.00    -0.359 A  
HETATM    6  C   UNL     1      -9.815   7.442  72.145  1.00  0.00    -0.205 A  
HETATM    7  C   UNL     1     -11.594   8.586  71.004  1.00  0.00    -0.317 A  
HETATM    8  C   UNL     1     -10.303   8.493  71.419  1.00  0.00    -0.307 A  
HETATM    9  C   UNL     1      -9.855   9.787  70.787  1.00  0.00    -0.102 C  
HETATM   10  C   UNL     1     -11.288   9.751  70.090  1.00  0.00    -0.305 C  
BRANCH   4  11
HETATM   11  O   UNL     1     -10.269   5.403  73.321  1.00  0.00    -0.173 OA 
HETATM   12  C   UNL     1      -8.882   5.091  73.191  1.00  0.00    -0.111 C  
ENDBRANCH   4  11
BRANCH   9  13
HETATM   13  C   UNL     1      -8.458   9.536  70.205  1.00  0.00    -0.205 C  
BRANCH  13  14
HETATM   14  N   UNL     1      -7.899  10.553  69.312  1.00  0.00    -0.138 NA 
HETATM   15  C   UNL     1      -8.372  11.886  69.645  1.00  0.00     1.400 C  
BRANCH  14  16
HETATM   16  C   UNL     1      -6.454  10.417  69.088  1.00  0.00    -0.048 C  
BRANCH  16  17
HETATM   17  C   UNL     1      -6.143   9.405  67.989  1.00  0.00    -0.052 C  
BRANCH  17  18
HETATM   18  C   UNL     1      -5.734  10.057  66.661  1.00  0.00    -0.050 C  
BRANCH  18  19
HETATM   19  N   UNL     1      -6.254  11.425  66.611  1.00  0.00    -0.145 N  
HETATM   20  C   UNL     1      -5.282  12.512  66.654  1.00  0.00     0.683 C  
HETATM   21  C   UNL     1      -5.508  13.435  67.839  1.00  0.00    -0.113 C  
HETATM   22  C   UNL     1      -6.477  14.506  67.421  1.00  0.00     0.074 A  
HETATM   23  C   UNL     1      -6.034  15.835  67.403  1.00  0.00    -0.089 A  
HETATM   24  C   UNL     1      -6.866  16.868  66.972  1.00  0.00    -0.204 A  
HETATM   25  C   UNL     1      -8.170  16.568  66.544  1.00  0.00    -0.300 A  
HETATM   26  O   UNL     1      -8.252  10.826  65.676  1.00  0.00    -0.162 OA 
HETATM   27  C   UNL     1      -7.593  11.646  66.321  1.00  0.00     0.174 C  
HETATM   28  C   UNL     1      -8.610  15.234  66.559  1.00  0.00    -0.264 A  
HETATM   29  C   UNL     1      -8.306  12.777  67.055  1.00  0.00    -0.123 C  
HETATM   30  C   UNL     1      -7.769  14.188  66.982  1.00  0.00     0.128 A  
BRANCH  24  31
HETATM   31  O   UNL     1      -6.461  18.179  66.905  1.00  0.00    -0.171 OA 
HETATM   32  C   UNL     1      -5.687  18.658  67.999  1.00  0.00    -0.180 C  
ENDBRANCH  24  31
BRANCH  25  33
HETATM   33  O   UNL     1      -8.936  17.634  66.141  1.00  0.00    -0.452 OA 
HETATM   34  C   UNL     1     -10.274  17.698  66.616  1.00  0.00    -0.341 C  
ENDBRANCH  25  33
ENDBRANCH  18  19
ENDBRANCH  17  18
ENDBRANCH  16  17
ENDBRANCH  14  16
ENDBRANCH  13  14
ENDBRANCH   9  13
ENDBRANCH   2   3
TORSDOF 10
ENDMDL
MODEL      320
REMARK 921   NORMALIZED FREE ENERGY PREDICTED BY IDOCK:    5.47 KCAL/MOL
REMARK 922        TOTAL FREE ENERGY PREDICTED BY IDOCK:    6.71 KCAL/MOL
REMARK 923 INTER-LIGAND FREE ENERGY PREDICTED BY IDOCK:   -0.34 KCAL/MOL
REMARK 924 INTRA-LIGAND FREE ENERGY PREDICTED BY IDOCK:    7.05 KCAL/MOL
REMARK 927      BINDING AFFINITY PREDICTED BY RF-SCORE:    0.00 PKD
ROOT
HETATM    1  C   UNL     1      -7.070   8.416  66.714  1.00  0.00    -0.074 C  
HETATM    2  O   UNL     1      -7.981   8.311  67.804  1.00  0.00    -0.118 OA 
ENDROOT
BRANCH   2   3
HETATM    3  C   UNL     1      -8.967   9.259  67.903  1.00  0.00    -0.127 A  
HETATM    4  C   UNL     1      -9.891   9.433  68.969  1.00  0.00    -0.169 A  
HETATM    5  C   UNL     1      -9.002  10.135  66.782  1.00  0.00    -0.147 A  
HETATM    6  C   UNL     1     -10.872  10.419  68.868  1.00  0.00    -0.273 A  
HETATM    7  C   UNL     1      -9.981  11.110  66.746  1.00  0.00    -0.242 A  
HETATM    8  C   UNL     1     -10.918  11.173  67.728  1.00  0.00    -0.315 A  
HETATM    9  C   UNL     1     -11.751  12.240  67.063  1.00  0.00    -0.399 C  
HETATM   10  C   UNL     1     -10.518  12.346  66.059  1.00  0.00    -0.281 C  
BRANCH   4  11
HETATM   11  O   UNL     1      -9.798   8.667  70.100  1.00  0.00    -0.175 OA 
HETATM   12  C   UNL     1     -10.778   8.908  71.109  1.00  0.00    -0.263 C  
ENDBRANCH   4  11
BRANCH   9  13
HETATM   13  C   UNL     1     -12.217  13.194  68.171  1.00  0.00    -0.028 C  
BRANCH  13  14
HETATM   14  N   UNL     1     -11.641  14.540  68.200  1.00  0.00    -0.314 NA 
HETATM   15  C   UNL     1     -12.331  15.404  69.143  1.00  0.00    -0.052 C  
BRANCH  14  16
HETATM   16  C   UNL     1     -10.174  14.556  68.262  1.00  0.00    -0.234 C  
BRANCH  16  17
HETATM   17  C   UNL     1      -9.547  13.990  66.991  1.00  0.00    -0.253 C  
BRANCH  17  18
HETATM   18  C   UNL     1      -8.014  14.055  66.989  1.00  0.00     0.055 C  
BRANCH  18  19
HETATM   19  N   UNL     1      -7.579  15.302  67.624  1.00  0.00    -0.155 N  
HETATM   20  C   UNL     1      -8.415  15.832  68.696  1.00  0.00    -0.193 C  
HETATM   21  C   UNL     1      -8.926  17.228  68.385  1.00  0.00    -0.269 C  
HETATM   22  C   UNL     1      -7.909  18.220  68.877  1.00  0.00    -0.213 A  
HETATM   23  C   UNL     1      -8.280  19.104  69.898  1.00  0.00     0.848 A  
HETATM   24  C   UNL     1      -7.367  20.010  70.437  1.00  0.00     0.611 A  
HETATM   25  C   UNL     1      -6.049  20.032  69.948  1.00  0.00    -0.355 A  
HETATM   26  O   UNL     1      -5.399  15.089  66.971  1.00  0.00     0.011 OA 
HETATM   27  C   UNL     1      -6.322  15.817  67.347  1.00  0.00    -0.139 C  
HETATM   28  C   UNL     1      -5.679  19.143  68.926  1.00  0.00    -0.223 A  
HETATM   29  C   UNL     1      -6.178  17.332  67.239  1.00  0.00    -0.181 C  
HETATM   30  C   UNL     1      -6.596  18.219  68.389  1.00  0.00    -0.213 A  
BRANCH  24  31
HETATM   31  O   UNL     1      -7.678  20.868  71.463  1.00  0.00     1.222 OA 
HETATM   32  C   UNL     1      -9.011  20.805  71.958  1.00  0.00     2.676 C  
ENDBRANCH  24  31
BRANCH  25  33
HETATM   33  O   UNL     1      -5.207  20.955  70.517  1.00  0.00    -0.452 OA 
HETATM   34  C   UNL     1      -5.222  21.071  71.934  1.00  0.00     0.088 C  
ENDBRANCH  25  33
ENDBRANCH  18  19
ENDBRANCH  17  18
ENDBRANCH  16  17
ENDBRANCH  14  16
ENDBRANCH  13  14
ENDBRANCH   9  13
ENDBRANCH   2   3
TORSDOF 10
ENDMDL
MODEL      321
REMARK 921   NORMALIZED FREE ENERGY PREDICTED BY IDOCK:    5.89 KCAL/MOL
REMARK 922        TOTAL FREE ENERGY PREDICTED BY IDOCK:    7.37 KCAL/MOL
REMARK 923 INTER-LIGAND FREE ENERGY PREDICTED BY IDOCK:    6.72 KCAL/MOL
REMARK 924 INTRA-LIGAND FREE ENERGY PREDICTED BY IDOCK:    0.65 KCAL/MOL
REMARK 927      BINDING AFFINITY PREDICTED BY RF-SCORE:    0.00 PKD
ROOT
HETATM    1  C   UNL     1      -8.812  12.039  64.027  1.00  0.00     0.985 C  
HETATM    2  O   UNL     1      -8.314  11.078  64.953  1.00  0.00    -0.009 OA 
ENDROOT
BRANCH   2   3
HETATM    3  C   UNL     1      -8.214  11.454  66.268  1.00  0.00    -0.088 A  
HETATM    4  C   UNL     1      -8.186  10.604  67.407  1.00  0.00    -0.115 A  
HETATM    5  C   UNL     1      -8.124  12.864  66.432  1.00  0.00     0.665 A  
HETATM    6  C   UNL     1      -8.143  11.170  68.681  1.00  0.00    -0.150 A  
HETATM    7  C   UNL     1      -8.059  13.370  67.717  1.00  0.00    -0.173 A  
HETATM    8  C   UNL     1      -8.150  12.534  68.785  1.00  0.00     0.087 A  
HETATM    9  C   UNL     1      -8.208  13.629  69.820  1.00  0.00     1.439 C  
HETATM   10  C   UNL     1      -7.836  14.580  68.596  1.00  0.00    -0.140 C  
BRANCH   4  11
HETATM   11  O   UNL     1      -8.163   9.243  67.258  1.00  0.00    -0.118 OA 
HETATM   12  C   UNL     1      -9.238   8.522  67.860  1.00  0.00    -0.139 C  
ENDBRANCH   4  11
BRANCH   9  13
HETATM   13  C   UNL     1      -7.360  13.160  71.010  1.00  0.00     4.395 C  
BRANCH  13  14
HETATM   14  N   UNL     1      -5.982  12.743  70.744  1.00  0.00    -0.232 NA 
HETATM   15  C   UNL     1      -5.252  13.741  69.981  1.00  0.00    -0.093 C  
BRANCH  14  16
HETATM   16  C   UNL     1      -5.291  12.192  71.916  1.00  0.00     0.282 C  
BRANCH  16  17
HETATM   17  C   UNL     1      -5.166  10.672  71.838  1.00  0.00     0.086 C  
BRANCH  17  18
HETATM   18  C   UNL     1      -5.845  10.069  70.602  1.00  0.00    -0.087 C  
BRANCH  18  19
HETATM   19  N   UNL     1      -6.562   8.851  70.987  1.00  0.00    -0.062 N  
HETATM   20  C   UNL     1      -6.073   7.588  70.446  1.00  0.00    -0.030 C  
HETATM   21  C   UNL     1      -7.132   6.868  69.628  1.00  0.00    -0.068 C  
HETATM   22  C   UNL     1      -7.932   5.999  70.558  1.00  0.00    -0.111 A  
HETATM   23  C   UNL     1      -7.890   4.611  70.374  1.00  0.00    -0.054 A  
HETATM   24  C   UNL     1      -8.564   3.747  71.236  1.00  0.00    -0.080 A  
HETATM   25  C   UNL     1      -9.295   4.280  72.312  1.00  0.00    -0.124 A  
HETATM   26  O   UNL     1      -7.495   9.774  72.860  1.00  0.00     1.346 OA 
HETATM   27  C   UNL     1      -7.523   8.902  71.987  1.00  0.00     0.115 C  
HETATM   28  C   UNL     1      -9.332   5.671  72.496  1.00  0.00    -0.151 A  
HETATM   29  C   UNL     1      -8.771   8.039  71.823  1.00  0.00    -0.178 C  
HETATM   30  C   UNL     1      -8.642   6.545  71.635  1.00  0.00    -0.128 A  
BRANCH  24  31
HETATM   31  O   UNL     1      -8.520   2.379  71.114  1.00  0.00    -0.056 OA 
HETATM   32  C   UNL     1      -9.383   1.804  70.138  1.00  0.00    -0.094 C  
ENDBRANCH  24  31
BRANCH  25  33
HETATM   33  O   UNL     1      -9.941   3.372  73.114  1.00  0.00    -0.125 OA 
HETATM   34  C   UNL     1      -9.147   2.607  74.011  1.00  0.00    -0.074 C  
ENDBRANCH  25  33
ENDBRANCH  18  19
ENDBRANCH  17  18
ENDBRANCH  16  17
ENDBRANCH  14  16
ENDBRANCH  13  14
ENDBRANCH   9  13
ENDBRANCH   2   3
TORSDOF 10
ENDMDL
MODEL      322
REMARK 921   NORMALIZED FREE ENERGY PREDICTED BY IDOCK:    5.91 KCAL/MOL
REMARK 922        TOTAL FREE ENERGY PREDICTED BY IDOCK:    7.40 KCAL/MOL
REMARK 923 INTER-LIGAND FREE ENERGY PREDICTED BY IDOCK:    0.30 KCAL/MOL
REMARK 924 INTRA-LIGAND FREE ENERGY PREDICTED BY IDOCK:    7.10 KCAL/MOL
REMARK 927      BINDING AFFINITY PREDICTED BY RF-SCORE:    0.00 PKD
ROOT
HETATM    1  C   UNL     1      -6.419   3.398  74.302  1.00  0.00    -0.026 C  
HETATM    2  O   UNL     1      -6.464   4.732  73.806  1.00  0.00    -0.056 OA 
ENDROOT
BRANCH   2   3
HETATM    3  C   UNL     1      -6.624   4.903  72.454  1.00  0.00    -0.047 A  
HETATM    4  C   UNL     1      -7.620   4.322  71.624  1.00  0.00    -0.073 A  
HETATM    5  C   UNL     1      -5.654   5.779  71.892  1.00  0.00    -0.022 A  
HETATM    6  C   UNL     1      -7.590   4.562  70.250  1.00  0.00    -0.050 A  
HETATM    7  C   UNL     1      -5.685   6.000  70.529  1.00  0.00    -0.014 A  
HETATM    8  C   UNL     1      -6.581   5.338  69.750  1.00  0.00    -0.042 A  
HETATM    9  C   UNL     1      -6.020   5.827  68.438  1.00  0.00    -0.020 C  
HETATM   10  C   UNL     1      -5.154   6.798  69.359  1.00  0.00    -0.014 C  
BRANCH   4  11
HETATM   11  O   UNL     1      -8.623   3.565  72.169  1.00  0.00    -0.084 OA 
HETATM   12  C   UNL     1      -9.940   4.108  72.087  1.00  0.00    -0.174 C  
ENDBRANCH   4  11
BRANCH   9  13
HETATM   13  C   UNL     1      -7.219   6.124  67.527  1.00  0.00    -0.076 C  
BRANCH  13  14
HETATM   14  N   UNL     1      -7.621   5.091  66.571  1.00  0.00    -0.087 NA 
HETATM   15  C   UNL     1      -7.450   5.528  65.196  1.00  0.00    -0.074 C  
BRANCH  14  16
HETATM   16  C   UNL     1      -7.110   3.752  66.893  1.00  0.00    -0.063 C  
BRANCH  16  17
HETATM   17  C   UNL     1      -7.888   2.658  66.167  1.00  0.00    -0.081 C  
BRANCH  17  18
HETATM   18  C   UNL     1      -9.404   2.740  66.390  1.00  0.00    -0.010 C  
BRANCH  18  19
HETATM   19  N   UNL     1      -9.774   4.121  66.711  1.00  0.00    -0.212 N  
HETATM   20  C   UNL     1      -9.288   4.667  67.973  1.00  0.00    -0.135 C  
HETATM   21  C   UNL     1     -10.423   5.110  68.879  1.00  0.00    -0.131 C  
HETATM   22  C   UNL     1     -10.757   6.538  68.551  1.00  0.00    -0.329 A  
HETATM   23  C   UNL     1     -10.562   7.512  69.538  1.00  0.00    -0.239 A  
HETATM   24  C   UNL     1     -10.799   8.862  69.279  1.00  0.00    -0.096 A  
HETATM   25  C   UNL     1     -11.237   9.250  68.001  1.00  0.00     0.303 A  
HETATM   26  O   UNL     1     -10.216   4.698  64.543  1.00  0.00     0.059 OA 
HETATM   27  C   UNL     1     -10.377   4.916  65.747  1.00  0.00    -0.185 C  
HETATM   28  C   UNL     1     -11.427   8.272  67.012  1.00  0.00     1.930 A  
HETATM   29  C   UNL     1     -11.468   5.882  66.199  1.00  0.00     1.180 C  
HETATM   30  C   UNL     1     -11.177   6.911  67.268  1.00  0.00    -0.231 A  
BRANCH  24  31
HETATM   31  O   UNL     1     -10.586   9.853  70.207  1.00  0.00    -0.265 OA 
HETATM   32  C   UNL     1      -9.895   9.472  71.391  1.00  0.00     0.082 C  
ENDBRANCH  24  31
BRANCH  25  33
HETATM   33  O   UNL     1     -11.459  10.593  67.820  1.00  0.00    -0.460 OA 
HETATM   34  C   UNL     1     -11.302  11.112  66.506  1.00  0.00     0.044 C  
ENDBRANCH  25  33
ENDBRANCH  18  19
ENDBRANCH  17  18
ENDBRANCH  16  17
ENDBRANCH  14  16
ENDBRANCH  13  14
ENDBRANCH   9  13
ENDBRANCH   2   3
TORSDOF 10
ENDMDL
MODEL      323
REMARK 921   NORMALIZED FREE ENERGY PREDICTED BY IDOCK:    6.11 KCAL/MOL
REMARK 922        TOTAL FREE ENERGY PREDICTED BY IDOCK:    7.71 KCAL/MOL
REMARK 923 INTER-LIGAND FREE ENERGY PREDICTED BY IDOCK:    0.72 KCAL/MOL
REMARK 924 INTRA-LIGAND FREE ENERGY PREDICTED BY IDOCK:    7.00 KCAL/MOL
REMARK 927      BINDING AFFINITY PREDICTED BY RF-SCORE:    0.00 PKD
ROOT
HETATM    1  C   UNL     1      -6.419   3.398  74.302  1.00  0.00    -0.026 C  
HETATM    2  O   UNL     1      -6.460   4.731  73.802  1.00  0.00    -0.056 OA 
ENDROOT
BRANCH   2   3
HETATM    3  C   UNL     1      -6.617   4.899  72.450  1.00  0.00    -0.047 A  
HETATM    4  C   UNL     1      -7.614   4.318  71.620  1.00  0.00    -0.073 A  
HETATM    5  C   UNL     1      -5.644   5.771  71.887  1.00  0.00    -0.022 A  
HETATM    6  C   UNL     1      -7.582   4.555  70.246  1.00  0.00    -0.050 A  
HETATM    7  C   UNL     1      -5.673   5.989  70.523  1.00  0.00    -0.014 A  
HETATM    8  C   UNL     1      -6.570   5.326  69.745  1.00  0.00    -0.042 A  
HETATM    9  C   UNL     1      -6.006   5.811  68.433  1.00  0.00    -0.020 C  
HETATM   10  C   UNL     1      -5.139   6.782  69.352  1.00  0.00    -0.014 C  
BRANCH   4  11
HETATM   11  O   UNL     1      -8.620   3.565  72.166  1.00  0.00    -0.084 OA 
HETATM   12  C   UNL     1      -9.801   4.270  72.547  1.00  0.00    -0.154 C  
ENDBRANCH   4  11
BRANCH   9  13
HETATM   13  C   UNL     1      -7.203   6.109  67.519  1.00  0.00    -0.076 C  
BRANCH  13  14
HETATM   14  N   UNL     1      -7.758   7.463  67.543  1.00  0.00    -0.109 NA 
HETATM   15  C   UNL     1      -9.122   7.481  68.045  1.00  0.00    -0.131 C  
BRANCH  14  16
HETATM   16  C   UNL     1      -6.849   8.468  68.107  1.00  0.00    -0.069 C  
BRANCH  16  17
HETATM   17  C   UNL     1      -7.257   9.886  67.716  1.00  0.00    -0.088 C  
BRANCH  17  18
HETATM   18  C   UNL     1      -7.422  10.076  66.203  1.00  0.00    -0.109 C  
BRANCH  18  19
HETATM   19  N   UNL     1      -7.740   8.787  65.583  1.00  0.00    -0.089 N  
HETATM   20  C   UNL     1      -6.706   7.759  65.613  1.00  0.00    -0.045 C  
HETATM   21  C   UNL     1      -6.309   7.306  64.218  1.00  0.00    -0.040 C  
HETATM   22  C   UNL     1      -7.220   6.181  63.813  1.00  0.00    -0.061 A  
HETATM   23  C   UNL     1      -6.659   4.917  63.590  1.00  0.00    -0.037 A  
HETATM   24  C   UNL     1      -7.456   3.819  63.267  1.00  0.00    -0.054 A  
HETATM   25  C   UNL     1      -8.849   3.985  63.168  1.00  0.00    -0.110 A  
HETATM   26  O   UNL     1     -10.004   9.076  65.712  1.00  0.00    -0.241 OA 
HETATM   27  C   UNL     1      -9.040   8.513  65.185  1.00  0.00     0.080 C  
HETATM   28  C   UNL     1      -9.408   5.252  63.396  1.00  0.00     0.497 A  
HETATM   29  C   UNL     1      -9.242   7.721  63.897  1.00  0.00     1.817 C  
HETATM   30  C   UNL     1      -8.607   6.359  63.734  1.00  0.00     0.390 A  
BRANCH  24  31
HETATM   31  O   UNL     1      -6.952   2.555  63.076  1.00  0.00    -0.030 OA 
HETATM   32  C   UNL     1      -6.542   1.855  64.246  1.00  0.00    -0.023 C  
ENDBRANCH  24  31
BRANCH  25  33
HETATM   33  O   UNL     1      -9.570   2.865  62.839  1.00  0.00    -0.093 OA 
HETATM   34  C   UNL     1     -10.265   2.199  63.885  1.00  0.00    -0.062 C  
ENDBRANCH  25  33
ENDBRANCH  18  19
ENDBRANCH  17  18
ENDBRANCH  16  17
ENDBRANCH  14  16
ENDBRANCH  13  14
ENDBRANCH   9  13
ENDBRANCH   2   3
TORSDOF 10
ENDMDL
MODEL      324
REMARK 921   NORMALIZED FREE ENERGY PREDICTED BY IDOCK:    7.51 KCAL/MOL
REMARK 922        TOTAL FREE ENERGY PREDICTED BY IDOCK:    9.94 KCAL/MOL
REMARK 923 INTER-LIGAND FREE ENERGY PREDICTED BY IDOCK:    6.29 KCAL/MOL
REMARK 924 INTRA-LIGAND FREE ENERGY PREDICTED BY IDOCK:    3.66 KCAL/MOL
REMARK 927      BINDING AFFINITY PREDICTED BY RF-SCORE:    0.00 PKD
ROOT
HETATM    1  C   UNL     1      -6.120  12.066  65.175  1.00  0.00     3.707 C  
HETATM    2  O   UNL     1      -6.298  10.664  65.000  1.00  0.00    -0.084 OA 
ENDROOT
BRANCH   2   3
HETATM    3  C   UNL     1      -6.977   9.981  65.977  1.00  0.00    -0.110 A  
HETATM    4  C   UNL     1      -8.111   9.141  65.810  1.00  0.00    -0.112 A  
HETATM    5  C   UNL     1      -6.422  10.177  67.272  1.00  0.00    -0.068 A  
HETATM    6  C   UNL     1      -8.712   8.574  66.934  1.00  0.00    -0.137 A  
HETATM    7  C   UNL     1      -7.044   9.571  68.347  1.00  0.00    -0.071 A  
HETATM    8  C   UNL     1      -8.193   8.869  68.164  1.00  0.00    -0.114 A  
HETATM    9  C   UNL     1      -8.458   8.643  69.632  1.00  0.00    -0.129 C  
HETATM   10  C   UNL     1      -6.989   9.230  69.819  1.00  0.00    -0.058 C  
BRANCH   4  11
HETATM   11  O   UNL     1      -8.588   8.858  64.558  1.00  0.00    -0.175 OA 
HETATM   12  C   UNL     1      -8.463   9.894  63.585  1.00  0.00    -0.181 C  
ENDBRANCH   4  11
BRANCH   9  13
HETATM   13  C   UNL     1      -8.984   7.208  69.772  1.00  0.00    -0.142 C  
BRANCH  13  14
HETATM   14  N   UNL     1     -10.432   7.018  69.865  1.00  0.00    -0.211 NA 
HETATM   15  C   UNL     1     -10.824   6.463  71.150  1.00  0.00    -0.258 C  
BRANCH  14  16
HETATM   16  C   UNL     1     -11.214   8.168  69.392  1.00  0.00     0.230 C  
BRANCH  16  17
HETATM   17  C   UNL     1     -10.722   8.669  68.037  1.00  0.00    -0.137 C  
BRANCH  17  18
HETATM   18  C   UNL     1     -11.825   9.321  67.194  1.00  0.00     3.766 C  
BRANCH  18  19
HETATM   19  N   UNL     1     -11.494  10.730  66.966  1.00  0.00     0.037 N  
HETATM   20  C   UNL     1     -10.495  11.331  67.841  1.00  0.00    -0.188 C  
HETATM   21  C   UNL     1     -11.047  12.523  68.605  1.00  0.00    -0.305 C  
HETATM   22  C   UNL     1     -10.847  13.753  67.765  1.00  0.00    -0.262 A  
HETATM   23  C   UNL     1     -10.003  14.761  68.248  1.00  0.00    -0.222 A  
HETATM   24  C   UNL     1      -9.732  15.901  67.493  1.00  0.00    -0.223 A  
HETATM   25  C   UNL     1     -10.314  16.037  66.220  1.00  0.00    -0.321 A  
HETATM   26  O   UNL     1     -12.252  10.748  64.809  1.00  0.00     1.605 OA 
HETATM   27  C   UNL     1     -11.965  11.376  65.832  1.00  0.00     0.955 C  
HETATM   28  C   UNL     1     -11.155  15.023  65.736  1.00  0.00    -0.346 A  
HETATM   29  C   UNL     1     -12.392  12.834  65.966  1.00  0.00    -0.251 C  
HETATM   30  C   UNL     1     -11.421  13.866  66.492  1.00  0.00    -0.361 A  
BRANCH  24  31
HETATM   31  O   UNL     1      -8.884  16.896  67.913  1.00  0.00    -0.211 OA 
HETATM   32  C   UNL     1      -9.390  17.780  68.908  1.00  0.00    -0.155 C  
ENDBRANCH  24  31
BRANCH  25  33
HETATM   33  O   UNL     1     -10.010  17.188  65.536  1.00  0.00    -0.565 OA 
HETATM   34  C   UNL     1     -11.023  17.748  64.711  1.00  0.00     1.379 C  
ENDBRANCH  25  33
ENDBRANCH  18  19
ENDBRANCH  17  18
ENDBRANCH  16  17
ENDBRANCH  14  16
ENDBRANCH  13  14
ENDBRANCH   9  13
ENDBRANCH   2   3
TORSDOF 10
ENDMDL
MODEL      325
REMARK 921   NORMALIZED FREE ENERGY PREDICTED BY IDOCK:    8.91 KCAL/MOL
REMARK 922        TOTAL FREE ENERGY PREDICTED BY IDOCK:   12.15 KCAL/MOL
REMARK 923 INTER-LIGAND FREE ENERGY PREDICTED BY IDOCK:    2.39 KCAL/MOL
REMARK 924 INTRA-LIGAND FREE ENERGY PREDICTED BY IDOCK:    9.77 KCAL/MOL
REMARK 927      BINDING AFFINITY PREDICTED BY RF-SCORE:    0.00 PKD
ROOT
HETATM    1  C   UNL     1      -5.618   3.212  70.513  1.00  0.00    -0.013 C  
HETATM    2  O   UNL     1      -6.866   3.899  70.510  1.00  0.00    -0.032 OA 
ENDROOT
BRANCH   2   3
HETATM    3  C   UNL     1      -7.066   4.852  69.544  1.00  0.00    -0.055 A  
HETATM    4  C   UNL     1      -7.856   4.734  68.368  1.00  0.00    -0.081 A  
HETATM    5  C   UNL     1      -6.383   6.068  69.821  1.00  0.00    -0.037 A  
HETATM    6  C   UNL     1      -7.894   5.794  67.462  1.00  0.00    -0.101 A  
HETATM    7  C   UNL     1      -6.474   7.094  68.900  1.00  0.00    -0.032 A  
HETATM    8  C   UNL     1      -7.145   6.905  67.733  1.00  0.00    -0.085 A  
HETATM    9  C   UNL     1      -6.744   8.224  67.122  1.00  0.00    -0.063 C  
HETATM   10  C   UNL     1      -6.189   8.544  68.581  1.00  0.00    -0.046 C  
BRANCH   4  11
HETATM   11  O   UNL     1      -8.605   3.609  68.145  1.00  0.00    -0.090 OA 
HETATM   12  C   UNL     1      -8.814   3.251  66.779  1.00  0.00    -0.140 C  
ENDBRANCH   4  11
BRANCH   9  13
HETATM   13  C   UNL     1      -7.977   8.765  66.384  1.00  0.00    -0.103 C  
BRANCH  13  14
HETATM   14  N   UNL     1      -7.936  10.150  65.913  1.00  0.00    -0.128 NA 
HETATM   15  C   UNL     1      -9.238  10.790  66.000  1.00  0.00    -0.187 C  
BRANCH  14  16
HETATM   16  C   UNL     1      -6.800  10.922  66.433  1.00  0.00    -0.135 C  
BRANCH  16  17
HETATM   17  C   UNL     1      -6.006  10.132  67.470  1.00  0.00    -0.053 C  
BRANCH  17  18
HETATM   18  C   UNL     1      -6.428  10.431  68.915  1.00  0.00    -0.052 C  
BRANCH  18  19
HETATM   19  N   UNL     1      -6.640  11.872  69.071  1.00  0.00    -0.084 N  
HETATM   20  C   UNL     1      -5.471  12.736  68.951  1.00  0.00    -0.067 C  
HETATM   21  C   UNL     1      -5.231  13.552  70.210  1.00  0.00    -0.103 C  
HETATM   22  C   UNL     1      -6.014  14.830  70.097  1.00  0.00    -0.148 A  
HETATM   23  C   UNL     1      -5.311  16.041  70.057  1.00  0.00    -0.147 A  
HETATM   24  C   UNL     1      -5.974  17.257  69.897  1.00  0.00    -0.230 A  
HETATM   25  C   UNL     1      -7.374  17.266  69.769  1.00  0.00     0.637 A  
HETATM   26  O   UNL     1      -8.875  11.779  68.598  1.00  0.00    -0.148 OA 
HETATM   27  C   UNL     1      -7.930  12.380  69.118  1.00  0.00     0.407 C  
HETATM   28  C   UNL     1      -8.076  16.050  69.806  1.00  0.00     0.315 A  
HETATM   29  C   UNL     1      -8.207  13.542  70.066  1.00  0.00     2.286 C  
HETATM   30  C   UNL     1      -7.408  14.820  69.955  1.00  0.00     0.104 A  
BRANCH  24  31
HETATM   31  O   UNL     1      -5.321  18.463  69.815  1.00  0.00    -0.186 OA 
HETATM   32  C   UNL     1      -5.177  19.187  71.033  1.00  0.00    -0.262 C  
ENDBRANCH  24  31
BRANCH  25  33
HETATM   33  O   UNL     1      -7.961  18.498  69.623  1.00  0.00     0.352 OA 
HETATM   34  C   UNL     1      -9.357  18.594  69.874  1.00  0.00     1.095 C  
ENDBRANCH  25  33
ENDBRANCH  18  19
ENDBRANCH  17  18
ENDBRANCH  16  17
ENDBRANCH  14  16
ENDBRANCH  13  14
ENDBRANCH   9  13
ENDBRANCH   2   3
TORSDOF 10
ENDMDL
MODEL      326
REMARK 921   NORMALIZED FREE ENERGY PREDICTED BY IDOCK:   11.86 KCAL/MOL
REMARK 922        TOTAL FREE ENERGY PREDICTED BY IDOCK:   16.83 KCAL/MOL
REMARK 923 INTER-LIGAND FREE ENERGY PREDICTED BY IDOCK:   10.01 KCAL/MOL
REMARK 924 INTRA-LIGAND FREE ENERGY PREDICTED BY IDOCK:    6.82 KCAL/MOL
REMARK 927      BINDING AFFINITY PREDICTED BY RF-SCORE:    0.00 PKD
ROOT
HETATM    1  C   UNL     1      -8.394  21.351  71.699  1.00  0.00     5.133 C  
HETATM    2  O   UNL     1      -7.222  20.600  71.396  1.00  0.00     0.200 OA 
ENDROOT
BRANCH   2   3
HETATM    3  C   UNL     1      -7.317  19.638  70.423  1.00  0.00     0.676 A  
HETATM    4  C   UNL     1      -8.442  18.822  70.126  1.00  0.00     1.899 A  
HETATM    5  C   UNL     1      -6.122  19.504  69.664  1.00  0.00    -0.318 A  
HETATM    6  C   UNL     1      -8.336  17.846  69.135  1.00  0.00     0.111 A  
HETATM    7  C   UNL     1      -6.080  18.537  68.677  1.00  0.00    -0.208 A  
HETATM    8  C   UNL     1      -7.135  17.699  68.498  1.00  0.00    -0.239 A  
HETATM    9  C   UNL     1      -6.447  16.817  67.486  1.00  0.00    -0.178 C  
HETATM   10  C   UNL     1      -5.325  17.949  67.506  1.00  0.00    -0.142 C  
BRANCH   4  11
HETATM   11  O   UNL     1      -9.632  19.015  70.776  1.00  0.00     1.913 OA 
HETATM   12  C   UNL     1     -10.814  18.843  69.996  1.00  0.00     2.291 C  
ENDBRANCH   4  11
BRANCH   9  13
HETATM   13  C   UNL     1      -7.492  16.469  66.417  1.00  0.00    -0.170 C  
BRANCH  13  14
HETATM   14  N   UNL     1      -8.197  17.575  65.767  1.00  0.00    -0.522 NA 
HETATM   15  C   UNL     1      -9.074  17.110  64.706  1.00  0.00     4.259 C  
BRANCH  14  16
HETATM   16  C   UNL     1      -8.775  18.545  66.706  1.00  0.00    -0.278 C  
BRANCH  16  17
HETATM   17  C   UNL     1     -10.222  18.205  67.052  1.00  0.00    -0.373 C  
BRANCH  17  18
HETATM   18  C   UNL     1     -10.826  17.124  66.147  1.00  0.00     0.026 C  
BRANCH  18  19
HETATM   19  N   UNL     1     -11.144  15.940  66.949  1.00  0.00    -0.163 N  
HETATM   20  C   UNL     1     -11.844  16.156  68.210  1.00  0.00     0.085 C  
HETATM   21  C   UNL     1     -11.056  15.634  69.399  1.00  0.00    -0.303 C  
HETATM   22  C   UNL     1     -11.420  14.190  69.606  1.00  0.00    -0.329 A  
HETATM   23  C   UNL     1     -12.057  13.828  70.799  1.00  0.00    -0.395 A  
HETATM   24  C   UNL     1     -12.471  12.516  71.028  1.00  0.00    -0.258 A  
HETATM   25  C   UNL     1     -12.246  11.541  70.040  1.00  0.00    -0.278 A  
HETATM   26  O   UNL     1     -10.992  14.484  65.193  1.00  0.00    -0.334 OA 
HETATM   27  C   UNL     1     -10.966  14.673  66.413  1.00  0.00    -0.325 C  
HETATM   28  C   UNL     1     -11.611  11.909  68.843  1.00  0.00    -0.370 A  
HETATM   29  C   UNL     1     -10.455  13.571  67.336  1.00  0.00    -0.247 C  
HETATM   30  C   UNL     1     -11.203  13.235  68.605  1.00  0.00    -0.311 A  
BRANCH  24  31
HETATM   31  O   UNL     1     -13.131  12.125  72.168  1.00  0.00    -0.434 OA 
HETATM   32  C   UNL     1     -14.289  12.876  72.516  1.00  0.00     0.284 C  
ENDBRANCH  24  31
BRANCH  25  33
HETATM   33  O   UNL     1     -12.671  10.270  70.336  1.00  0.00    -0.273 OA 
HETATM   34  C   UNL     1     -12.590   9.849  71.692  1.00  0.00    -0.424 C  
ENDBRANCH  25  33
ENDBRANCH  18  19
ENDBRANCH  17  18
ENDBRANCH  16  17
ENDBRANCH  14  16
ENDBRANCH  13  14
ENDBRANCH   9  13
ENDBRANCH   2   3
TORSDOF 10
ENDMDL
MODEL      327
REMARK 921   NORMALIZED FREE ENERGY PREDICTED BY IDOCK:   12.59 KCAL/MOL
REMARK 922        TOTAL FREE ENERGY PREDICTED BY IDOCK:   17.99 KCAL/MOL
REMARK 923 INTER-LIGAND FREE ENERGY PREDICTED BY IDOCK:    9.17 KCAL/MOL
REMARK 924 INTRA-LIGAND FREE ENERGY PREDICTED BY IDOCK:    8.82 KCAL/MOL
REMARK 927      BINDING AFFINITY PREDICTED BY RF-SCORE:    0.00 PKD
ROOT
HETATM    1  C   UNL     1     -14.074  10.501  62.956  1.00  0.00     7.938 C  
HETATM    2  O   UNL     1     -13.849  11.781  63.541  1.00  0.00     0.138 OA 
ENDROOT
BRANCH   2   3
HETATM    3  C   UNL     1     -12.758  11.923  64.360  1.00  0.00     0.018 A  
HETATM    4  C   UNL     1     -11.498  11.278  64.237  1.00  0.00     0.056 A  
HETATM    5  C   UNL     1     -12.986  12.839  65.424  1.00  0.00     0.225 A  
HETATM    6  C   UNL     1     -10.520  11.498  65.206  1.00  0.00    -0.336 A  
HETATM    7  C   UNL     1     -11.972  13.038  66.343  1.00  0.00    -0.466 A  
HETATM    8  C   UNL     1     -10.823  12.318  66.258  1.00  0.00    -0.313 A  
HETATM    9  C   UNL     1     -10.245  12.816  67.558  1.00  0.00    -0.216 C  
HETATM   10  C   UNL     1     -11.461  13.845  67.515  1.00  0.00    -0.368 C  
BRANCH   4  11
HETATM   11  O   UNL     1     -11.230  10.477  63.158  1.00  0.00     1.003 OA 
HETATM   12  C   UNL     1     -10.125   9.584  63.292  1.00  0.00     2.096 C  
ENDBRANCH   4  11
BRANCH   9  13
HETATM   13  C   UNL     1      -8.745  13.037  67.322  1.00  0.00    -0.209 C  
BRANCH  13  14
HETATM   14  N   UNL     1      -7.817  12.033  67.846  1.00  0.00    -0.133 NA 
HETATM   15  C   UNL     1      -8.309  10.681  67.641  1.00  0.00    -0.114 C  
BRANCH  14  16
HETATM   16  C   UNL     1      -6.415  12.273  67.484  1.00  0.00    -0.137 C  
BRANCH  16  17
HETATM   17  C   UNL     1      -6.130  11.892  66.034  1.00  0.00     1.049 C  
BRANCH  17  18
HETATM   18  C   UNL     1      -5.502  10.501  65.883  1.00  0.00    -0.101 C  
BRANCH  18  19
HETATM   19  N   UNL     1      -5.818   9.694  67.064  1.00  0.00    -0.051 N  
HETATM   20  C   UNL     1      -6.400  10.385  68.209  1.00  0.00    -0.051 C  
HETATM   21  C   UNL     1      -5.547  10.241  69.458  1.00  0.00    -0.038 C  
HETATM   22  C   UNL     1      -5.973   8.990  70.175  1.00  0.00    -0.034 A  
HETATM   23  C   UNL     1      -6.529   9.112  71.454  1.00  0.00    -0.067 A  
HETATM   24  C   UNL     1      -6.996   7.996  72.149  1.00  0.00    -0.077 A  
HETATM   25  C   UNL     1      -6.909   6.727  71.551  1.00  0.00    -0.066 A  
HETATM   26  O   UNL     1      -5.894   7.716  65.919  1.00  0.00    -0.036 OA 
HETATM   27  C   UNL     1      -5.757   8.310  66.993  1.00  0.00    -0.042 C  
HETATM   28  C   UNL     1      -6.354   6.609  70.266  1.00  0.00    -0.039 A  
HETATM   29  C   UNL     1      -5.234   7.554  68.210  1.00  0.00    -0.026 C  
HETATM   30  C   UNL     1      -5.894   7.735  69.558  1.00  0.00    -0.023 A  
BRANCH  24  31
HETATM   31  O   UNL     1      -7.581   8.075  73.390  1.00  0.00    -0.133 OA 
HETATM   32  C   UNL     1      -6.696   8.124  74.504  1.00  0.00    -0.132 C  
ENDBRANCH  24  31
BRANCH  25  33
HETATM   33  O   UNL     1      -7.379   5.674  72.295  1.00  0.00    -0.090 OA 
HETATM   34  C   UNL     1      -6.427   4.901  73.013  1.00  0.00    -0.051 C  
ENDBRANCH  25  33
ENDBRANCH  18  19
ENDBRANCH  17  18
ENDBRANCH  16  17
ENDBRANCH  14  16
ENDBRANCH  13  14
ENDBRANCH   9  13
ENDBRANCH   2   3
TORSDOF 10
ENDMDL
MODEL      328
REMARK 921   NORMALIZED FREE ENERGY PREDICTED BY IDOCK:   14.03 KCAL/MOL
REMARK 922        TOTAL FREE ENERGY PREDICTED BY IDOCK:   20.27 KCAL/MOL
REMARK 923 INTER-LIGAND FREE ENERGY PREDICTED BY IDOCK:   16.41 KCAL/MOL
REMARK 924 INTRA-LIGAND FREE ENERGY PREDICTED BY IDOCK:    3.86 KCAL/MOL
REMARK 927      BINDING AFFINITY PREDICTED BY RF-SCORE:    0.00 PKD
ROOT
HETATM    1  C   UNL     1      -6.604   7.448  72.386  1.00  0.00    -0.055 C  
HETATM    2  O   UNL     1      -7.929   7.847  72.051  1.00  0.00    -0.097 OA 
ENDROOT
BRANCH   2   3
HETATM    3  C   UNL     1      -8.261   7.901  70.722  1.00  0.00    -0.110 A  
HETATM    4  C   UNL     1      -8.305   9.053  69.891  1.00  0.00    -0.134 A  
HETATM    5  C   UNL     1      -8.577   6.623  70.182  1.00  0.00    -0.140 A  
HETATM    6  C   UNL     1      -8.728   8.925  68.568  1.00  0.00    -0.134 A  
HETATM    7  C   UNL     1      -8.967   6.552  68.858  1.00  0.00    -0.128 A  
HETATM    8  C   UNL     1      -9.107   7.688  68.125  1.00  0.00    -0.132 A  
HETATM    9  C   UNL     1      -9.698   7.008  66.916  1.00  0.00    -0.228 C  
HETATM   10  C   UNL     1      -9.286   5.667  67.674  1.00  0.00    -0.111 C  
BRANCH   4  11
HETATM   11  O   UNL     1      -7.899  10.271  70.370  1.00  0.00    -0.153 OA 
HETATM   12  C   UNL     1      -6.891  10.942  69.616  1.00  0.00    -0.137 C  
ENDBRANCH   4  11
BRANCH   9  13
HETATM   13  C   UNL     1      -9.086   7.684  65.682  1.00  0.00     0.084 C  
BRANCH  13  14
HETATM   14  N   UNL     1      -9.620   7.318  64.369  1.00  0.00     2.516 NA 
HETATM   15  C   UNL     1     -10.958   7.846  64.163  1.00  0.00    13.337 C  
BRANCH  14  16
HETATM   16  C   UNL     1      -8.671   7.514  63.266  1.00  0.00     0.654 C  
BRANCH  16  17
HETATM   17  C   UNL     1      -7.223   7.467  63.748  1.00  0.00    -0.078 C  
BRANCH  17  18
HETATM   18  C   UNL     1      -6.429   8.736  63.413  1.00  0.00    -0.089 C  
BRANCH  18  19
HETATM   19  N   UNL     1      -7.151   9.908  63.913  1.00  0.00    -0.124 N  
HETATM   20  C   UNL     1      -7.635   9.857  65.288  1.00  0.00    -0.130 C  
HETATM   21  C   UNL     1      -9.143  10.020  65.370  1.00  0.00    -0.235 C  
HETATM   22  C   UNL     1      -9.453  11.488  65.463  1.00  0.00    -0.234 A  
HETATM   23  C   UNL     1     -10.071  11.967  66.626  1.00  0.00    -0.225 A  
HETATM   24  C   UNL     1     -10.333  13.325  66.798  1.00  0.00    -0.257 A  
HETATM   25  C   UNL     1      -9.966  14.230  65.787  1.00  0.00    -0.323 A  
HETATM   26  O   UNL     1      -6.281  11.337  62.356  1.00  0.00     0.009 OA 
HETATM   27  C   UNL     1      -7.174  11.077  63.167  1.00  0.00     0.525 C  
HETATM   28  C   UNL     1      -9.342  13.749  64.625  1.00  0.00     1.538 A  
HETATM   29  C   UNL     1      -8.463  11.893  63.156  1.00  0.00     1.176 C  
HETATM   30  C   UNL     1      -9.065  12.379  64.454  1.00  0.00     0.915 A  
BRANCH  24  31
HETATM   31  O   UNL     1     -10.904  13.841  67.936  1.00  0.00    -0.238 OA 
HETATM   32  C   UNL     1     -11.976  13.094  68.500  1.00  0.00    -0.289 C  
ENDBRANCH  24  31
BRANCH  25  33
HETATM   33  O   UNL     1     -10.262  15.551  66.020  1.00  0.00    -0.288 OA 
HETATM   34  C   UNL     1     -10.168  16.019  67.358  1.00  0.00    -0.273 C  
ENDBRANCH  25  33
ENDBRANCH  18  19
ENDBRANCH  17  18
ENDBRANCH  16  17
ENDBRANCH  14  16
ENDBRANCH  13  14
ENDBRANCH   9  13
ENDBRANCH   2   3
TORSDOF 10
ENDMDL
MODEL      329
REMARK 921   NORMALIZED FREE ENERGY PREDICTED BY IDOCK:   17.09 KCAL/MOL
REMARK 922        TOTAL FREE ENERGY PREDICTED BY IDOCK:   25.12 KCAL/MOL
REMARK 923 INTER-LIGAND FREE ENERGY PREDICTED BY IDOCK:   10.33 KCAL/MOL
REMARK 924 INTRA-LIGAND FREE ENERGY PREDICTED BY IDOCK:   14.79 KCAL/MOL
REMARK 927      BINDING AFFINITY PREDICTED BY RF-SCORE:    0.00 PKD
ROOT
HETATM    1  C   UNL     1     -10.155  18.773  69.028  1.00  0.00    -0.242 C  
HETATM    2  O   UNL     1      -9.382  18.651  67.838  1.00  0.00    -0.287 OA 
ENDROOT
BRANCH   2   3
HETATM    3  C   UNL     1      -9.320  17.417  67.242  1.00  0.00    -0.238 A  
HETATM    4  C   UNL     1      -8.598  17.061  66.071  1.00  0.00    -0.129 A  
HETATM    5  C   UNL     1     -10.081  16.434  67.934  1.00  0.00    -0.250 A  
HETATM    6  C   UNL     1      -8.702  15.762  65.573  1.00  0.00     0.953 A  
HETATM    7  C   UNL     1     -10.130  15.157  67.408  1.00  0.00    -0.229 A  
HETATM    8  C   UNL     1      -9.520  14.882  66.225  1.00  0.00    -0.339 A  
HETATM    9  C   UNL     1     -10.063  13.480  66.107  1.00  0.00    -0.307 C  
HETATM   10  C   UNL     1     -10.550  13.718  67.605  1.00  0.00    -0.244 C  
BRANCH   4  11
HETATM   11  O   UNL     1      -7.776  17.970  65.459  1.00  0.00    -0.510 OA 
HETATM   12  C   UNL     1      -7.898  18.076  64.041  1.00  0.00     9.903 C  
ENDBRANCH   4  11
BRANCH   9  13
HETATM   13  C   UNL     1      -8.927  12.609  65.554  1.00  0.00     0.650 C  
BRANCH  13  14
HETATM   14  N   UNL     1      -8.695  11.309  66.187  1.00  0.00    -0.187 NA 
HETATM   15  C   UNL     1      -7.304  10.901  66.092  1.00  0.00    -0.103 C  
BRANCH  14  16
HETATM   16  C   UNL     1      -9.321  11.171  67.508  1.00  0.00    -0.168 C  
BRANCH  16  17
HETATM   17  C   UNL     1     -10.549  12.067  67.650  1.00  0.00    -0.239 C  
BRANCH  17  18
HETATM   18  C   UNL     1     -10.844  12.466  69.102  1.00  0.00    -0.097 C  
BRANCH  18  19
HETATM   19  N   UNL     1     -11.147  11.266  69.884  1.00  0.00    -0.174 N  
HETATM   20  C   UNL     1     -10.324  10.086  69.644  1.00  0.00    -0.247 C  
HETATM   21  C   UNL     1     -11.149   8.896  69.187  1.00  0.00     0.111 C  
HETATM   22  C   UNL     1     -11.614   8.150  70.406  1.00  0.00    -0.063 A  
HETATM   23  C   UNL     1     -11.164   6.837  70.596  1.00  0.00    -0.361 A  
HETATM   24  C   UNL     1     -11.513   6.111  71.734  1.00  0.00    -0.285 A  
HETATM   25  C   UNL     1     -12.328   6.712  72.710  1.00  0.00     0.514 A  
HETATM   26  O   UNL     1     -12.239  12.400  71.542  1.00  0.00     0.030 OA 
HETATM   27  C   UNL     1     -12.039  11.338  70.945  1.00  0.00    -0.301 C  
HETATM   28  C   UNL     1     -12.773   8.029  72.519  1.00  0.00    -0.093 A  
HETATM   29  C   UNL     1     -12.975  10.156  71.174  1.00  0.00    -0.488 C  
HETATM   30  C   UNL     1     -12.412   8.768  71.377  1.00  0.00    -0.348 A  
BRANCH  24  31
HETATM   31  O   UNL     1     -11.066   4.835  71.978  1.00  0.00     0.014 OA 
HETATM   32  C   UNL     1     -10.192   4.674  73.090  1.00  0.00    -0.170 C  
ENDBRANCH  24  31
BRANCH  25  33
HETATM   33  O   UNL     1     -12.639   5.936  73.800  1.00  0.00     2.538 OA 
HETATM   34  C   UNL     1     -12.463   4.532  73.678  1.00  0.00     1.716 C  
ENDBRANCH  25  33
ENDBRANCH  18  19
ENDBRANCH  17  18
ENDBRANCH  16  17
ENDBRANCH  14  16
ENDBRANCH  13  14
ENDBRANCH   9  13
ENDBRANCH   2   3
TORSDOF 10
ENDMDL
MODEL      330
REMARK 921   NORMALIZED FREE ENERGY PREDICTED BY IDOCK:   18.44 KCAL/MOL
REMARK 922        TOTAL FREE ENERGY PREDICTED BY IDOCK:   27.25 KCAL/MOL
REMARK 923 INTER-LIGAND FREE ENERGY PREDICTED BY IDOCK:   14.09 KCAL/MOL
REMARK 924 INTRA-LIGAND FREE ENERGY PREDICTED BY IDOCK:   13.16 KCAL/MOL
REMARK 927      BINDING AFFINITY PREDICTED BY RF-SCORE:    0.00 PKD
ROOT
HETATM    1  C   UNL     1      -9.068  21.033  72.013  1.00  0.00     3.062 C  
HETATM    2  O   UNL     1      -7.744  20.704  71.605  1.00  0.00     0.673 OA 
ENDROOT
BRANCH   2   3
HETATM    3  C   UNL     1      -7.598  19.789  70.595  1.00  0.00     1.173 A  
HETATM    4  C   UNL     1      -8.536  18.803  70.183  1.00  0.00     1.899 A  
HETATM    5  C   UNL     1      -6.349  19.904  69.925  1.00  0.00    -0.395 A  
HETATM    6  C   UNL     1      -8.188  17.911  69.169  1.00  0.00     0.092 A  
HETATM    7  C   UNL     1      -6.066  19.008  68.910  1.00  0.00    -0.251 A  
HETATM    8  C   UNL     1      -6.939  18.008  68.621  1.00  0.00    -0.261 A  
HETATM    9  C   UNL     1      -6.037  17.311  67.634  1.00  0.00    -0.161 C  
HETATM   10  C   UNL     1      -5.139  18.620  67.780  1.00  0.00    -0.162 C  
BRANCH   4  11
HETATM   11  O   UNL     1      -9.783  18.753  70.747  1.00  0.00     2.101 OA 
HETATM   12  C   UNL     1     -10.606  17.652  70.363  1.00  0.00     1.320 C  
ENDBRANCH   4  11
BRANCH   9  13
HETATM   13  C   UNL     1      -6.926  16.837  66.476  1.00  0.00    -0.189 C  
BRANCH  13  14
HETATM   14  N   UNL     1      -7.794  17.826  65.834  1.00  0.00    -0.545 NA 
HETATM   15  C   UNL     1      -9.092  17.268  65.495  1.00  0.00     0.780 C  
BRANCH  14  16
HETATM   16  C   UNL     1      -7.807  19.131  66.507  1.00  0.00    -0.276 C  
BRANCH  16  17
HETATM   17  C   UNL     1      -9.228  19.646  66.721  1.00  0.00    -0.438 C  
BRANCH  17  18
HETATM   18  C   UNL     1     -10.297  18.775  66.047  1.00  0.00    -0.422 C  
BRANCH  18  19
HETATM   19  N   UNL     1     -10.820  17.811  67.018  1.00  0.00    -0.170 N  
HETATM   20  C   UNL     1     -10.155  16.516  67.098  1.00  0.00    -0.274 C  
HETATM   21  C   UNL     1     -11.103  15.366  66.806  1.00  0.00    -0.244 C  
HETATM   22  C   UNL     1     -11.754  14.954  68.097  1.00  0.00    -0.344 A  
HETATM   23  C   UNL     1     -11.508  13.665  68.586  1.00  0.00    -0.342 A  
HETATM   24  C   UNL     1     -12.036  13.241  69.805  1.00  0.00    -0.324 A  
HETATM   25  C   UNL     1     -12.826  14.127  70.557  1.00  0.00    -0.247 A  
HETATM   26  O   UNL     1     -11.859  19.391  68.303  1.00  0.00     1.741 OA 
HETATM   27  C   UNL     1     -11.767  18.212  67.950  1.00  0.00     1.755 C  
HETATM   28  C   UNL     1     -13.068  15.420  70.067  1.00  0.00     0.126 A  
HETATM   29  C   UNL     1     -12.873  17.227  68.314  1.00  0.00     4.957 C  
HETATM   30  C   UNL     1     -12.526  15.854  68.842  1.00  0.00     0.524 A  
BRANCH  24  31
HETATM   31  O   UNL     1     -11.790  11.999  70.339  1.00  0.00    -0.322 OA 
HETATM   32  C   UNL     1     -12.806  11.020  70.156  1.00  0.00    -0.047 C  
ENDBRANCH  24  31
BRANCH  25  33
HETATM   33  O   UNL     1     -13.320  13.641  71.742  1.00  0.00    -0.360 OA 
HETATM   34  C   UNL     1     -14.125  14.512  72.525  1.00  0.00    -0.337 C  
ENDBRANCH  25  33
ENDBRANCH  18  19
ENDBRANCH  17  18
ENDBRANCH  16  17
ENDBRANCH  14  16
ENDBRANCH  13  14
ENDBRANCH   9  13
ENDBRANCH   2   3
TORSDOF 10
ENDMDL
MODEL      331
REMARK 921   NORMALIZED FREE ENERGY PREDICTED BY IDOCK:   20.52 KCAL/MOL
REMARK 922        TOTAL FREE ENERGY PREDICTED BY IDOCK:   30.55 KCAL/MOL
REMARK 923 INTER-LIGAND FREE ENERGY PREDICTED BY IDOCK:    3.15 KCAL/MOL
REMARK 924 INTRA-LIGAND FREE ENERGY PREDICTED BY IDOCK:   27.41 KCAL/MOL
REMARK 927      BINDING AFFINITY PREDICTED BY RF-SCORE:    0.00 PKD
ROOT
HETATM    1  C   UNL     1     -12.992   6.384  71.436  1.00  0.00     0.349 C  
HETATM    2  O   UNL     1     -12.050   5.320  71.526  1.00  0.00     0.947 OA 
ENDROOT
BRANCH   2   3
HETATM    3  C   UNL     1     -10.736   5.649  71.745  1.00  0.00    -0.244 A  
HETATM    4  C   UNL     1      -9.586   4.953  71.284  1.00  0.00    -0.168 A  
HETATM    5  C   UNL     1     -10.588   6.834  72.518  1.00  0.00    -0.249 A  
HETATM    6  C   UNL     1      -8.319   5.404  71.658  1.00  0.00    -0.119 A  
HETATM    7  C   UNL     1      -9.309   7.248  72.839  1.00  0.00    -0.194 A  
HETATM    8  C   UNL     1      -8.236   6.495  72.478  1.00  0.00    -0.104 A  
HETATM    9  C   UNL     1      -7.223   7.317  73.233  1.00  0.00    -0.079 C  
HETATM   10  C   UNL     1      -8.436   8.333  73.428  1.00  0.00    -0.267 C  
BRANCH   4  11
HETATM   11  O   UNL     1      -9.714   3.875  70.449  1.00  0.00    -0.187 OA 
HETATM   12  C   UNL     1      -8.566   3.536  69.673  1.00  0.00    -0.067 C  
ENDBRANCH   4  11
BRANCH   9  13
HETATM   13  C   UNL     1      -5.977   7.413  72.343  1.00  0.00    -0.040 C  
BRANCH  13  14
HETATM   14  N   UNL     1      -6.171   7.382  70.892  1.00  0.00    -0.035 NA 
HETATM   15  C   UNL     1      -5.685   8.593  70.254  1.00  0.00    -0.024 C  
BRANCH  14  16
HETATM   16  C   UNL     1      -5.770   6.115  70.266  1.00  0.00    -0.014 C  
BRANCH  16  17
HETATM   17  C   UNL     1      -6.967   5.204  70.011  1.00  0.00    -0.056 C  
BRANCH  17  18
HETATM   18  C   UNL     1      -8.316   5.880  70.289  1.00  0.00    -0.122 C  
BRANCH  18  19
HETATM   19  N   UNL     1      -8.377   7.156  69.572  1.00  0.00    -0.131 N  
HETATM   20  C   UNL     1      -8.431   8.372  70.376  1.00  0.00    -0.130 C  
HETATM   21  C   UNL     1      -9.680   9.189  70.093  1.00  0.00    -0.234 C  
HETATM   22  C   UNL     1      -9.381  10.123  68.954  1.00  0.00    -0.179 A  
HETATM   23  C   UNL     1      -9.419  11.502  69.195  1.00  0.00     0.185 A  
HETATM   24  C   UNL     1      -9.098  12.420  68.195  1.00  0.00    -0.200 A  
HETATM   25  C   UNL     1      -8.725  11.950  66.924  1.00  0.00    -0.191 A  
HETATM   26  O   UNL     1      -7.521   6.313  67.627  1.00  0.00    -0.085 OA 
HETATM   27  C   UNL     1      -8.176   7.188  68.200  1.00  0.00    -0.124 C  
HETATM   28  C   UNL     1      -8.685  10.567  66.686  1.00  0.00    -0.138 A  
HETATM   29  C   UNL     1      -9.015   8.161  67.377  1.00  0.00    -0.145 C  
HETATM   30  C   UNL     1      -8.997   9.639  67.697  1.00  0.00    -0.131 A  
BRANCH  24  31
HETATM   31  O   UNL     1      -9.086  13.779  68.399  1.00  0.00    -0.192 OA 
HETATM   32  C   UNL     1      -7.845  14.346  68.806  1.00  0.00    -0.138 C  
ENDBRANCH  24  31
BRANCH  25  33
HETATM   33  O   UNL     1      -8.431  12.909  65.986  1.00  0.00     0.508 OA 
HETATM   34  C   UNL     1      -7.060  13.191  65.743  1.00  0.00     5.147 C  
ENDBRANCH  25  33
ENDBRANCH  18  19
ENDBRANCH  17  18
ENDBRANCH  16  17
ENDBRANCH  14  16
ENDBRANCH  13  14
ENDBRANCH   9  13
ENDBRANCH   2   3
TORSDOF 10
ENDMDL
MODEL      332
REMARK 921   NORMALIZED FREE ENERGY PREDICTED BY IDOCK:   21.04 KCAL/MOL
REMARK 922        TOTAL FREE ENERGY PREDICTED BY IDOCK:   31.38 KCAL/MOL
REMARK 923 INTER-LIGAND FREE ENERGY PREDICTED BY IDOCK:   17.35 KCAL/MOL
REMARK 924 INTRA-LIGAND FREE ENERGY PREDICTED BY IDOCK:   14.03 KCAL/MOL
REMARK 927      BINDING AFFINITY PREDICTED BY RF-SCORE:    0.00 PKD
ROOT
HETATM    1  C   UNL     1      -8.184   3.302  70.954  1.00  0.00    -0.064 C  
HETATM    2  O   UNL     1      -7.421   4.245  70.207  1.00  0.00    -0.045 OA 
ENDROOT
BRANCH   2   3
HETATM    3  C   UNL     1      -8.041   4.879  69.161  1.00  0.00    -0.079 A  
HETATM    4  C   UNL     1      -8.973   4.320  68.245  1.00  0.00    -0.118 A  
HETATM    5  C   UNL     1      -7.669   6.247  69.048  1.00  0.00    -0.100 A  
HETATM    6  C   UNL     1      -9.457   5.105  67.198  1.00  0.00    -0.138 A  
HETATM    7  C   UNL     1      -8.197   6.985  68.006  1.00  0.00    -0.119 A  
HETATM    8  C   UNL     1      -8.995   6.387  67.083  1.00  0.00    -0.109 A  
HETATM    9  C   UNL     1      -9.080   7.584  66.170  1.00  0.00    -0.179 C  
HETATM   10  C   UNL     1      -8.373   8.348  67.376  1.00  0.00    -0.124 C  
BRANCH   4  11
HETATM   11  O   UNL     1      -9.422   3.036  68.408  1.00  0.00    -0.193 OA 
HETATM   12  C   UNL     1      -9.373   2.199  67.254  1.00  0.00    -0.031 C  
ENDBRANCH   4  11
BRANCH   9  13
HETATM   13  C   UNL     1     -10.525   7.651  65.658  1.00  0.00     2.520 C  
BRANCH  13  14
HETATM   14  N   UNL     1     -11.403   8.675  66.226  1.00  0.00     2.360 NA 
HETATM   15  C   UNL     1     -12.460   8.094  67.036  1.00  0.00     9.226 C  
BRANCH  14  16
HETATM   16  C   UNL     1     -10.685   9.811  66.818  1.00  0.00    -0.073 C  
BRANCH  16  17
HETATM   17  C   UNL     1      -9.784  10.505  65.801  1.00  0.00    -0.277 C  
BRANCH  17  18
HETATM   18  C   UNL     1      -8.574  11.203  66.436  1.00  0.00    -0.172 C  
BRANCH  18  19
HETATM   19  N   UNL     1      -8.408  10.729  67.813  1.00  0.00    -0.112 N  
HETATM   20  C   UNL     1      -9.064   9.477  68.172  1.00  0.00    -0.127 C  
HETATM   21  C   UNL     1     -10.051   9.655  69.313  1.00  0.00    -0.201 C  
HETATM   22  C   UNL     1      -9.309   9.475  70.608  1.00  0.00    -0.263 A  
HETATM   23  C   UNL     1      -9.664   8.403  71.436  1.00  0.00    -0.260 A  
HETATM   24  C   UNL     1      -8.978   8.149  72.623  1.00  0.00    -0.232 A  
HETATM   25  C   UNL     1      -7.907   8.982  72.991  1.00  0.00     0.725 A  
HETATM   26  O   UNL     1      -6.517  11.954  68.199  1.00  0.00    -0.049 OA 
HETATM   27  C   UNL     1      -7.493  11.349  68.651  1.00  0.00    -0.119 C  
HETATM   28  C   UNL     1      -7.550  10.053  72.156  1.00  0.00     2.995 A  
HETATM   29  C   UNL     1      -7.867  11.513  70.121  1.00  0.00     1.942 C  
HETATM   30  C   UNL     1      -8.234  10.305  70.952  1.00  0.00     1.657 A  
BRANCH  24  31
HETATM   31  O   UNL     1      -9.269   7.088  73.446  1.00  0.00    -0.134 OA 
HETATM   32  C   UNL     1     -10.649   6.787  73.624  1.00  0.00    -0.320 C  
ENDBRANCH  24  31
BRANCH  25  33
HETATM   33  O   UNL     1      -7.283   8.678  74.175  1.00  0.00    -0.331 OA 
HETATM   34  C   UNL     1      -7.138   7.304  74.509  1.00  0.00    -0.105 C  
ENDBRANCH  25  33
ENDBRANCH  18  19
ENDBRANCH  17  18
ENDBRANCH  16  17
ENDBRANCH  14  16
ENDBRANCH  13  14
ENDBRANCH   9  13
ENDBRANCH   2   3
TORSDOF 10
ENDMDL
MODEL      333
REMARK 921   NORMALIZED FREE ENERGY PREDICTED BY IDOCK:   26.87 KCAL/MOL
REMARK 922        TOTAL FREE ENERGY PREDICTED BY IDOCK:   40.61 KCAL/MOL
REMARK 923 INTER-LIGAND FREE ENERGY PREDICTED BY IDOCK:   28.17 KCAL/MOL
REMARK 924 INTRA-LIGAND FREE ENERGY PREDICTED BY IDOCK:   12.44 KCAL/MOL
REMARK 927      BINDING AFFINITY PREDICTED BY RF-SCORE:    0.00 PKD
ROOT
HETATM    1  C   UNL     1      -9.634  18.846  66.133  1.00  0.00    -0.242 C  
HETATM    2  O   UNL     1     -10.510  18.120  66.989  1.00  0.00    -0.372 OA 
ENDROOT
BRANCH   2   3
HETATM    3  C   UNL     1      -9.946  17.380  67.997  1.00  0.00    -0.302 A  
HETATM    4  C   UNL     1     -10.518  17.069  69.260  1.00  0.00    -0.293 A  
HETATM    5  C   UNL     1      -8.650  16.897  67.665  1.00  0.00    -0.212 A  
HETATM    6  C   UNL     1      -9.767  16.350  70.191  1.00  0.00     0.781 A  
HETATM    7  C   UNL     1      -7.961  16.169  68.617  1.00  0.00    -0.201 A  
HETATM    8  C   UNL     1      -8.492  15.989  69.855  1.00  0.00     0.560 A  
HETATM    9  C   UNL     1      -7.267  15.335  70.443  1.00  0.00     0.436 C  
HETATM   10  C   UNL     1      -6.757  15.311  68.933  1.00  0.00    -0.115 C  
BRANCH   4  11
HETATM   11  O   UNL     1     -11.806  17.435  69.550  1.00  0.00     1.629 OA 
HETATM   12  C   UNL     1     -12.583  16.488  70.280  1.00  0.00     1.928 C  
ENDBRANCH   4  11
BRANCH   9  13
HETATM   13  C   UNL     1      -7.761  14.197  71.346  1.00  0.00     4.341 C  
BRANCH  13  14
HETATM   14  N   UNL     1      -7.561  12.823  70.883  1.00  0.00     4.276 NA 
HETATM   15  C   UNL     1      -7.699  12.712  69.440  1.00  0.00     0.636 C  
BRANCH  14  16
HETATM   16  C   UNL     1      -6.391  12.161  71.473  1.00  0.00     2.449 C  
BRANCH  16  17
HETATM   17  C   UNL     1      -5.336  11.830  70.421  1.00  0.00    -0.124 C  
BRANCH  17  18
HETATM   18  C   UNL     1      -5.587  12.515  69.071  1.00  0.00    -0.065 C  
BRANCH  18  19
HETATM   19  N   UNL     1      -6.625  11.783  68.341  1.00  0.00    -0.053 N  
HETATM   20  C   UNL     1      -7.123  12.383  67.108  1.00  0.00    -0.077 C  
HETATM   21  C   UNL     1      -8.618  12.644  67.162  1.00  0.00    -0.199 C  
HETATM   22  C   UNL     1      -9.328  11.408  66.683  1.00  0.00    -0.198 A  
HETATM   23  C   UNL     1     -10.095  11.492  65.514  1.00  0.00    -0.286 A  
HETATM   24  C   UNL     1     -10.733  10.369  64.986  1.00  0.00     0.231 A  
HETATM   25  C   UNL     1     -10.598   9.131  65.638  1.00  0.00     1.356 A  
HETATM   26  O   UNL     1      -6.134   9.766  69.299  1.00  0.00    -0.037 OA 
HETATM   27  C   UNL     1      -6.947  10.486  68.712  1.00  0.00    -0.070 C  
HETATM   28  C   UNL     1      -9.825   9.050  66.807  1.00  0.00    -0.300 A  
HETATM   29  C   UNL     1      -8.411  10.064  68.637  1.00  0.00    -0.118 C  
HETATM   30  C   UNL     1      -9.171  10.179  67.335  1.00  0.00    -0.156 A  
BRANCH  24  31
HETATM   31  O   UNL     1     -11.464  10.399  63.824  1.00  0.00     1.758 OA 
HETATM   32  C   UNL     1     -10.996  11.275  62.804  1.00  0.00     0.617 C  
ENDBRANCH  24  31
BRANCH  25  33
HETATM   33  O   UNL     1     -11.259   8.072  65.068  1.00  0.00     7.329 OA 
HETATM   34  C   UNL     1     -10.993   6.776  65.588  1.00  0.00     3.260 C  
ENDBRANCH  25  33
ENDBRANCH  18  19
ENDBRANCH  17  18
ENDBRANCH  16  17
ENDBRANCH  14  16
ENDBRANCH  13  14
ENDBRANCH   9  13
ENDBRANCH   2   3
TORSDOF 10
ENDMDL
MODEL      334
REMARK 921   NORMALIZED FREE ENERGY PREDICTED BY IDOCK:   33.37 KCAL/MOL
REMARK 922        TOTAL FREE ENERGY PREDICTED BY IDOCK:   50.92 KCAL/MOL
REMARK 923 INTER-LIGAND FREE ENERGY PREDICTED BY IDOCK:    5.91 KCAL/MOL
REMARK 924 INTRA-LIGAND FREE ENERGY PREDICTED BY IDOCK:   45.01 KCAL/MOL
REMARK 927      BINDING AFFINITY PREDICTED BY RF-SCORE:    0.00 PKD
ROOT
HETATM    1  C   UNL     1      -8.083  13.258  67.124  1.00  0.00    -0.088 C  
HETATM    2  O   UNL     1      -7.083  13.667  68.052  1.00  0.00    -0.099 OA 
ENDROOT
BRANCH   2   3
HETATM    3  C   UNL     1      -6.835  15.011  68.170  1.00  0.00    -0.131 A  
HETATM    4  C   UNL     1      -6.965  15.812  69.337  1.00  0.00    -0.202 A  
HETATM    5  C   UNL     1      -6.397  15.598  66.951  1.00  0.00     0.459 A  
HETATM    6  C   UNL     1      -6.727  17.184  69.253  1.00  0.00    -0.228 A  
HETATM    7  C   UNL     1      -6.153  16.958  66.931  1.00  0.00    -0.224 A  
HETATM    8  C   UNL     1      -6.397  17.711  68.036  1.00  0.00    -0.166 A  
HETATM    9  C   UNL     1      -6.138  19.037  67.365  1.00  0.00    -0.178 C  
HETATM   10  C   UNL     1      -5.601  18.139  66.163  1.00  0.00    -0.212 C  
BRANCH   4  11
HETATM   11  O   UNL     1      -7.281  15.240  70.540  1.00  0.00     0.245 OA 
HETATM   12  C   UNL     1      -6.670  15.815  71.694  1.00  0.00     2.785 C  
ENDBRANCH   4  11
BRANCH   9  13
HETATM   13  C   UNL     1      -5.378  19.906  68.377  1.00  0.00    -0.197 C  
BRANCH  13  14
HETATM   14  N   UNL     1      -5.658  19.699  69.799  1.00  0.00    -0.228 NA 
HETATM   15  C   UNL     1      -5.452  20.910  70.574  1.00  0.00    -0.110 C  
BRANCH  14  16
HETATM   16  C   UNL     1      -6.905  18.969  70.059  1.00  0.00     0.220 C  
BRANCH  16  17
HETATM   17  C   UNL     1      -8.106  19.908  70.136  1.00  0.00     1.003 C  
BRANCH  17  18
HETATM   18  C   UNL     1      -9.103  19.716  68.985  1.00  0.00    -0.161 C  
BRANCH  18  19
HETATM   19  N   UNL     1      -9.517  18.312  68.931  1.00  0.00    -0.265 N  
HETATM   20  C   UNL     1     -10.949  18.036  68.977  1.00  0.00     0.825 C  
HETATM   21  C   UNL     1     -11.324  17.160  70.160  1.00  0.00     1.005 C  
HETATM   22  C   UNL     1     -11.203  15.723  69.736  1.00  0.00    -0.330 A  
HETATM   23  C   UNL     1     -12.360  14.933  69.718  1.00  0.00    -0.283 A  
HETATM   24  C   UNL     1     -12.325  13.609  69.282  1.00  0.00    -0.116 A  
HETATM   25  C   UNL     1     -11.106  13.060  68.849  1.00  0.00    -0.262 A  
HETATM   26  O   UNL     1      -7.566  17.583  67.989  1.00  0.00    -0.207 OA 
HETATM   27  C   UNL     1      -8.586  17.327  68.635  1.00  0.00    -0.265 C  
HETATM   28  C   UNL     1      -9.949  13.855  68.863  1.00  0.00    -0.077 A  
HETATM   29  C   UNL     1      -8.702  15.992  69.364  1.00  0.00    -0.153 C  
HETATM   30  C   UNL     1      -9.984  15.195  69.292  1.00  0.00    -0.243 A  
BRANCH  24  31
HETATM   31  O   UNL     1     -13.441  12.811  69.214  1.00  0.00     2.515 OA 
HETATM   32  C   UNL     1     -13.317  11.503  69.761  1.00  0.00     1.722 C  
ENDBRANCH  24  31
BRANCH  25  33
HETATM   33  O   UNL     1     -11.143  11.749  68.441  1.00  0.00    -0.204 OA 
HETATM   34  C   UNL     1     -10.623  11.447  67.154  1.00  0.00    -0.243 C  
ENDBRANCH  25  33
ENDBRANCH  18  19
ENDBRANCH  17  18
ENDBRANCH  16  17
ENDBRANCH  14  16
ENDBRANCH  13  14
ENDBRANCH   9  13
ENDBRANCH   2   3
TORSDOF 10
ENDMDL
MODEL      335
REMARK 921   NORMALIZED FREE ENERGY PREDICTED BY IDOCK:   34.66 KCAL/MOL
REMARK 922        TOTAL FREE ENERGY PREDICTED BY IDOCK:   52.96 KCAL/MOL
REMARK 923 INTER-LIGAND FREE ENERGY PREDICTED BY IDOCK:   11.93 KCAL/MOL
REMARK 924 INTRA-LIGAND FREE ENERGY PREDICTED BY IDOCK:   41.03 KCAL/MOL
REMARK 927      BINDING AFFINITY PREDICTED BY RF-SCORE:    0.00 PKD
ROOT
HETATM    1  C   UNL     1      -9.159  21.008  72.189  1.00  0.00     3.124 C  
HETATM    2  O   UNL     1      -7.912  20.326  72.096  1.00  0.00     1.152 OA 
ENDROOT
BRANCH   2   3
HETATM    3  C   UNL     1      -7.780  19.372  71.119  1.00  0.00     2.765 A  
HETATM    4  C   UNL     1      -8.812  18.805  70.323  1.00  0.00     2.271 A  
HETATM    5  C   UNL     1      -6.432  18.960  70.931  1.00  0.00     0.849 A  
HETATM    6  C   UNL     1      -8.498  17.795  69.414  1.00  0.00     0.469 A  
HETATM    7  C   UNL     1      -6.174  17.973  69.999  1.00  0.00    -0.037 A  
HETATM    8  C   UNL     1      -7.200  17.373  69.339  1.00  0.00    -0.001 A  
HETATM    9  C   UNL     1      -6.345  16.330  68.663  1.00  0.00    -0.124 C  
HETATM   10  C   UNL     1      -5.131  17.197  69.226  1.00  0.00    -0.138 C  
BRANCH   4  11
HETATM   11  O   UNL     1     -10.097  19.270  70.419  1.00  0.00     0.679 OA 
HETATM   12  C   UNL     1     -10.769  19.022  71.652  1.00  0.00     3.616 C  
ENDBRANCH   4  11
BRANCH   9  13
HETATM   13  C   UNL     1      -6.881  16.175  67.234  1.00  0.00    -0.201 C  
BRANCH  13  14
HETATM   14  N   UNL     1      -7.051  17.390  66.434  1.00  0.00    -0.264 NA 
HETATM   15  C   UNL     1      -8.378  17.472  65.849  1.00  0.00     0.037 C  
BRANCH  14  16
HETATM   16  C   UNL     1      -6.556  18.607  67.090  1.00  0.00    -0.195 C  
BRANCH  16  17
HETATM   17  C   UNL     1      -7.632  19.687  67.167  1.00  0.00    -0.282 C  
BRANCH  17  18
HETATM   18  C   UNL     1      -8.789  19.464  66.184  1.00  0.00    -0.283 C  
BRANCH  18  19
HETATM   19  N   UNL     1      -9.346  18.124  66.385  1.00  0.00    -0.289 N  
HETATM   20  C   UNL     1      -8.401  17.028  66.570  1.00  0.00    -0.278 C  
HETATM   21  C   UNL     1      -8.562  15.950  65.512  1.00  0.00     1.148 C  
HETATM   22  C   UNL     1      -9.586  14.963  66.000  1.00  0.00    -0.346 A  
HETATM   23  C   UNL     1      -9.179  13.644  66.238  1.00  0.00    -0.080 A  
HETATM   24  C   UNL     1     -10.067  12.695  66.744  1.00  0.00    -0.237 A  
HETATM   25  C   UNL     1     -11.392  13.071  67.023  1.00  0.00    -0.301 A  
HETATM   26  O   UNL     1     -11.393  18.879  67.069  1.00  0.00     0.065 OA 
HETATM   27  C   UNL     1     -10.708  17.966  66.598  1.00  0.00    -0.130 C  
HETATM   28  C   UNL     1     -11.795  14.396  66.788  1.00  0.00    -0.431 A  
HETATM   29  C   UNL     1     -11.392  16.753  65.977  1.00  0.00     0.709 C  
HETATM   30  C   UNL     1     -10.898  15.359  66.289  1.00  0.00    -0.301 A  
BRANCH  24  31
HETATM   31  O   UNL     1      -9.701  11.401  67.026  1.00  0.00    -0.187 OA 
HETATM   32  C   UNL     1      -9.355  10.585  65.912  1.00  0.00    -0.181 C  
ENDBRANCH  24  31
BRANCH  25  33
HETATM   33  O   UNL     1     -12.212  12.084  67.511  1.00  0.00    -0.490 OA 
HETATM   34  C   UNL     1     -12.118  11.776  68.895  1.00  0.00    -0.178 C  
ENDBRANCH  25  33
ENDBRANCH  18  19
ENDBRANCH  17  18
ENDBRANCH  16  17
ENDBRANCH  14  16
ENDBRANCH  13  14
ENDBRANCH   9  13
ENDBRANCH   2   3
TORSDOF 10
ENDMDL
MODEL      336
REMARK 921   NORMALIZED FREE ENERGY PREDICTED BY IDOCK:   48.27 KCAL/MOL
REMARK 922        TOTAL FREE ENERGY PREDICTED BY IDOCK:   74.53 KCAL/MOL
REMARK 923 INTER-LIGAND FREE ENERGY PREDICTED BY IDOCK:   59.21 KCAL/MOL
REMARK 924 INTRA-LIGAND FREE ENERGY PREDICTED BY IDOCK:   15.32 KCAL/MOL
REMARK 927      BINDING AFFINITY PREDICTED BY RF-SCORE:    0.00 PKD
ROOT
HETATM    1  C   UNL     1      -6.778   9.784  66.395  1.00  0.00    -0.080 C  
HETATM    2  O   UNL     1      -7.970   9.552  67.139  1.00  0.00    -0.102 OA 
ENDROOT
BRANCH   2   3
HETATM    3  C   UNL     1      -9.096  10.242  66.768  1.00  0.00    -0.143 A  
HETATM    4  C   UNL     1     -10.373  10.204  67.391  1.00  0.00    -0.238 A  
HETATM    5  C   UNL     1      -8.884  11.072  65.633  1.00  0.00    -0.187 A  
HETATM    6  C   UNL     1     -11.426  10.930  66.834  1.00  0.00     0.121 A  
HETATM    7  C   UNL     1      -9.957  11.789  65.138  1.00  0.00    -0.285 A  
HETATM    8  C   UNL     1     -11.190  11.639  65.689  1.00  0.00    -0.275 A  
HETATM    9  C   UNL     1     -11.910  12.473  64.659  1.00  0.00    -0.439 C  
HETATM   10  C   UNL     1     -10.438  12.855  64.180  1.00  0.00    -0.429 C  
BRANCH   4  11
HETATM   11  O   UNL     1     -10.562   9.494  68.547  1.00  0.00    -0.214 OA 
HETATM   12  C   UNL     1      -9.792   8.301  68.688  1.00  0.00    -0.176 C  
ENDBRANCH   4  11
BRANCH   9  13
HETATM   13  C   UNL     1     -12.959  13.301  65.412  1.00  0.00    -0.102 C  
BRANCH  13  14
HETATM   14  N   UNL     1     -12.700  14.731  65.591  1.00  0.00     0.004 NA 
HETATM   15  C   UNL     1     -13.613  15.332  66.547  1.00  0.00     4.621 C  
BRANCH  14  16
HETATM   16  C   UNL     1     -11.279  15.060  65.759  1.00  0.00    -0.318 C  
BRANCH  16  17
HETATM   17  C   UNL     1     -10.498  14.884  64.459  1.00  0.00     0.075 C  
BRANCH  17  18
HETATM   18  C   UNL     1      -9.004  15.204  64.599  1.00  0.00     4.279 C  
BRANCH  18  19
HETATM   19  N   UNL     1      -8.743  15.726  65.943  1.00  0.00    -0.145 N  
HETATM   20  C   UNL     1      -9.509  15.151  67.043  1.00  0.00    -0.226 C  
HETATM   21  C   UNL     1     -10.327  16.198  67.779  1.00  0.00    -0.283 C  
HETATM   22  C   UNL     1      -9.471  16.784  68.867  1.00  0.00    -0.246 A  
HETATM   23  C   UNL     1      -9.863  16.597  70.198  1.00  0.00     0.856 A  
HETATM   24  C   UNL     1      -9.084  17.066  71.255  1.00  0.00     7.244 A  
HETATM   25  C   UNL     1      -7.880  17.736  70.976  1.00  0.00     6.231 A  
HETATM   26  O   UNL     1      -6.678  16.555  65.419  1.00  0.00     1.706 OA 
HETATM   27  C   UNL     1      -7.666  16.573  66.159  1.00  0.00    -0.031 C  
HETATM   28  C   UNL     1      -7.486  17.918  69.641  1.00  0.00     0.500 A  
HETATM   29  C   UNL     1      -7.844  17.719  67.150  1.00  0.00    -0.229 C  
HETATM   30  C   UNL     1      -8.265  17.434  68.573  1.00  0.00    -0.268 A  
BRANCH  24  31
HETATM   31  O   UNL     1      -9.413  16.873  72.574  1.00  0.00     9.386 OA 
HETATM   32  C   UNL     1      -9.264  17.998  73.434  1.00  0.00    11.982 C  
ENDBRANCH  24  31
BRANCH  25  33
HETATM   33  O   UNL     1      -7.167  18.178  72.063  1.00  0.00     5.785 OA 
HETATM   34  C   UNL     1      -7.859  18.292  73.300  1.00  0.00    10.830 C  
ENDBRANCH  25  33
ENDBRANCH  18  19
ENDBRANCH  17  18
ENDBRANCH  16  17
ENDBRANCH  14  16
ENDBRANCH  13  14
ENDBRANCH   9  13
ENDBRANCH   2   3
TORSDOF 10
ENDMDL
MODEL      337
REMARK 921   NORMALIZED FREE ENERGY PREDICTED BY IDOCK:   58.32 KCAL/MOL
REMARK 922        TOTAL FREE ENERGY PREDICTED BY IDOCK:   90.46 KCAL/MOL
REMARK 923 INTER-LIGAND FREE ENERGY PREDICTED BY IDOCK:    1.50 KCAL/MOL
REMARK 924 INTRA-LIGAND FREE ENERGY PREDICTED BY IDOCK:   88.96 KCAL/MOL
REMARK 927      BINDING AFFINITY PREDICTED BY RF-SCORE:    0.00 PKD
ROOT
HETATM    1  C   UNL     1     -13.059   6.300  71.392  1.00  0.00     0.696 C  
HETATM    2  O   UNL     1     -12.409   5.033  71.371  1.00  0.00     2.248 OA 
ENDROOT
BRANCH   2   3
HETATM    3  C   UNL     1     -11.053   5.010  71.573  1.00  0.00     0.253 A  
HETATM    4  C   UNL     1     -10.255   3.893  71.942  1.00  0.00    -0.073 A  
HETATM    5  C   UNL     1     -10.444   6.278  71.362  1.00  0.00    -0.264 A  
HETATM    6  C   UNL     1      -8.890   4.072  72.165  1.00  0.00    -0.129 A  
HETATM    7  C   UNL     1      -9.083   6.393  71.573  1.00  0.00    -0.144 A  
HETATM    8  C   UNL     1      -8.372   5.331  72.037  1.00  0.00    -0.122 A  
HETATM    9  C   UNL     1      -7.086   6.094  72.230  1.00  0.00    -0.084 C  
HETATM   10  C   UNL     1      -7.846   7.253  71.444  1.00  0.00    -0.096 C  
BRANCH   4  11
HETATM   11  O   UNL     1     -10.811   2.645  72.043  1.00  0.00     0.355 OA 
HETATM   12  C   UNL     1      -9.917   1.542  71.906  1.00  0.00    -0.140 C  
ENDBRANCH   4  11
BRANCH   9  13
HETATM   13  C   UNL     1      -5.948   5.166  71.783  1.00  0.00    -0.025 C  
BRANCH  13  14
HETATM   14  N   UNL     1      -6.310   3.933  71.081  1.00  0.00    -0.018 NA 
HETATM   15  C   UNL     1      -5.480   3.713  69.909  1.00  0.00    -0.016 C  
BRANCH  14  16
HETATM   16  C   UNL     1      -6.496   2.778  71.968  1.00  0.00    -0.015 C  
BRANCH  16  17
HETATM   17  C   UNL     1      -7.895   2.750  72.578  1.00  0.00    -0.055 C  
BRANCH  17  18
HETATM   18  C   UNL     1      -8.820   3.844  72.028  1.00  0.00    -0.101 C  
BRANCH  18  19
HETATM   19  N   UNL     1      -8.602   3.983  70.586  1.00  0.00    -0.070 N  
HETATM   20  C   UNL     1      -7.456   3.287  70.013  1.00  0.00    -0.044 C  
HETATM   21  C   UNL     1      -6.487   4.241  69.335  1.00  0.00    -0.033 C  
HETATM   22  C   UNL     1      -6.920   4.412  67.906  1.00  0.00    -0.056 A  
HETATM   23  C   UNL     1      -6.059   3.976  66.891  1.00  0.00    -0.028 A  
HETATM   24  C   UNL     1      -6.425   4.055  65.548  1.00  0.00    -0.036 A  
HETATM   25  C   UNL     1      -7.684   4.579  65.208  1.00  0.00    -0.086 A  
HETATM   26  O   UNL     1     -10.760   4.587  70.134  1.00  0.00     0.329 OA 
HETATM   27  C   UNL     1      -9.573   4.579  69.795  1.00  0.00    -0.199 C  
HETATM   28  C   UNL     1      -8.547   5.012  66.227  1.00  0.00    -0.113 A  
HETATM   29  C   UNL     1      -9.112   5.469  68.645  1.00  0.00    -0.128 C  
HETATM   30  C   UNL     1      -8.185   4.922  67.584  1.00  0.00    -0.105 A  
BRANCH  24  31
HETATM   31  O   UNL     1      -5.626   3.606  64.525  1.00  0.00    -0.013 OA 
HETATM   32  C   UNL     1      -5.836   2.263  64.102  1.00  0.00    -0.013 C  
ENDBRANCH  24  31
BRANCH  25  33
HETATM   33  O   UNL     1      -7.974   4.635  63.868  1.00  0.00    -0.087 OA 
HETATM   34  C   UNL     1      -8.786   3.601  63.327  1.00  0.00    -0.095 C  
ENDBRANCH  25  33
ENDBRANCH  18  19
ENDBRANCH  17  18
ENDBRANCH  16  17
ENDBRANCH  14  16
ENDBRANCH  13  14
ENDBRANCH   9  13
ENDBRANCH   2   3
TORSDOF 10
ENDMDL
MODEL      338
REMARK 921   NORMALIZED FREE ENERGY PREDICTED BY IDOCK:   59.02 KCAL/MOL
REMARK 922        TOTAL FREE ENERGY PREDICTED BY IDOCK:   91.55 KCAL/MOL
REMARK 923 INTER-LIGAND FREE ENERGY PREDICTED BY IDOCK:   87.99 KCAL/MOL
REMARK 924 INTRA-LIGAND FREE ENERGY PREDICTED BY IDOCK:    3.56 KCAL/MOL
REMARK 927      BINDING AFFINITY PREDICTED BY RF-SCORE:    0.00 PKD
ROOT
HETATM    1  C   UNL     1      -9.758  15.226  71.079  1.00  0.00     1.604 C  
HETATM    2  O   UNL     1      -9.609  14.264  72.119  1.00  0.00     5.117 OA 
ENDROOT
BRANCH   2   3
HETATM    3  C   UNL     1      -9.651  12.938  71.770  1.00  0.00    15.804 A  
HETATM    4  C   UNL     1      -8.745  11.915  72.162  1.00  0.00    19.648 A  
HETATM    5  C   UNL     1     -10.754  12.625  70.929  1.00  0.00     4.008 A  
HETATM    6  C   UNL     1      -8.910  10.626  71.656  1.00  0.00     6.789 A  
HETATM    7  C   UNL     1     -10.883  11.326  70.476  1.00  0.00     0.953 A  
HETATM    8  C   UNL     1      -9.934  10.401  70.778  1.00  0.00     0.994 A  
HETATM    9  C   UNL     1     -10.504   9.317  69.897  1.00  0.00    -0.247 C  
HETATM   10  C   UNL     1     -11.744  10.310  69.760  1.00  0.00    -0.261 C  
BRANCH   4  11
HETATM   11  O   UNL     1      -7.742  12.181  73.057  1.00  0.00    13.762 OA 
HETATM   12  C   UNL     1      -7.340  11.098  73.894  1.00  0.00     9.190 C  
ENDBRANCH   4  11
BRANCH   9  13
HETATM   13  C   UNL     1     -10.365   7.998  70.669  1.00  0.00    -0.202 C  
BRANCH  13  14
HETATM   14  N   UNL     1      -9.676   6.890  70.006  1.00  0.00    -0.167 NA 
HETATM   15  C   UNL     1     -10.587   6.082  69.214  1.00  0.00    -0.299 C  
BRANCH  14  16
HETATM   16  C   UNL     1      -8.419   7.278  69.352  1.00  0.00    -0.133 C  
BRANCH  16  17
HETATM   17  C   UNL     1      -7.565   8.170  70.248  1.00  0.00    -0.080 C  
BRANCH  17  18
HETATM   18  C   UNL     1      -6.413   8.856  69.502  1.00  0.00    -0.043 C  
BRANCH  18  19
HETATM   19  N   UNL     1      -6.960   9.723  68.455  1.00  0.00    -0.063 N  
HETATM   20  C   UNL     1      -7.769  10.859  68.883  1.00  0.00    -0.135 C  
HETATM   21  C   UNL     1      -9.175  10.807  68.312  1.00  0.00    -0.157 C  
HETATM   22  C   UNL     1      -9.166  11.496  66.976  1.00  0.00    -0.180 A  
HETATM   23  C   UNL     1      -9.931  12.659  66.821  1.00  0.00    -0.237 A  
HETATM   24  C   UNL     1      -9.921  13.376  65.625  1.00  0.00    -0.235 A  
HETATM   25  C   UNL     1      -9.124  12.925  64.559  1.00  0.00     1.514 A  
HETATM   26  O   UNL     1      -5.437   9.083  66.875  1.00  0.00    -0.039 OA 
HETATM   27  C   UNL     1      -6.538   9.572  67.142  1.00  0.00    -0.071 C  
HETATM   28  C   UNL     1      -8.355  11.761  64.719  1.00  0.00     1.228 A  
HETATM   29  C   UNL     1      -7.571   9.754  66.034  1.00  0.00    -0.102 C  
HETATM   30  C   UNL     1      -8.354  11.042  65.929  1.00  0.00    -0.119 A  
BRANCH  24  31
HETATM   31  O   UNL     1     -10.628  14.540  65.442  1.00  0.00    -0.322 OA 
HETATM   32  C   UNL     1     -10.798  15.363  66.590  1.00  0.00    -0.302 C  
ENDBRANCH  24  31
BRANCH  25  33
HETATM   33  O   UNL     1      -9.170  13.674  63.409  1.00  0.00     3.769 OA 
HETATM   34  C   UNL     1     -10.012  13.217  62.360  1.00  0.00     7.005 C  
ENDBRANCH  25  33
ENDBRANCH  18  19
ENDBRANCH  17  18
ENDBRANCH  16  17
ENDBRANCH  14  16
ENDBRANCH  13  14
ENDBRANCH   9  13
ENDBRANCH   2   3
TORSDOF 10
ENDMDL
MODEL      339
REMARK 921   NORMALIZED FREE ENERGY PREDICTED BY IDOCK:   60.04 KCAL/MOL
REMARK 922        TOTAL FREE ENERGY PREDICTED BY IDOCK:   93.18 KCAL/MOL
REMARK 923 INTER-LIGAND FREE ENERGY PREDICTED BY IDOCK:   58.29 KCAL/MOL
REMARK 924 INTRA-LIGAND FREE ENERGY PREDICTED BY IDOCK:   34.88 KCAL/MOL
REMARK 927      BINDING AFFINITY PREDICTED BY RF-SCORE:    0.00 PKD
ROOT
HETATM    1  C   UNL     1      -9.211  20.985  72.330  1.00  0.00     3.375 C  
HETATM    2  O   UNL     1      -8.062  20.192  72.616  1.00  0.00     1.839 OA 
ENDROOT
BRANCH   2   3
HETATM    3  C   UNL     1      -7.955  18.979  71.987  1.00  0.00     6.751 A  
HETATM    4  C   UNL     1      -8.943  18.324  71.203  1.00  0.00     7.022 A  
HETATM    5  C   UNL     1      -6.683  18.371  72.177  1.00  0.00     4.120 A  
HETATM    6  C   UNL     1      -8.676  17.055  70.687  1.00  0.00     4.437 A  
HETATM    7  C   UNL     1      -6.464  17.124  71.624  1.00  0.00     3.557 A  
HETATM    8  C   UNL     1      -7.471  16.479  70.978  1.00  0.00     4.276 A  
HETATM    9  C   UNL     1      -6.717  15.186  70.792  1.00  0.00     0.456 C  
HETATM   10  C   UNL     1      -5.468  16.031  71.307  1.00  0.00     0.162 C  
BRANCH   4  11
HETATM   11  O   UNL     1     -10.131  18.946  70.922  1.00  0.00     1.708 OA 
HETATM   12  C   UNL     1     -10.987  19.204  72.034  1.00  0.00     4.631 C  
ENDBRANCH   4  11
BRANCH   9  13
HETATM   13  C   UNL     1      -7.060  14.669  69.389  1.00  0.00    -0.157 C  
BRANCH  13  14
HETATM   14  N   UNL     1      -6.818  15.563  68.255  1.00  0.00    -0.111 NA 
HETATM   15  C   UNL     1      -7.965  16.412  67.980  1.00  0.00    -0.156 C  
BRANCH  14  16
HETATM   16  C   UNL     1      -5.512  16.233  68.295  1.00  0.00    -0.108 C  
BRANCH  16  17
HETATM   17  C   UNL     1      -5.579  17.642  67.712  1.00  0.00    -0.142 C  
BRANCH  17  18
HETATM   18  C   UNL     1      -6.159  17.685  66.292  1.00  0.00    -0.226 C  
BRANCH  18  19
HETATM   19  N   UNL     1      -7.385  16.885  66.243  1.00  0.00    -0.263 N  
HETATM   20  C   UNL     1      -7.799  16.221  67.474  1.00  0.00    -0.146 C  
HETATM   21  C   UNL     1      -7.887  14.714  67.309  1.00  0.00    -0.213 C  
HETATM   22  C   UNL     1      -9.269  14.374  66.826  1.00  0.00    -0.287 A  
HETATM   23  C   UNL     1     -10.092  13.598  67.652  1.00  0.00    -0.242 A  
HETATM   24  C   UNL     1     -11.403  13.295  67.288  1.00  0.00    -0.314 A  
HETATM   25  C   UNL     1     -11.908  13.782  66.070  1.00  0.00    -0.390 A  
HETATM   26  O   UNL     1      -8.215  17.938  64.391  1.00  0.00     5.161 OA 
HETATM   27  C   UNL     1      -8.206  16.947  65.127  1.00  0.00     2.984 C  
HETATM   28  C   UNL     1     -11.083  14.564  65.245  1.00  0.00    -0.355 A  
HETATM   29  C   UNL     1      -8.884  15.660  64.666  1.00  0.00     5.018 C  
HETATM   30  C   UNL     1      -9.763  14.881  65.617  1.00  0.00    -0.326 A  
BRANCH  24  31
HETATM   31  O   UNL     1     -12.255  12.568  68.084  1.00  0.00    -0.270 OA 
HETATM   32  C   UNL     1     -11.694  12.014  69.269  1.00  0.00    -0.330 C  
ENDBRANCH  24  31
BRANCH  25  33
HETATM   33  O   UNL     1     -13.203  13.439  65.771  1.00  0.00    -0.289 OA 
HETATM   34  C   UNL     1     -14.241  14.190  66.385  1.00  0.00     7.122 C  
ENDBRANCH  25  33
ENDBRANCH  18  19
ENDBRANCH  17  18
ENDBRANCH  16  17
ENDBRANCH  14  16
ENDBRANCH  13  14
ENDBRANCH   9  13
ENDBRANCH   2   3
TORSDOF 10
ENDMDL
