MODEL        1
REMARK 921   NORMALIZED FREE ENERGY PREDICTED BY IDOCK:   -8.12 KCAL/MOL
REMARK 922        TOTAL FREE ENERGY PREDICTED BY IDOCK:  -11.19 KCAL/MOL
REMARK 923 INTER-LIGAND FREE ENERGY PREDICTED BY IDOCK:  -10.02 KCAL/MOL
REMARK 924 INTRA-LIGAND FREE ENERGY PREDICTED BY IDOCK:   -1.17 KCAL/MOL
REMARK 927      BINDING AFFINITY PREDICTED BY RF-SCORE:    0.00 PKD
ROOT
HETATM    1  C   UNL     1     -13.838  13.396  72.488  1.00  0.00    -0.595 C  
HETATM    2  C   UNL     1     -12.764  13.830  71.463  1.00  0.00    -0.432 C  
HETATM    3  C   UNL     1     -13.444  14.861  70.504  1.00  0.00    -0.047 C  
HETATM    4  C   UNL     1     -11.696  14.666  72.185  1.00  0.00    -0.098 C  
ENDROOT
BRANCH   2   5
HETATM    5  C   UNL     1     -12.268  12.521  70.766  1.00  0.00    -0.332 A  
HETATM    6  C   UNL     1     -12.691  11.306  71.387  1.00  0.00    -0.501 A  
HETATM    7  C   UNL     1     -12.271  10.001  71.046  1.00  0.00    -0.462 A  
HETATM    8  H   UNL     1     -10.187   8.742  68.779  1.00  0.00     0.000 HD 
HETATM    9  C   UNL     1     -11.370   9.931  69.992  1.00  0.00    -0.249 A  
HETATM   10  C   UNL     1     -11.363  12.380  69.681  1.00  0.00    -0.123 A  
HETATM   11  O   UNL     1     -10.804   8.790  69.500  1.00  0.00    -0.222 OA 
HETATM   12  C   UNL     1     -10.941  11.084  69.334  1.00  0.00    -0.301 A  
BRANCH   7  13
HETATM   13  C   UNL     1     -12.782   8.788  71.848  1.00  0.00    -0.427 C  
HETATM   14  C   UNL     1     -11.620   8.116  72.609  1.00  0.00    -0.441 C  
HETATM   15  C   UNL     1     -13.900   9.219  72.823  1.00  0.00    -0.241 C  
HETATM   16  C   UNL     1     -13.412   7.677  70.962  1.00  0.00    -0.070 C  
ENDBRANCH   7  13
BRANCH  10  17
HETATM   17  N   UNL     1     -10.853  13.473  68.928  1.00  0.00    -0.294 N  
HETATM   18  C   UNL     1     -11.340  13.965  67.716  1.00  0.00    -0.308 C  
HETATM   19  H   UNL     1     -10.040  13.951  69.318  1.00  0.00     0.000 HD 
HETATM   20  O   UNL     1     -12.274  13.523  67.052  1.00  0.00    -0.372 OA 
BRANCH  18  21
HETATM   21  C   UNL     1     -10.707  15.225  67.249  1.00  0.00    -0.311 C  
HETATM   22  C   UNL     1     -10.779  15.610  65.956  1.00  0.00    -0.317 C  
HETATM   23  N   UNL     1     -10.377  16.843  65.473  1.00  0.00    -0.614 NA 
HETATM   24  C   UNL     1     -10.240  17.903  66.389  1.00  0.00    -0.372 A  
HETATM   25  C   UNL     1     -10.203  19.237  66.000  1.00  0.00    -0.512 A  
HETATM   26  C   UNL     1     -10.124  20.249  66.966  1.00  0.00    -0.567 A  
HETATM   27  C   UNL     1     -10.050  19.940  68.326  1.00  0.00    -0.571 A  
HETATM   28  C   UNL     1     -10.020  18.613  68.727  1.00  0.00    -0.427 A  
HETATM   29  C   UNL     1     -10.100  17.615  67.755  1.00  0.00    -0.338 A  
HETATM   30  C   UNL     1     -10.083  16.204  68.160  1.00  0.00    -0.237 C  
HETATM   31  O   UNL     1      -9.600  15.873  69.235  1.00  0.00    -0.238 OA 
ENDBRANCH  18  21
ENDBRANCH  10  17
ENDBRANCH   2   5
TORSDOF 4
ENDMDL
MODEL        2
REMARK 921   NORMALIZED FREE ENERGY PREDICTED BY IDOCK:   -7.97 KCAL/MOL
REMARK 922        TOTAL FREE ENERGY PREDICTED BY IDOCK:  -11.00 KCAL/MOL
REMARK 923 INTER-LIGAND FREE ENERGY PREDICTED BY IDOCK:   -9.91 KCAL/MOL
REMARK 924 INTRA-LIGAND FREE ENERGY PREDICTED BY IDOCK:   -1.09 KCAL/MOL
REMARK 927      BINDING AFFINITY PREDICTED BY RF-SCORE:    0.00 PKD
ROOT
HETATM    1  C   UNL     1      -9.536   8.597  67.561  1.00  0.00    -0.196 C  
HETATM    2  C   UNL     1      -9.681  10.134  67.463  1.00  0.00    -0.190 C  
HETATM    3  C   UNL     1      -8.233  10.722  67.413  1.00  0.00    -0.116 C  
HETATM    4  C   UNL     1     -10.259  10.493  66.086  1.00  0.00    -0.299 C  
ENDROOT
BRANCH   2   5
HETATM    5  C   UNL     1     -10.521  10.576  68.706  1.00  0.00    -0.216 A  
HETATM    6  C   UNL     1     -11.001   9.507  69.524  1.00  0.00    -0.217 A  
HETATM    7  C   UNL     1     -11.893   9.622  70.614  1.00  0.00    -0.331 A  
HETATM    8  H   UNL     1     -13.473  12.160  72.073  1.00  0.00     0.000 HD 
HETATM    9  C   UNL     1     -12.310  10.916  70.896  1.00  0.00    -0.400 A  
HETATM   10  C   UNL     1     -10.968  11.876  69.060  1.00  0.00    -0.219 A  
HETATM   11  O   UNL     1     -13.187  11.275  71.880  1.00  0.00    -0.482 OA 
HETATM   12  C   UNL     1     -11.855  11.999  70.145  1.00  0.00    -0.383 A  
BRANCH   7  13
HETATM   13  C   UNL     1     -12.360   8.362  71.369  1.00  0.00    -0.328 C  
HETATM   14  C   UNL     1     -13.886   8.404  71.596  1.00  0.00    -0.428 C  
HETATM   15  C   UNL     1     -11.955   7.089  70.595  1.00  0.00    -0.361 C  
HETATM   16  C   UNL     1     -11.722   8.209  72.778  1.00  0.00    -0.334 C  
ENDBRANCH   7  13
BRANCH  10  17
HETATM   17  N   UNL     1     -10.577  13.060  68.378  1.00  0.00    -0.246 N  
HETATM   18  C   UNL     1     -11.302  13.758  67.410  1.00  0.00    -0.324 C  
HETATM   19  H   UNL     1      -9.664  13.443  68.624  1.00  0.00     0.000 HD 
HETATM   20  O   UNL     1     -12.394  13.459  66.936  1.00  0.00    -0.328 OA 
BRANCH  18  21
HETATM   21  C   UNL     1     -10.712  15.057  66.998  1.00  0.00    -0.304 C  
HETATM   22  C   UNL     1     -10.826  15.510  65.731  1.00  0.00    -0.331 C  
HETATM   23  N   UNL     1     -10.467  16.778  65.306  1.00  0.00    -0.662 NA 
HETATM   24  C   UNL     1     -10.331  17.789  66.276  1.00  0.00    -0.358 A  
HETATM   25  C   UNL     1     -10.337  19.143  65.961  1.00  0.00    -0.538 A  
HETATM   26  C   UNL     1     -10.257  20.102  66.979  1.00  0.00    -0.558 A  
HETATM   27  C   UNL     1     -10.141  19.721  68.318  1.00  0.00    -0.575 A  
HETATM   28  C   UNL     1     -10.068  18.375  68.644  1.00  0.00    -0.407 A  
HETATM   29  C   UNL     1     -10.149  17.431  67.621  1.00  0.00    -0.327 A  
HETATM   30  C   UNL     1     -10.088  16.001  67.946  1.00  0.00    -0.241 C  
HETATM   31  O   UNL     1      -9.569  15.624  68.989  1.00  0.00    -0.209 OA 
ENDBRANCH  18  21
ENDBRANCH  10  17
ENDBRANCH   2   5
TORSDOF 4
ENDMDL
MODEL        3
REMARK 921   NORMALIZED FREE ENERGY PREDICTED BY IDOCK:   -7.46 KCAL/MOL
REMARK 922        TOTAL FREE ENERGY PREDICTED BY IDOCK:  -10.37 KCAL/MOL
REMARK 923 INTER-LIGAND FREE ENERGY PREDICTED BY IDOCK:   -9.19 KCAL/MOL
REMARK 924 INTRA-LIGAND FREE ENERGY PREDICTED BY IDOCK:   -1.18 KCAL/MOL
REMARK 927      BINDING AFFINITY PREDICTED BY RF-SCORE:    0.00 PKD
ROOT
HETATM    1  C   UNL     1     -11.824  15.708  64.249  1.00  0.00    -0.151 C  
HETATM    2  C   UNL     1     -11.437  14.643  65.303  1.00  0.00    -0.361 C  
HETATM    3  C   UNL     1     -12.751  13.885  65.681  1.00  0.00    -0.534 C  
HETATM    4  C   UNL     1     -10.583  13.561  64.626  1.00  0.00    -0.441 C  
ENDROOT
BRANCH   2   5
HETATM    5  C   UNL     1     -10.769  15.418  66.485  1.00  0.00    -0.308 A  
HETATM    6  C   UNL     1     -10.534  16.807  66.244  1.00  0.00    -0.264 A  
HETATM    7  C   UNL     1      -9.822  17.694  67.082  1.00  0.00    -0.306 A  
HETATM    8  H   UNL     1      -8.255  17.388  70.000  1.00  0.00     0.000 HD 
HETATM    9  C   UNL     1      -9.330  17.128  68.251  1.00  0.00    -0.265 A  
HETATM   10  C   UNL     1     -10.258  14.906  67.706  1.00  0.00    -0.236 A  
HETATM   11  O   UNL     1      -8.592  17.775  69.201  1.00  0.00    -0.060 OA 
HETATM   12  C   UNL     1      -9.550  15.784  68.548  1.00  0.00    -0.204 A  
BRANCH   7  13
HETATM   13  C   UNL     1      -9.609  19.159  66.656  1.00  0.00    -0.394 C  
HETATM   14  C   UNL     1      -8.185  19.358  66.097  1.00  0.00    -0.319 C  
HETATM   15  C   UNL     1     -10.670  19.579  65.616  1.00  0.00    -0.420 C  
HETATM   16  C   UNL     1      -9.754  20.174  67.825  1.00  0.00    -0.529 C  
ENDBRANCH   7  13
BRANCH  10  17
HETATM   17  N   UNL     1     -10.416  13.558  68.128  1.00  0.00    -0.238 N  
HETATM   18  C   UNL     1      -9.481  12.525  68.028  1.00  0.00    -0.209 C  
HETATM   19  H   UNL     1     -11.313  13.318  68.550  1.00  0.00     0.000 HD 
HETATM   20  O   UNL     1      -8.363  12.577  67.522  1.00  0.00    -0.154 OA 
BRANCH  18  21
HETATM   21  C   UNL     1      -9.865  11.262  68.708  1.00  0.00    -0.194 C  
HETATM   22  C   UNL     1      -8.933  10.416  69.197  1.00  0.00    -0.179 C  
HETATM   23  N   UNL     1      -9.201   9.317  69.994  1.00  0.00    -0.192 NA 
HETATM   24  C   UNL     1     -10.441   9.264  70.659  1.00  0.00    -0.262 A  
HETATM   25  C   UNL     1     -10.681   8.428  71.743  1.00  0.00    -0.355 A  
HETATM   26  C   UNL     1     -11.919   8.465  72.398  1.00  0.00    -0.451 A  
HETATM   27  C   UNL     1     -12.938   9.314  71.961  1.00  0.00    -0.504 A  
HETATM   28  C   UNL     1     -12.737  10.107  70.841  1.00  0.00    -0.448 A  
HETATM   29  C   UNL     1     -11.500  10.061  70.198  1.00  0.00    -0.344 A  
HETATM   30  C   UNL     1     -11.262  10.902  69.020  1.00  0.00    -0.266 C  
HETATM   31  O   UNL     1     -12.202  11.315  68.352  1.00  0.00    -0.604 OA 
ENDBRANCH  18  21
ENDBRANCH  10  17
ENDBRANCH   2   5
TORSDOF 4
ENDMDL
MODEL        4
REMARK 921   NORMALIZED FREE ENERGY PREDICTED BY IDOCK:   -7.15 KCAL/MOL
REMARK 922        TOTAL FREE ENERGY PREDICTED BY IDOCK:  -10.00 KCAL/MOL
REMARK 923 INTER-LIGAND FREE ENERGY PREDICTED BY IDOCK:   -9.04 KCAL/MOL
REMARK 924 INTRA-LIGAND FREE ENERGY PREDICTED BY IDOCK:   -0.96 KCAL/MOL
REMARK 927      BINDING AFFINITY PREDICTED BY RF-SCORE:    0.00 PKD
ROOT
HETATM    1  C   UNL     1     -12.549  13.896  66.015  1.00  0.00    -0.467 C  
HETATM    2  C   UNL     1     -11.406  14.702  65.354  1.00  0.00    -0.344 C  
HETATM    3  C   UNL     1     -10.510  13.672  64.592  1.00  0.00    -0.442 C  
HETATM    4  C   UNL     1     -11.993  15.565  64.227  1.00  0.00    -0.161 C  
ENDROOT
BRANCH   2   5
HETATM    5  C   UNL     1     -10.682  15.465  66.510  1.00  0.00    -0.308 A  
HETATM    6  C   UNL     1     -10.457  16.856  66.270  1.00  0.00    -0.263 A  
HETATM    7  C   UNL     1      -9.705  17.735  67.081  1.00  0.00    -0.288 A  
HETATM    8  H   UNL     1      -8.002  17.402  69.919  1.00  0.00     0.000 HD 
HETATM    9  C   UNL     1      -9.158  17.159  68.220  1.00  0.00    -0.259 A  
HETATM   10  C   UNL     1     -10.114  14.943  67.701  1.00  0.00    -0.227 A  
HETATM   11  O   UNL     1      -8.375  17.796  69.140  1.00  0.00    -0.075 OA 
HETATM   12  C   UNL     1      -9.366  15.812  68.516  1.00  0.00    -0.198 A  
BRANCH   7  13
HETATM   13  C   UNL     1      -9.510  19.204  66.658  1.00  0.00    -0.387 C  
HETATM   14  C   UNL     1      -8.077  19.430  66.134  1.00  0.00    -0.323 C  
HETATM   15  C   UNL     1     -10.553  19.601  65.591  1.00  0.00    -0.462 C  
HETATM   16  C   UNL     1      -9.704  20.217  67.822  1.00  0.00    -0.529 C  
ENDBRANCH   7  13
BRANCH  10  17
HETATM   17  N   UNL     1     -10.254  13.591  68.118  1.00  0.00    -0.242 N  
HETATM   18  C   UNL     1      -9.278  12.592  68.092  1.00  0.00    -0.209 C  
HETATM   19  H   UNL     1     -11.170  13.320  68.475  1.00  0.00     0.000 HD 
HETATM   20  O   UNL     1      -8.129  12.683  67.668  1.00  0.00    -0.148 OA 
BRANCH  18  21
HETATM   21  C   UNL     1      -9.665  11.318  68.749  1.00  0.00    -0.184 C  
HETATM   22  C   UNL     1      -8.735  10.464  69.228  1.00  0.00    -0.150 C  
HETATM   23  N   UNL     1      -9.005   9.351  70.006  1.00  0.00    -0.194 NA 
HETATM   24  C   UNL     1     -10.247   9.288  70.665  1.00  0.00    -0.272 A  
HETATM   25  C   UNL     1     -10.491   8.435  71.735  1.00  0.00    -0.353 A  
HETATM   26  C   UNL     1     -11.732   8.461  72.387  1.00  0.00    -0.452 A  
HETATM   27  C   UNL     1     -12.749   9.318  71.960  1.00  0.00    -0.479 A  
HETATM   28  C   UNL     1     -12.544  10.130  70.854  1.00  0.00    -0.454 A  
HETATM   29  C   UNL     1     -11.305  10.093  70.215  1.00  0.00    -0.387 A  
HETATM   30  C   UNL     1     -11.063  10.954  69.051  1.00  0.00    -0.246 C  
HETATM   31  O   UNL     1     -12.000  11.378  68.387  1.00  0.00    -0.539 OA 
ENDBRANCH  18  21
ENDBRANCH  10  17
ENDBRANCH   2   5
TORSDOF 4
ENDMDL
MODEL        5
REMARK 921   NORMALIZED FREE ENERGY PREDICTED BY IDOCK:   -7.10 KCAL/MOL
REMARK 922        TOTAL FREE ENERGY PREDICTED BY IDOCK:   -9.92 KCAL/MOL
REMARK 923 INTER-LIGAND FREE ENERGY PREDICTED BY IDOCK:   -8.97 KCAL/MOL
REMARK 924 INTRA-LIGAND FREE ENERGY PREDICTED BY IDOCK:   -0.95 KCAL/MOL
REMARK 927      BINDING AFFINITY PREDICTED BY RF-SCORE:    0.00 PKD
ROOT
HETATM    1  C   UNL     1     -10.684  14.018  67.404  1.00  0.00    -0.285 C  
HETATM    2  C   UNL     1     -10.556  12.522  67.776  1.00  0.00    -0.235 C  
HETATM    3  C   UNL     1     -10.974  11.705  66.510  1.00  0.00    -0.349 C  
HETATM    4  C   UNL     1      -9.070  12.177  67.948  1.00  0.00    -0.185 C  
ENDROOT
BRANCH   2   5
HETATM    5  C   UNL     1     -11.471  12.301  69.025  1.00  0.00    -0.349 A  
HETATM    6  C   UNL     1     -11.823  13.489  69.736  1.00  0.00    -0.395 A  
HETATM    7  C   UNL     1     -12.514  13.554  70.967  1.00  0.00    -0.451 A  
HETATM    8  H   UNL     1     -13.781  11.292  73.051  1.00  0.00     0.000 HD 
HETATM    9  C   UNL     1     -12.880  12.325  71.500  1.00  0.00    -0.280 A  
HETATM   10  C   UNL     1     -11.893  11.079  69.612  1.00  0.00    -0.342 A  
HETATM   11  O   UNL     1     -13.530  12.132  72.686  1.00  0.00    -0.213 OA 
HETATM   12  C   UNL     1     -12.584  11.136  70.837  1.00  0.00    -0.483 A  
BRANCH   7  13
HETATM   13  C   UNL     1     -12.774  14.917  71.638  1.00  0.00    -0.401 C  
HETATM   14  C   UNL     1     -14.265  15.299  71.524  1.00  0.00    -0.629 C  
HETATM   15  C   UNL     1     -12.328  14.885  73.116  1.00  0.00    -0.473 C  
HETATM   16  C   UNL     1     -11.982  16.089  70.993  1.00  0.00    -0.407 C  
ENDBRANCH   7  13
BRANCH  10  17
HETATM   17  N   UNL     1     -11.657   9.801  69.037  1.00  0.00    -0.455 N  
HETATM   18  C   UNL     1     -10.552   8.972  69.242  1.00  0.00    -0.213 C  
HETATM   19  H   UNL     1     -12.375   9.450  68.403  1.00  0.00     0.000 HD 
HETATM   20  O   UNL     1      -9.559   9.208  69.925  1.00  0.00    -0.172 OA 
BRANCH  18  21
HETATM   21  C   UNL     1     -10.659   7.619  68.638  1.00  0.00    -0.161 C  
HETATM   22  C   UNL     1     -10.553   7.435  67.305  1.00  0.00    -0.323 C  
HETATM   23  N   UNL     1     -10.462   6.203  66.680  1.00  0.00    -0.218 NA 
HETATM   24  C   UNL     1     -10.077   5.092  67.454  1.00  0.00    -0.179 A  
HETATM   25  C   UNL     1      -9.605   3.911  66.895  1.00  0.00    -0.226 A  
HETATM   26  C   UNL     1      -9.182   2.862  67.722  1.00  0.00    -0.250 A  
HETATM   27  C   UNL     1      -9.253   2.970  69.113  1.00  0.00    -0.222 A  
HETATM   28  C   UNL     1      -9.783   4.117  69.685  1.00  0.00    -0.269 A  
HETATM   29  C   UNL     1     -10.200   5.153  68.850  1.00  0.00    -0.221 A  
HETATM   30  C   UNL     1     -10.750   6.381  69.436  1.00  0.00    -0.289 C  
HETATM   31  O   UNL     1     -11.229   6.370  70.563  1.00  0.00    -0.300 OA 
ENDBRANCH  18  21
ENDBRANCH  10  17
ENDBRANCH   2   5
TORSDOF 4
ENDMDL
MODEL        6
REMARK 921   NORMALIZED FREE ENERGY PREDICTED BY IDOCK:   -7.01 KCAL/MOL
REMARK 922        TOTAL FREE ENERGY PREDICTED BY IDOCK:   -9.82 KCAL/MOL
REMARK 923 INTER-LIGAND FREE ENERGY PREDICTED BY IDOCK:   -8.59 KCAL/MOL
REMARK 924 INTRA-LIGAND FREE ENERGY PREDICTED BY IDOCK:   -1.22 KCAL/MOL
REMARK 927      BINDING AFFINITY PREDICTED BY RF-SCORE:    0.00 PKD
ROOT
HETATM    1  C   UNL     1      -8.801  10.586  64.557  1.00  0.00    -0.214 C  
HETATM    2  C   UNL     1      -9.667  10.691  65.834  1.00  0.00    -0.273 C  
HETATM    3  C   UNL     1      -9.001  11.772  66.745  1.00  0.00    -0.196 C  
HETATM    4  C   UNL     1     -11.020  11.319  65.466  1.00  0.00    -0.199 C  
ENDROOT
BRANCH   2   5
HETATM    5  C   UNL     1      -9.713   9.255  66.453  1.00  0.00    -0.325 A  
HETATM    6  C   UNL     1      -8.965   8.266  65.743  1.00  0.00    -0.185 A  
HETATM    7  C   UNL     1      -8.954   6.877  66.005  1.00  0.00    -0.131 A  
HETATM    8  H   UNL     1     -10.462   4.914  68.227  1.00  0.00     0.000 HD 
HETATM    9  C   UNL     1      -9.748   6.475  67.071  1.00  0.00    -0.151 A  
HETATM   10  C   UNL     1     -10.487   8.782  67.544  1.00  0.00    -0.271 A  
HETATM   11  O   UNL     1      -9.919   5.189  67.498  1.00  0.00    -0.158 OA 
HETATM   12  C   UNL     1     -10.480   7.401  67.813  1.00  0.00    -0.298 A  
BRANCH   7  13
HETATM   13  C   UNL     1      -8.132   5.927  65.113  1.00  0.00    -0.131 C  
HETATM   14  C   UNL     1      -7.635   6.664  63.852  1.00  0.00    -0.108 C  
HETATM   15  C   UNL     1      -6.945   5.335  65.905  1.00  0.00    -0.066 C  
HETATM   16  C   UNL     1      -8.939   4.701  64.602  1.00  0.00    -0.151 C  
ENDBRANCH   7  13
BRANCH  10  17
HETATM   17  N   UNL     1     -11.274   9.622  68.379  1.00  0.00    -0.502 N  
HETATM   18  C   UNL     1     -10.996  10.011  69.691  1.00  0.00    -0.264 C  
HETATM   19  H   UNL     1     -12.139   9.980  67.974  1.00  0.00     0.000 HD 
HETATM   20  O   UNL     1     -10.041   9.669  70.384  1.00  0.00    -0.249 OA 
BRANCH  18  21
HETATM   21  C   UNL     1     -11.917  11.030  70.254  1.00  0.00    -0.452 C  
HETATM   22  C   UNL     1     -12.621  10.795  71.382  1.00  0.00    -0.410 C  
HETATM   23  N   UNL     1     -13.358  11.744  72.069  1.00  0.00    -0.438 NA 
HETATM   24  C   UNL     1     -13.079  13.103  71.830  1.00  0.00    -0.383 A  
HETATM   25  C   UNL     1     -13.474  14.118  72.693  1.00  0.00    -0.634 A  
HETATM   26  C   UNL     1     -13.114  15.446  72.428  1.00  0.00    -0.501 A  
HETATM   27  C   UNL     1     -12.383  15.778  71.286  1.00  0.00    -0.493 A  
HETATM   28  C   UNL     1     -12.037  14.786  70.381  1.00  0.00    -0.381 A  
HETATM   29  C   UNL     1     -12.401  13.468  70.657  1.00  0.00    -0.432 A  
HETATM   30  C   UNL     1     -12.032  12.401  69.719  1.00  0.00    -0.289 C  
HETATM   31  O   UNL     1     -11.795  12.661  68.546  1.00  0.00    -0.306 OA 
ENDBRANCH  18  21
ENDBRANCH  10  17
ENDBRANCH   2   5
TORSDOF 4
ENDMDL
MODEL        7
REMARK 921   NORMALIZED FREE ENERGY PREDICTED BY IDOCK:   -7.00 KCAL/MOL
REMARK 922        TOTAL FREE ENERGY PREDICTED BY IDOCK:   -9.80 KCAL/MOL
REMARK 923 INTER-LIGAND FREE ENERGY PREDICTED BY IDOCK:   -8.87 KCAL/MOL
REMARK 924 INTRA-LIGAND FREE ENERGY PREDICTED BY IDOCK:   -0.93 KCAL/MOL
REMARK 927      BINDING AFFINITY PREDICTED BY RF-SCORE:    0.00 PKD
ROOT
HETATM    1  C   UNL     1      -8.687   8.679  68.004  1.00  0.00    -0.141 C  
HETATM    2  C   UNL     1      -9.370  10.057  67.838  1.00  0.00    -0.151 C  
HETATM    3  C   UNL     1      -8.227  11.121  67.756  1.00  0.00    -0.119 C  
HETATM    4  C   UNL     1     -10.021  10.125  66.449  1.00  0.00    -0.295 C  
ENDROOT
BRANCH   2   5
HETATM    5  C   UNL     1     -10.328  10.223  69.063  1.00  0.00    -0.229 A  
HETATM    6  C   UNL     1     -10.672   9.009  69.732  1.00  0.00    -0.233 A  
HETATM    7  C   UNL     1     -11.621   8.863  70.768  1.00  0.00    -0.301 A  
HETATM    8  H   UNL     1     -13.651  10.950  72.378  1.00  0.00     0.000 HD 
HETATM    9  C   UNL     1     -12.252  10.038  71.156  1.00  0.00    -0.380 A  
HETATM   10  C   UNL     1     -10.992  11.392  69.520  1.00  0.00    -0.166 A  
HETATM   11  O   UNL     1     -13.220  10.147  72.113  1.00  0.00    -0.444 OA 
HETATM   12  C   UNL     1     -11.937  11.256  70.553  1.00  0.00    -0.467 A  
BRANCH   7  13
HETATM   13  C   UNL     1     -11.920   7.470  71.356  1.00  0.00    -0.336 C  
HETATM   14  C   UNL     1     -11.377   6.364  70.428  1.00  0.00    -0.453 C  
HETATM   15  C   UNL     1     -11.317   7.342  72.772  1.00  0.00    -0.356 C  
HETATM   16  C   UNL     1     -13.437   7.179  71.526  1.00  0.00    -0.411 C  
ENDBRANCH   7  13
BRANCH  10  17
HETATM   17  N   UNL     1     -10.760  12.691  68.993  1.00  0.00    -0.411 N  
HETATM   18  C   UNL     1     -11.353  13.265  67.866  1.00  0.00    -0.284 C  
HETATM   19  H   UNL     1     -10.085  13.270  69.493  1.00  0.00     0.000 HD 
HETATM   20  O   UNL     1     -12.155  12.742  67.097  1.00  0.00    -0.415 OA 
BRANCH  18  21
HETATM   21  C   UNL     1     -11.042  14.702  67.655  1.00  0.00    -0.311 C  
HETATM   22  C   UNL     1     -11.513  15.653  68.489  1.00  0.00    -0.375 C  
HETATM   23  N   UNL     1     -11.130  16.983  68.472  1.00  0.00    -0.246 NA 
HETATM   24  C   UNL     1      -9.923  17.319  67.829  1.00  0.00    -0.301 A  
HETATM   25  C   UNL     1      -9.259  18.519  68.051  1.00  0.00    -0.315 A  
HETATM   26  C   UNL     1      -8.031  18.769  67.424  1.00  0.00    -0.254 A  
HETATM   27  C   UNL     1      -7.468  17.837  66.549  1.00  0.00    -0.284 A  
HETATM   28  C   UNL     1      -8.150  16.662  66.267  1.00  0.00    -0.361 A  
HETATM   29  C   UNL     1      -9.371  16.426  66.898  1.00  0.00    -0.244 A  
HETATM   30  C   UNL     1     -10.102  15.183  66.624  1.00  0.00    -0.264 C  
HETATM   31  O   UNL     1      -9.899  14.560  65.590  1.00  0.00    -0.327 OA 
ENDBRANCH  18  21
ENDBRANCH  10  17
ENDBRANCH   2   5
TORSDOF 4
ENDMDL
MODEL        8
REMARK 921   NORMALIZED FREE ENERGY PREDICTED BY IDOCK:   -6.96 KCAL/MOL
REMARK 922        TOTAL FREE ENERGY PREDICTED BY IDOCK:   -9.76 KCAL/MOL
REMARK 923 INTER-LIGAND FREE ENERGY PREDICTED BY IDOCK:   -8.54 KCAL/MOL
REMARK 924 INTRA-LIGAND FREE ENERGY PREDICTED BY IDOCK:   -1.21 KCAL/MOL
REMARK 927      BINDING AFFINITY PREDICTED BY RF-SCORE:    0.00 PKD
ROOT
HETATM    1  C   UNL     1      -9.584  16.233  68.638  1.00  0.00    -0.237 C  
HETATM    2  C   UNL     1      -9.995  14.991  67.813  1.00  0.00    -0.229 C  
HETATM    3  C   UNL     1     -10.681  15.519  66.511  1.00  0.00    -0.304 C  
HETATM    4  C   UNL     1      -8.727  14.298  67.293  1.00  0.00    -0.230 C  
ENDROOT
BRANCH   2   5
HETATM    5  C   UNL     1     -10.923  14.138  68.738  1.00  0.00    -0.275 A  
HETATM    6  C   UNL     1     -11.427  14.822  69.887  1.00  0.00    -0.322 A  
HETATM    7  C   UNL     1     -12.164  14.247  70.947  1.00  0.00    -0.425 A  
HETATM    8  H   UNL     1     -13.249  11.179  71.635  1.00  0.00     0.000 HD 
HETATM    9  C   UNL     1     -12.413  12.887  70.819  1.00  0.00    -0.286 A  
HETATM   10  C   UNL     1     -11.230  12.754  68.657  1.00  0.00    -0.282 A  
HETATM   11  O   UNL     1     -13.079  12.109  71.723  1.00  0.00    -0.438 OA 
HETATM   12  C   UNL     1     -11.965  12.175  69.707  1.00  0.00    -0.372 A  
BRANCH   7  13
HETATM   13  C   UNL     1     -12.595  15.111  72.148  1.00  0.00    -0.407 C  
HETATM   14  C   UNL     1     -11.902  16.489  72.100  1.00  0.00    -0.360 C  
HETATM   15  C   UNL     1     -14.131  15.271  72.174  1.00  0.00    -0.658 C  
HETATM   16  C   UNL     1     -12.222  14.493  73.525  1.00  0.00    -0.177 C  
ENDBRANCH   7  13
BRANCH  10  17
HETATM   17  N   UNL     1     -10.835  11.918  67.577  1.00  0.00    -0.227 N  
HETATM   18  C   UNL     1     -11.383  11.878  66.293  1.00  0.00    -0.334 C  
HETATM   19  H   UNL     1     -10.065  11.275  67.761  1.00  0.00     0.000 HD 
HETATM   20  O   UNL     1     -12.334  12.528  65.867  1.00  0.00    -0.626 OA 
BRANCH  18  21
HETATM   21  C   UNL     1     -10.652  11.022  65.324  1.00  0.00    -0.283 C  
HETATM   22  C   UNL     1     -10.459  11.414  64.047  1.00  0.00    -0.378 C  
HETATM   23  N   UNL     1      -9.644  10.768  63.134  1.00  0.00    -0.322 NA 
HETATM   24  C   UNL     1      -8.664   9.885  63.626  1.00  0.00    -0.213 A  
HETATM   25  C   UNL     1      -7.575   9.469  62.870  1.00  0.00    -0.113 A  
HETATM   26  C   UNL     1      -6.602   8.634  63.438  1.00  0.00    -0.089 A  
HETATM   27  C   UNL     1      -6.722   8.185  64.755  1.00  0.00    -0.066 A  
HETATM   28  C   UNL     1      -7.835   8.539  65.502  1.00  0.00    -0.104 A  
HETATM   29  C   UNL     1      -8.796   9.369  64.925  1.00  0.00    -0.240 A  
HETATM   30  C   UNL     1      -9.975   9.767  65.703  1.00  0.00    -0.282 C  
HETATM   31  O   UNL     1     -10.348   9.090  66.653  1.00  0.00    -0.263 OA 
ENDBRANCH  18  21
ENDBRANCH  10  17
ENDBRANCH   2   5
TORSDOF 4
ENDMDL
MODEL        9
REMARK 921   NORMALIZED FREE ENERGY PREDICTED BY IDOCK:   -6.77 KCAL/MOL
REMARK 922        TOTAL FREE ENERGY PREDICTED BY IDOCK:   -9.52 KCAL/MOL
REMARK 923 INTER-LIGAND FREE ENERGY PREDICTED BY IDOCK:   -8.50 KCAL/MOL
REMARK 924 INTRA-LIGAND FREE ENERGY PREDICTED BY IDOCK:   -1.02 KCAL/MOL
REMARK 927      BINDING AFFINITY PREDICTED BY RF-SCORE:    0.00 PKD
ROOT
HETATM    1  C   UNL     1     -10.274   4.524  72.031  1.00  0.00    -0.251 C  
HETATM    2  C   UNL     1     -10.688   5.983  71.727  1.00  0.00    -0.294 C  
HETATM    3  C   UNL     1     -12.160   6.149  72.230  1.00  0.00    -0.237 C  
HETATM    4  C   UNL     1      -9.891   6.927  72.640  1.00  0.00    -0.184 C  
ENDROOT
BRANCH   2   5
HETATM    5  C   UNL     1     -10.500   6.182  70.188  1.00  0.00    -0.291 A  
HETATM    6  C   UNL     1      -9.843   5.107  69.514  1.00  0.00    -0.278 A  
HETATM    7  C   UNL     1      -9.426   5.095  68.164  1.00  0.00    -0.160 A  
HETATM    8  H   UNL     1      -9.580   7.278  65.659  1.00  0.00     0.000 HD 
HETATM    9  C   UNL     1      -9.711   6.252  67.452  1.00  0.00    -0.120 A  
HETATM   10  C   UNL     1     -10.782   7.328  69.399  1.00  0.00    -0.225 A  
HETATM   11  O   UNL     1      -9.385   6.486  66.146  1.00  0.00    -0.147 OA 
HETATM   12  C   UNL     1     -10.372   7.323  68.053  1.00  0.00    -0.243 A  
BRANCH   7  13
HETATM   13  C   UNL     1      -8.680   3.872  67.595  1.00  0.00    -0.121 C  
HETATM   14  C   UNL     1      -7.205   4.225  67.309  1.00  0.00    -0.068 C  
HETATM   15  C   UNL     1      -8.779   2.678  68.568  1.00  0.00    -0.132 C  
HETATM   16  C   UNL     1      -9.264   3.358  66.249  1.00  0.00    -0.168 C  
ENDBRANCH   7  13
BRANCH  10  17
HETATM   17  N   UNL     1     -11.450   8.482  69.889  1.00  0.00    -0.448 N  
HETATM   18  C   UNL     1     -10.871   9.680  70.311  1.00  0.00    -0.285 C  
HETATM   19  H   UNL     1     -12.468   8.429  69.939  1.00  0.00     0.000 HD 
HETATM   20  O   UNL     1      -9.674   9.948  70.377  1.00  0.00    -0.234 OA 
BRANCH  18  21
HETATM   21  C   UNL     1     -11.832  10.772  70.614  1.00  0.00    -0.460 C  
HETATM   22  C   UNL     1     -12.678  10.692  71.663  1.00  0.00    -0.426 C  
HETATM   23  N   UNL     1     -13.474  11.728  72.121  1.00  0.00    -0.349 NA 
HETATM   24  C   UNL     1     -13.135  13.042  71.745  1.00  0.00    -0.373 A  
HETATM   25  C   UNL     1     -13.612  14.164  72.411  1.00  0.00    -0.632 A  
HETATM   26  C   UNL     1     -13.190  15.443  72.025  1.00  0.00    -0.521 A  
HETATM   27  C   UNL     1     -12.312  15.617  70.952  1.00  0.00    -0.479 A  
HETATM   28  C   UNL     1     -11.877  14.512  70.236  1.00  0.00    -0.373 A  
HETATM   29  C   UNL     1     -12.305  13.244  70.631  1.00  0.00    -0.416 A  
HETATM   30  C   UNL     1     -11.846  12.060  69.895  1.00  0.00    -0.331 C  
HETATM   31  O   UNL     1     -11.456  12.162  68.739  1.00  0.00    -0.256 OA 
ENDBRANCH  18  21
ENDBRANCH  10  17
ENDBRANCH   2   5
TORSDOF 4
ENDMDL
MODEL       10
REMARK 921   NORMALIZED FREE ENERGY PREDICTED BY IDOCK:   -6.75 KCAL/MOL
REMARK 922        TOTAL FREE ENERGY PREDICTED BY IDOCK:   -9.50 KCAL/MOL
REMARK 923 INTER-LIGAND FREE ENERGY PREDICTED BY IDOCK:   -9.24 KCAL/MOL
REMARK 924 INTRA-LIGAND FREE ENERGY PREDICTED BY IDOCK:   -0.26 KCAL/MOL
REMARK 927      BINDING AFFINITY PREDICTED BY RF-SCORE:    0.00 PKD
ROOT
HETATM    1  C   UNL     1     -13.266   7.259  71.525  1.00  0.00    -0.434 C  
HETATM    2  C   UNL     1     -11.744   7.027  71.683  1.00  0.00    -0.332 C  
HETATM    3  C   UNL     1     -11.264   7.959  72.843  1.00  0.00    -0.429 C  
HETATM    4  C   UNL     1     -11.511   5.615  72.240  1.00  0.00    -0.278 C  
ENDROOT
BRANCH   2   5
HETATM    5  C   UNL     1     -11.106   7.340  70.290  1.00  0.00    -0.289 A  
HETATM    6  C   UNL     1     -10.559   6.211  69.607  1.00  0.00    -0.347 A  
HETATM    7  C   UNL     1      -9.807   6.239  68.411  1.00  0.00    -0.141 A  
HETATM    8  H   UNL     1      -8.767   8.650  66.370  1.00  0.00     0.000 HD 
HETATM    9  C   UNL     1      -9.612   7.503  67.870  1.00  0.00    -0.143 A  
HETATM   10  C   UNL     1     -10.890   8.601  69.675  1.00  0.00    -0.157 A  
HETATM   11  O   UNL     1      -8.900   7.786  66.740  1.00  0.00    -0.128 OA 
HETATM   12  C   UNL     1     -10.144   8.637  68.482  1.00  0.00    -0.211 A  
BRANCH   7  13
HETATM   13  C   UNL     1      -9.238   4.933  67.823  1.00  0.00    -0.138 C  
HETATM   14  C   UNL     1      -9.920   4.604  66.478  1.00  0.00    -0.265 C  
HETATM   15  C   UNL     1      -7.708   5.041  67.649  1.00  0.00    -0.087 C  
HETATM   16  C   UNL     1      -9.464   3.691  68.731  1.00  0.00    -0.214 C  
ENDBRANCH   7  13
BRANCH  10  17
HETATM   17  N   UNL     1     -11.380   9.830  70.194  1.00  0.00    -0.274 N  
HETATM   18  C   UNL     1     -11.943  10.887  69.477  1.00  0.00    -0.330 C  
HETATM   19  H   UNL     1     -11.312   9.953  71.205  1.00  0.00     0.000 HD 
HETATM   20  O   UNL     1     -12.084  10.972  68.260  1.00  0.00    -0.604 OA 
BRANCH  18  21
HETATM   21  C   UNL     1     -12.520  11.974  70.309  1.00  0.00    -0.176 C  
HETATM   22  C   UNL     1     -13.147  11.709  71.475  1.00  0.00    -0.302 C  
HETATM   23  N   UNL     1     -13.552  12.663  72.392  1.00  0.00    -0.481 NA 
HETATM   24  C   UNL     1     -12.966  13.942  72.324  1.00  0.00    -0.358 A  
HETATM   25  C   UNL     1     -13.008  14.848  73.376  1.00  0.00    -0.597 A  
HETATM   26  C   UNL     1     -12.355  16.083  73.267  1.00  0.00    -0.644 A  
HETATM   27  C   UNL     1     -11.678  16.437  72.096  1.00  0.00    -0.453 A  
HETATM   28  C   UNL     1     -11.682  15.571  71.014  1.00  0.00    -0.423 A  
HETATM   29  C   UNL     1     -12.336  14.345  71.136  1.00  0.00    -0.428 A  
HETATM   30  C   UNL     1     -12.340  13.407  70.007  1.00  0.00    -0.226 C  
HETATM   31  O   UNL     1     -12.160  13.811  68.865  1.00  0.00    -0.349 OA 
ENDBRANCH  18  21
ENDBRANCH  10  17
ENDBRANCH   2   5
TORSDOF 4
ENDMDL
MODEL       11
REMARK 921   NORMALIZED FREE ENERGY PREDICTED BY IDOCK:   -6.74 KCAL/MOL
REMARK 922        TOTAL FREE ENERGY PREDICTED BY IDOCK:   -9.48 KCAL/MOL
REMARK 923 INTER-LIGAND FREE ENERGY PREDICTED BY IDOCK:   -8.71 KCAL/MOL
REMARK 924 INTRA-LIGAND FREE ENERGY PREDICTED BY IDOCK:   -0.77 KCAL/MOL
REMARK 927      BINDING AFFINITY PREDICTED BY RF-SCORE:    0.00 PKD
ROOT
HETATM    1  C   UNL     1     -11.751  15.861  64.208  1.00  0.00    -0.132 C  
HETATM    2  C   UNL     1     -11.407  14.783  65.263  1.00  0.00    -0.363 C  
HETATM    3  C   UNL     1     -12.750  14.078  65.641  1.00  0.00    -0.515 C  
HETATM    4  C   UNL     1     -10.596  13.667  64.588  1.00  0.00    -0.446 C  
ENDROOT
BRANCH   2   5
HETATM    5  C   UNL     1     -10.709  15.533  66.445  1.00  0.00    -0.303 A  
HETATM    6  C   UNL     1     -10.470  16.924  66.223  1.00  0.00    -0.263 A  
HETATM    7  C   UNL     1      -9.735  17.791  67.062  1.00  0.00    -0.290 A  
HETATM    8  H   UNL     1      -8.110  17.423  69.941  1.00  0.00     0.000 HD 
HETATM    9  C   UNL     1      -9.222  17.201  68.210  1.00  0.00    -0.262 A  
HETATM   10  C   UNL     1     -10.177  14.996  67.646  1.00  0.00    -0.236 A  
HETATM   11  O   UNL     1      -8.461  17.826  69.156  1.00  0.00    -0.070 OA 
HETATM   12  C   UNL     1      -9.445  15.853  68.488  1.00  0.00    -0.209 A  
BRANCH   7  13
HETATM   13  C   UNL     1      -9.521  19.263  66.658  1.00  0.00    -0.398 C  
HETATM   14  C   UNL     1      -9.842  20.200  67.841  1.00  0.00    -0.525 C  
HETATM   15  C   UNL     1      -8.074  19.480  66.163  1.00  0.00    -0.342 C  
HETATM   16  C   UNL     1     -10.431  19.725  65.486  1.00  0.00    -0.324 C  
ENDBRANCH   7  13
BRANCH  10  17
HETATM   17  N   UNL     1     -10.335  13.641  68.046  1.00  0.00    -0.244 N  
HETATM   18  C   UNL     1     -11.384  13.095  68.788  1.00  0.00    -0.291 C  
HETATM   19  H   UNL     1      -9.599  12.995  67.759  1.00  0.00     0.000 HD 
HETATM   20  O   UNL     1     -12.345  13.688  69.270  1.00  0.00    -0.288 OA 
BRANCH  18  21
HETATM   21  C   UNL     1     -11.365  11.615  68.910  1.00  0.00    -0.328 C  
HETATM   22  C   UNL     1     -10.935  10.832  67.896  1.00  0.00    -0.289 C  
HETATM   23  N   UNL     1     -10.716   9.469  67.985  1.00  0.00    -0.234 NA 
HETATM   24  C   UNL     1     -10.556   8.904  69.265  1.00  0.00    -0.207 A  
HETATM   25  C   UNL     1      -9.983   7.655  69.472  1.00  0.00    -0.182 A  
HETATM   26  C   UNL     1      -9.798   7.173  70.775  1.00  0.00    -0.180 A  
HETATM   27  C   UNL     1     -10.210   7.920  71.882  1.00  0.00    -0.258 A  
HETATM   28  C   UNL     1     -10.842   9.139  71.690  1.00  0.00    -0.442 A  
HETATM   29  C   UNL     1     -11.019   9.607  70.388  1.00  0.00    -0.356 A  
HETATM   30  C   UNL     1     -11.674  10.901  70.164  1.00  0.00    -0.347 C  
HETATM   31  O   UNL     1     -12.417  11.376  71.013  1.00  0.00    -0.386 OA 
ENDBRANCH  18  21
ENDBRANCH  10  17
ENDBRANCH   2   5
TORSDOF 4
ENDMDL
MODEL       12
REMARK 921   NORMALIZED FREE ENERGY PREDICTED BY IDOCK:   -6.68 KCAL/MOL
REMARK 922        TOTAL FREE ENERGY PREDICTED BY IDOCK:   -9.42 KCAL/MOL
REMARK 923 INTER-LIGAND FREE ENERGY PREDICTED BY IDOCK:   -8.55 KCAL/MOL
REMARK 924 INTRA-LIGAND FREE ENERGY PREDICTED BY IDOCK:   -0.87 KCAL/MOL
REMARK 927      BINDING AFFINITY PREDICTED BY RF-SCORE:    0.00 PKD
ROOT
HETATM    1  C   UNL     1     -14.156  13.520  72.371  1.00  0.00    -0.563 C  
HETATM    2  C   UNL     1     -12.994  14.121  71.544  1.00  0.00    -0.417 C  
HETATM    3  C   UNL     1     -13.597  15.295  70.705  1.00  0.00    -0.313 C  
HETATM    4  C   UNL     1     -12.020  14.829  72.498  1.00  0.00    -0.280 C  
ENDROOT
BRANCH   2   5
HETATM    5  C   UNL     1     -12.407  12.948  70.694  1.00  0.00    -0.385 A  
HETATM    6  C   UNL     1     -12.620  11.642  71.234  1.00  0.00    -0.425 A  
HETATM    7  C   UNL     1     -12.076  10.434  70.745  1.00  0.00    -0.463 A  
HETATM    8  H   UNL     1     -10.065   9.641  68.216  1.00  0.00     0.000 HD 
HETATM    9  C   UNL     1     -11.271  10.566  69.621  1.00  0.00    -0.282 A  
HETATM   10  C   UNL     1     -11.592  13.012  69.534  1.00  0.00    -0.276 A  
HETATM   11  O   UNL     1     -10.616   9.551  68.984  1.00  0.00    -0.215 OA 
HETATM   12  C   UNL     1     -11.048  11.813  69.038  1.00  0.00    -0.301 A  
BRANCH   7  13
HETATM   13  C   UNL     1     -12.359   9.105  71.472  1.00  0.00    -0.421 C  
HETATM   14  C   UNL     1     -12.850   8.036  70.473  1.00  0.00     0.615 C  
HETATM   15  C   UNL     1     -11.098   8.619  72.219  1.00  0.00    -0.395 C  
HETATM   16  C   UNL     1     -13.465   9.215  72.559  1.00  0.00    -0.490 C  
ENDBRANCH   7  13
BRANCH  10  17
HETATM   17  N   UNL     1     -11.290  14.218  68.844  1.00  0.00    -0.257 N  
HETATM   18  C   UNL     1     -10.318  15.163  69.178  1.00  0.00    -0.249 C  
HETATM   19  H   UNL     1     -11.847  14.416  68.012  1.00  0.00     0.000 HD 
HETATM   20  O   UNL     1      -9.569  15.152  70.151  1.00  0.00    -0.032 OA 
BRANCH  18  21
HETATM   21  C   UNL     1     -10.118  16.241  68.176  1.00  0.00    -0.244 C  
HETATM   22  C   UNL     1     -10.796  17.405  68.251  1.00  0.00    -0.256 C  
HETATM   23  N   UNL     1     -10.544  18.522  67.473  1.00  0.00    -0.426 NA 
HETATM   24  C   UNL     1      -9.293  18.617  66.834  1.00  0.00    -0.304 A  
HETATM   25  C   UNL     1      -8.787  19.814  66.341  1.00  0.00    -0.428 A  
HETATM   26  C   UNL     1      -7.509  19.854  65.768  1.00  0.00    -0.330 A  
HETATM   27  C   UNL     1      -6.736  18.696  65.654  1.00  0.00    -0.309 A  
HETATM   28  C   UNL     1      -7.253  17.482  66.081  1.00  0.00    -0.343 A  
HETATM   29  C   UNL     1      -8.526  17.457  66.650  1.00  0.00    -0.291 A  
HETATM   30  C   UNL     1      -9.086  16.184  67.122  1.00  0.00    -0.203 C  
HETATM   31  O   UNL     1      -8.674  15.122  66.675  1.00  0.00    -0.262 OA 
ENDBRANCH  18  21
ENDBRANCH  10  17
ENDBRANCH   2   5
TORSDOF 4
ENDMDL
MODEL       13
REMARK 921   NORMALIZED FREE ENERGY PREDICTED BY IDOCK:   -6.66 KCAL/MOL
REMARK 922        TOTAL FREE ENERGY PREDICTED BY IDOCK:   -9.39 KCAL/MOL
REMARK 923 INTER-LIGAND FREE ENERGY PREDICTED BY IDOCK:   -8.83 KCAL/MOL
REMARK 924 INTRA-LIGAND FREE ENERGY PREDICTED BY IDOCK:   -0.56 KCAL/MOL
REMARK 927      BINDING AFFINITY PREDICTED BY RF-SCORE:    0.00 PKD
ROOT
HETATM    1  C   UNL     1     -10.046  13.593  65.274  1.00  0.00    -0.297 C  
HETATM    2  C   UNL     1     -10.866  12.372  64.794  1.00  0.00    -0.340 C  
HETATM    3  C   UNL     1     -12.337  12.601  65.270  1.00  0.00    -0.528 C  
HETATM    4  C   UNL     1     -10.975  12.417  63.263  1.00  0.00    -0.325 C  
ENDROOT
BRANCH   2   5
HETATM    5  C   UNL     1     -10.172  11.110  65.405  1.00  0.00    -0.327 A  
HETATM    6  C   UNL     1      -9.320  10.394  64.510  1.00  0.00    -0.313 A  
HETATM    7  C   UNL     1      -8.693   9.154  64.763  1.00  0.00    -0.208 A  
HETATM    8  H   UNL     1      -8.642   7.053  67.341  1.00  0.00     0.000 HD 
HETATM    9  C   UNL     1      -8.942   8.616  66.019  1.00  0.00    -0.184 A  
HETATM   10  C   UNL     1     -10.370  10.518  66.680  1.00  0.00    -0.237 A  
HETATM   11  O   UNL     1      -8.471   7.421  66.483  1.00  0.00    -0.117 OA 
HETATM   12  C   UNL     1      -9.747   9.283  66.941  1.00  0.00    -0.248 A  
BRANCH   7  13
HETATM   13  C   UNL     1      -7.840   8.479  63.671  1.00  0.00    -0.151 C  
HETATM   14  C   UNL     1      -8.286   7.017  63.462  1.00  0.00     0.100 C  
HETATM   15  C   UNL     1      -7.929   9.274  62.349  1.00  0.00    -0.129 C  
HETATM   16  C   UNL     1      -6.325   8.420  64.014  1.00  0.00    -0.071 C  
ENDBRANCH   7  13
BRANCH  10  17
HETATM   17  N   UNL     1     -11.164  11.096  67.707  1.00  0.00    -0.279 N  
HETATM   18  C   UNL     1     -10.935  11.045  69.084  1.00  0.00    -0.237 C  
HETATM   19  H   UNL     1     -11.994  11.606  67.405  1.00  0.00     0.000 HD 
HETATM   20  O   UNL     1     -10.029  10.456  69.668  1.00  0.00    -0.229 OA 
BRANCH  18  21
HETATM   21  C   UNL     1     -11.844  11.886  69.904  1.00  0.00    -0.418 C  
HETATM   22  C   UNL     1     -12.525  11.370  70.949  1.00  0.00    -0.379 C  
HETATM   23  N   UNL     1     -13.247  12.111  71.869  1.00  0.00    -0.451 NA 
HETATM   24  C   UNL     1     -12.970  13.487  71.976  1.00  0.00    -0.324 A  
HETATM   25  C   UNL     1     -13.347  14.249  73.077  1.00  0.00    -0.437 A  
HETATM   26  C   UNL     1     -12.989  15.602  73.150  1.00  0.00    -0.645 A  
HETATM   27  C   UNL     1     -12.279  16.215  72.115  1.00  0.00    -0.549 A  
HETATM   28  C   UNL     1     -11.953  15.486  70.981  1.00  0.00    -0.428 A  
HETATM   29  C   UNL     1     -12.315  14.140  70.921  1.00  0.00    -0.438 A  
HETATM   30  C   UNL     1     -11.966  13.347  69.736  1.00  0.00    -0.330 C  
HETATM   31  O   UNL     1     -11.751  13.896  68.664  1.00  0.00    -0.315 OA 
ENDBRANCH  18  21
ENDBRANCH  10  17
ENDBRANCH   2   5
TORSDOF 4
ENDMDL
MODEL       14
REMARK 921   NORMALIZED FREE ENERGY PREDICTED BY IDOCK:   -6.66 KCAL/MOL
REMARK 922        TOTAL FREE ENERGY PREDICTED BY IDOCK:   -9.39 KCAL/MOL
REMARK 923 INTER-LIGAND FREE ENERGY PREDICTED BY IDOCK:   -8.27 KCAL/MOL
REMARK 924 INTRA-LIGAND FREE ENERGY PREDICTED BY IDOCK:   -1.11 KCAL/MOL
REMARK 927      BINDING AFFINITY PREDICTED BY RF-SCORE:    0.00 PKD
ROOT
HETATM    1  C   UNL     1     -10.576  12.756  67.353  1.00  0.00    -0.241 C  
HETATM    2  C   UNL     1     -10.434  11.471  68.202  1.00  0.00    -0.216 C  
HETATM    3  C   UNL     1     -10.771  10.269  67.262  1.00  0.00    -0.323 C  
HETATM    4  C   UNL     1      -8.951  11.258  68.536  1.00  0.00    -0.166 C  
ENDROOT
BRANCH   2   5
HETATM    5  C   UNL     1     -11.404  11.639  69.417  1.00  0.00    -0.342 A  
HETATM    6  C   UNL     1     -11.809  12.982  69.689  1.00  0.00    -0.385 A  
HETATM    7  C   UNL     1     -12.559  13.422  70.803  1.00  0.00    -0.369 A  
HETATM    8  H   UNL     1     -13.887  11.919  73.456  1.00  0.00     0.000 HD 
HETATM    9  C   UNL     1     -12.931  12.422  71.691  1.00  0.00    -0.305 A  
HETATM   10  C   UNL     1     -11.834  10.661  70.352  1.00  0.00    -0.349 A  
HETATM   11  O   UNL     1     -13.633  12.603  72.849  1.00  0.00    -0.260 OA 
HETATM   12  C   UNL     1     -12.583  11.091  71.463  1.00  0.00    -0.461 A  
BRANCH   7  13
HETATM   13  C   UNL     1     -12.874  14.920  70.982  1.00  0.00    -0.425 C  
HETATM   14  C   UNL     1     -12.139  15.482  72.217  1.00  0.00    -0.520 C  
HETATM   15  C   UNL     1     -12.491  15.708  69.710  1.00  0.00    -0.130 C  
HETATM   16  C   UNL     1     -14.383  15.215  71.212  1.00  0.00    -0.512 C  
ENDBRANCH   7  13
BRANCH  10  17
HETATM   17  N   UNL     1     -11.549   9.274  70.234  1.00  0.00    -0.440 N  
HETATM   18  C   UNL     1     -10.397   8.608  70.656  1.00  0.00    -0.202 C  
HETATM   19  H   UNL     1     -12.268   8.700  69.791  1.00  0.00     0.000 HD 
HETATM   20  O   UNL     1      -9.397   9.100  71.171  1.00  0.00    -0.253 OA 
BRANCH  18  21
HETATM   21  C   UNL     1     -10.453   7.127  70.553  1.00  0.00    -0.228 C  
HETATM   22  C   UNL     1      -9.746   6.461  69.614  1.00  0.00    -0.152 C  
HETATM   23  N   UNL     1      -9.600   5.086  69.559  1.00  0.00    -0.150 NA 
HETATM   24  C   UNL     1      -9.862   4.343  70.726  1.00  0.00    -0.203 A  
HETATM   25  C   UNL     1      -9.413   3.040  70.908  1.00  0.00    -0.229 A  
HETATM   26  C   UNL     1      -9.658   2.375  72.117  1.00  0.00    -0.190 A  
HETATM   27  C   UNL     1     -10.377   2.991  73.143  1.00  0.00    -0.240 A  
HETATM   28  C   UNL     1     -10.888   4.267  72.953  1.00  0.00    -0.230 A  
HETATM   29  C   UNL     1     -10.637   4.918  71.745  1.00  0.00    -0.164 A  
HETATM   30  C   UNL     1     -11.156   6.273  71.529  1.00  0.00    -0.281 C  
HETATM   31  O   UNL     1     -12.116   6.679  72.172  1.00  0.00    -0.307 OA 
ENDBRANCH  18  21
ENDBRANCH  10  17
ENDBRANCH   2   5
TORSDOF 4
ENDMDL
MODEL       15
REMARK 921   NORMALIZED FREE ENERGY PREDICTED BY IDOCK:   -6.62 KCAL/MOL
REMARK 922        TOTAL FREE ENERGY PREDICTED BY IDOCK:   -9.34 KCAL/MOL
REMARK 923 INTER-LIGAND FREE ENERGY PREDICTED BY IDOCK:   -8.75 KCAL/MOL
REMARK 924 INTRA-LIGAND FREE ENERGY PREDICTED BY IDOCK:   -0.59 KCAL/MOL
REMARK 927      BINDING AFFINITY PREDICTED BY RF-SCORE:    0.00 PKD
ROOT
HETATM    1  C   UNL     1     -13.504  15.588  70.340  1.00  0.00     0.188 C  
HETATM    2  C   UNL     1     -12.141  15.199  70.959  1.00  0.00    -0.389 C  
HETATM    3  C   UNL     1     -11.865  16.212  72.118  1.00  0.00    -0.626 C  
HETATM    4  C   UNL     1     -12.290  13.856  71.688  1.00  0.00    -0.270 C  
ENDROOT
BRANCH   2   5
HETATM    5  C   UNL     1     -11.100  15.246  69.793  1.00  0.00    -0.293 A  
HETATM    6  C   UNL     1     -10.713  16.557  69.378  1.00  0.00    -0.330 A  
HETATM    7  C   UNL     1      -9.906  16.880  68.264  1.00  0.00    -0.266 A  
HETATM    8  H   UNL     1      -8.373  15.102  65.907  1.00  0.00     0.000 HD 
HETATM    9  C   UNL     1      -9.452  15.789  67.534  1.00  0.00    -0.218 A  
HETATM   10  C   UNL     1     -10.586  14.174  69.017  1.00  0.00    -0.213 A  
HETATM   11  O   UNL     1      -8.683  15.848  66.407  1.00  0.00    -0.275 OA 
HETATM   12  C   UNL     1      -9.779  14.486  67.907  1.00  0.00    -0.218 A  
BRANCH   7  13
HETATM   13  C   UNL     1      -9.618  18.353  67.915  1.00  0.00    -0.309 C  
HETATM   14  C   UNL     1     -10.512  18.816  66.746  1.00  0.00    -0.478 C  
HETATM   15  C   UNL     1      -9.828  19.251  69.154  1.00  0.00    -0.398 C  
HETATM   16  C   UNL     1      -8.154  18.611  67.462  1.00  0.00    -0.262 C  
ENDBRANCH   7  13
BRANCH  10  17
HETATM   17  N   UNL     1     -10.842  12.804  69.293  1.00  0.00    -0.443 N  
HETATM   18  C   UNL     1     -11.486  11.880  68.466  1.00  0.00    -0.295 C  
HETATM   19  H   UNL     1     -10.520  12.455  70.196  1.00  0.00     0.000 HD 
HETATM   20  O   UNL     1     -11.987  12.087  67.365  1.00  0.00    -0.583 OA 
BRANCH  18  21
HETATM   21  C   UNL     1     -11.459  10.476  68.951  1.00  0.00    -0.292 C  
HETATM   22  C   UNL     1     -10.759   9.522  68.300  1.00  0.00    -0.194 C  
HETATM   23  N   UNL     1     -10.534   8.241  68.775  1.00  0.00    -0.204 NA 
HETATM   24  C   UNL     1     -10.697   8.006  70.153  1.00  0.00    -0.244 A  
HETATM   25  C   UNL     1     -10.163   6.895  70.797  1.00  0.00    -0.212 A  
HETATM   26  C   UNL     1     -10.311   6.749  72.183  1.00  0.00    -0.221 A  
HETATM   27  C   UNL     1     -11.015   7.692  72.935  1.00  0.00    -0.456 A  
HETATM   28  C   UNL     1     -11.609   8.771  72.298  1.00  0.00    -0.391 A  
HETATM   29  C   UNL     1     -11.455   8.906  70.918  1.00  0.00    -0.339 A  
HETATM   30  C   UNL     1     -12.063  10.049  70.227  1.00  0.00    -0.150 C  
HETATM   31  O   UNL     1     -13.014  10.639  70.724  1.00  0.00    -0.364 OA 
ENDBRANCH  18  21
ENDBRANCH  10  17
ENDBRANCH   2   5
TORSDOF 4
ENDMDL
MODEL       16
REMARK 921   NORMALIZED FREE ENERGY PREDICTED BY IDOCK:   -6.59 KCAL/MOL
REMARK 922        TOTAL FREE ENERGY PREDICTED BY IDOCK:   -9.30 KCAL/MOL
REMARK 923 INTER-LIGAND FREE ENERGY PREDICTED BY IDOCK:   -8.20 KCAL/MOL
REMARK 924 INTRA-LIGAND FREE ENERGY PREDICTED BY IDOCK:   -1.10 KCAL/MOL
REMARK 927      BINDING AFFINITY PREDICTED BY RF-SCORE:    0.00 PKD
ROOT
HETATM    1  C   UNL     1     -11.880  15.108  64.232  1.00  0.00    -0.263 C  
HETATM    2  C   UNL     1     -11.427  13.967  65.172  1.00  0.00    -0.328 C  
HETATM    3  C   UNL     1     -12.650  13.007  65.341  1.00  0.00    -0.481 C  
HETATM    4  C   UNL     1     -10.392  13.100  64.440  1.00  0.00    -0.390 C  
ENDROOT
BRANCH   2   5
HETATM    5  C   UNL     1     -10.950  14.652  66.495  1.00  0.00    -0.318 A  
HETATM    6  C   UNL     1     -10.652  16.045  66.382  1.00  0.00    -0.284 A  
HETATM    7  C   UNL     1     -10.073  16.861  67.380  1.00  0.00    -0.279 A  
HETATM    8  H   UNL     1      -9.017  16.340  70.491  1.00  0.00     0.000 HD 
HETATM    9  C   UNL     1      -9.792  16.214  68.576  1.00  0.00    -0.226 A  
HETATM   10  C   UNL     1     -10.658  14.055  67.749  1.00  0.00    -0.242 A  
HETATM   11  O   UNL     1      -9.210  16.782  69.673  1.00  0.00     0.129 OA 
HETATM   12  C   UNL     1     -10.083  14.861  68.749  1.00  0.00    -0.241 A  
BRANCH   7  13
HETATM   13  C   UNL     1      -9.765  18.342  67.088  1.00  0.00    -0.307 C  
HETATM   14  C   UNL     1      -8.247  18.553  66.906  1.00  0.00    -0.266 C  
HETATM   15  C   UNL     1     -10.538  18.817  65.838  1.00  0.00    -0.405 C  
HETATM   16  C   UNL     1     -10.197  19.304  68.230  1.00  0.00    -0.513 C  
ENDBRANCH   7  13
BRANCH  10  17
HETATM   17  N   UNL     1     -10.908  12.689  68.053  1.00  0.00    -0.217 N  
HETATM   18  C   UNL     1      -9.978  11.649  68.102  1.00  0.00    -0.195 C  
HETATM   19  H   UNL     1     -11.876  12.442  68.260  1.00  0.00     0.000 HD 
HETATM   20  O   UNL     1      -8.778  11.709  67.850  1.00  0.00    -0.142 OA 
BRANCH  18  21
HETATM   21  C   UNL     1     -10.505  10.358  68.614  1.00  0.00    -0.216 C  
HETATM   22  C   UNL     1     -10.237   9.192  67.988  1.00  0.00    -0.211 C  
HETATM   23  N   UNL     1     -10.533   7.936  68.489  1.00  0.00    -0.195 NA 
HETATM   24  C   UNL     1     -10.775   7.813  69.871  1.00  0.00    -0.245 A  
HETATM   25  C   UNL     1     -10.721   6.597  70.541  1.00  0.00    -0.293 A  
HETATM   26  C   UNL     1     -10.914   6.549  71.928  1.00  0.00    -0.288 A  
HETATM   27  C   UNL     1     -11.192   7.709  72.655  1.00  0.00    -0.419 A  
HETATM   28  C   UNL     1     -11.314   8.921  71.992  1.00  0.00    -0.427 A  
HETATM   29  C   UNL     1     -11.119   8.954  70.611  1.00  0.00    -0.306 A  
HETATM   30  C   UNL     1     -11.229  10.229  69.893  1.00  0.00    -0.299 C  
HETATM   31  O   UNL     1     -11.872  11.156  70.370  1.00  0.00    -0.329 OA 
ENDBRANCH  18  21
ENDBRANCH  10  17
ENDBRANCH   2   5
TORSDOF 4
ENDMDL
MODEL       17
REMARK 921   NORMALIZED FREE ENERGY PREDICTED BY IDOCK:   -6.54 KCAL/MOL
REMARK 922        TOTAL FREE ENERGY PREDICTED BY IDOCK:   -9.24 KCAL/MOL
REMARK 923 INTER-LIGAND FREE ENERGY PREDICTED BY IDOCK:   -8.07 KCAL/MOL
REMARK 924 INTRA-LIGAND FREE ENERGY PREDICTED BY IDOCK:   -1.17 KCAL/MOL
REMARK 927      BINDING AFFINITY PREDICTED BY RF-SCORE:    0.00 PKD
ROOT
HETATM    1  C   UNL     1     -12.531  14.569  67.666  1.00  0.00     0.257 C  
HETATM    2  C   UNL     1     -11.311  14.715  68.605  1.00  0.00    -0.305 C  
HETATM    3  C   UNL     1     -11.813  15.459  69.886  1.00  0.00    -0.373 C  
HETATM    4  C   UNL     1     -10.919  13.327  69.131  1.00  0.00    -0.208 C  
ENDROOT
BRANCH   2   5
HETATM    5  C   UNL     1     -10.220  15.484  67.791  1.00  0.00    -0.243 A  
HETATM    6  C   UNL     1      -9.991  16.832  68.208  1.00  0.00    -0.273 A  
HETATM    7  C   UNL     1      -9.170  17.781  67.558  1.00  0.00    -0.244 A  
HETATM    8  H   UNL     1      -7.275  17.740  64.824  1.00  0.00     0.000 HD 
HETATM    9  C   UNL     1      -8.531  17.320  66.415  1.00  0.00    -0.269 A  
HETATM   10  C   UNL     1      -9.521  15.068  66.628  1.00  0.00    -0.266 A  
HETATM   11  O   UNL     1      -7.712  18.055  65.606  1.00  0.00    -0.539 OA 
HETATM   12  C   UNL     1      -8.700  16.007  65.976  1.00  0.00    -0.267 A  
BRANCH   7  13
HETATM   13  C   UNL     1      -9.065  19.218  68.105  1.00  0.00    -0.381 C  
HETATM   14  C   UNL     1      -7.601  19.558  68.454  1.00  0.00    -0.365 C  
HETATM   15  C   UNL     1      -9.634  20.227  67.083  1.00  0.00    -0.580 C  
HETATM   16  C   UNL     1      -9.880  19.448  69.409  1.00  0.00    -0.226 C  
ENDBRANCH   7  13
BRANCH  10  17
HETATM   17  N   UNL     1      -9.605  13.760  66.080  1.00  0.00    -0.468 N  
HETATM   18  C   UNL     1     -10.419  13.333  65.028  1.00  0.00    -0.353 C  
HETATM   19  H   UNL     1      -9.003  13.052  66.502  1.00  0.00     0.000 HD 
HETATM   20  O   UNL     1     -11.244  13.997  64.407  1.00  0.00    -0.368 OA 
BRANCH  18  21
HETATM   21  C   UNL     1     -10.167  11.945  64.562  1.00  0.00    -0.320 C  
HETATM   22  C   UNL     1      -9.871  11.681  63.271  1.00  0.00    -0.405 C  
HETATM   23  N   UNL     1      -9.450  10.454  62.789  1.00  0.00    -0.322 NA 
HETATM   24  C   UNL     1      -8.931   9.522  63.708  1.00  0.00    -0.175 A  
HETATM   25  C   UNL     1      -8.159   8.433  63.323  1.00  0.00    -0.151 A  
HETATM   26  C   UNL     1      -7.622   7.574  64.292  1.00  0.00    -0.105 A  
HETATM   27  C   UNL     1      -7.875   7.776  65.651  1.00  0.00    -0.107 A  
HETATM   28  C   UNL     1      -8.698   8.820  66.047  1.00  0.00    -0.193 A  
HETATM   29  C   UNL     1      -9.225   9.668  65.072  1.00  0.00    -0.310 A  
HETATM   30  C   UNL     1     -10.086  10.787  65.472  1.00  0.00    -0.274 C  
HETATM   31  O   UNL     1     -10.679  10.762  66.543  1.00  0.00    -0.240 OA 
ENDBRANCH  18  21
ENDBRANCH  10  17
ENDBRANCH   2   5
TORSDOF 4
ENDMDL
MODEL       18
REMARK 921   NORMALIZED FREE ENERGY PREDICTED BY IDOCK:   -6.53 KCAL/MOL
REMARK 922        TOTAL FREE ENERGY PREDICTED BY IDOCK:   -9.23 KCAL/MOL
REMARK 923 INTER-LIGAND FREE ENERGY PREDICTED BY IDOCK:   -8.01 KCAL/MOL
REMARK 924 INTRA-LIGAND FREE ENERGY PREDICTED BY IDOCK:   -1.22 KCAL/MOL
REMARK 927      BINDING AFFINITY PREDICTED BY RF-SCORE:    0.00 PKD
ROOT
HETATM    1  C   UNL     1     -11.579  15.172  64.486  1.00  0.00    -0.330 C  
HETATM    2  C   UNL     1     -11.232  14.199  65.637  1.00  0.00    -0.308 C  
HETATM    3  C   UNL     1     -12.571  13.522  66.075  1.00  0.00    -0.408 C  
HETATM    4  C   UNL     1     -10.411  13.031  65.070  1.00  0.00    -0.345 C  
ENDROOT
BRANCH   2   5
HETATM    5  C   UNL     1     -10.544  15.059  66.746  1.00  0.00    -0.301 A  
HETATM    6  C   UNL     1     -10.506  16.464  66.487  1.00  0.00    -0.282 A  
HETATM    7  C   UNL     1      -9.824  17.438  67.251  1.00  0.00    -0.278 A  
HETATM    8  H   UNL     1      -7.937  17.350  69.988  1.00  0.00     0.000 HD 
HETATM    9  C   UNL     1      -9.148  16.947  68.359  1.00  0.00    -0.243 A  
HETATM   10  C   UNL     1      -9.851  14.624  67.906  1.00  0.00    -0.217 A  
HETATM   11  O   UNL     1      -8.399  17.686  69.230  1.00  0.00     0.018 OA 
HETATM   12  C   UNL     1      -9.171  15.588  68.673  1.00  0.00    -0.202 A  
BRANCH   7  13
HETATM   13  C   UNL     1      -9.835  18.915  66.810  1.00  0.00    -0.387 C  
HETATM   14  C   UNL     1     -10.781  19.113  65.607  1.00  0.00    -0.297 C  
HETATM   15  C   UNL     1     -10.248  19.826  67.988  1.00  0.00    -0.581 C  
HETATM   16  C   UNL     1      -8.445  19.438  66.352  1.00  0.00    -0.361 C  
ENDBRANCH   7  13
BRANCH  10  17
HETATM   17  N   UNL     1      -9.799  13.270  68.336  1.00  0.00    -0.276 N  
HETATM   18  C   UNL     1     -10.794  12.557  69.008  1.00  0.00    -0.137 C  
HETATM   19  H   UNL     1      -8.938  12.762  68.130  1.00  0.00     0.000 HD 
HETATM   20  O   UNL     1     -11.883  12.976  69.390  1.00  0.00    -0.306 OA 
BRANCH  18  21
HETATM   21  C   UNL     1     -10.522  11.107  69.179  1.00  0.00    -0.211 C  
HETATM   22  C   UNL     1     -10.906  10.447  70.292  1.00  0.00    -0.242 C  
HETATM   23  N   UNL     1     -10.855   9.074  70.457  1.00  0.00    -0.238 NA 
HETATM   24  C   UNL     1     -10.765   8.269  69.305  1.00  0.00    -0.128 A  
HETATM   25  C   UNL     1     -11.068   6.913  69.307  1.00  0.00    -0.229 A  
HETATM   26  C   UNL     1     -11.016   6.180  68.114  1.00  0.00    -0.398 A  
HETATM   27  C   UNL     1     -10.632   6.785  66.915  1.00  0.00    -0.374 A  
HETATM   28  C   UNL     1     -10.264   8.122  66.908  1.00  0.00    -0.387 A  
HETATM   29  C   UNL     1     -10.321   8.840  68.103  1.00  0.00    -0.266 A  
HETATM   30  C   UNL     1      -9.949  10.260  68.115  1.00  0.00    -0.146 C  
HETATM   31  O   UNL     1      -9.220  10.717  67.245  1.00  0.00    -0.147 OA 
ENDBRANCH  18  21
ENDBRANCH  10  17
ENDBRANCH   2   5
TORSDOF 4
ENDMDL
MODEL       19
REMARK 921   NORMALIZED FREE ENERGY PREDICTED BY IDOCK:   -6.52 KCAL/MOL
REMARK 922        TOTAL FREE ENERGY PREDICTED BY IDOCK:   -9.21 KCAL/MOL
REMARK 923 INTER-LIGAND FREE ENERGY PREDICTED BY IDOCK:   -8.22 KCAL/MOL
REMARK 924 INTRA-LIGAND FREE ENERGY PREDICTED BY IDOCK:   -0.99 KCAL/MOL
REMARK 927      BINDING AFFINITY PREDICTED BY RF-SCORE:    0.00 PKD
ROOT
HETATM    1  C   UNL     1      -9.243   9.150  65.090  1.00  0.00    -0.218 C  
HETATM    2  C   UNL     1      -9.479   8.900  66.598  1.00  0.00    -0.261 C  
HETATM    3  C   UNL     1     -10.245   7.542  66.715  1.00  0.00    -0.324 C  
HETATM    4  C   UNL     1      -8.130   8.608  67.271  1.00  0.00    -0.101 C  
ENDROOT
BRANCH   2   5
HETATM    5  C   UNL     1     -10.268  10.140  67.130  1.00  0.00    -0.278 A  
HETATM    6  C   UNL     1     -10.595  11.120  66.143  1.00  0.00    -0.305 A  
HETATM    7  C   UNL     1     -11.172  12.388  66.380  1.00  0.00    -0.365 A  
HETATM    8  H   UNL     1     -12.166  14.022  69.102  1.00  0.00     0.000 HD 
HETATM    9  C   UNL     1     -11.447  12.667  67.713  1.00  0.00    -0.322 A  
HETATM   10  C   UNL     1     -10.593  10.478  68.470  1.00  0.00    -0.206 A  
HETATM   11  O   UNL     1     -11.978  13.831  68.191  1.00  0.00    -0.362 OA 
HETATM   12  C   UNL     1     -11.171  11.738  68.715  1.00  0.00    -0.308 A  
BRANCH   7  13
HETATM   13  C   UNL     1     -11.418  13.359  65.209  1.00  0.00    -0.318 C  
HETATM   14  C   UNL     1     -12.864  13.895  65.245  1.00  0.00    -0.437 C  
HETATM   15  C   UNL     1     -10.401  14.521  65.250  1.00  0.00    -0.435 C  
HETATM   16  C   UNL     1     -11.239  12.704  63.810  1.00  0.00    -0.519 C  
ENDBRANCH   7  13
BRANCH  10  17
HETATM   17  N   UNL     1     -10.366   9.621  69.580  1.00  0.00    -0.211 N  
HETATM   18  C   UNL     1     -11.291   9.227  70.549  1.00  0.00    -0.258 C  
HETATM   19  H   UNL     1      -9.420   9.251  69.681  1.00  0.00     0.000 HD 
HETATM   20  O   UNL     1     -12.463   9.580  70.649  1.00  0.00    -0.183 OA 
BRANCH  18  21
HETATM   21  C   UNL     1     -10.808   8.188  71.495  1.00  0.00    -0.290 C  
HETATM   22  C   UNL     1     -11.164   8.205  72.797  1.00  0.00    -0.337 C  
HETATM   23  N   UNL     1     -10.910   7.188  73.702  1.00  0.00    -0.283 NA 
HETATM   24  C   UNL     1     -10.612   5.908  73.195  1.00  0.00    -0.245 A  
HETATM   25  C   UNL     1     -10.698   4.754  73.964  1.00  0.00    -0.358 A  
HETATM   26  C   UNL     1     -10.445   3.503  73.385  1.00  0.00    -0.264 A  
HETATM   27  C   UNL     1     -10.075   3.395  72.043  1.00  0.00    -0.179 A  
HETATM   28  C   UNL     1      -9.922   4.541  71.279  1.00  0.00    -0.258 A  
HETATM   29  C   UNL     1     -10.177   5.780  71.867  1.00  0.00    -0.246 A  
HETATM   30  C   UNL     1     -10.034   7.005  71.072  1.00  0.00    -0.188 C  
HETATM   31  O   UNL     1      -9.324   7.018  70.075  1.00  0.00    -0.158 OA 
ENDBRANCH  18  21
ENDBRANCH  10  17
ENDBRANCH   2   5
TORSDOF 4
ENDMDL
MODEL       20
REMARK 921   NORMALIZED FREE ENERGY PREDICTED BY IDOCK:   -6.38 KCAL/MOL
REMARK 922        TOTAL FREE ENERGY PREDICTED BY IDOCK:   -9.04 KCAL/MOL
REMARK 923 INTER-LIGAND FREE ENERGY PREDICTED BY IDOCK:   -8.03 KCAL/MOL
REMARK 924 INTRA-LIGAND FREE ENERGY PREDICTED BY IDOCK:   -1.01 KCAL/MOL
REMARK 927      BINDING AFFINITY PREDICTED BY RF-SCORE:    0.00 PKD
ROOT
HETATM    1  C   UNL     1      -9.367   9.240  65.288  1.00  0.00    -0.269 C  
HETATM    2  C   UNL     1      -9.599   9.078  66.809  1.00  0.00    -0.259 C  
HETATM    3  C   UNL     1     -10.449   7.780  67.001  1.00  0.00    -0.419 C  
HETATM    4  C   UNL     1      -8.263   8.732  67.482  1.00  0.00    -0.110 C  
ENDROOT
BRANCH   2   5
HETATM    5  C   UNL     1     -10.299  10.392  67.289  1.00  0.00    -0.278 A  
HETATM    6  C   UNL     1     -10.665  11.299  66.247  1.00  0.00    -0.312 A  
HETATM    7  C   UNL     1     -11.176  12.605  66.415  1.00  0.00    -0.350 A  
HETATM    8  H   UNL     1     -11.898  14.503  69.050  1.00  0.00     0.000 HD 
HETATM    9  C   UNL     1     -11.337  13.007  67.735  1.00  0.00    -0.292 A  
HETATM   10  C   UNL     1     -10.508  10.854  68.614  1.00  0.00    -0.194 A  
HETATM   11  O   UNL     1     -11.787  14.228  68.148  1.00  0.00    -0.327 OA 
HETATM   12  C   UNL     1     -11.019  12.154  68.790  1.00  0.00    -0.274 A  
BRANCH   7  13
HETATM   13  C   UNL     1     -11.475  13.485  65.185  1.00  0.00    -0.317 C  
HETATM   14  C   UNL     1     -12.898  14.075  65.276  1.00  0.00    -0.418 C  
HETATM   15  C   UNL     1     -10.422  14.607  65.056  1.00  0.00    -0.447 C  
HETATM   16  C   UNL     1     -11.420  12.710  63.839  1.00  0.00    -0.509 C  
ENDBRANCH   7  13
BRANCH  10  17
HETATM   17  N   UNL     1     -10.227  10.084  69.775  1.00  0.00    -0.238 N  
HETATM   18  C   UNL     1     -11.120   9.719  70.785  1.00  0.00    -0.345 C  
HETATM   19  H   UNL     1      -9.266   9.760  69.882  1.00  0.00     0.000 HD 
HETATM   20  O   UNL     1     -12.304  10.030  70.882  1.00  0.00    -0.307 OA 
BRANCH  18  21
HETATM   21  C   UNL     1     -10.579   8.767  71.789  1.00  0.00    -0.417 C  
HETATM   22  C   UNL     1     -11.397   8.003  72.544  1.00  0.00    -0.406 C  
HETATM   23  N   UNL     1     -10.982   6.971  73.368  1.00  0.00    -0.279 NA 
HETATM   24  C   UNL     1      -9.708   6.416  73.145  1.00  0.00    -0.160 A  
HETATM   25  C   UNL     1      -9.329   5.174  73.642  1.00  0.00    -0.132 A  
HETATM   26  C   UNL     1      -8.066   4.650  73.335  1.00  0.00    -0.099 A  
HETATM   27  C   UNL     1      -7.159   5.372  72.556  1.00  0.00    -0.088 A  
HETATM   28  C   UNL     1      -7.496   6.639  72.107  1.00  0.00    -0.094 A  
HETATM   29  C   UNL     1      -8.757   7.149  72.419  1.00  0.00    -0.138 A  
HETATM   30  C   UNL     1      -9.139   8.483  71.942  1.00  0.00    -0.244 C  
HETATM   31  O   UNL     1      -8.282   9.307  71.650  1.00  0.00    -0.312 OA 
ENDBRANCH  18  21
ENDBRANCH  10  17
ENDBRANCH   2   5
TORSDOF 4
ENDMDL
MODEL       21
REMARK 921   NORMALIZED FREE ENERGY PREDICTED BY IDOCK:   -6.32 KCAL/MOL
REMARK 922        TOTAL FREE ENERGY PREDICTED BY IDOCK:   -8.97 KCAL/MOL
REMARK 923 INTER-LIGAND FREE ENERGY PREDICTED BY IDOCK:   -7.98 KCAL/MOL
REMARK 924 INTRA-LIGAND FREE ENERGY PREDICTED BY IDOCK:   -0.99 KCAL/MOL
REMARK 927      BINDING AFFINITY PREDICTED BY RF-SCORE:    0.00 PKD
ROOT
HETATM    1  C   UNL     1     -11.886  12.100  65.511  1.00  0.00    -0.350 C  
HETATM    2  C   UNL     1     -10.488  11.474  65.727  1.00  0.00    -0.308 C  
HETATM    3  C   UNL     1     -10.281  10.425  64.587  1.00  0.00    -0.305 C  
HETATM    4  C   UNL     1      -9.417  12.535  65.434  1.00  0.00     0.091 C  
ENDROOT
BRANCH   2   5
HETATM    5  C   UNL     1     -10.495  10.873  67.171  1.00  0.00    -0.281 A  
HETATM    6  C   UNL     1     -10.372   9.451  67.237  1.00  0.00    -0.325 A  
HETATM    7  C   UNL     1     -10.492   8.653  68.396  1.00  0.00    -0.220 A  
HETATM    8  H   UNL     1     -11.091   9.283  71.607  1.00  0.00     0.000 HD 
HETATM    9  C   UNL     1     -10.741   9.354  69.568  1.00  0.00    -0.222 A  
HETATM   10  C   UNL     1     -10.728  11.532  68.407  1.00  0.00    -0.208 A  
HETATM   11  O   UNL     1     -10.921   8.803  70.805  1.00  0.00    -0.230 OA 
HETATM   12  C   UNL     1     -10.847  10.745  69.566  1.00  0.00    -0.288 A  
BRANCH   7  13
HETATM   13  C   UNL     1     -10.385   7.119  68.295  1.00  0.00    -0.227 C  
HETATM   14  C   UNL     1     -10.710   6.647  66.862  1.00  0.00    -0.401 C  
HETATM   15  C   UNL     1      -8.977   6.647  68.721  1.00  0.00    -0.125 C  
HETATM   16  C   UNL     1     -11.373   6.363  69.228  1.00  0.00    -0.405 C  
ENDBRANCH   7  13
BRANCH  10  17
HETATM   17  N   UNL     1     -10.852  12.942  68.541  1.00  0.00    -0.250 N  
HETATM   18  C   UNL     1      -9.821  13.882  68.591  1.00  0.00    -0.175 C  
HETATM   19  H   UNL     1     -11.803  13.308  68.608  1.00  0.00     0.000 HD 
HETATM   20  O   UNL     1      -8.612  13.665  68.570  1.00  0.00    -0.165 OA 
BRANCH  18  21
HETATM   21  C   UNL     1     -10.261  15.300  68.564  1.00  0.00    -0.224 C  
HETATM   22  C   UNL     1     -10.111  16.102  69.641  1.00  0.00    -0.212 C  
HETATM   23  N   UNL     1     -10.325  17.470  69.647  1.00  0.00     0.007 NA 
HETATM   24  C   UNL     1     -10.328  18.147  68.412  1.00  0.00    -0.356 A  
HETATM   25  C   UNL     1     -10.168  19.523  68.306  1.00  0.00    -0.552 A  
HETATM   26  C   UNL     1     -10.121  20.130  67.044  1.00  0.00    -0.599 A  
HETATM   27  C   UNL     1     -10.263  19.375  65.878  1.00  0.00    -0.471 A  
HETATM   28  C   UNL     1     -10.488  18.009  65.968  1.00  0.00    -0.317 A  
HETATM   29  C   UNL     1     -10.532  17.418  67.230  1.00  0.00    -0.321 A  
HETATM   30  C   UNL     1     -10.756  15.972  67.348  1.00  0.00    -0.306 C  
HETATM   31  O   UNL     1     -11.302  15.354  66.443  1.00  0.00    -0.236 OA 
ENDBRANCH  18  21
ENDBRANCH  10  17
ENDBRANCH   2   5
TORSDOF 4
ENDMDL
MODEL       22
REMARK 921   NORMALIZED FREE ENERGY PREDICTED BY IDOCK:   -6.29 KCAL/MOL
REMARK 922        TOTAL FREE ENERGY PREDICTED BY IDOCK:   -8.93 KCAL/MOL
REMARK 923 INTER-LIGAND FREE ENERGY PREDICTED BY IDOCK:   -7.88 KCAL/MOL
REMARK 924 INTRA-LIGAND FREE ENERGY PREDICTED BY IDOCK:   -1.06 KCAL/MOL
REMARK 927      BINDING AFFINITY PREDICTED BY RF-SCORE:    0.00 PKD
ROOT
HETATM    1  C   UNL     1     -11.934  14.880  64.135  1.00  0.00    -0.256 C  
HETATM    2  C   UNL     1     -11.469  13.610  64.886  1.00  0.00    -0.352 C  
HETATM    3  C   UNL     1     -12.725  12.691  65.039  1.00  0.00    -0.403 C  
HETATM    4  C   UNL     1     -10.544  12.799  63.966  1.00  0.00    -0.446 C  
ENDROOT
BRANCH   2   5
HETATM    5  C   UNL     1     -10.852  14.100  66.236  1.00  0.00    -0.300 A  
HETATM    6  C   UNL     1     -10.517  15.488  66.282  1.00  0.00    -0.313 A  
HETATM    7  C   UNL     1      -9.822  16.148  67.320  1.00  0.00    -0.241 A  
HETATM    8  H   UNL     1      -8.512  15.189  70.223  1.00  0.00     0.000 HD 
HETATM    9  C   UNL     1      -9.458  15.340  68.389  1.00  0.00    -0.206 A  
HETATM   10  C   UNL     1     -10.470  13.333  67.368  1.00  0.00    -0.243 A  
HETATM   11  O   UNL     1      -8.761  15.742  69.492  1.00  0.00    -0.259 OA 
HETATM   12  C   UNL     1      -9.780  13.984  68.408  1.00  0.00    -0.223 A  
BRANCH   7  13
HETATM   13  C   UNL     1      -9.489  17.648  67.198  1.00  0.00    -0.267 C  
HETATM   14  C   UNL     1     -10.346  18.304  66.095  1.00  0.00    -0.414 C  
HETATM   15  C   UNL     1      -9.700  18.359  68.552  1.00  0.00    -0.386 C  
HETATM   16  C   UNL     1      -8.009  17.927  66.812  1.00  0.00    -0.259 C  
ENDBRANCH   7  13
BRANCH  10  17
HETATM   17  N   UNL     1     -10.741  11.945  67.512  1.00  0.00    -0.217 N  
HETATM   18  C   UNL     1      -9.916  10.880  67.146  1.00  0.00    -0.189 C  
HETATM   19  H   UNL     1     -11.639  11.700  67.930  1.00  0.00     0.000 HD 
HETATM   20  O   UNL     1      -8.821  10.940  66.594  1.00  0.00    -0.151 OA 
BRANCH  18  21
HETATM   21  C   UNL     1     -10.393   9.539  67.573  1.00  0.00    -0.306 C  
HETATM   22  C   UNL     1     -10.340   8.477  66.741  1.00  0.00    -0.276 C  
HETATM   23  N   UNL     1     -10.592   7.167  67.110  1.00  0.00    -0.315 NA 
HETATM   24  C   UNL     1     -10.530   6.839  68.478  1.00  0.00    -0.204 A  
HETATM   25  C   UNL     1     -10.401   5.533  68.935  1.00  0.00    -0.289 A  
HETATM   26  C   UNL     1     -10.285   5.277  70.309  1.00  0.00    -0.345 A  
HETATM   27  C   UNL     1     -10.325   6.318  71.239  1.00  0.00    -0.255 A  
HETATM   28  C   UNL     1     -10.518   7.621  70.804  1.00  0.00    -0.211 A  
HETATM   29  C   UNL     1     -10.632   7.861  69.434  1.00  0.00    -0.209 A  
HETATM   30  C   UNL     1     -10.822   9.234  68.951  1.00  0.00    -0.099 C  
HETATM   31  O   UNL     1     -11.287  10.093  69.690  1.00  0.00    -0.246 OA 
ENDBRANCH  18  21
ENDBRANCH  10  17
ENDBRANCH   2   5
TORSDOF 4
ENDMDL
MODEL       23
REMARK 921   NORMALIZED FREE ENERGY PREDICTED BY IDOCK:   -6.27 KCAL/MOL
REMARK 922        TOTAL FREE ENERGY PREDICTED BY IDOCK:   -8.90 KCAL/MOL
REMARK 923 INTER-LIGAND FREE ENERGY PREDICTED BY IDOCK:   -7.77 KCAL/MOL
REMARK 924 INTRA-LIGAND FREE ENERGY PREDICTED BY IDOCK:   -1.14 KCAL/MOL
REMARK 927      BINDING AFFINITY PREDICTED BY RF-SCORE:    0.00 PKD
ROOT
HETATM    1  C   UNL     1     -11.473   5.814  72.577  1.00  0.00    -0.349 C  
HETATM    2  C   UNL     1     -11.472   6.967  71.547  1.00  0.00    -0.306 C  
HETATM    3  C   UNL     1     -12.960   7.411  71.364  1.00  0.00    -0.403 C  
HETATM    4  C   UNL     1     -10.808   8.199  72.180  1.00  0.00    -0.370 C  
ENDROOT
BRANCH   2   5
HETATM    5  C   UNL     1     -10.799   6.401  70.255  1.00  0.00    -0.350 A  
HETATM    6  C   UNL     1     -10.280   5.075  70.373  1.00  0.00    -0.324 A  
HETATM    7  C   UNL     1      -9.506   4.389  69.410  1.00  0.00    -0.251 A  
HETATM    8  H   UNL     1      -8.344   5.147  66.387  1.00  0.00     0.000 HD 
HETATM    9  C   UNL     1      -9.257   5.100  68.244  1.00  0.00    -0.117 A  
HETATM   10  C   UNL     1     -10.527   7.065  69.030  1.00  0.00    -0.207 A  
HETATM   11  O   UNL     1      -8.515   4.661  67.184  1.00  0.00    -0.105 OA 
HETATM   12  C   UNL     1      -9.759   6.389  68.065  1.00  0.00    -0.122 A  
BRANCH   7  13
HETATM   13  C   UNL     1      -8.973   2.974  69.709  1.00  0.00    -0.172 C  
HETATM   14  C   UNL     1      -7.436   2.993  69.845  1.00  0.00    -0.044 C  
HETATM   15  C   UNL     1      -9.630   2.409  70.987  1.00  0.00    -0.203 C  
HETATM   16  C   UNL     1      -9.290   1.942  68.591  1.00  0.00    -0.234 C  
ENDBRANCH   7  13
BRANCH  10  17
HETATM   17  N   UNL     1     -10.983   8.376  68.723  1.00  0.00    -0.428 N  
HETATM   18  C   UNL     1     -10.315   9.580  68.956  1.00  0.00    -0.206 C  
HETATM   19  H   UNL     1     -11.900   8.445  68.282  1.00  0.00     0.000 HD 
HETATM   20  O   UNL     1      -9.229   9.737  69.506  1.00  0.00    -0.184 OA 
BRANCH  18  21
HETATM   21  C   UNL     1     -10.965  10.783  68.374  1.00  0.00    -0.299 C  
HETATM   22  C   UNL     1     -11.554  11.711  69.157  1.00  0.00    -0.314 C  
HETATM   23  N   UNL     1     -12.021  12.938  68.718  1.00  0.00    -0.298 NA 
HETATM   24  C   UNL     1     -11.537  13.433  67.492  1.00  0.00    -0.344 A  
HETATM   25  C   UNL     1     -11.637  14.770  67.126  1.00  0.00    -0.373 A  
HETATM   26  C   UNL     1     -11.082  15.211  65.917  1.00  0.00    -0.319 A  
HETATM   27  C   UNL     1     -10.450  14.318  65.049  1.00  0.00    -0.458 A  
HETATM   28  C   UNL     1     -10.400  12.970  65.368  1.00  0.00    -0.313 A  
HETATM   29  C   UNL     1     -10.955  12.544  66.575  1.00  0.00    -0.303 A  
HETATM   30  C   UNL     1     -10.900  11.123  66.939  1.00  0.00    -0.279 C  
HETATM   31  O   UNL     1     -10.767  10.266  66.075  1.00  0.00    -0.093 OA 
ENDBRANCH  18  21
ENDBRANCH  10  17
ENDBRANCH   2   5
TORSDOF 4
ENDMDL
MODEL       24
REMARK 921   NORMALIZED FREE ENERGY PREDICTED BY IDOCK:   -6.22 KCAL/MOL
REMARK 922        TOTAL FREE ENERGY PREDICTED BY IDOCK:   -8.84 KCAL/MOL
REMARK 923 INTER-LIGAND FREE ENERGY PREDICTED BY IDOCK:   -7.83 KCAL/MOL
REMARK 924 INTRA-LIGAND FREE ENERGY PREDICTED BY IDOCK:   -1.02 KCAL/MOL
REMARK 927      BINDING AFFINITY PREDICTED BY RF-SCORE:    0.00 PKD
ROOT
HETATM    1  C   UNL     1     -12.161  14.190  67.241  1.00  0.00    -0.407 C  
HETATM    2  C   UNL     1     -11.251  14.718  68.375  1.00  0.00    -0.298 C  
HETATM    3  C   UNL     1     -12.156  15.577  69.317  1.00  0.00    -0.284 C  
HETATM    4  C   UNL     1     -10.830  13.539  69.264  1.00  0.00    -0.107 C  
ENDROOT
BRANCH   2   5
HETATM    5  C   UNL     1     -10.098  15.511  67.679  1.00  0.00    -0.243 A  
HETATM    6  C   UNL     1     -10.052  16.906  67.984  1.00  0.00    -0.293 A  
HETATM    7  C   UNL     1      -9.206  17.867  67.385  1.00  0.00    -0.253 A  
HETATM    8  H   UNL     1      -6.862  17.760  65.027  1.00  0.00     0.000 HD 
HETATM    9  C   UNL     1      -8.342  17.367  66.420  1.00  0.00    -0.267 A  
HETATM   10  C   UNL     1      -9.174  15.060  66.700  1.00  0.00    -0.276 A  
HETATM   11  O   UNL     1      -7.453  18.101  65.687  1.00  0.00    -0.535 OA 
HETATM   12  C   UNL     1      -8.328  16.010  66.100  1.00  0.00    -0.165 A  
BRANCH   7  13
HETATM   13  C   UNL     1      -9.313  19.351  67.787  1.00  0.00    -0.389 C  
HETATM   14  C   UNL     1      -7.908  19.970  67.945  1.00  0.00    -0.307 C  
HETATM   15  C   UNL     1     -10.143  20.134  66.746  1.00  0.00    -0.591 C  
HETATM   16  C   UNL     1     -10.035  19.577  69.145  1.00  0.00    -0.429 C  
ENDBRANCH   7  13
BRANCH  10  17
HETATM   17  N   UNL     1      -9.057  13.705  66.286  1.00  0.00    -0.479 N  
HETATM   18  C   UNL     1      -8.376  12.677  66.940  1.00  0.00    -0.075 C  
HETATM   19  H   UNL     1      -9.524  13.456  65.414  1.00  0.00     0.000 HD 
HETATM   20  O   UNL     1      -7.716  12.757  67.972  1.00  0.00    -0.113 OA 
BRANCH  18  21
HETATM   21  C   UNL     1      -8.570  11.324  66.358  1.00  0.00    -0.174 C  
HETATM   22  C   UNL     1      -7.546  10.649  65.793  1.00  0.00    -0.120 C  
HETATM   23  N   UNL     1      -7.594   9.325  65.391  1.00  0.00    -0.097 NA 
HETATM   24  C   UNL     1      -8.608   8.506  65.924  1.00  0.00    -0.163 A  
HETATM   25  C   UNL     1      -8.551   7.118  65.892  1.00  0.00    -0.157 A  
HETATM   26  C   UNL     1      -9.565   6.359  66.492  1.00  0.00    -0.185 A  
HETATM   27  C   UNL     1     -10.659   6.977  67.102  1.00  0.00    -0.412 A  
HETATM   28  C   UNL     1     -10.764   8.359  67.085  1.00  0.00    -0.222 A  
HETATM   29  C   UNL     1      -9.747   9.103  66.485  1.00  0.00    -0.306 A  
HETATM   30  C   UNL     1      -9.832  10.568  66.469  1.00  0.00    -0.206 C  
HETATM   31  O   UNL     1     -10.915  11.128  66.582  1.00  0.00    -0.274 OA 
ENDBRANCH  18  21
ENDBRANCH  10  17
ENDBRANCH   2   5
TORSDOF 4
ENDMDL
MODEL       25
REMARK 921   NORMALIZED FREE ENERGY PREDICTED BY IDOCK:   -6.21 KCAL/MOL
REMARK 922        TOTAL FREE ENERGY PREDICTED BY IDOCK:   -8.83 KCAL/MOL
REMARK 923 INTER-LIGAND FREE ENERGY PREDICTED BY IDOCK:   -8.22 KCAL/MOL
REMARK 924 INTRA-LIGAND FREE ENERGY PREDICTED BY IDOCK:   -0.61 KCAL/MOL
REMARK 927      BINDING AFFINITY PREDICTED BY RF-SCORE:    0.00 PKD
ROOT
HETATM    1  C   UNL     1      -8.606   7.140  67.889  1.00  0.00    -0.123 C  
HETATM    2  C   UNL     1      -9.394   8.460  68.057  1.00  0.00    -0.146 C  
HETATM    3  C   UNL     1      -8.418   9.621  67.678  1.00  0.00    -0.125 C  
HETATM    4  C   UNL     1     -10.476   8.534  66.969  1.00  0.00    -0.362 C  
ENDROOT
BRANCH   2   5
HETATM    5  C   UNL     1      -9.894   8.487  69.538  1.00  0.00    -0.187 A  
HETATM    6  C   UNL     1      -9.637   7.297  70.287  1.00  0.00    -0.165 A  
HETATM    7  C   UNL     1     -10.105   7.009  71.588  1.00  0.00    -0.194 A  
HETATM    8  H   UNL     1     -11.984   8.633  73.800  1.00  0.00     0.000 HD 
HETATM    9  C   UNL     1     -10.875   8.008  72.169  1.00  0.00    -0.279 A  
HETATM   10  C   UNL     1     -10.670   9.477  70.196  1.00  0.00    -0.257 A  
HETATM   11  O   UNL     1     -11.458   7.950  73.403  1.00  0.00    -0.211 OA 
HETATM   12  C   UNL     1     -11.138   9.199  71.494  1.00  0.00    -0.436 A  
BRANCH   7  13
HETATM   13  C   UNL     1      -9.783   5.652  72.245  1.00  0.00    -0.177 C  
HETATM   14  C   UNL     1      -9.163   4.687  71.214  1.00  0.00    -0.191 C  
HETATM   15  C   UNL     1      -8.838   5.848  73.451  1.00  0.00    -0.126 C  
HETATM   16  C   UNL     1     -11.033   4.925  72.814  1.00  0.00    -0.294 C  
ENDBRANCH   7  13
BRANCH  10  17
HETATM   17  N   UNL     1     -11.005  10.732  69.620  1.00  0.00    -0.262 N  
HETATM   18  C   UNL     1     -11.884  11.690  70.129  1.00  0.00    -0.344 C  
HETATM   19  H   UNL     1     -10.552  10.959  68.734  1.00  0.00     0.000 HD 
HETATM   20  O   UNL     1     -12.564  11.611  71.149  1.00  0.00    -0.385 OA 
BRANCH  18  21
HETATM   21  C   UNL     1     -11.907  12.979  69.392  1.00  0.00    -0.380 C  
HETATM   22  C   UNL     1     -11.911  14.161  70.045  1.00  0.00    -0.340 C  
HETATM   23  N   UNL     1     -11.752  15.399  69.445  1.00  0.00    -0.330 NA 
HETATM   24  C   UNL     1     -11.178  15.445  68.161  1.00  0.00    -0.325 A  
HETATM   25  C   UNL     1     -10.640  16.606  67.617  1.00  0.00    -0.321 A  
HETATM   26  C   UNL     1     -10.030  16.573  66.355  1.00  0.00    -0.318 A  
HETATM   27  C   UNL     1      -9.977  15.391  65.613  1.00  0.00    -0.396 A  
HETATM   28  C   UNL     1     -10.566  14.239  66.114  1.00  0.00    -0.293 A  
HETATM   29  C   UNL     1     -11.170  14.286  67.370  1.00  0.00    -0.330 A  
HETATM   30  C   UNL     1     -11.787  13.075  67.924  1.00  0.00    -0.343 C  
HETATM   31  O   UNL     1     -12.150  12.170  67.184  1.00  0.00    -0.575 OA 
ENDBRANCH  18  21
ENDBRANCH  10  17
ENDBRANCH   2   5
TORSDOF 4
ENDMDL
MODEL       26
REMARK 921   NORMALIZED FREE ENERGY PREDICTED BY IDOCK:   -6.18 KCAL/MOL
REMARK 922        TOTAL FREE ENERGY PREDICTED BY IDOCK:   -8.79 KCAL/MOL
REMARK 923 INTER-LIGAND FREE ENERGY PREDICTED BY IDOCK:   -7.87 KCAL/MOL
REMARK 924 INTRA-LIGAND FREE ENERGY PREDICTED BY IDOCK:   -0.92 KCAL/MOL
REMARK 927      BINDING AFFINITY PREDICTED BY RF-SCORE:    0.00 PKD
ROOT
HETATM    1  C   UNL     1      -7.353   8.405  66.928  1.00  0.00    -0.083 C  
HETATM    2  C   UNL     1      -8.646   8.032  66.167  1.00  0.00    -0.163 C  
HETATM    3  C   UNL     1      -8.262   7.911  64.656  1.00  0.00    -0.094 C  
HETATM    4  C   UNL     1      -9.050   6.600  66.547  1.00  0.00    -0.167 C  
ENDROOT
BRANCH   2   5
HETATM    5  C   UNL     1      -9.685   9.156  66.487  1.00  0.00    -0.306 A  
HETATM    6  C   UNL     1      -9.941  10.067  65.417  1.00  0.00    -0.364 A  
HETATM    7  C   UNL     1     -10.720  11.243  65.487  1.00  0.00    -0.283 A  
HETATM    8  H   UNL     1     -12.439  12.758  67.898  1.00  0.00     0.000 HD 
HETATM    9  C   UNL     1     -11.285  11.499  66.729  1.00  0.00    -0.285 A  
HETATM   10  C   UNL     1     -10.308   9.463  67.725  1.00  0.00    -0.238 A  
HETATM   11  O   UNL     1     -12.053  12.583  67.049  1.00  0.00    -0.521 OA 
HETATM   12  C   UNL     1     -11.087  10.632  67.803  1.00  0.00    -0.385 A  
BRANCH   7  13
HETATM   13  C   UNL     1     -10.861  12.154  64.252  1.00  0.00    -0.388 C  
HETATM   14  C   UNL     1     -10.579  13.624  64.629  1.00  0.00    -0.446 C  
HETATM   15  C   UNL     1      -9.914  11.686  63.125  1.00  0.00    -0.400 C  
HETATM   16  C   UNL     1     -12.285  12.139  63.627  1.00  0.00    -0.663 C  
ENDBRANCH   7  13
BRANCH  10  17
HETATM   17  N   UNL     1     -10.188   8.661  68.892  1.00  0.00    -0.204 N  
HETATM   18  C   UNL     1      -9.412   8.922  70.023  1.00  0.00    -0.178 C  
HETATM   19  H   UNL     1     -10.731   7.797  68.906  1.00  0.00     0.000 HD 
HETATM   20  O   UNL     1      -8.655   9.872  70.205  1.00  0.00    -0.195 OA 
BRANCH  18  21
HETATM   21  C   UNL     1      -9.618   7.987  71.158  1.00  0.00    -0.189 C  
HETATM   22  C   UNL     1     -10.541   8.232  72.112  1.00  0.00    -0.310 C  
HETATM   23  N   UNL     1     -10.921   7.337  73.097  1.00  0.00    -0.349 NA 
HETATM   24  C   UNL     1     -10.637   5.973  72.899  1.00  0.00    -0.235 A  
HETATM   25  C   UNL     1     -11.269   4.960  73.610  1.00  0.00    -0.299 A  
HETATM   26  C   UNL     1     -10.984   3.617  73.326  1.00  0.00    -0.276 A  
HETATM   27  C   UNL     1     -10.045   3.274  72.351  1.00  0.00    -0.226 A  
HETATM   28  C   UNL     1      -9.357   4.273  71.678  1.00  0.00    -0.199 A  
HETATM   29  C   UNL     1      -9.651   5.604  71.971  1.00  0.00    -0.173 A  
HETATM   30  C   UNL     1      -8.945   6.677  71.260  1.00  0.00    -0.144 C  
HETATM   31  O   UNL     1      -7.856   6.466  70.743  1.00  0.00    -0.102 OA 
ENDBRANCH  18  21
ENDBRANCH  10  17
ENDBRANCH   2   5
TORSDOF 4
ENDMDL
MODEL       27
REMARK 921   NORMALIZED FREE ENERGY PREDICTED BY IDOCK:   -6.16 KCAL/MOL
REMARK 922        TOTAL FREE ENERGY PREDICTED BY IDOCK:   -8.77 KCAL/MOL
REMARK 923 INTER-LIGAND FREE ENERGY PREDICTED BY IDOCK:   -7.60 KCAL/MOL
REMARK 924 INTRA-LIGAND FREE ENERGY PREDICTED BY IDOCK:   -1.17 KCAL/MOL
REMARK 927      BINDING AFFINITY PREDICTED BY RF-SCORE:    0.00 PKD
ROOT
HETATM    1  C   UNL     1     -10.910  11.019  64.048  1.00  0.00    -0.236 C  
HETATM    2  C   UNL     1     -11.026  12.234  64.998  1.00  0.00    -0.344 C  
HETATM    3  C   UNL     1     -10.402  13.455  64.247  1.00  0.00    -0.249 C  
HETATM    4  C   UNL     1     -12.506  12.618  65.136  1.00  0.00    -0.531 C  
ENDROOT
BRANCH   2   5
HETATM    5  C   UNL     1     -10.285  11.832  66.316  1.00  0.00    -0.255 A  
HETATM    6  C   UNL     1     -10.190  10.427  66.554  1.00  0.00    -0.289 A  
HETATM    7  C   UNL     1      -9.702   9.807  67.726  1.00  0.00    -0.167 A  
HETATM    8  H   UNL     1      -8.489  10.919  70.617  1.00  0.00     0.000 HD 
HETATM    9  C   UNL     1      -9.270  10.680  68.715  1.00  0.00    -0.180 A  
HETATM   10  C   UNL     1      -9.808  12.671  67.357  1.00  0.00    -0.205 A  
HETATM   11  O   UNL     1      -8.784  10.322  69.940  1.00  0.00    -0.131 OA 
HETATM   12  C   UNL     1      -9.318  12.061  68.527  1.00  0.00    -0.127 A  
BRANCH   7  13
HETATM   13  C   UNL     1      -9.712   8.271  67.852  1.00  0.00    -0.192 C  
HETATM   14  C   UNL     1      -8.272   7.728  67.959  1.00  0.00    -0.123 C  
HETATM   15  C   UNL     1     -10.554   7.835  69.070  1.00  0.00    -0.179 C  
HETATM   16  C   UNL     1     -10.350   7.551  66.630  1.00  0.00    -0.252 C  
ENDBRANCH   7  13
BRANCH  10  17
HETATM   17  N   UNL     1      -9.799  14.090  67.290  1.00  0.00    -0.238 N  
HETATM   18  C   UNL     1     -10.833  14.961  67.640  1.00  0.00    -0.286 C  
HETATM   19  H   UNL     1      -8.940  14.522  66.947  1.00  0.00     0.000 HD 
HETATM   20  O   UNL     1     -11.958  14.663  68.033  1.00  0.00    -0.326 OA 
BRANCH  18  21
HETATM   21  C   UNL     1     -10.475  16.402  67.623  1.00  0.00    -0.302 C  
HETATM   22  C   UNL     1     -10.715  17.198  68.687  1.00  0.00    -0.306 C  
HETATM   23  N   UNL     1     -10.257  18.497  68.826  1.00  0.00    -0.353 NA 
HETATM   24  C   UNL     1      -9.176  18.909  68.023  1.00  0.00    -0.307 A  
HETATM   25  C   UNL     1      -8.406  20.029  68.313  1.00  0.00    -0.177 A  
HETATM   26  C   UNL     1      -7.306  20.352  67.506  1.00  0.00    -0.356 A  
HETATM   27  C   UNL     1      -6.983  19.580  66.388  1.00  0.00    -0.228 A  
HETATM   28  C   UNL     1      -7.780  18.498  66.048  1.00  0.00    -0.206 A  
HETATM   29  C   UNL     1      -8.871  18.186  66.859  1.00  0.00    -0.273 A  
HETATM   30  C   UNL     1      -9.720  17.036  66.525  1.00  0.00    -0.282 C  
HETATM   31  O   UNL     1      -9.760  16.607  65.379  1.00  0.00    -0.501 OA 
ENDBRANCH  18  21
ENDBRANCH  10  17
ENDBRANCH   2   5
TORSDOF 4
ENDMDL
MODEL       28
REMARK 921   NORMALIZED FREE ENERGY PREDICTED BY IDOCK:   -6.15 KCAL/MOL
REMARK 922        TOTAL FREE ENERGY PREDICTED BY IDOCK:   -8.76 KCAL/MOL
REMARK 923 INTER-LIGAND FREE ENERGY PREDICTED BY IDOCK:   -7.57 KCAL/MOL
REMARK 924 INTRA-LIGAND FREE ENERGY PREDICTED BY IDOCK:   -1.19 KCAL/MOL
REMARK 927      BINDING AFFINITY PREDICTED BY RF-SCORE:    0.00 PKD
ROOT
HETATM    1  C   UNL     1     -11.686  15.709  64.220  1.00  0.00    -0.171 C  
HETATM    2  C   UNL     1     -11.235  14.644  65.247  1.00  0.00    -0.358 C  
HETATM    3  C   UNL     1     -12.530  13.929  65.754  1.00  0.00    -0.530 C  
HETATM    4  C   UNL     1     -10.479  13.530  64.509  1.00  0.00    -0.426 C  
ENDROOT
BRANCH   2   5
HETATM    5  C   UNL     1     -10.439  15.411  66.353  1.00  0.00    -0.307 A  
HETATM    6  C   UNL     1     -10.400  16.831  66.197  1.00  0.00    -0.338 A  
HETATM    7  C   UNL     1      -9.638  17.737  66.969  1.00  0.00    -0.284 A  
HETATM    8  H   UNL     1      -7.522  17.422  69.516  1.00  0.00     0.000 HD 
HETATM    9  C   UNL     1      -8.877  17.156  67.974  1.00  0.00    -0.229 A  
HETATM   10  C   UNL     1      -9.655  14.882  67.412  1.00  0.00    -0.206 A  
HETATM   11  O   UNL     1      -8.043  17.820  68.828  1.00  0.00    -0.282 OA 
HETATM   12  C   UNL     1      -8.895  15.778  68.186  1.00  0.00    -0.178 A  
BRANCH   7  13
HETATM   13  C   UNL     1      -9.663  19.243  66.643  1.00  0.00    -0.421 C  
HETATM   14  C   UNL     1      -9.923  20.068  67.920  1.00  0.00    -0.558 C  
HETATM   15  C   UNL     1      -8.339  19.671  65.973  1.00  0.00    -0.294 C  
HETATM   16  C   UNL     1     -10.781  19.644  65.640  1.00  0.00    -0.428 C  
ENDBRANCH   7  13
BRANCH  10  17
HETATM   17  N   UNL     1      -9.589  13.499  67.733  1.00  0.00    -0.212 N  
HETATM   18  C   UNL     1     -10.420  12.792  68.605  1.00  0.00    -0.211 C  
HETATM   19  H   UNL     1      -8.852  12.962  67.276  1.00  0.00     0.000 HD 
HETATM   20  O   UNL     1     -11.338  13.239  69.288  1.00  0.00    -0.262 OA 
BRANCH  18  21
HETATM   21  C   UNL     1     -10.218  11.321  68.612  1.00  0.00    -0.214 C  
HETATM   22  C   UNL     1     -11.118  10.491  69.182  1.00  0.00    -0.250 C  
HETATM   23  N   UNL     1     -11.100   9.111  69.079  1.00  0.00     0.003 NA 
HETATM   24  C   UNL     1     -10.355   8.532  68.035  1.00  0.00    -0.217 A  
HETATM   25  C   UNL     1     -10.544   7.223  67.608  1.00  0.00    -0.316 A  
HETATM   26  C   UNL     1      -9.810   6.724  66.523  1.00  0.00    -0.167 A  
HETATM   27  C   UNL     1      -8.861   7.516  65.873  1.00  0.00    -0.157 A  
HETATM   28  C   UNL     1      -8.614   8.803  66.327  1.00  0.00    -0.144 A  
HETATM   29  C   UNL     1      -9.352   9.287  67.408  1.00  0.00    -0.153 A  
HETATM   30  C   UNL     1      -9.116  10.651  67.895  1.00  0.00    -0.145 C  
HETATM   31  O   UNL     1      -8.051  11.214  67.673  1.00  0.00    -0.113 OA 
ENDBRANCH  18  21
ENDBRANCH  10  17
ENDBRANCH   2   5
TORSDOF 4
ENDMDL
MODEL       29
REMARK 921   NORMALIZED FREE ENERGY PREDICTED BY IDOCK:   -6.07 KCAL/MOL
REMARK 922        TOTAL FREE ENERGY PREDICTED BY IDOCK:   -8.66 KCAL/MOL
REMARK 923 INTER-LIGAND FREE ENERGY PREDICTED BY IDOCK:   -8.03 KCAL/MOL
REMARK 924 INTRA-LIGAND FREE ENERGY PREDICTED BY IDOCK:   -0.63 KCAL/MOL
REMARK 927      BINDING AFFINITY PREDICTED BY RF-SCORE:    0.00 PKD
ROOT
HETATM    1  C   UNL     1     -12.340   6.856  71.364  1.00  0.00    -0.421 C  
HETATM    2  C   UNL     1     -10.920   6.778  71.972  1.00  0.00    -0.269 C  
HETATM    3  C   UNL     1     -10.901   7.743  73.202  1.00  0.00    -0.401 C  
HETATM    4  C   UNL     1     -10.724   5.392  72.603  1.00  0.00    -0.288 C  
ENDROOT
BRANCH   2   5
HETATM    5  C   UNL     1      -9.930   7.166  70.825  1.00  0.00    -0.194 A  
HETATM    6  C   UNL     1      -9.068   6.114  70.387  1.00  0.00    -0.158 A  
HETATM    7  C   UNL     1      -7.997   6.235  69.474  1.00  0.00    -0.108 A  
HETATM    8  H   UNL     1      -6.684   8.754  67.744  1.00  0.00     0.000 HD 
HETATM    9  C   UNL     1      -7.801   7.512  68.965  1.00  0.00    -0.120 A  
HETATM   10  C   UNL     1      -9.691   8.442  70.252  1.00  0.00    -0.172 A  
HETATM   11  O   UNL     1      -6.818   7.881  68.092  1.00  0.00    -0.064 OA 
HETATM   12  C   UNL     1      -8.627   8.571  69.340  1.00  0.00    -0.128 A  
BRANCH   7  13
HETATM   13  C   UNL     1      -7.122   5.011  69.139  1.00  0.00    -0.056 C  
HETATM   14  C   UNL     1      -7.471   3.827  70.065  1.00  0.00    -0.045 C  
HETATM   15  C   UNL     1      -7.292   4.616  67.656  1.00  0.00    -0.074 C  
HETATM   16  C   UNL     1      -5.599   5.265  69.326  1.00  0.00    -0.011 C  
ENDBRANCH   7  13
BRANCH  10  17
HETATM   17  N   UNL     1     -10.461   9.600  70.547  1.00  0.00    -0.284 N  
HETATM   18  C   UNL     1     -11.241  10.347  69.662  1.00  0.00    -0.277 C  
HETATM   19  H   UNL     1     -10.442   9.921  71.516  1.00  0.00     0.000 HD 
HETATM   20  O   UNL     1     -11.376  10.169  68.454  1.00  0.00    -0.219 OA 
BRANCH  18  21
HETATM   21  C   UNL     1     -12.069  11.406  70.293  1.00  0.00    -0.459 C  
HETATM   22  C   UNL     1     -12.844  11.146  71.367  1.00  0.00    -0.439 C  
HETATM   23  N   UNL     1     -13.502  12.102  72.121  1.00  0.00    -0.429 NA 
HETATM   24  C   UNL     1     -13.064  13.437  72.029  1.00  0.00    -0.377 A  
HETATM   25  C   UNL     1     -13.384  14.403  72.976  1.00  0.00    -0.484 A  
HETATM   26  C   UNL     1     -12.868  15.701  72.858  1.00  0.00    -0.576 A  
HETATM   27  C   UNL     1     -12.054  16.055  71.779  1.00  0.00    -0.570 A  
HETATM   28  C   UNL     1     -11.779  15.121  70.792  1.00  0.00    -0.370 A  
HETATM   29  C   UNL     1     -12.298  13.833  70.922  1.00  0.00    -0.456 A  
HETATM   30  C   UNL     1     -12.008  12.826  69.894  1.00  0.00    -0.298 C  
HETATM   31  O   UNL     1     -11.691  13.168  68.762  1.00  0.00    -0.284 OA 
ENDBRANCH  18  21
ENDBRANCH  10  17
ENDBRANCH   2   5
TORSDOF 4
ENDMDL
MODEL       30
REMARK 921   NORMALIZED FREE ENERGY PREDICTED BY IDOCK:   -6.05 KCAL/MOL
REMARK 922        TOTAL FREE ENERGY PREDICTED BY IDOCK:   -8.64 KCAL/MOL
REMARK 923 INTER-LIGAND FREE ENERGY PREDICTED BY IDOCK:   -7.82 KCAL/MOL
REMARK 924 INTRA-LIGAND FREE ENERGY PREDICTED BY IDOCK:   -0.82 KCAL/MOL
REMARK 927      BINDING AFFINITY PREDICTED BY RF-SCORE:    0.00 PKD
ROOT
HETATM    1  C   UNL     1     -12.437  13.613  66.143  1.00  0.00    -0.449 C  
HETATM    2  C   UNL     1     -11.305  14.368  65.406  1.00  0.00    -0.339 C  
HETATM    3  C   UNL     1     -10.532  13.306  64.558  1.00  0.00    -0.434 C  
HETATM    4  C   UNL     1     -11.929  15.286  64.344  1.00  0.00    -0.285 C  
ENDROOT
BRANCH   2   5
HETATM    5  C   UNL     1     -10.450  15.066  66.513  1.00  0.00    -0.285 A  
HETATM    6  C   UNL     1     -10.402  16.491  66.434  1.00  0.00    -0.316 A  
HETATM    7  C   UNL     1      -9.596  17.348  67.217  1.00  0.00    -0.258 A  
HETATM    8  H   UNL     1      -7.366  16.875  69.639  1.00  0.00     0.000 HD 
HETATM    9  C   UNL     1      -8.794  16.705  68.151  1.00  0.00    -0.206 A  
HETATM   10  C   UNL     1      -9.622  14.472  67.502  1.00  0.00    -0.210 A  
HETATM   11  O   UNL     1      -7.914  17.314  69.000  1.00  0.00    -0.224 OA 
HETATM   12  C   UNL     1      -8.817  15.318  68.288  1.00  0.00    -0.171 A  
BRANCH   7  13
HETATM   13  C   UNL     1      -9.619  18.870  66.975  1.00  0.00    -0.348 C  
HETATM   14  C   UNL     1     -10.632  19.225  65.867  1.00  0.00    -0.521 C  
HETATM   15  C   UNL     1      -9.953  19.618  68.284  1.00  0.00    -0.543 C  
HETATM   16  C   UNL     1      -8.254  19.446  66.508  1.00  0.00    -0.326 C  
ENDBRANCH   7  13
BRANCH  10  17
HETATM   17  N   UNL     1      -9.556  13.073  67.744  1.00  0.00    -0.201 N  
HETATM   18  C   UNL     1      -8.491  12.215  67.463  1.00  0.00    -0.169 C  
HETATM   19  H   UNL     1     -10.380  12.648  68.171  1.00  0.00     0.000 HD 
HETATM   20  O   UNL     1      -7.428  12.499  66.918  1.00  0.00    -0.054 OA 
BRANCH  18  21
HETATM   21  C   UNL     1      -8.644  10.832  67.982  1.00  0.00    -0.128 C  
HETATM   22  C   UNL     1      -8.678  10.579  69.308  1.00  0.00    -0.123 C  
HETATM   23  N   UNL     1      -8.994   9.356  69.875  1.00  0.00    -0.182 NA 
HETATM   24  C   UNL     1      -9.684   8.417  69.085  1.00  0.00    -0.171 A  
HETATM   25  C   UNL     1     -10.365   7.332  69.625  1.00  0.00    -0.227 A  
HETATM   26  C   UNL     1     -11.082   6.466  68.789  1.00  0.00    -0.404 A  
HETATM   27  C   UNL     1     -11.104   6.657  67.405  1.00  0.00    -0.398 A  
HETATM   28  C   UNL     1     -10.377   7.696  66.845  1.00  0.00    -0.388 A  
HETATM   29  C   UNL     1      -9.668   8.551  67.688  1.00  0.00    -0.201 A  
HETATM   30  C   UNL     1      -8.904   9.666  67.116  1.00  0.00    -0.132 C  
HETATM   31  O   UNL     1      -8.535   9.631  65.949  1.00  0.00    -0.123 OA 
ENDBRANCH  18  21
ENDBRANCH  10  17
ENDBRANCH   2   5
TORSDOF 4
ENDMDL
MODEL       31
REMARK 921   NORMALIZED FREE ENERGY PREDICTED BY IDOCK:   -6.05 KCAL/MOL
REMARK 922        TOTAL FREE ENERGY PREDICTED BY IDOCK:   -8.63 KCAL/MOL
REMARK 923 INTER-LIGAND FREE ENERGY PREDICTED BY IDOCK:   -7.76 KCAL/MOL
REMARK 924 INTRA-LIGAND FREE ENERGY PREDICTED BY IDOCK:   -0.87 KCAL/MOL
REMARK 927      BINDING AFFINITY PREDICTED BY RF-SCORE:    0.00 PKD
ROOT
HETATM    1  C   UNL     1     -10.305   5.947  67.857  1.00  0.00    -0.262 C  
HETATM    2  C   UNL     1      -9.850   7.395  68.152  1.00  0.00    -0.174 C  
HETATM    3  C   UNL     1      -8.365   7.508  67.676  1.00  0.00    -0.118 C  
HETATM    4  C   UNL     1     -10.598   8.353  67.213  1.00  0.00    -0.328 C  
ENDROOT
BRANCH   2   5
HETATM    5  C   UNL     1     -10.060   7.618  69.685  1.00  0.00    -0.194 A  
HETATM    6  C   UNL     1      -9.954   6.442  70.489  1.00  0.00    -0.214 A  
HETATM    7  C   UNL     1     -10.238   6.342  71.870  1.00  0.00    -0.219 A  
HETATM    8  H   UNL     1     -11.274   8.483  74.195  1.00  0.00     0.000 HD 
HETATM    9  C   UNL     1     -10.644   7.526  72.472  1.00  0.00    -0.270 A  
HETATM   10  C   UNL     1     -10.460   8.799  70.365  1.00  0.00    -0.209 A  
HETATM   11  O   UNL     1     -10.997   7.674  73.783  1.00  0.00    -0.220 OA 
HETATM   12  C   UNL     1     -10.742   8.709  71.740  1.00  0.00    -0.392 A  
BRANCH   7  13
HETATM   13  C   UNL     1     -10.125   4.983  72.588  1.00  0.00    -0.227 C  
HETATM   14  C   UNL     1      -8.933   4.988  73.568  1.00  0.00    -0.114 C  
HETATM   15  C   UNL     1     -11.440   4.652  73.325  1.00  0.00    -0.346 C  
HETATM   16  C   UNL     1      -9.880   3.789  71.624  1.00  0.00    -0.240 C  
ENDBRANCH   7  13
BRANCH  10  17
HETATM   17  N   UNL     1     -10.595  10.067  69.737  1.00  0.00    -0.248 N  
HETATM   18  C   UNL     1      -9.579  10.855  69.194  1.00  0.00    -0.106 C  
HETATM   19  H   UNL     1     -11.542  10.443  69.676  1.00  0.00     0.000 HD 
HETATM   20  O   UNL     1      -8.373  10.622  69.193  1.00  0.00    -0.151 OA 
BRANCH  18  21
HETATM   21  C   UNL     1     -10.042  12.055  68.451  1.00  0.00    -0.211 C  
HETATM   22  C   UNL     1      -9.265  13.154  68.338  1.00  0.00    -0.141 C  
HETATM   23  N   UNL     1      -9.540  14.238  67.522  1.00  0.00    -0.212 NA 
HETATM   24  C   UNL     1     -10.455  14.061  66.467  1.00  0.00    -0.281 A  
HETATM   25  C   UNL     1     -10.539  14.931  65.387  1.00  0.00    -0.391 A  
HETATM   26  C   UNL     1     -11.431  14.666  64.339  1.00  0.00    -0.272 A  
HETATM   27  C   UNL     1     -12.268  13.549  64.373  1.00  0.00    -0.440 A  
HETATM   28  C   UNL     1     -12.244  12.706  65.475  1.00  0.00    -0.501 A  
HETATM   29  C   UNL     1     -11.350  12.981  66.510  1.00  0.00    -0.359 A  
HETATM   30  C   UNL     1     -11.298  12.094  67.679  1.00  0.00    -0.314 C  
HETATM   31  O   UNL     1     -12.258  11.390  67.966  1.00  0.00    -0.607 OA 
ENDBRANCH  18  21
ENDBRANCH  10  17
ENDBRANCH   2   5
TORSDOF 4
ENDMDL
MODEL       32
REMARK 921   NORMALIZED FREE ENERGY PREDICTED BY IDOCK:   -6.04 KCAL/MOL
REMARK 922        TOTAL FREE ENERGY PREDICTED BY IDOCK:   -8.62 KCAL/MOL
REMARK 923 INTER-LIGAND FREE ENERGY PREDICTED BY IDOCK:   -8.11 KCAL/MOL
REMARK 924 INTRA-LIGAND FREE ENERGY PREDICTED BY IDOCK:   -0.51 KCAL/MOL
REMARK 927      BINDING AFFINITY PREDICTED BY RF-SCORE:    0.00 PKD
ROOT
HETATM    1  C   UNL     1      -5.250  15.815  68.521  1.00  0.00    -0.096 C  
HETATM    2  C   UNL     1      -6.464  14.908  68.830  1.00  0.00    -0.088 C  
HETATM    3  C   UNL     1      -6.234  13.567  68.060  1.00  0.00    -0.136 C  
HETATM    4  C   UNL     1      -6.407  14.485  70.306  1.00  0.00    -0.170 C  
ENDROOT
BRANCH   2   5
HETATM    5  C   UNL     1      -7.733  15.705  68.384  1.00  0.00    -0.126 A  
HETATM    6  C   UNL     1      -7.489  17.053  67.976  1.00  0.00    -0.185 A  
HETATM    7  C   UNL     1      -8.467  18.024  67.665  1.00  0.00    -0.239 A  
HETATM    8  H   UNL     1     -11.793  18.045  67.610  1.00  0.00     0.000 HD 
HETATM    9  C   UNL     1      -9.781  17.586  67.765  1.00  0.00    -0.274 A  
HETATM   10  C   UNL     1      -9.096  15.314  68.446  1.00  0.00    -0.189 A  
HETATM   11  O   UNL     1     -10.895  18.344  67.542  1.00  0.00    -0.408 OA 
HETATM   12  C   UNL     1     -10.076  16.274  68.136  1.00  0.00    -0.244 A  
BRANCH   7  13
HETATM   13  C   UNL     1      -8.044  19.457  67.289  1.00  0.00    -0.298 C  
HETATM   14  C   UNL     1      -9.252  20.414  67.364  1.00  0.00    -0.513 C  
HETATM   15  C   UNL     1      -6.902  19.942  68.209  1.00  0.00    -0.330 C  
HETATM   16  C   UNL     1      -7.489  19.582  65.842  1.00  0.00    -0.314 C  
ENDBRANCH   7  13
BRANCH  10  17
HETATM   17  N   UNL     1      -9.529  14.009  68.807  1.00  0.00    -0.371 N  
HETATM   18  C   UNL     1      -9.675  12.903  67.968  1.00  0.00    -0.224 C  
HETATM   19  H   UNL     1      -9.760  13.865  69.791  1.00  0.00     0.000 HD 
HETATM   20  O   UNL     1      -9.495  12.859  66.754  1.00  0.00    -0.233 OA 
BRANCH  18  21
HETATM   21  C   UNL     1      -9.983  11.625  68.659  1.00  0.00    -0.192 C  
HETATM   22  C   UNL     1      -9.002  10.835  69.145  1.00  0.00    -0.087 C  
HETATM   23  N   UNL     1      -9.202   9.728  69.952  1.00  0.00    -0.226 NA 
HETATM   24  C   UNL     1     -10.432   9.612  70.628  1.00  0.00    -0.312 A  
HETATM   25  C   UNL     1     -10.617   8.772  71.719  1.00  0.00    -0.417 A  
HETATM   26  C   UNL     1     -11.849   8.746  72.385  1.00  0.00    -0.356 A  
HETATM   27  C   UNL     1     -12.917   9.535  71.952  1.00  0.00    -0.514 A  
HETATM   28  C   UNL     1     -12.770  10.330  70.825  1.00  0.00    -0.434 A  
HETATM   29  C   UNL     1     -11.537  10.347  70.172  1.00  0.00    -0.392 A  
HETATM   30  C   UNL     1     -11.356  11.192  68.986  1.00  0.00    -0.276 C  
HETATM   31  O   UNL     1     -12.322  11.548  68.324  1.00  0.00    -0.468 OA 
ENDBRANCH  18  21
ENDBRANCH  10  17
ENDBRANCH   2   5
TORSDOF 4
ENDMDL
MODEL       33
REMARK 921   NORMALIZED FREE ENERGY PREDICTED BY IDOCK:   -6.01 KCAL/MOL
REMARK 922        TOTAL FREE ENERGY PREDICTED BY IDOCK:   -8.58 KCAL/MOL
REMARK 923 INTER-LIGAND FREE ENERGY PREDICTED BY IDOCK:   -7.56 KCAL/MOL
REMARK 924 INTRA-LIGAND FREE ENERGY PREDICTED BY IDOCK:   -1.02 KCAL/MOL
REMARK 927      BINDING AFFINITY PREDICTED BY RF-SCORE:    0.00 PKD
ROOT
HETATM    1  C   UNL     1     -12.152  12.177  67.744  1.00  0.00     0.003 C  
HETATM    2  C   UNL     1     -11.245  12.208  68.996  1.00  0.00    -0.314 C  
HETATM    3  C   UNL     1     -11.183  13.695  69.474  1.00  0.00    -0.205 C  
HETATM    4  C   UNL     1     -11.966  11.493  70.149  1.00  0.00    -0.452 C  
ENDROOT
BRANCH   2   5
HETATM    5  C   UNL     1      -9.870  11.607  68.557  1.00  0.00    -0.196 A  
HETATM    6  C   UNL     1      -9.595  10.296  69.053  1.00  0.00    -0.210 A  
HETATM    7  C   UNL     1      -8.378   9.590  68.925  1.00  0.00    -0.121 A  
HETATM    8  H   UNL     1      -5.434  10.258  67.529  1.00  0.00     0.000 HD 
HETATM    9  C   UNL     1      -7.380  10.262  68.232  1.00  0.00    -0.085 A  
HETATM   10  C   UNL     1      -8.816  12.232  67.840  1.00  0.00    -0.178 A  
HETATM   11  O   UNL     1      -6.116   9.798  68.003  1.00  0.00    -0.053 OA 
HETATM   12  C   UNL     1      -7.602  11.534  67.706  1.00  0.00    -0.111 A  
BRANCH   7  13
HETATM   13  C   UNL     1      -8.220   8.196  69.563  1.00  0.00    -0.121 C  
HETATM   14  C   UNL     1      -7.035   8.185  70.551  1.00  0.00    -0.037 C  
HETATM   15  C   UNL     1      -9.527   7.775  70.270  1.00  0.00    -0.160 C  
HETATM   16  C   UNL     1      -7.927   7.069  68.532  1.00  0.00    -0.123 C  
ENDBRANCH   7  13
BRANCH  10  17
HETATM   17  N   UNL     1      -8.914  13.522  67.253  1.00  0.00    -0.212 N  
HETATM   18  C   UNL     1      -9.569  13.866  66.069  1.00  0.00    -0.187 C  
HETATM   19  H   UNL     1      -8.454  14.284  67.753  1.00  0.00     0.000 HD 
HETATM   20  O   UNL     1     -10.149  13.113  65.291  1.00  0.00    -0.287 OA 
BRANCH  18  21
HETATM   21  C   UNL     1      -9.647  15.324  65.793  1.00  0.00    -0.359 C  
HETATM   22  C   UNL     1     -10.675  15.852  65.095  1.00  0.00    -0.429 C  
HETATM   23  N   UNL     1     -10.919  17.207  64.946  1.00  0.00    -0.819 NA 
HETATM   24  C   UNL     1     -10.319  18.094  65.860  1.00  0.00    -0.277 A  
HETATM   25  C   UNL     1     -10.760  19.399  66.045  1.00  0.00    -0.512 A  
HETATM   26  C   UNL     1     -10.157  20.214  67.013  1.00  0.00    -0.599 A  
HETATM   27  C   UNL     1      -9.090  19.745  67.783  1.00  0.00    -0.412 A  
HETATM   28  C   UNL     1      -8.596  18.468  67.566  1.00  0.00    -0.272 A  
HETATM   29  C   UNL     1      -9.205  17.667  66.600  1.00  0.00    -0.284 A  
HETATM   30  C   UNL     1      -8.707  16.307  66.364  1.00  0.00    -0.319 C  
HETATM   31  O   UNL     1      -7.560  16.005  66.670  1.00  0.00    -0.231 OA 
ENDBRANCH  18  21
ENDBRANCH  10  17
ENDBRANCH   2   5
TORSDOF 4
ENDMDL
MODEL       34
REMARK 921   NORMALIZED FREE ENERGY PREDICTED BY IDOCK:   -6.01 KCAL/MOL
REMARK 922        TOTAL FREE ENERGY PREDICTED BY IDOCK:   -8.58 KCAL/MOL
REMARK 923 INTER-LIGAND FREE ENERGY PREDICTED BY IDOCK:   -7.47 KCAL/MOL
REMARK 924 INTRA-LIGAND FREE ENERGY PREDICTED BY IDOCK:   -1.12 KCAL/MOL
REMARK 927      BINDING AFFINITY PREDICTED BY RF-SCORE:    0.00 PKD
ROOT
HETATM    1  C   UNL     1      -8.027   9.659  70.266  1.00  0.00    -0.198 C  
HETATM    2  C   UNL     1      -8.289   8.304  70.964  1.00  0.00    -0.138 C  
HETATM    3  C   UNL     1      -6.891   7.709  71.333  1.00  0.00    -0.049 C  
HETATM    4  C   UNL     1      -8.937   8.566  72.331  1.00  0.00    -0.284 C  
ENDROOT
BRANCH   2   5
HETATM    5  C   UNL     1      -9.117   7.443  69.954  1.00  0.00    -0.141 A  
HETATM    6  C   UNL     1      -8.503   6.214  69.560  1.00  0.00    -0.120 A  
HETATM    7  C   UNL     1      -8.968   5.329  68.562  1.00  0.00    -0.118 A  
HETATM    8  H   UNL     1     -11.575   5.309  66.496  1.00  0.00     0.000 HD 
HETATM    9  C   UNL     1     -10.144   5.718  67.934  1.00  0.00    -0.162 A  
HETATM   10  C   UNL     1     -10.327   7.773  69.290  1.00  0.00    -0.219 A  
HETATM   11  O   UNL     1     -10.771   5.043  66.925  1.00  0.00    -0.193 OA 
HETATM   12  C   UNL     1     -10.798   6.895  68.296  1.00  0.00    -0.244 A  
BRANCH   7  13
HETATM   13  C   UNL     1      -8.163   4.062  68.214  1.00  0.00    -0.095 C  
HETATM   14  C   UNL     1      -9.039   2.803  68.376  1.00  0.00    -0.219 C  
HETATM   15  C   UNL     1      -7.600   4.157  66.779  1.00  0.00    -0.088 C  
HETATM   16  C   UNL     1      -6.925   3.841  69.129  1.00  0.00    -0.046 C  
ENDBRANCH   7  13
BRANCH  10  17
HETATM   17  N   UNL     1     -11.089   8.940  69.566  1.00  0.00    -0.432 N  
HETATM   18  C   UNL     1     -12.016   9.121  70.595  1.00  0.00    -0.124 C  
HETATM   19  H   UNL     1     -10.943   9.735  68.943  1.00  0.00     0.000 HD 
HETATM   20  O   UNL     1     -12.377   8.295  71.428  1.00  0.00    -0.303 OA 
BRANCH  18  21
HETATM   21  C   UNL     1     -12.534  10.506  70.738  1.00  0.00    -0.472 C  
HETATM   22  C   UNL     1     -13.151  10.912  71.869  1.00  0.00    -0.432 C  
HETATM   23  N   UNL     1     -13.501  12.220  72.155  1.00  0.00    -0.461 NA 
HETATM   24  C   UNL     1     -12.864  13.250  71.437  1.00  0.00    -0.322 A  
HETATM   25  C   UNL     1     -12.851  14.572  71.867  1.00  0.00    -0.410 A  
HETATM   26  C   UNL     1     -12.150  15.541  71.137  1.00  0.00    -0.433 A  
HETATM   27  C   UNL     1     -11.480  15.207  69.957  1.00  0.00    -0.315 A  
HETATM   28  C   UNL     1     -11.537  13.906  69.481  1.00  0.00    -0.358 A  
HETATM   29  C   UNL     1     -12.239  12.951  70.217  1.00  0.00    -0.362 A  
HETATM   30  C   UNL     1     -12.300  11.565  69.738  1.00  0.00    -0.155 C  
HETATM   31  O   UNL     1     -12.124  11.311  68.553  1.00  0.00    -0.573 OA 
ENDBRANCH  18  21
ENDBRANCH  10  17
ENDBRANCH   2   5
TORSDOF 4
ENDMDL
MODEL       35
REMARK 921   NORMALIZED FREE ENERGY PREDICTED BY IDOCK:   -6.00 KCAL/MOL
REMARK 922        TOTAL FREE ENERGY PREDICTED BY IDOCK:   -8.57 KCAL/MOL
REMARK 923 INTER-LIGAND FREE ENERGY PREDICTED BY IDOCK:   -7.58 KCAL/MOL
REMARK 924 INTRA-LIGAND FREE ENERGY PREDICTED BY IDOCK:   -0.98 KCAL/MOL
REMARK 927      BINDING AFFINITY PREDICTED BY RF-SCORE:    0.00 PKD
ROOT
HETATM    1  C   UNL     1     -11.995   8.243  70.955  1.00  0.00    -0.260 C  
HETATM    2  C   UNL     1     -10.669   7.799  71.617  1.00  0.00    -0.257 C  
HETATM    3  C   UNL     1      -9.674   8.997  71.483  1.00  0.00    -0.365 C  
HETATM    4  C   UNL     1     -10.885   7.682  73.133  1.00  0.00    -0.440 C  
ENDROOT
BRANCH   2   5
HETATM    5  C   UNL     1     -10.223   6.496  70.875  1.00  0.00    -0.220 A  
HETATM    6  C   UNL     1     -10.264   5.306  71.664  1.00  0.00    -0.274 A  
HETATM    7  C   UNL     1      -9.783   4.032  71.283  1.00  0.00    -0.255 A  
HETATM    8  H   UNL     1      -8.314   2.816  68.558  1.00  0.00     0.000 HD 
HETATM    9  C   UNL     1      -9.237   3.969  70.008  1.00  0.00    -0.145 A  
HETATM   10  C   UNL     1      -9.673   6.359  69.574  1.00  0.00    -0.150 A  
HETATM   11  O   UNL     1      -8.687   2.860  69.430  1.00  0.00    -0.064 OA 
HETATM   12  C   UNL     1      -9.194   5.094  69.187  1.00  0.00    -0.150 A  
BRANCH   7  13
HETATM   13  C   UNL     1      -9.852   2.851  72.271  1.00  0.00    -0.234 C  
HETATM   14  C   UNL     1      -8.479   2.623  72.937  1.00  0.00    -0.071 C  
HETATM   15  C   UNL     1     -10.943   3.101  73.335  1.00  0.00    -0.302 C  
HETATM   16  C   UNL     1     -10.232   1.501  71.600  1.00  0.00    -0.134 C  
ENDBRANCH   7  13
BRANCH  10  17
HETATM   17  N   UNL     1      -9.573   7.426  68.640  1.00  0.00    -0.146 N  
HETATM   18  C   UNL     1     -10.369   7.642  67.514  1.00  0.00    -0.257 C  
HETATM   19  H   UNL     1      -8.836   8.111  68.812  1.00  0.00     0.000 HD 
HETATM   20  O   UNL     1     -11.278   6.931  67.095  1.00  0.00    -0.352 OA 
BRANCH  18  21
HETATM   21  C   UNL     1     -10.138   8.935  66.819  1.00  0.00    -0.350 C  
HETATM   22  C   UNL     1      -9.559   8.984  65.600  1.00  0.00    -0.167 C  
HETATM   23  N   UNL     1      -9.470  10.116  64.809  1.00  0.00    -0.272 NA 
HETATM   24  C   UNL     1     -10.340  11.188  65.084  1.00  0.00    -0.293 A  
HETATM   25  C   UNL     1     -10.601  12.201  64.169  1.00  0.00    -0.403 A  
HETATM   26  C   UNL     1     -11.523  13.210  64.481  1.00  0.00    -0.390 A  
HETATM   27  C   UNL     1     -12.171  13.233  65.718  1.00  0.00    -0.510 A  
HETATM   28  C   UNL     1     -11.874  12.266  66.666  1.00  0.00    -0.362 A  
HETATM   29  C   UNL     1     -10.954  11.268  66.343  1.00  0.00    -0.285 A  
HETATM   30  C   UNL     1     -10.636  10.227  67.328  1.00  0.00    -0.267 C  
HETATM   31  O   UNL     1     -10.818  10.427  68.522  1.00  0.00    -0.208 OA 
ENDBRANCH  18  21
ENDBRANCH  10  17
ENDBRANCH   2   5
TORSDOF 4
ENDMDL
MODEL       36
REMARK 921   NORMALIZED FREE ENERGY PREDICTED BY IDOCK:   -5.95 KCAL/MOL
REMARK 922        TOTAL FREE ENERGY PREDICTED BY IDOCK:   -8.52 KCAL/MOL
REMARK 923 INTER-LIGAND FREE ENERGY PREDICTED BY IDOCK:   -8.00 KCAL/MOL
REMARK 924 INTRA-LIGAND FREE ENERGY PREDICTED BY IDOCK:   -0.52 KCAL/MOL
REMARK 927      BINDING AFFINITY PREDICTED BY RF-SCORE:    0.00 PKD
ROOT
HETATM    1  C   UNL     1     -14.079   9.539  70.368  1.00  0.00     0.962 C  
HETATM    2  C   UNL     1     -13.189   9.763  71.613  1.00  0.00    -0.514 C  
HETATM    3  C   UNL     1     -13.262  11.288  71.952  1.00  0.00    -0.491 C  
HETATM    4  C   UNL     1     -13.855   9.096  72.826  1.00  0.00    -0.282 C  
ENDROOT
BRANCH   2   5
HETATM    5  C   UNL     1     -11.763   9.248  71.232  1.00  0.00    -0.416 A  
HETATM    6  C   UNL     1     -11.428   7.957  71.745  1.00  0.00    -0.313 A  
HETATM    7  C   UNL     1     -10.165   7.328  71.669  1.00  0.00    -0.207 A  
HETATM    8  H   UNL     1      -7.213   8.175  70.390  1.00  0.00     0.000 HD 
HETATM    9  C   UNL     1      -9.183   8.060  71.014  1.00  0.00    -0.149 A  
HETATM   10  C   UNL     1     -10.721   9.935  70.556  1.00  0.00    -0.317 A  
HETATM   11  O   UNL     1      -7.885   7.675  70.838  1.00  0.00    -0.087 OA 
HETATM   12  C   UNL     1      -9.461   9.315  70.474  1.00  0.00    -0.317 A  
BRANCH   7  13
HETATM   13  C   UNL     1      -9.946   5.948  72.319  1.00  0.00    -0.193 C  
HETATM   14  C   UNL     1      -9.349   4.958  71.298  1.00  0.00    -0.202 C  
HETATM   15  C   UNL     1      -9.034   6.074  73.559  1.00  0.00    -0.124 C  
HETATM   16  C   UNL     1     -11.256   5.290  72.836  1.00  0.00    -0.375 C  
ENDBRANCH   7  13
BRANCH  10  17
HETATM   17  N   UNL     1     -10.875  11.217  69.960  1.00  0.00    -0.456 N  
HETATM   18  C   UNL     1     -11.449  11.510  68.721  1.00  0.00    -0.287 C  
HETATM   19  H   UNL     1     -10.528  12.011  70.497  1.00  0.00     0.000 HD 
HETATM   20  O   UNL     1     -11.891  10.715  67.896  1.00  0.00    -0.485 OA 
BRANCH  18  21
HETATM   21  C   UNL     1     -11.625  12.957  68.436  1.00  0.00    -0.369 C  
HETATM   22  C   UNL     1     -11.509  13.884  69.411  1.00  0.00    -0.280 C  
HETATM   23  N   UNL     1     -11.480  15.253  69.205  1.00  0.00    -0.298 NA 
HETATM   24  C   UNL     1     -11.170  15.723  67.915  1.00  0.00    -0.313 A  
HETATM   25  C   UNL     1     -10.758  17.027  67.666  1.00  0.00    -0.295 A  
HETATM   26  C   UNL     1     -10.409  17.418  66.367  1.00  0.00    -0.317 A  
HETATM   27  C   UNL     1     -10.495  16.521  65.299  1.00  0.00    -0.236 A  
HETATM   28  C   UNL     1     -10.966  15.236  65.519  1.00  0.00    -0.365 A  
HETATM   29  C   UNL     1     -11.310  14.860  66.818  1.00  0.00    -0.328 A  
HETATM   30  C   UNL     1     -11.798  13.499  67.075  1.00  0.00    -0.402 C  
HETATM   31  O   UNL     1     -12.294  12.837  66.172  1.00  0.00    -0.542 OA 
ENDBRANCH  18  21
ENDBRANCH  10  17
ENDBRANCH   2   5
TORSDOF 4
ENDMDL
MODEL       37
REMARK 921   NORMALIZED FREE ENERGY PREDICTED BY IDOCK:   -5.94 KCAL/MOL
REMARK 922        TOTAL FREE ENERGY PREDICTED BY IDOCK:   -8.49 KCAL/MOL
REMARK 923 INTER-LIGAND FREE ENERGY PREDICTED BY IDOCK:   -7.58 KCAL/MOL
REMARK 924 INTRA-LIGAND FREE ENERGY PREDICTED BY IDOCK:   -0.92 KCAL/MOL
REMARK 927      BINDING AFFINITY PREDICTED BY RF-SCORE:    0.00 PKD
ROOT
HETATM    1  C   UNL     1     -12.102  12.513  66.473  1.00  0.00    -0.245 C  
HETATM    2  C   UNL     1     -10.731  13.209  66.305  1.00  0.00    -0.295 C  
HETATM    3  C   UNL     1      -9.637  12.122  66.561  1.00  0.00    -0.235 C  
HETATM    4  C   UNL     1     -10.535  13.570  64.825  1.00  0.00    -0.430 C  
ENDROOT
BRANCH   2   5
HETATM    5  C   UNL     1     -10.716  14.399  67.319  1.00  0.00    -0.285 A  
HETATM    6  C   UNL     1     -10.568  15.694  66.733  1.00  0.00    -0.307 A  
HETATM    7  C   UNL     1     -10.384  16.911  67.426  1.00  0.00    -0.309 A  
HETATM    8  H   UNL     1     -10.157  17.752  70.636  1.00  0.00     0.000 HD 
HETATM    9  C   UNL     1     -10.362  16.800  68.810  1.00  0.00    -0.318 A  
HETATM   10  C   UNL     1     -10.707  14.357  68.738  1.00  0.00    -0.252 A  
HETATM   11  O   UNL     1     -10.172  17.828  69.690  1.00  0.00    -0.052 OA 
HETATM   12  C   UNL     1     -10.525  15.565  69.436  1.00  0.00    -0.253 A  
BRANCH   7  13
HETATM   13  C   UNL     1     -10.187  18.225  66.645  1.00  0.00    -0.399 C  
HETATM   14  C   UNL     1      -8.688  18.579  66.552  1.00  0.00    -0.296 C  
HETATM   15  C   UNL     1     -10.813  18.115  65.237  1.00  0.00     0.455 C  
HETATM   16  C   UNL     1     -10.875  19.451  67.308  1.00  0.00    -0.561 C  
ENDBRANCH   7  13
BRANCH  10  17
HETATM   17  N   UNL     1     -10.865  13.165  69.496  1.00  0.00    -0.448 N  
HETATM   18  C   UNL     1     -12.038  12.684  70.081  1.00  0.00    -0.294 C  
HETATM   19  H   UNL     1     -10.028  12.597  69.627  1.00  0.00     0.000 HD 
HETATM   20  O   UNL     1     -13.143  13.219  70.086  1.00  0.00     0.258 OA 
BRANCH  18  21
HETATM   21  C   UNL     1     -11.936  11.324  70.669  1.00  0.00    -0.435 C  
HETATM   22  C   UNL     1     -12.843  10.875  71.563  1.00  0.00    -0.454 C  
HETATM   23  N   UNL     1     -12.926   9.572  72.022  1.00  0.00    -0.408 NA 
HETATM   24  C   UNL     1     -12.305   8.560  71.265  1.00  0.00    -0.271 A  
HETATM   25  C   UNL     1     -12.615   7.213  71.409  1.00  0.00    -0.432 A  
HETATM   26  C   UNL     1     -12.003   6.260  70.584  1.00  0.00    -0.091 A  
HETATM   27  C   UNL     1     -11.057   6.637  69.629  1.00  0.00    -0.390 A  
HETATM   28  C   UNL     1     -10.689   7.970  69.517  1.00  0.00    -0.185 A  
HETATM   29  C   UNL     1     -11.305   8.908  70.344  1.00  0.00    -0.229 A  
HETATM   30  C   UNL     1     -10.940  10.326  70.232  1.00  0.00    -0.309 C  
HETATM   31  O   UNL     1      -9.861  10.652  69.757  1.00  0.00    -0.107 OA 
ENDBRANCH  18  21
ENDBRANCH  10  17
ENDBRANCH   2   5
TORSDOF 4
ENDMDL
MODEL       38
REMARK 921   NORMALIZED FREE ENERGY PREDICTED BY IDOCK:   -5.93 KCAL/MOL
REMARK 922        TOTAL FREE ENERGY PREDICTED BY IDOCK:   -8.49 KCAL/MOL
REMARK 923 INTER-LIGAND FREE ENERGY PREDICTED BY IDOCK:   -7.33 KCAL/MOL
REMARK 924 INTRA-LIGAND FREE ENERGY PREDICTED BY IDOCK:   -1.16 KCAL/MOL
REMARK 927      BINDING AFFINITY PREDICTED BY RF-SCORE:    0.00 PKD
ROOT
HETATM    1  C   UNL     1     -11.125   6.804  71.961  1.00  0.00    -0.283 C  
HETATM    2  C   UNL     1     -10.642   8.004  71.113  1.00  0.00    -0.235 C  
HETATM    3  C   UNL     1     -11.861   8.970  70.961  1.00  0.00    -0.339 C  
HETATM    4  C   UNL     1      -9.639   8.824  71.938  1.00  0.00    -0.372 C  
ENDROOT
BRANCH   2   5
HETATM    5  C   UNL     1     -10.112   7.407  69.769  1.00  0.00    -0.193 A  
HETATM    6  C   UNL     1      -9.773   6.019  69.814  1.00  0.00    -0.194 A  
HETATM    7  C   UNL     1      -9.145   5.277  68.789  1.00  0.00    -0.134 A  
HETATM    8  H   UNL     1      -8.035   5.997  65.737  1.00  0.00     0.000 HD 
HETATM    9  C   UNL     1      -8.857   5.996  67.636  1.00  0.00    -0.106 A  
HETATM   10  C   UNL     1      -9.811   8.079  68.555  1.00  0.00    -0.174 A  
HETATM   11  O   UNL     1      -8.232   5.506  66.525  1.00  0.00    -0.105 OA 
HETATM   12  C   UNL     1      -9.187   7.346  67.529  1.00  0.00    -0.140 A  
BRANCH   7  13
HETATM   13  C   UNL     1      -8.796   3.792  69.010  1.00  0.00    -0.152 C  
HETATM   14  C   UNL     1      -7.267   3.600  69.074  1.00  0.00    -0.050 C  
HETATM   15  C   UNL     1      -9.470   3.265  70.296  1.00  0.00    -0.234 C  
HETATM   16  C   UNL     1      -9.296   2.860  67.871  1.00  0.00    -0.256 C  
ENDBRANCH   7  13
BRANCH  10  17
HETATM   17  N   UNL     1     -10.097   9.451  68.318  1.00  0.00    -0.175 N  
HETATM   18  C   UNL     1      -9.328  10.554  68.693  1.00  0.00    -0.172 C  
HETATM   19  H   UNL     1     -10.963   9.652  67.817  1.00  0.00     0.000 HD 
HETATM   20  O   UNL     1      -8.280  10.549  69.334  1.00  0.00    -0.158 OA 
BRANCH  18  21
HETATM   21  C   UNL     1      -9.796  11.858  68.160  1.00  0.00    -0.192 C  
HETATM   22  C   UNL     1      -8.970  12.924  68.086  1.00  0.00    -0.202 C  
HETATM   23  N   UNL     1      -9.266  14.114  67.443  1.00  0.00    -0.196 NA 
HETATM   24  C   UNL     1     -10.304  14.114  66.492  1.00  0.00    -0.284 A  
HETATM   25  C   UNL     1     -10.454  15.116  65.540  1.00  0.00    -0.400 A  
HETATM   26  C   UNL     1     -11.474  15.028  64.583  1.00  0.00    -0.382 A  
HETATM   27  C   UNL     1     -12.370  13.957  64.584  1.00  0.00    -0.421 A  
HETATM   28  C   UNL     1     -12.274  12.983  65.566  1.00  0.00    -0.521 A  
HETATM   29  C   UNL     1     -11.255  13.082  66.513  1.00  0.00    -0.335 A  
HETATM   30  C   UNL     1     -11.127  12.054  67.553  1.00  0.00    -0.275 C  
HETATM   31  O   UNL     1     -12.090  11.367  67.867  1.00  0.00    -0.646 OA 
ENDBRANCH  18  21
ENDBRANCH  10  17
ENDBRANCH   2   5
TORSDOF 4
ENDMDL
MODEL       39
REMARK 921   NORMALIZED FREE ENERGY PREDICTED BY IDOCK:   -5.90 KCAL/MOL
REMARK 922        TOTAL FREE ENERGY PREDICTED BY IDOCK:   -8.45 KCAL/MOL
REMARK 923 INTER-LIGAND FREE ENERGY PREDICTED BY IDOCK:   -7.55 KCAL/MOL
REMARK 924 INTRA-LIGAND FREE ENERGY PREDICTED BY IDOCK:   -0.90 KCAL/MOL
REMARK 927      BINDING AFFINITY PREDICTED BY RF-SCORE:    0.00 PKD
ROOT
HETATM    1  C   UNL     1      -8.735   6.619  67.802  1.00  0.00    -0.116 C  
HETATM    2  C   UNL     1      -9.968   5.715  68.033  1.00  0.00    -0.178 C  
HETATM    3  C   UNL     1     -11.145   6.336  67.211  1.00  0.00    -0.387 C  
HETATM    4  C   UNL     1      -9.729   4.363  67.346  1.00  0.00    -0.217 C  
ENDROOT
BRANCH   2   5
HETATM    5  C   UNL     1     -10.202   5.679  69.579  1.00  0.00    -0.320 A  
HETATM    6  C   UNL     1      -9.852   4.449  70.216  1.00  0.00    -0.284 A  
HETATM    7  C   UNL     1     -10.094   4.106  71.565  1.00  0.00    -0.184 A  
HETATM    8  H   UNL     1     -11.514   5.655  74.143  1.00  0.00     0.000 HD 
HETATM    9  C   UNL     1     -10.723   5.089  72.316  1.00  0.00    -0.180 A  
HETATM   10  C   UNL     1     -10.823   6.650  70.407  1.00  0.00    -0.266 A  
HETATM   11  O   UNL     1     -11.084   4.982  73.629  1.00  0.00    -0.308 OA 
HETATM   12  C   UNL     1     -11.066   6.317  71.752  1.00  0.00    -0.321 A  
BRANCH   7  13
HETATM   13  C   UNL     1      -9.701   2.712  72.093  1.00  0.00    -0.216 C  
HETATM   14  C   UNL     1     -10.877   2.073  72.860  1.00  0.00    -0.214 C  
HETATM   15  C   UNL     1      -9.247   1.803  70.930  1.00  0.00    -0.168 C  
HETATM   16  C   UNL     1      -8.506   2.738  73.087  1.00  0.00    -0.075 C  
ENDBRANCH   7  13
BRANCH  10  17
HETATM   17  N   UNL     1     -11.218   7.939  69.955  1.00  0.00    -0.429 N  
HETATM   18  C   UNL     1     -10.432   9.090  69.888  1.00  0.00    -0.215 C  
HETATM   19  H   UNL     1     -12.186   8.033  69.645  1.00  0.00     0.000 HD 
HETATM   20  O   UNL     1      -9.263   9.218  70.245  1.00  0.00    -0.198 OA 
BRANCH  18  21
HETATM   21  C   UNL     1     -11.070  10.250  69.214  1.00  0.00    -0.293 C  
HETATM   22  C   UNL     1     -11.740  11.189  69.916  1.00  0.00    -0.355 C  
HETATM   23  N   UNL     1     -12.207  12.384  69.398  1.00  0.00    -0.146 NA 
HETATM   24  C   UNL     1     -11.649  12.847  68.191  1.00  0.00    -0.336 A  
HETATM   25  C   UNL     1     -11.758  14.166  67.767  1.00  0.00    -0.408 A  
HETATM   26  C   UNL     1     -11.129  14.579  66.584  1.00  0.00    -0.333 A  
HETATM   27  C   UNL     1     -10.411  13.674  65.799  1.00  0.00    -0.296 A  
HETATM   28  C   UNL     1     -10.347  12.340  66.174  1.00  0.00    -0.269 A  
HETATM   29  C   UNL     1     -10.977  11.943  67.354  1.00  0.00    -0.315 A  
HETATM   30  C   UNL     1     -10.910  10.539  67.776  1.00  0.00    -0.294 C  
HETATM   31  O   UNL     1     -10.691   9.655  66.958  1.00  0.00    -0.230 OA 
ENDBRANCH  18  21
ENDBRANCH  10  17
ENDBRANCH   2   5
TORSDOF 4
ENDMDL
MODEL       40
REMARK 921   NORMALIZED FREE ENERGY PREDICTED BY IDOCK:   -5.86 KCAL/MOL
REMARK 922        TOTAL FREE ENERGY PREDICTED BY IDOCK:   -8.40 KCAL/MOL
REMARK 923 INTER-LIGAND FREE ENERGY PREDICTED BY IDOCK:   -7.58 KCAL/MOL
REMARK 924 INTRA-LIGAND FREE ENERGY PREDICTED BY IDOCK:   -0.82 KCAL/MOL
REMARK 927      BINDING AFFINITY PREDICTED BY RF-SCORE:    0.00 PKD
ROOT
HETATM    1  C   UNL     1     -12.157  12.450  65.590  1.00  0.00    -0.396 C  
HETATM    2  C   UNL     1     -10.721  12.132  65.113  1.00  0.00    -0.333 C  
HETATM    3  C   UNL     1     -10.855  11.283  63.807  1.00  0.00    -0.424 C  
HETATM    4  C   UNL     1     -10.059  13.431  64.628  1.00  0.00    -0.256 C  
ENDROOT
BRANCH   2   5
HETATM    5  C   UNL     1     -10.017  11.395  66.299  1.00  0.00    -0.259 A  
HETATM    6  C   UNL     1      -9.920   9.976  66.158  1.00  0.00    -0.322 A  
HETATM    7  C   UNL     1      -9.463   9.067  67.138  1.00  0.00    -0.196 A  
HETATM    8  H   UNL     1      -8.345   9.370  70.256  1.00  0.00     0.000 HD 
HETATM    9  C   UNL     1      -9.067   9.646  68.337  1.00  0.00    -0.123 A  
HETATM   10  C   UNL     1      -9.577  11.926  67.540  1.00  0.00    -0.175 A  
HETATM   11  O   UNL     1      -8.616   8.974  69.437  1.00  0.00    -0.129 OA 
HETATM   12  C   UNL     1      -9.119  11.027  68.520  1.00  0.00    -0.173 A  
BRANCH   7  13
HETATM   13  C   UNL     1      -9.467   7.552  66.852  1.00  0.00    -0.219 C  
HETATM   14  C   UNL     1     -10.881   6.968  67.050  1.00  0.00    -0.413 C  
HETATM   15  C   UNL     1      -8.953   7.273  65.422  1.00  0.00     0.164 C  
HETATM   16  C   UNL     1      -8.533   6.740  67.792  1.00  0.00    -0.122 C  
ENDBRANCH   7  13
BRANCH  10  17
HETATM   17  N   UNL     1      -9.576  13.313  67.851  1.00  0.00    -0.210 N  
HETATM   18  C   UNL     1      -8.499  14.198  67.767  1.00  0.00    -0.178 C  
HETATM   19  H   UNL     1     -10.461  13.705  68.173  1.00  0.00     0.000 HD 
HETATM   20  O   UNL     1      -7.342  13.938  67.448  1.00  0.00    -0.174 OA 
BRANCH  18  21
HETATM   21  C   UNL     1      -8.839  15.626  67.996  1.00  0.00    -0.169 C  
HETATM   22  C   UNL     1      -8.027  16.435  68.709  1.00  0.00    -0.233 C  
HETATM   23  N   UNL     1      -8.174  17.807  68.820  1.00  0.00    -0.267 NA 
HETATM   24  C   UNL     1      -8.960  18.471  67.859  1.00  0.00    -0.284 A  
HETATM   25  C   UNL     1      -8.890  19.842  67.644  1.00  0.00    -0.406 A  
HETATM   26  C   UNL     1      -9.656  20.435  66.631  1.00  0.00    -0.480 A  
HETATM   27  C   UNL     1     -10.520  19.670  65.843  1.00  0.00    -0.591 A  
HETATM   28  C   UNL     1     -10.649  18.311  66.087  1.00  0.00    -0.326 A  
HETATM   29  C   UNL     1      -9.881  17.734  67.098  1.00  0.00    -0.311 A  
HETATM   30  C   UNL     1      -9.992  16.295  67.364  1.00  0.00    -0.249 C  
HETATM   31  O   UNL     1     -10.997  15.679  67.031  1.00  0.00    -0.322 OA 
ENDBRANCH  18  21
ENDBRANCH  10  17
ENDBRANCH   2   5
TORSDOF 4
ENDMDL
MODEL       41
REMARK 921   NORMALIZED FREE ENERGY PREDICTED BY IDOCK:   -5.85 KCAL/MOL
REMARK 922        TOTAL FREE ENERGY PREDICTED BY IDOCK:   -8.39 KCAL/MOL
REMARK 923 INTER-LIGAND FREE ENERGY PREDICTED BY IDOCK:   -7.25 KCAL/MOL
REMARK 924 INTRA-LIGAND FREE ENERGY PREDICTED BY IDOCK:   -1.14 KCAL/MOL
REMARK 927      BINDING AFFINITY PREDICTED BY RF-SCORE:    0.00 PKD
ROOT
HETATM    1  C   UNL     1      -8.237   7.936  66.058  1.00  0.00    -0.122 C  
HETATM    2  C   UNL     1      -8.745   9.342  66.455  1.00  0.00    -0.145 C  
HETATM    3  C   UNL     1      -7.613  10.353  66.082  1.00  0.00    -0.130 C  
HETATM    4  C   UNL     1      -9.898   9.736  65.520  1.00  0.00    -0.378 C  
ENDROOT
BRANCH   2   5
HETATM    5  C   UNL     1      -9.080   9.272  67.981  1.00  0.00    -0.132 A  
HETATM    6  C   UNL     1      -8.859   8.000  68.593  1.00  0.00    -0.134 A  
HETATM    7  C   UNL     1      -9.211   7.632  69.911  1.00  0.00    -0.147 A  
HETATM    8  H   UNL     1     -10.682   9.196  72.451  1.00  0.00     0.000 HD 
HETATM    9  C   UNL     1      -9.817   8.634  70.657  1.00  0.00    -0.183 A  
HETATM   10  C   UNL     1      -9.684  10.259  68.804  1.00  0.00    -0.177 A  
HETATM   11  O   UNL     1     -10.268   8.511  71.941  1.00  0.00    -0.243 OA 
HETATM   12  C   UNL     1     -10.036   9.901  70.118  1.00  0.00    -0.291 A  
BRANCH   7  13
HETATM   13  C   UNL     1      -8.952   6.198  70.410  1.00  0.00    -0.151 C  
HETATM   14  C   UNL     1     -10.285   5.479  70.705  1.00  0.00    -0.308 C  
HETATM   15  C   UNL     1      -8.120   5.409  69.376  1.00  0.00    -0.093 C  
HETATM   16  C   UNL     1      -8.133   6.138  71.730  1.00  0.00    -0.110 C  
ENDBRANCH   7  13
BRANCH  10  17
HETATM   17  N   UNL     1      -9.958  11.587  68.376  1.00  0.00    -0.201 N  
HETATM   18  C   UNL     1     -11.193  12.116  67.999  1.00  0.00    -0.264 C  
HETATM   19  H   UNL     1      -9.162  12.225  68.342  1.00  0.00     0.000 HD 
HETATM   20  O   UNL     1     -12.267  11.525  67.925  1.00  0.00    -0.586 OA 
BRANCH  18  21
HETATM   21  C   UNL     1     -11.204  13.583  67.762  1.00  0.00    -0.308 C  
HETATM   22  C   UNL     1     -11.838  14.426  68.604  1.00  0.00    -0.331 C  
HETATM   23  N   UNL     1     -11.749  15.806  68.560  1.00  0.00    -0.370 NA 
HETATM   24  C   UNL     1     -10.665  16.380  67.869  1.00  0.00    -0.332 A  
HETATM   25  C   UNL     1     -10.266  17.699  68.054  1.00  0.00    -0.362 A  
HETATM   26  C   UNL     1      -9.141  18.193  67.378  1.00  0.00    -0.253 A  
HETATM   27  C   UNL     1      -8.424  17.387  66.491  1.00  0.00    -0.298 A  
HETATM   28  C   UNL     1      -8.848  16.090  66.247  1.00  0.00    -0.379 A  
HETATM   29  C   UNL     1      -9.968  15.610  66.926  1.00  0.00    -0.252 A  
HETATM   30  C   UNL     1     -10.425  14.235  66.691  1.00  0.00    -0.278 C  
HETATM   31  O   UNL     1     -10.130  13.651  65.656  1.00  0.00    -0.293 OA 
ENDBRANCH  18  21
ENDBRANCH  10  17
ENDBRANCH   2   5
TORSDOF 4
ENDMDL
MODEL       42
REMARK 921   NORMALIZED FREE ENERGY PREDICTED BY IDOCK:   -5.85 KCAL/MOL
REMARK 922        TOTAL FREE ENERGY PREDICTED BY IDOCK:   -8.39 KCAL/MOL
REMARK 923 INTER-LIGAND FREE ENERGY PREDICTED BY IDOCK:   -7.21 KCAL/MOL
REMARK 924 INTRA-LIGAND FREE ENERGY PREDICTED BY IDOCK:   -1.18 KCAL/MOL
REMARK 927      BINDING AFFINITY PREDICTED BY RF-SCORE:    0.00 PKD
ROOT
HETATM    1  C   UNL     1     -13.484   9.753  70.398  1.00  0.00     0.348 C  
HETATM    2  C   UNL     1     -12.132  10.495  70.508  1.00  0.00    -0.437 C  
HETATM    3  C   UNL     1     -12.430  11.883  71.164  1.00  0.00    -0.365 C  
HETATM    4  C   UNL     1     -11.259   9.787  71.554  1.00  0.00    -0.291 C  
ENDROOT
BRANCH   2   5
HETATM    5  C   UNL     1     -11.554  10.571  69.057  1.00  0.00    -0.278 A  
HETATM    6  C   UNL     1     -11.597  11.866  68.455  1.00  0.00    -0.376 A  
HETATM    7  C   UNL     1     -11.274  12.178  67.115  1.00  0.00    -0.372 A  
HETATM    8  H   UNL     1     -10.250  10.405  64.493  1.00  0.00     0.000 HD 
HETATM    9  C   UNL     1     -10.867  11.098  66.343  1.00  0.00    -0.225 A  
HETATM   10  C   UNL     1     -11.109   9.514  68.221  1.00  0.00     0.009 A  
HETATM   11  O   UNL     1     -10.529  11.144  65.020  1.00  0.00    -0.286 OA 
HETATM   12  C   UNL     1     -10.783   9.816  66.886  1.00  0.00    -0.192 A  
BRANCH   7  13
HETATM   13  C   UNL     1     -11.422  13.622  66.598  1.00  0.00    -0.365 C  
HETATM   14  C   UNL     1     -11.784  14.576  67.755  1.00  0.00    -0.403 C  
HETATM   15  C   UNL     1     -10.124  14.079  65.896  1.00  0.00    -0.336 C  
HETATM   16  C   UNL     1     -12.545  13.791  65.537  1.00  0.00    -0.551 C  
ENDBRANCH   7  13
BRANCH  10  17
HETATM   17  N   UNL     1     -10.977   8.166  68.652  1.00  0.00    -0.415 N  
HETATM   18  C   UNL     1      -9.839   7.553  69.180  1.00  0.00    -0.170 C  
HETATM   19  H   UNL     1     -11.808   7.580  68.567  1.00  0.00     0.000 HD 
HETATM   20  O   UNL     1      -8.726   8.051  69.332  1.00  0.00    -0.135 OA 
BRANCH  18  21
HETATM   21  C   UNL     1     -10.048   6.178  69.700  1.00  0.00    -0.226 C  
HETATM   22  C   UNL     1      -9.294   5.143  69.272  1.00  0.00    -0.123 C  
HETATM   23  N   UNL     1      -9.299   3.875  69.828  1.00  0.00    -0.155 NA 
HETATM   24  C   UNL     1      -9.811   3.723  71.131  1.00  0.00    -0.143 A  
HETATM   25  C   UNL     1      -9.545   2.611  71.921  1.00  0.00    -0.212 A  
HETATM   26  C   UNL     1     -10.037   2.546  73.231  1.00  0.00    -0.190 A  
HETATM   27  C   UNL     1     -10.821   3.576  73.756  1.00  0.00    -0.317 A  
HETATM   28  C   UNL     1     -11.150   4.662  72.959  1.00  0.00    -0.327 A  
HETATM   29  C   UNL     1     -10.654   4.714  71.656  1.00  0.00    -0.045 A  
HETATM   30  C   UNL     1     -10.978   5.862  70.801  1.00  0.00    -0.273 C  
HETATM   31  O   UNL     1     -11.968   6.545  71.029  1.00  0.00    -0.361 OA 
ENDBRANCH  18  21
ENDBRANCH  10  17
ENDBRANCH   2   5
TORSDOF 4
ENDMDL
MODEL       43
REMARK 921   NORMALIZED FREE ENERGY PREDICTED BY IDOCK:   -5.85 KCAL/MOL
REMARK 922        TOTAL FREE ENERGY PREDICTED BY IDOCK:   -8.39 KCAL/MOL
REMARK 923 INTER-LIGAND FREE ENERGY PREDICTED BY IDOCK:   -7.28 KCAL/MOL
REMARK 924 INTRA-LIGAND FREE ENERGY PREDICTED BY IDOCK:   -1.11 KCAL/MOL
REMARK 927      BINDING AFFINITY PREDICTED BY RF-SCORE:    0.00 PKD
ROOT
HETATM    1  C   UNL     1      -9.465  15.424  68.678  1.00  0.00    -0.205 C  
HETATM    2  C   UNL     1      -9.683  13.988  68.146  1.00  0.00    -0.220 C  
HETATM    3  C   UNL     1     -10.073  14.119  66.637  1.00  0.00    -0.275 C  
HETATM    4  C   UNL     1      -8.329  13.264  68.101  1.00  0.00    -0.161 C  
ENDROOT
BRANCH   2   5
HETATM    5  C   UNL     1     -10.785  13.346  69.051  1.00  0.00    -0.160 A  
HETATM    6  C   UNL     1     -11.398  14.239  69.983  1.00  0.00    -0.224 A  
HETATM    7  C   UNL     1     -12.312  13.887  71.002  1.00  0.00    -0.453 A  
HETATM    8  H   UNL     1     -13.681  11.031  72.019  1.00  0.00     0.000 HD 
HETATM    9  C   UNL     1     -12.629  12.537  71.065  1.00  0.00    -0.256 A  
HETATM   10  C   UNL     1     -11.168  11.983  69.154  1.00  0.00    -0.246 A  
HETATM   11  O   UNL     1     -13.464  11.955  71.976  1.00  0.00    -0.431 OA 
HETATM   12  C   UNL     1     -12.078  11.625  70.165  1.00  0.00    -0.414 A  
BRANCH   7  13
HETATM   13  C   UNL     1     -12.849  14.963  71.966  1.00  0.00    -0.399 C  
HETATM   14  C   UNL     1     -12.732  14.485  73.428  1.00  0.00    -0.428 C  
HETATM   15  C   UNL     1     -12.094  16.295  71.763  1.00  0.00    -0.408 C  
HETATM   16  C   UNL     1     -14.350  15.302  71.746  1.00  0.00    -0.678 C  
ENDBRANCH   7  13
BRANCH  10  17
HETATM   17  N   UNL     1     -10.682  10.958  68.298  1.00  0.00    -0.189 N  
HETATM   18  C   UNL     1     -11.036  10.727  66.967  1.00  0.00    -0.174 C  
HETATM   19  H   UNL     1      -9.997  10.318  68.702  1.00  0.00     0.000 HD 
HETATM   20  O   UNL     1     -11.863  11.340  66.299  1.00  0.00    -0.142 OA 
BRANCH  18  21
HETATM   21  C   UNL     1     -10.237   9.683  66.275  1.00  0.00    -0.286 C  
HETATM   22  C   UNL     1      -9.621   9.935  65.101  1.00  0.00    -0.300 C  
HETATM   23  N   UNL     1      -8.718   9.088  64.481  1.00  0.00    -0.158 NA 
HETATM   24  C   UNL     1      -8.102   8.090  65.260  1.00  0.00    -0.138 A  
HETATM   25  C   UNL     1      -6.943   7.433  64.865  1.00  0.00    -0.051 A  
HETATM   26  C   UNL     1      -6.345   6.491  65.713  1.00  0.00    -0.039 A  
HETATM   27  C   UNL     1      -6.914   6.173  66.949  1.00  0.00    -0.071 A  
HETATM   28  C   UNL     1      -8.105   6.772  67.329  1.00  0.00    -0.118 A  
HETATM   29  C   UNL     1      -8.689   7.708  66.476  1.00  0.00    -0.161 A  
HETATM   30  C   UNL     1      -9.943   8.364  66.867  1.00  0.00    -0.271 C  
HETATM   31  O   UNL     1     -10.689   7.839  67.683  1.00  0.00    -0.225 OA 
ENDBRANCH  18  21
ENDBRANCH  10  17
ENDBRANCH   2   5
TORSDOF 4
ENDMDL
MODEL       44
REMARK 921   NORMALIZED FREE ENERGY PREDICTED BY IDOCK:   -5.85 KCAL/MOL
REMARK 922        TOTAL FREE ENERGY PREDICTED BY IDOCK:   -8.39 KCAL/MOL
REMARK 923 INTER-LIGAND FREE ENERGY PREDICTED BY IDOCK:   -7.50 KCAL/MOL
REMARK 924 INTRA-LIGAND FREE ENERGY PREDICTED BY IDOCK:   -0.89 KCAL/MOL
REMARK 927      BINDING AFFINITY PREDICTED BY RF-SCORE:    0.00 PKD
ROOT
HETATM    1  C   UNL     1      -8.492   6.439  67.378  1.00  0.00    -0.108 C  
HETATM    2  C   UNL     1      -9.796   5.760  67.860  1.00  0.00    -0.147 C  
HETATM    3  C   UNL     1     -10.860   5.977  66.735  1.00  0.00    -0.356 C  
HETATM    4  C   UNL     1      -9.591   4.238  67.867  1.00  0.00    -0.207 C  
ENDROOT
BRANCH   2   5
HETATM    5  C   UNL     1     -10.154   6.421  69.231  1.00  0.00    -0.203 A  
HETATM    6  C   UNL     1     -10.168   5.530  70.348  1.00  0.00    -0.321 A  
HETATM    7  C   UNL     1     -10.593   5.837  71.660  1.00  0.00    -0.302 A  
HETATM    8  H   UNL     1     -11.791   8.564  73.140  1.00  0.00     0.000 HD 
HETATM    9  C   UNL     1     -11.020   7.145  71.846  1.00  0.00    -0.231 A  
HETATM   10  C   UNL     1     -10.582   7.748  69.493  1.00  0.00    -0.221 A  
HETATM   11  O   UNL     1     -11.499   7.669  73.013  1.00  0.00    -0.342 OA 
HETATM   12  C   UNL     1     -11.006   8.064  70.797  1.00  0.00    -0.259 A  
BRANCH   7  13
HETATM   13  C   UNL     1     -10.597   4.747  72.749  1.00  0.00    -0.272 C  
HETATM   14  C   UNL     1      -9.993   3.436  72.203  1.00  0.00    -0.230 C  
HETATM   15  C   UNL     1      -9.824   5.228  73.996  1.00  0.00    -0.185 C  
HETATM   16  C   UNL     1     -12.019   4.383  73.260  1.00  0.00     0.084 C  
ENDBRANCH   7  13
BRANCH  10  17
HETATM   17  N   UNL     1     -10.613   8.778  68.513  1.00  0.00    -0.363 N  
HETATM   18  C   UNL     1      -9.610   9.708  68.232  1.00  0.00    -0.140 C  
HETATM   19  H   UNL     1     -11.463   8.845  67.953  1.00  0.00     0.000 HD 
HETATM   20  O   UNL     1      -8.531   9.839  68.804  1.00  0.00    -0.114 OA 
BRANCH  18  21
HETATM   21  C   UNL     1      -9.857  10.558  67.039  1.00  0.00    -0.223 C  
HETATM   22  C   UNL     1      -9.845  10.038  65.792  1.00  0.00    -0.278 C  
HETATM   23  N   UNL     1     -10.238  10.712  64.649  1.00  0.00    -0.349 NA 
HETATM   24  C   UNL     1     -11.048  11.854  64.796  1.00  0.00    -0.311 A  
HETATM   25  C   UNL     1     -11.793  12.390  63.752  1.00  0.00    -0.587 A  
HETATM   26  C   UNL     1     -12.626  13.494  63.977  1.00  0.00    -0.168 A  
HETATM   27  C   UNL     1     -12.702  14.091  65.238  1.00  0.00    -0.468 A  
HETATM   28  C   UNL     1     -11.917  13.608  66.274  1.00  0.00    -0.461 A  
HETATM   29  C   UNL     1     -11.092  12.509  66.036  1.00  0.00    -0.329 A  
HETATM   30  C   UNL     1     -10.263  11.974  67.123  1.00  0.00    -0.202 C  
HETATM   31  O   UNL     1      -9.960  12.679  68.076  1.00  0.00    -0.207 OA 
ENDBRANCH  18  21
ENDBRANCH  10  17
ENDBRANCH   2   5
TORSDOF 4
ENDMDL
MODEL       45
REMARK 921   NORMALIZED FREE ENERGY PREDICTED BY IDOCK:   -5.85 KCAL/MOL
REMARK 922        TOTAL FREE ENERGY PREDICTED BY IDOCK:   -8.39 KCAL/MOL
REMARK 923 INTER-LIGAND FREE ENERGY PREDICTED BY IDOCK:   -7.55 KCAL/MOL
REMARK 924 INTRA-LIGAND FREE ENERGY PREDICTED BY IDOCK:   -0.84 KCAL/MOL
REMARK 927      BINDING AFFINITY PREDICTED BY RF-SCORE:    0.00 PKD
ROOT
HETATM    1  C   UNL     1     -10.275  10.339  69.913  1.00  0.00    -0.250 C  
HETATM    2  C   UNL     1     -10.436  11.319  68.727  1.00  0.00    -0.232 C  
HETATM    3  C   UNL     1     -11.947  11.717  68.672  1.00  0.00    -0.299 C  
HETATM    4  C   UNL     1      -9.732  12.639  69.073  1.00  0.00     0.323 C  
ENDROOT
BRANCH   2   5
HETATM    5  C   UNL     1      -9.915  10.564  67.460  1.00  0.00    -0.204 A  
HETATM    6  C   UNL     1      -9.852   9.142  67.585  1.00  0.00    -0.217 A  
HETATM    7  C   UNL     1      -9.290   8.243  66.651  1.00  0.00    -0.246 A  
HETATM    8  H   UNL     1      -7.801   8.584  63.696  1.00  0.00     0.000 HD 
HETATM    9  C   UNL     1      -8.771   8.835  65.507  1.00  0.00    -0.185 A  
HETATM   10  C   UNL     1      -9.386  11.104  66.259  1.00  0.00    -0.195 A  
HETATM   11  O   UNL     1      -8.156   8.180  64.478  1.00  0.00    -0.147 OA 
HETATM   12  C   UNL     1      -8.827  10.216  65.322  1.00  0.00    -0.201 A  
BRANCH   7  13
HETATM   13  C   UNL     1      -9.252   6.733  66.955  1.00  0.00    -0.162 C  
HETATM   14  C   UNL     1      -9.115   6.491  68.472  1.00  0.00    -0.127 C  
HETATM   15  C   UNL     1     -10.515   6.039  66.400  1.00  0.00    -0.141 C  
HETATM   16  C   UNL     1      -8.053   5.996  66.295  1.00  0.00    -0.112 C  
ENDBRANCH   7  13
BRANCH  10  17
HETATM   17  N   UNL     1      -9.384  12.491  65.948  1.00  0.00    -0.435 N  
HETATM   18  C   UNL     1     -10.488  13.295  65.655  1.00  0.00    -0.281 C  
HETATM   19  H   UNL     1      -8.473  12.952  65.938  1.00  0.00     0.000 HD 
HETATM   20  O   UNL     1     -11.662  12.946  65.570  1.00  0.00    -0.343 OA 
BRANCH  18  21
HETATM   21  C   UNL     1     -10.196  14.746  65.536  1.00  0.00    -0.400 C  
HETATM   22  C   UNL     1     -10.950  15.553  64.758  1.00  0.00    -0.399 C  
HETATM   23  N   UNL     1     -10.862  16.934  64.729  1.00  0.00    -0.816 NA 
HETATM   24  C   UNL     1     -10.243  17.583  65.814  1.00  0.00    -0.173 A  
HETATM   25  C   UNL     1     -10.412  18.937  66.078  1.00  0.00    -0.507 A  
HETATM   26  C   UNL     1      -9.815  19.512  67.209  1.00  0.00    -0.468 A  
HETATM   27  C   UNL     1      -9.023  18.749  68.069  1.00  0.00    -0.326 A  
HETATM   28  C   UNL     1      -8.792  17.412  67.784  1.00  0.00    -0.232 A  
HETATM   29  C   UNL     1      -9.392  16.852  66.656  1.00  0.00    -0.278 A  
HETATM   30  C   UNL     1      -9.172  15.435  66.344  1.00  0.00    -0.305 C  
HETATM   31  O   UNL     1      -8.188  14.850  66.779  1.00  0.00    -0.191 OA 
ENDBRANCH  18  21
ENDBRANCH  10  17
ENDBRANCH   2   5
TORSDOF 4
ENDMDL
MODEL       46
REMARK 921   NORMALIZED FREE ENERGY PREDICTED BY IDOCK:   -5.84 KCAL/MOL
REMARK 922        TOTAL FREE ENERGY PREDICTED BY IDOCK:   -8.38 KCAL/MOL
REMARK 923 INTER-LIGAND FREE ENERGY PREDICTED BY IDOCK:   -7.28 KCAL/MOL
REMARK 924 INTRA-LIGAND FREE ENERGY PREDICTED BY IDOCK:   -1.10 KCAL/MOL
REMARK 927      BINDING AFFINITY PREDICTED BY RF-SCORE:    0.00 PKD
ROOT
HETATM    1  C   UNL     1     -10.434  13.168  64.244  1.00  0.00    -0.410 C  
HETATM    2  C   UNL     1     -10.968  14.190  65.274  1.00  0.00    -0.339 C  
HETATM    3  C   UNL     1     -11.316  15.492  64.481  1.00  0.00    -0.322 C  
HETATM    4  C   UNL     1     -12.332  13.710  65.789  1.00  0.00    -0.524 C  
ENDROOT
BRANCH   2   5
HETATM    5  C   UNL     1      -9.841  14.362  66.345  1.00  0.00    -0.309 A  
HETATM    6  C   UNL     1      -9.169  15.623  66.321  1.00  0.00    -0.365 A  
HETATM    7  C   UNL     1      -8.032  15.981  67.078  1.00  0.00    -0.262 A  
HETATM    8  H   UNL     1      -6.136  14.411  69.316  1.00  0.00     0.000 HD 
HETATM    9  C   UNL     1      -7.557  14.989  67.927  1.00  0.00    -0.139 A  
HETATM   10  C   UNL     1      -9.320  13.400  67.249  1.00  0.00    -0.233 A  
HETATM   11  O   UNL     1      -6.460  15.088  68.735  1.00  0.00    -0.080 OA 
HETATM   12  C   UNL     1      -8.188  13.749  68.009  1.00  0.00    -0.164 A  
BRANCH   7  13
HETATM   13  C   UNL     1      -7.388  17.369  66.901  1.00  0.00    -0.237 C  
HETATM   14  C   UNL     1      -5.987  17.239  66.268  1.00  0.00    -0.176 C  
HETATM   15  C   UNL     1      -8.295  18.279  66.043  1.00  0.00    -0.057 C  
HETATM   16  C   UNL     1      -7.183  18.135  68.238  1.00  0.00    -0.257 C  
ENDBRANCH   7  13
BRANCH  10  17
HETATM   17  N   UNL     1      -9.871  12.102  67.429  1.00  0.00    -0.188 N  
HETATM   18  C   UNL     1      -9.391  10.899  66.907  1.00  0.00    -0.168 C  
HETATM   19  H   UNL     1     -10.712  12.043  68.003  1.00  0.00     0.000 HD 
HETATM   20  O   UNL     1      -8.428  10.740  66.163  1.00  0.00    -0.156 OA 
BRANCH  18  21
HETATM   21  C   UNL     1     -10.078   9.679  67.404  1.00  0.00    -0.257 C  
HETATM   22  C   UNL     1     -10.231   8.591  66.620  1.00  0.00    -0.275 C  
HETATM   23  N   UNL     1     -10.694   7.360  67.053  1.00  0.00    -0.356 NA 
HETATM   24  C   UNL     1     -10.651   7.083  68.432  1.00  0.00    -0.202 A  
HETATM   25  C   UNL     1     -10.736   5.794  68.946  1.00  0.00    -0.334 A  
HETATM   26  C   UNL     1     -10.629   5.579  70.326  1.00  0.00    -0.357 A  
HETATM   27  C   UNL     1     -10.464   6.649  71.210  1.00  0.00    -0.244 A  
HETATM   28  C   UNL     1     -10.443   7.946  70.719  1.00  0.00    -0.218 A  
HETATM   29  C   UNL     1     -10.551   8.146  69.343  1.00  0.00    -0.206 A  
HETATM   30  C   UNL     1     -10.516   9.510  68.803  1.00  0.00    -0.219 C  
HETATM   31  O   UNL     1     -10.807  10.465  69.511  1.00  0.00    -0.221 OA 
ENDBRANCH  18  21
ENDBRANCH  10  17
ENDBRANCH   2   5
TORSDOF 4
ENDMDL
MODEL       47
REMARK 921   NORMALIZED FREE ENERGY PREDICTED BY IDOCK:   -5.84 KCAL/MOL
REMARK 922        TOTAL FREE ENERGY PREDICTED BY IDOCK:   -8.37 KCAL/MOL
REMARK 923 INTER-LIGAND FREE ENERGY PREDICTED BY IDOCK:   -7.37 KCAL/MOL
REMARK 924 INTRA-LIGAND FREE ENERGY PREDICTED BY IDOCK:   -1.00 KCAL/MOL
REMARK 927      BINDING AFFINITY PREDICTED BY RF-SCORE:    0.00 PKD
ROOT
HETATM    1  C   UNL     1     -10.819  14.880  64.963  1.00  0.00    -0.439 C  
HETATM    2  C   UNL     1     -11.162  13.695  65.896  1.00  0.00    -0.311 C  
HETATM    3  C   UNL     1     -12.068  14.265  67.036  1.00  0.00    -0.424 C  
HETATM    4  C   UNL     1     -12.092  12.727  65.151  1.00  0.00    -0.498 C  
ENDROOT
BRANCH   2   5
HETATM    5  C   UNL     1      -9.796  13.110  66.383  1.00  0.00    -0.279 A  
HETATM    6  C   UNL     1      -9.703  11.685  66.356  1.00  0.00    -0.236 A  
HETATM    7  C   UNL     1      -8.643  10.904  66.870  1.00  0.00    -0.136 A  
HETATM    8  H   UNL     1      -5.776  11.596  68.409  1.00  0.00     0.000 HD 
HETATM    9  C   UNL     1      -7.603  11.629  67.438  1.00  0.00    -0.139 A  
HETATM   10  C   UNL     1      -8.691  13.792  66.957  1.00  0.00    -0.198 A  
HETATM   11  O   UNL     1      -6.487  11.100  68.021  1.00  0.00    -0.056 OA 
HETATM   12  C   UNL     1      -7.630  13.023  67.470  1.00  0.00    -0.166 A  
BRANCH   7  13
HETATM   13  C   UNL     1      -8.713   9.366  66.811  1.00  0.00    -0.138 C  
HETATM   14  C   UNL     1      -7.679   8.816  65.807  1.00  0.00    -0.094 C  
HETATM   15  C   UNL     1      -8.490   8.762  68.215  1.00  0.00    -0.130 C  
HETATM   16  C   UNL     1     -10.093   8.824  66.344  1.00  0.00    -0.313 C  
ENDBRANCH   7  13
BRANCH  10  17
HETATM   17  N   UNL     1      -8.595  15.207  67.049  1.00  0.00    -0.221 N  
HETATM   18  C   UNL     1      -8.944  16.011  68.136  1.00  0.00    -0.183 C  
HETATM   19  H   UNL     1      -8.230  15.691  66.227  1.00  0.00     0.000 HD 
HETATM   20  O   UNL     1      -9.437  15.651  69.202  1.00  0.00    -0.219 OA 
BRANCH  18  21
HETATM   21  C   UNL     1      -8.575  17.443  68.004  1.00  0.00    -0.240 C  
HETATM   22  C   UNL     1      -8.202  18.174  69.076  1.00  0.00    -0.039 C  
HETATM   23  N   UNL     1      -7.674  19.453  69.020  1.00  0.00    -0.354 NA 
HETATM   24  C   UNL     1      -7.133  19.895  67.798  1.00  0.00    -0.274 A  
HETATM   25  C   UNL     1      -6.269  20.979  67.704  1.00  0.00    -0.406 A  
HETATM   26  C   UNL     1      -5.718  21.333  66.465  1.00  0.00    -0.338 A  
HETATM   27  C   UNL     1      -6.046  20.627  65.305  1.00  0.00    -0.281 A  
HETATM   28  C   UNL     1      -6.957  19.584  65.371  1.00  0.00    -0.245 A  
HETATM   29  C   UNL     1      -7.498  19.242  66.610  1.00  0.00    -0.246 A  
HETATM   30  C   UNL     1      -8.453  18.132  66.704  1.00  0.00    -0.264 C  
HETATM   31  O   UNL     1      -9.091  17.777  65.721  1.00  0.00    -0.503 OA 
ENDBRANCH  18  21
ENDBRANCH  10  17
ENDBRANCH   2   5
TORSDOF 4
ENDMDL
MODEL       48
REMARK 921   NORMALIZED FREE ENERGY PREDICTED BY IDOCK:   -5.83 KCAL/MOL
REMARK 922        TOTAL FREE ENERGY PREDICTED BY IDOCK:   -8.37 KCAL/MOL
REMARK 923 INTER-LIGAND FREE ENERGY PREDICTED BY IDOCK:   -7.13 KCAL/MOL
REMARK 924 INTRA-LIGAND FREE ENERGY PREDICTED BY IDOCK:   -1.23 KCAL/MOL
REMARK 927      BINDING AFFINITY PREDICTED BY RF-SCORE:    0.00 PKD
ROOT
HETATM    1  C   UNL     1     -11.438  16.592  68.491  1.00  0.00    -0.133 C  
HETATM    2  C   UNL     1     -11.270  15.054  68.500  1.00  0.00    -0.298 C  
HETATM    3  C   UNL     1     -11.951  14.532  69.807  1.00  0.00    -0.383 C  
HETATM    4  C   UNL     1     -12.135  14.453  67.382  1.00  0.00    -0.348 C  
ENDROOT
BRANCH   2   5
HETATM    5  C   UNL     1      -9.733  14.780  68.413  1.00  0.00    -0.214 A  
HETATM    6  C   UNL     1      -8.927  15.928  68.143  1.00  0.00    -0.181 A  
HETATM    7  C   UNL     1      -7.539  15.934  67.876  1.00  0.00    -0.145 A  
HETATM    8  H   UNL     1      -5.199  13.580  67.664  1.00  0.00     0.000 HD 
HETATM    9  C   UNL     1      -6.933  14.685  67.900  1.00  0.00    -0.159 A  
HETATM   10  C   UNL     1      -9.049  13.537  68.443  1.00  0.00    -0.155 A  
HETATM   11  O   UNL     1      -5.614  14.434  67.648  1.00  0.00    -0.311 OA 
HETATM   12  C   UNL     1      -7.667  13.533  68.181  1.00  0.00    -0.139 A  
BRANCH   7  13
HETATM   13  C   UNL     1      -6.818  17.256  67.551  1.00  0.00    -0.171 C  
HETATM   14  C   UNL     1      -5.527  17.388  68.386  1.00  0.00    -0.146 C  
HETATM   15  C   UNL     1      -6.505  17.343  66.041  1.00  0.00    -0.161 C  
HETATM   16  C   UNL     1      -7.664  18.521  67.870  1.00  0.00    -0.265 C  
ENDBRANCH   7  13
BRANCH  10  17
HETATM   17  N   UNL     1      -9.679  12.293  68.720  1.00  0.00    -0.411 N  
HETATM   18  C   UNL     1     -10.116  11.341  67.796  1.00  0.00    -0.179 C  
HETATM   19  H   UNL     1      -9.830  12.070  69.704  1.00  0.00     0.000 HD 
HETATM   20  O   UNL     1     -10.074  11.417  66.570  1.00  0.00    -0.205 OA 
BRANCH  18  21
HETATM   21  C   UNL     1     -10.585  10.061  68.385  1.00  0.00    -0.253 C  
HETATM   22  C   UNL     1     -10.180   8.871  67.892  1.00  0.00    -0.222 C  
HETATM   23  N   UNL     1     -10.422   7.644  68.484  1.00  0.00    -0.196 NA 
HETATM   24  C   UNL     1     -10.768   7.622  69.849  1.00  0.00    -0.249 A  
HETATM   25  C   UNL     1     -10.679   6.477  70.631  1.00  0.00    -0.297 A  
HETATM   26  C   UNL     1     -10.982   6.534  71.998  1.00  0.00    -0.283 A  
HETATM   27  C   UNL     1     -11.405   7.726  72.591  1.00  0.00    -0.449 A  
HETATM   28  C   UNL     1     -11.561   8.862  71.811  1.00  0.00    -0.422 A  
HETATM   29  C   UNL     1     -11.256   8.791  70.452  1.00  0.00    -0.247 A  
HETATM   30  C   UNL     1     -11.401   9.986  69.612  1.00  0.00    -0.202 C  
HETATM   31  O   UNL     1     -12.148  10.895  69.950  1.00  0.00    -0.309 OA 
ENDBRANCH  18  21
ENDBRANCH  10  17
ENDBRANCH   2   5
TORSDOF 4
ENDMDL
MODEL       49
REMARK 921   NORMALIZED FREE ENERGY PREDICTED BY IDOCK:   -5.71 KCAL/MOL
REMARK 922        TOTAL FREE ENERGY PREDICTED BY IDOCK:   -8.22 KCAL/MOL
REMARK 923 INTER-LIGAND FREE ENERGY PREDICTED BY IDOCK:   -7.28 KCAL/MOL
REMARK 924 INTRA-LIGAND FREE ENERGY PREDICTED BY IDOCK:   -0.94 KCAL/MOL
REMARK 927      BINDING AFFINITY PREDICTED BY RF-SCORE:    0.00 PKD
ROOT
HETATM    1  C   UNL     1      -9.887  14.087  67.382  1.00  0.00    -0.240 C  
HETATM    2  C   UNL     1      -9.887  12.556  67.605  1.00  0.00    -0.202 C  
HETATM    3  C   UNL     1     -10.223  11.899  66.227  1.00  0.00    -0.247 C  
HETATM    4  C   UNL     1      -8.448  12.094  67.878  1.00  0.00    -0.163 C  
ENDROOT
BRANCH   2   5
HETATM    5  C   UNL     1     -10.933  12.276  68.732  1.00  0.00    -0.277 A  
HETATM    6  C   UNL     1     -11.447  13.439  69.384  1.00  0.00    -0.333 A  
HETATM    7  C   UNL     1     -12.289  13.460  70.519  1.00  0.00    -0.401 A  
HETATM    8  H   UNL     1     -13.656  11.120  72.448  1.00  0.00     0.000 HD 
HETATM    9  C   UNL     1     -12.639  12.210  71.013  1.00  0.00    -0.263 A  
HETATM   10  C   UNL     1     -11.346  11.030  69.273  1.00  0.00    -0.282 A  
HETATM   11  O   UNL     1     -13.417  11.975  72.111  1.00  0.00    -0.476 OA 
HETATM   12  C   UNL     1     -12.185  11.042  70.402  1.00  0.00    -0.461 A  
BRANCH   7  13
HETATM   13  C   UNL     1     -12.719  14.803  71.140  1.00  0.00    -0.402 C  
HETATM   14  C   UNL     1     -12.133  15.983  70.337  1.00  0.00    -0.198 C  
HETATM   15  C   UNL     1     -14.259  14.898  71.208  1.00  0.00    -0.463 C  
HETATM   16  C   UNL     1     -12.229  14.997  72.603  1.00  0.00    -0.439 C  
ENDBRANCH   7  13
BRANCH  10  17
HETATM   17  N   UNL     1     -10.957   9.770  68.742  1.00  0.00    -0.386 N  
HETATM   18  C   UNL     1      -9.869   8.986  69.134  1.00  0.00    -0.175 C  
HETATM   19  H   UNL     1     -11.537   9.396  67.991  1.00  0.00     0.000 HD 
HETATM   20  O   UNL     1      -9.022   9.256  69.981  1.00  0.00    -0.163 OA 
BRANCH  18  21
HETATM   21  C   UNL     1      -9.811   7.637  68.515  1.00  0.00    -0.174 C  
HETATM   22  C   UNL     1     -10.873   6.804  68.546  1.00  0.00    -0.222 C  
HETATM   23  N   UNL     1     -10.967   5.612  67.848  1.00  0.00    -0.080 NA 
HETATM   24  C   UNL     1     -10.103   5.415  66.753  1.00  0.00    -0.214 A  
HETATM   25  C   UNL     1     -10.335   4.457  65.773  1.00  0.00    -0.246 A  
HETATM   26  C   UNL     1      -9.468   4.349  64.677  1.00  0.00    -0.144 A  
HETATM   27  C   UNL     1      -8.348   5.176  64.563  1.00  0.00    -0.137 A  
HETATM   28  C   UNL     1      -8.067   6.092  65.565  1.00  0.00    -0.131 A  
HETATM   29  C   UNL     1      -8.937   6.189  66.651  1.00  0.00    -0.133 A  
HETATM   30  C   UNL     1      -8.666   7.162  67.715  1.00  0.00    -0.125 C  
HETATM   31  O   UNL     1      -7.530   7.584  67.895  1.00  0.00    -0.099 OA 
ENDBRANCH  18  21
ENDBRANCH  10  17
ENDBRANCH   2   5
TORSDOF 4
ENDMDL
MODEL       50
REMARK 921   NORMALIZED FREE ENERGY PREDICTED BY IDOCK:   -5.71 KCAL/MOL
REMARK 922        TOTAL FREE ENERGY PREDICTED BY IDOCK:   -8.22 KCAL/MOL
REMARK 923 INTER-LIGAND FREE ENERGY PREDICTED BY IDOCK:   -7.15 KCAL/MOL
REMARK 924 INTRA-LIGAND FREE ENERGY PREDICTED BY IDOCK:   -1.06 KCAL/MOL
REMARK 927      BINDING AFFINITY PREDICTED BY RF-SCORE:    0.00 PKD
ROOT
HETATM    1  C   UNL     1     -10.166   7.389  68.571  1.00  0.00    -0.201 C  
HETATM    2  C   UNL     1     -10.479   6.417  69.732  1.00  0.00    -0.266 C  
HETATM    3  C   UNL     1     -12.025   6.470  69.962  1.00  0.00    -0.133 C  
HETATM    4  C   UNL     1     -10.239   4.978  69.254  1.00  0.00    -0.245 C  
ENDROOT
BRANCH   2   5
HETATM    5  C   UNL     1      -9.623   6.898  70.949  1.00  0.00    -0.166 A  
HETATM    6  C   UNL     1      -8.741   5.915  71.496  1.00  0.00    -0.132 A  
HETATM    7  C   UNL     1      -7.970   6.044  72.673  1.00  0.00    -0.104 A  
HETATM    8  H   UNL     1      -7.564   8.442  74.941  1.00  0.00     0.000 HD 
HETATM    9  C   UNL     1      -8.098   7.261  73.328  1.00  0.00    -0.109 A  
HETATM   10  C   UNL     1      -9.693   8.128  71.654  1.00  0.00    -0.179 A  
HETATM   11  O   UNL     1      -7.477   7.610  74.493  1.00  0.00    -0.127 OA 
HETATM   12  C   UNL     1      -8.926   8.265  72.826  1.00  0.00    -0.323 A  
BRANCH   7  13
HETATM   13  C   UNL     1      -7.101   4.868  73.162  1.00  0.00    -0.083 C  
HETATM   14  C   UNL     1      -5.635   5.316  73.337  1.00  0.00    -0.023 C  
HETATM   15  C   UNL     1      -7.662   4.297  74.483  1.00  0.00    -0.080 C  
HETATM   16  C   UNL     1      -7.067   3.667  72.176  1.00  0.00    -0.046 C  
ENDBRANCH   7  13
BRANCH  10  17
HETATM   17  N   UNL     1     -10.495   9.229  71.248  1.00  0.00    -0.325 N  
HETATM   18  C   UNL     1     -11.792   9.531  71.668  1.00  0.00    -0.397 C  
HETATM   19  H   UNL     1     -10.076   9.870  70.574  1.00  0.00     0.000 HD 
HETATM   20  O   UNL     1     -12.498   8.883  72.434  1.00  0.00    -0.375 OA 
BRANCH  18  21
HETATM   21  C   UNL     1     -12.315  10.841  71.200  1.00  0.00    -0.498 C  
HETATM   22  C   UNL     1     -13.089  11.611  71.994  1.00  0.00    -0.328 C  
HETATM   23  N   UNL     1     -13.468  12.912  71.710  1.00  0.00    -0.353 NA 
HETATM   24  C   UNL     1     -12.725  13.626  70.752  1.00  0.00    -0.268 A  
HETATM   25  C   UNL     1     -12.766  15.011  70.644  1.00  0.00    -0.428 A  
HETATM   26  C   UNL     1     -11.956  15.668  69.707  1.00  0.00    -0.371 A  
HETATM   27  C   UNL     1     -11.121  14.947  68.849  1.00  0.00    -0.267 A  
HETATM   28  C   UNL     1     -11.117  13.562  68.899  1.00  0.00    -0.305 A  
HETATM   29  C   UNL     1     -11.927  12.921  69.837  1.00  0.00    -0.377 A  
HETATM   30  C   UNL     1     -11.927  11.455  69.916  1.00  0.00    -0.359 C  
HETATM   31  O   UNL     1     -11.579  10.783  68.954  1.00  0.00    -0.281 OA 
ENDBRANCH  18  21
ENDBRANCH  10  17
ENDBRANCH   2   5
TORSDOF 4
ENDMDL
MODEL       51
REMARK 921   NORMALIZED FREE ENERGY PREDICTED BY IDOCK:   -5.68 KCAL/MOL
REMARK 922        TOTAL FREE ENERGY PREDICTED BY IDOCK:   -8.18 KCAL/MOL
REMARK 923 INTER-LIGAND FREE ENERGY PREDICTED BY IDOCK:   -7.13 KCAL/MOL
REMARK 924 INTRA-LIGAND FREE ENERGY PREDICTED BY IDOCK:   -1.04 KCAL/MOL
REMARK 927      BINDING AFFINITY PREDICTED BY RF-SCORE:    0.00 PKD
ROOT
HETATM    1  C   UNL     1     -12.147  14.104  66.317  1.00  0.00    -0.463 C  
HETATM    2  C   UNL     1     -11.080  14.732  65.390  1.00  0.00    -0.359 C  
HETATM    3  C   UNL     1     -10.526  13.578  64.492  1.00  0.00    -0.426 C  
HETATM    4  C   UNL     1     -11.779  15.661  64.386  1.00  0.00    -0.218 C  
ENDROOT
BRANCH   2   5
HETATM    5  C   UNL     1     -10.019  15.394  66.328  1.00  0.00    -0.308 A  
HETATM    6  C   UNL     1     -10.188  16.797  66.540  1.00  0.00    -0.319 A  
HETATM    7  C   UNL     1      -9.296  17.654  67.222  1.00  0.00    -0.249 A  
HETATM    8  H   UNL     1      -6.372  17.235  68.751  1.00  0.00     0.000 HD 
HETATM    9  C   UNL     1      -8.162  17.036  67.732  1.00  0.00    -0.192 A  
HETATM   10  C   UNL     1      -8.850  14.819  66.892  1.00  0.00    -0.248 A  
HETATM   11  O   UNL     1      -7.147  17.658  68.402  1.00  0.00    -0.217 OA 
HETATM   12  C   UNL     1      -7.957  15.666  67.574  1.00  0.00    -0.184 A  
BRANCH   7  13
HETATM   13  C   UNL     1      -9.596  19.163  67.323  1.00  0.00    -0.375 C  
HETATM   14  C   UNL     1     -10.744  19.551  66.368  1.00  0.00    -0.528 C  
HETATM   15  C   UNL     1      -9.941  19.547  68.779  1.00  0.00    -0.547 C  
HETATM   16  C   UNL     1      -8.392  20.064  66.933  1.00  0.00    -0.376 C  
ENDBRANCH   7  13
BRANCH  10  17
HETATM   17  N   UNL     1      -8.526  13.438  66.805  1.00  0.00    -0.426 N  
HETATM   18  C   UNL     1      -9.035  12.398  67.585  1.00  0.00    -0.183 C  
HETATM   19  H   UNL     1      -7.844  13.177  66.091  1.00  0.00     0.000 HD 
HETATM   20  O   UNL     1      -9.827  12.485  68.520  1.00  0.00    -0.214 OA 
BRANCH  18  21
HETATM   21  C   UNL     1      -8.638  11.034  67.152  1.00  0.00    -0.136 C  
HETATM   22  C   UNL     1      -9.460   9.976  67.322  1.00  0.00    -0.154 C  
HETATM   23  N   UNL     1      -9.249   8.715  66.792  1.00  0.00    -0.159 NA 
HETATM   24  C   UNL     1      -8.353   8.589  65.713  1.00  0.00    -0.140 A  
HETATM   25  C   UNL     1      -8.331   7.479  64.877  1.00  0.00    -0.045 A  
HETATM   26  C   UNL     1      -7.454   7.440  63.784  1.00  0.00    -0.104 A  
HETATM   27  C   UNL     1      -6.572   8.494  63.533  1.00  0.00    -0.085 A  
HETATM   28  C   UNL     1      -6.537   9.579  64.395  1.00  0.00    -0.096 A  
HETATM   29  C   UNL     1      -7.415   9.605  65.479  1.00  0.00    -0.106 A  
HETATM   30  C   UNL     1      -7.403  10.752  66.395  1.00  0.00    -0.142 C  
HETATM   31  O   UNL     1      -6.410  11.461  66.489  1.00  0.00    -0.138 OA 
ENDBRANCH  18  21
ENDBRANCH  10  17
ENDBRANCH   2   5
TORSDOF 4
ENDMDL
MODEL       52
REMARK 921   NORMALIZED FREE ENERGY PREDICTED BY IDOCK:   -5.64 KCAL/MOL
REMARK 922        TOTAL FREE ENERGY PREDICTED BY IDOCK:   -8.13 KCAL/MOL
REMARK 923 INTER-LIGAND FREE ENERGY PREDICTED BY IDOCK:   -7.66 KCAL/MOL
REMARK 924 INTRA-LIGAND FREE ENERGY PREDICTED BY IDOCK:   -0.47 KCAL/MOL
REMARK 927      BINDING AFFINITY PREDICTED BY RF-SCORE:    0.00 PKD
ROOT
HETATM    1  C   UNL     1     -10.679   9.755  71.404  1.00  0.00    -0.091 C  
HETATM    2  C   UNL     1     -11.633  10.193  70.268  1.00  0.00    -0.379 C  
HETATM    3  C   UNL     1     -13.034   9.579  70.593  1.00  0.00     0.044 C  
HETATM    4  C   UNL     1     -11.873  11.706  70.375  1.00  0.00    -0.385 C  
ENDROOT
BRANCH   2   5
HETATM    5  C   UNL     1     -10.993   9.683  68.935  1.00  0.00    -0.153 A  
HETATM    6  C   UNL     1     -10.813   8.268  68.852  1.00  0.00     0.002 A  
HETATM    7  C   UNL     1     -10.135   7.568  67.829  1.00  0.00    -0.235 A  
HETATM    8  H   UNL     1      -8.549   8.470  65.048  1.00  0.00     0.000 HD 
HETATM    9  C   UNL     1      -9.617   8.366  66.817  1.00  0.00    -0.219 A  
HETATM   10  C   UNL     1     -10.458  10.439  67.860  1.00  0.00    -0.209 A  
HETATM   11  O   UNL     1      -8.902   7.924  65.740  1.00  0.00    -0.163 OA 
HETATM   12  C   UNL     1      -9.783   9.750  66.836  1.00  0.00    -0.243 A  
BRANCH   7  13
HETATM   13  C   UNL     1      -9.980   6.037  67.908  1.00  0.00    -0.151 C  
HETATM   14  C   UNL     1     -10.659   5.362  66.698  1.00  0.00    -0.359 C  
HETATM   15  C   UNL     1      -8.487   5.649  67.987  1.00  0.00    -0.102 C  
HETATM   16  C   UNL     1     -10.636   5.410  69.171  1.00  0.00    -0.241 C  
ENDBRANCH   7  13
BRANCH  10  17
HETATM   17  N   UNL     1     -10.562  11.853  67.758  1.00  0.00    -0.198 N  
HETATM   18  C   UNL     1     -11.433  12.582  66.946  1.00  0.00    -0.353 C  
HETATM   19  H   UNL     1      -9.928  12.397  68.344  1.00  0.00     0.000 HD 
HETATM   20  O   UNL     1     -12.245  12.139  66.137  1.00  0.00    -0.611 OA 
BRANCH  18  21
HETATM   21  C   UNL     1     -11.430  14.049  67.177  1.00  0.00    -0.373 C  
HETATM   22  C   UNL     1     -11.899  14.579  68.327  1.00  0.00    -0.312 C  
HETATM   23  N   UNL     1     -11.771  15.907  68.697  1.00  0.00    -0.380 NA 
HETATM   24  C   UNL     1     -10.788  16.684  68.056  1.00  0.00    -0.337 A  
HETATM   25  C   UNL     1     -10.320  17.886  68.573  1.00  0.00    -0.365 A  
HETATM   26  C   UNL     1      -9.297  18.583  67.917  1.00  0.00    -0.312 A  
HETATM   27  C   UNL     1      -8.751  18.103  66.724  1.00  0.00    -0.275 A  
HETATM   28  C   UNL     1      -9.251  16.939  66.161  1.00  0.00    -0.270 A  
HETATM   29  C   UNL     1     -10.270  16.255  66.825  1.00  0.00    -0.280 A  
HETATM   30  C   UNL     1     -10.803  15.013  66.252  1.00  0.00    -0.333 C  
HETATM   31  O   UNL     1     -10.691  14.783  65.055  1.00  0.00    -0.380 OA 
ENDBRANCH  18  21
ENDBRANCH  10  17
ENDBRANCH   2   5
TORSDOF 4
ENDMDL
MODEL       53
REMARK 921   NORMALIZED FREE ENERGY PREDICTED BY IDOCK:   -5.64 KCAL/MOL
REMARK 922        TOTAL FREE ENERGY PREDICTED BY IDOCK:   -8.13 KCAL/MOL
REMARK 923 INTER-LIGAND FREE ENERGY PREDICTED BY IDOCK:   -8.11 KCAL/MOL
REMARK 924 INTRA-LIGAND FREE ENERGY PREDICTED BY IDOCK:   -0.02 KCAL/MOL
REMARK 927      BINDING AFFINITY PREDICTED BY RF-SCORE:    0.00 PKD
ROOT
HETATM    1  C   UNL     1     -12.544  13.738  71.804  1.00  0.00    -0.319 C  
HETATM    2  C   UNL     1     -12.318  15.013  70.957  1.00  0.00    -0.394 C  
HETATM    3  C   UNL     1     -13.733  15.572  70.595  1.00  0.00     0.112 C  
HETATM    4  C   UNL     1     -11.721  16.106  71.854  1.00  0.00    -0.575 C  
ENDROOT
BRANCH   2   5
HETATM    5  C   UNL     1     -11.457  14.575  69.727  1.00  0.00    -0.327 A  
HETATM    6  C   UNL     1     -11.105  15.628  68.828  1.00  0.00    -0.307 A  
HETATM    7  C   UNL     1     -10.460  15.484  67.579  1.00  0.00    -0.282 A  
HETATM    8  H   UNL     1      -9.328  12.891  65.830  1.00  0.00     0.000 HD 
HETATM    9  C   UNL     1     -10.143  14.177  67.231  1.00  0.00    -0.256 A  
HETATM   10  C   UNL     1     -11.087  13.266  69.322  1.00  0.00    -0.153 A  
HETATM   11  O   UNL     1      -9.545  13.784  66.068  1.00  0.00    -0.258 OA 
HETATM   12  C   UNL     1     -10.443  13.113  68.081  1.00  0.00    -0.255 A  
BRANCH   7  13
HETATM   13  C   UNL     1     -10.193  16.719  66.697  1.00  0.00    -0.310 C  
HETATM   14  C   UNL     1     -10.738  17.994  67.373  1.00  0.00    -0.334 C  
HETATM   15  C   UNL     1      -8.683  16.855  66.404  1.00  0.00    -0.321 C  
HETATM   16  C   UNL     1     -10.879  16.648  65.303  1.00  0.00    -0.194 C  
ENDBRANCH   7  13
BRANCH  10  17
HETATM   17  N   UNL     1     -11.332  12.099  70.096  1.00  0.00    -0.479 N  
HETATM   18  C   UNL     1     -11.869  10.888  69.655  1.00  0.00    -0.344 C  
HETATM   19  H   UNL     1     -11.087  12.152  71.086  1.00  0.00     0.000 HD 
HETATM   20  O   UNL     1     -12.268  10.616  68.526  1.00  0.00    -0.382 OA 
BRANCH  18  21
HETATM   21  C   UNL     1     -11.851   9.790  70.655  1.00  0.00    -0.360 C  
HETATM   22  C   UNL     1     -12.995   9.243  71.117  1.00  0.00    -0.203 C  
HETATM   23  N   UNL     1     -13.069   8.108  71.906  1.00  0.00    -0.331 NA 
HETATM   24  C   UNL     1     -11.958   7.243  71.931  1.00  0.00    -0.306 A  
HETATM   25  C   UNL     1     -12.036   5.928  72.374  1.00  0.00    -0.206 A  
HETATM   26  C   UNL     1     -10.906   5.100  72.319  1.00  0.00    -0.241 A  
HETATM   27  C   UNL     1      -9.683   5.584  71.850  1.00  0.00    -0.197 A  
HETATM   28  C   UNL     1      -9.572   6.912  71.466  1.00  0.00    -0.162 A  
HETATM   29  C   UNL     1     -10.704   7.725  71.525  1.00  0.00    -0.255 A  
HETATM   30  C   UNL     1     -10.612   9.130  71.110  1.00  0.00    -0.309 C  
HETATM   31  O   UNL     1      -9.533   9.707  71.111  1.00  0.00    -0.164 OA 
ENDBRANCH  18  21
ENDBRANCH  10  17
ENDBRANCH   2   5
TORSDOF 4
ENDMDL
MODEL       54
REMARK 921   NORMALIZED FREE ENERGY PREDICTED BY IDOCK:   -5.60 KCAL/MOL
REMARK 922        TOTAL FREE ENERGY PREDICTED BY IDOCK:   -8.08 KCAL/MOL
REMARK 923 INTER-LIGAND FREE ENERGY PREDICTED BY IDOCK:   -7.11 KCAL/MOL
REMARK 924 INTRA-LIGAND FREE ENERGY PREDICTED BY IDOCK:   -0.97 KCAL/MOL
REMARK 927      BINDING AFFINITY PREDICTED BY RF-SCORE:    0.00 PKD
ROOT
HETATM    1  C   UNL     1      -7.796  11.458  66.638  1.00  0.00    -0.137 C  
HETATM    2  C   UNL     1      -7.461  12.461  67.766  1.00  0.00    -0.126 C  
HETATM    3  C   UNL     1      -7.050  11.615  69.015  1.00  0.00    -0.108 C  
HETATM    4  C   UNL     1      -6.170  13.209  67.401  1.00  0.00    -0.046 C  
ENDROOT
BRANCH   2   5
HETATM    5  C   UNL     1      -8.740  13.339  67.967  1.00  0.00    -0.186 A  
HETATM    6  C   UNL     1      -8.629  14.686  67.505  1.00  0.00    -0.196 A  
HETATM    7  C   UNL     1      -9.577  15.717  67.692  1.00  0.00    -0.220 A  
HETATM    8  H   UNL     1     -12.543  15.910  69.186  1.00  0.00     0.000 HD 
HETATM    9  C   UNL     1     -10.720  15.343  68.386  1.00  0.00    -0.256 A  
HETATM   10  C   UNL     1      -9.941  13.016  68.651  1.00  0.00    -0.107 A  
HETATM   11  O   UNL     1     -11.761  16.166  68.712  1.00  0.00    -0.364 OA 
HETATM   12  C   UNL     1     -10.892  14.036  68.840  1.00  0.00    -0.278 A  
BRANCH   7  13
HETATM   13  C   UNL     1      -9.288  17.140  67.175  1.00  0.00    -0.249 C  
HETATM   14  C   UNL     1     -10.363  17.575  66.158  1.00  0.00    -0.330 C  
HETATM   15  C   UNL     1      -9.212  18.136  68.353  1.00  0.00    -0.316 C  
HETATM   16  C   UNL     1      -7.925  17.268  66.438  1.00  0.00    -0.338 C  
ENDBRANCH   7  13
BRANCH  10  17
HETATM   17  N   UNL     1     -10.239  11.722  69.160  1.00  0.00    -0.418 N  
HETATM   18  C   UNL     1     -11.038  10.743  68.567  1.00  0.00    -0.262 C  
HETATM   19  H   UNL     1      -9.822  11.483  70.060  1.00  0.00     0.000 HD 
HETATM   20  O   UNL     1     -11.667  10.829  67.516  1.00  0.00    -0.510 OA 
BRANCH  18  21
HETATM   21  C   UNL     1     -11.030   9.425  69.252  1.00  0.00    -0.137 C  
HETATM   22  C   UNL     1     -10.392   8.361  68.719  1.00  0.00    -0.206 C  
HETATM   23  N   UNL     1     -10.183   7.156  69.368  1.00  0.00    -0.184 NA 
HETATM   24  C   UNL     1     -10.286   7.130  70.772  1.00  0.00    -0.206 A  
HETATM   25  C   UNL     1      -9.756   6.107  71.548  1.00  0.00    -0.182 A  
HETATM   26  C   UNL     1      -9.841   6.169  72.946  1.00  0.00    -0.174 A  
HETATM   27  C   UNL     1     -10.480   7.237  73.580  1.00  0.00    -0.421 A  
HETATM   28  C   UNL     1     -11.071   8.234  72.817  1.00  0.00    -0.319 A  
HETATM   29  C   UNL     1     -10.979   8.159  71.427  1.00  0.00    -0.282 A  
HETATM   30  C   UNL     1     -11.585   9.211  70.602  1.00  0.00    -0.235 C  
HETATM   31  O   UNL     1     -12.493   9.902  71.047  1.00  0.00    -0.315 OA 
ENDBRANCH  18  21
ENDBRANCH  10  17
ENDBRANCH   2   5
TORSDOF 4
ENDMDL
MODEL       55
REMARK 921   NORMALIZED FREE ENERGY PREDICTED BY IDOCK:   -5.55 KCAL/MOL
REMARK 922        TOTAL FREE ENERGY PREDICTED BY IDOCK:   -8.02 KCAL/MOL
REMARK 923 INTER-LIGAND FREE ENERGY PREDICTED BY IDOCK:   -7.36 KCAL/MOL
REMARK 924 INTRA-LIGAND FREE ENERGY PREDICTED BY IDOCK:   -0.65 KCAL/MOL
REMARK 927      BINDING AFFINITY PREDICTED BY RF-SCORE:    0.00 PKD
ROOT
HETATM    1  C   UNL     1     -10.890   6.457  66.673  1.00  0.00    -0.252 C  
HETATM    2  C   UNL     1      -9.524   6.943  67.214  1.00  0.00    -0.161 C  
HETATM    3  C   UNL     1      -8.571   5.703  67.212  1.00  0.00    -0.109 C  
HETATM    4  C   UNL     1      -8.887   7.884  66.182  1.00  0.00    -0.197 C  
ENDROOT
BRANCH   2   5
HETATM    5  C   UNL     1      -9.803   7.548  68.629  1.00  0.00    -0.169 A  
HETATM    6  C   UNL     1      -9.836   6.600  69.697  1.00  0.00    -0.168 A  
HETATM    7  C   UNL     1     -10.204   6.860  71.037  1.00  0.00    -0.213 A  
HETATM    8  H   UNL     1     -11.199   9.566  72.695  1.00  0.00     0.000 HD 
HETATM    9  C   UNL     1     -10.549   8.178  71.305  1.00  0.00    -0.214 A  
HETATM   10  C   UNL     1     -10.146   8.881  68.973  1.00  0.00    -0.197 A  
HETATM   11  O   UNL     1     -10.963   8.665  72.512  1.00  0.00    -0.316 OA 
HETATM   12  C   UNL     1     -10.512   9.149  70.305  1.00  0.00    -0.257 A  
BRANCH   7  13
HETATM   13  C   UNL     1     -10.239   5.714  72.067  1.00  0.00    -0.252 C  
HETATM   14  C   UNL     1      -9.844   4.379  71.404  1.00  0.00    -0.262 C  
HETATM   15  C   UNL     1      -9.308   6.032  73.258  1.00  0.00    -0.135 C  
HETATM   16  C   UNL     1     -11.643   5.482  72.692  1.00  0.00    -0.293 C  
ENDBRANCH   7  13
BRANCH  10  17
HETATM   17  N   UNL     1     -10.146   9.962  68.050  1.00  0.00    -0.163 N  
HETATM   18  C   UNL     1     -11.172  10.882  67.823  1.00  0.00    -0.317 C  
HETATM   19  H   UNL     1      -9.301  10.079  67.490  1.00  0.00     0.000 HD 
HETATM   20  O   UNL     1     -12.281  10.907  68.349  1.00  0.00    -0.540 OA 
BRANCH  18  21
HETATM   21  C   UNL     1     -10.821  12.005  66.917  1.00  0.00    -0.302 C  
HETATM   22  C   UNL     1     -11.461  12.187  65.743  1.00  0.00    -0.361 C  
HETATM   23  N   UNL     1     -11.325  13.297  64.928  1.00  0.00    -0.307 NA 
HETATM   24  C   UNL     1     -10.802  14.476  65.494  1.00  0.00    -0.336 A  
HETATM   25  C   UNL     1     -10.951  15.726  64.905  1.00  0.00    -0.443 A  
HETATM   26  C   UNL     1     -10.458  16.869  65.549  1.00  0.00    -0.220 A  
HETATM   27  C   UNL     1      -9.786  16.773  66.770  1.00  0.00    -0.282 A  
HETATM   28  C   UNL     1      -9.572  15.526  67.338  1.00  0.00    -0.213 A  
HETATM   29  C   UNL     1     -10.068  14.397  66.687  1.00  0.00    -0.276 A  
HETATM   30  C   UNL     1      -9.864  13.069  67.279  1.00  0.00    -0.227 C  
HETATM   31  O   UNL     1      -8.951  12.877  68.072  1.00  0.00    -0.183 OA 
ENDBRANCH  18  21
ENDBRANCH  10  17
ENDBRANCH   2   5
TORSDOF 4
ENDMDL
MODEL       56
REMARK 921   NORMALIZED FREE ENERGY PREDICTED BY IDOCK:   -5.55 KCAL/MOL
REMARK 922        TOTAL FREE ENERGY PREDICTED BY IDOCK:   -8.02 KCAL/MOL
REMARK 923 INTER-LIGAND FREE ENERGY PREDICTED BY IDOCK:   -6.96 KCAL/MOL
REMARK 924 INTRA-LIGAND FREE ENERGY PREDICTED BY IDOCK:   -1.05 KCAL/MOL
REMARK 927      BINDING AFFINITY PREDICTED BY RF-SCORE:    0.00 PKD
ROOT
HETATM    1  C   UNL     1      -6.584  13.542  69.829  1.00  0.00     0.011 C  
HETATM    2  C   UNL     1      -6.704  13.782  68.305  1.00  0.00    -0.109 C  
HETATM    3  C   UNL     1      -5.335  14.370  67.832  1.00  0.00    -0.076 C  
HETATM    4  C   UNL     1      -6.775  12.425  67.592  1.00  0.00    -0.132 C  
ENDROOT
BRANCH   2   5
HETATM    5  C   UNL     1      -7.926  14.737  68.107  1.00  0.00    -0.129 A  
HETATM    6  C   UNL     1      -7.593  16.094  67.809  1.00  0.00    -0.154 A  
HETATM    7  C   UNL     1      -8.494  17.179  67.725  1.00  0.00    -0.207 A  
HETATM    8  H   UNL     1     -11.784  17.508  68.094  1.00  0.00     0.000 HD 
HETATM    9  C   UNL     1      -9.826  16.854  67.946  1.00  0.00    -0.263 A  
HETATM   10  C   UNL     1      -9.306  14.467  68.301  1.00  0.00    -0.206 A  
HETATM   11  O   UNL     1     -10.873  17.731  67.943  1.00  0.00    -0.365 OA 
HETATM   12  C   UNL     1     -10.211  15.541  68.216  1.00  0.00    -0.222 A  
BRANCH   7  13
HETATM   13  C   UNL     1      -7.971  18.602  67.444  1.00  0.00    -0.247 C  
HETATM   14  C   UNL     1      -8.028  19.460  68.725  1.00  0.00    -0.391 C  
HETATM   15  C   UNL     1      -6.533  18.547  66.884  1.00  0.00    -0.202 C  
HETATM   16  C   UNL     1      -8.801  19.370  66.378  1.00  0.00    -0.385 C  
ENDBRANCH   7  13
BRANCH  10  17
HETATM   17  N   UNL     1      -9.828  13.174  68.580  1.00  0.00    -0.400 N  
HETATM   18  C   UNL     1     -10.593  12.369  67.734  1.00  0.00    -0.217 C  
HETATM   19  H   UNL     1      -9.620  12.792  69.503  1.00  0.00     0.000 HD 
HETATM   20  O   UNL     1     -10.993  12.642  66.605  1.00  0.00    -0.247 OA 
BRANCH  18  21
HETATM   21  C   UNL     1     -10.853  10.996  68.237  1.00  0.00    -0.261 C  
HETATM   22  C   UNL     1     -10.483   9.907  67.529  1.00  0.00    -0.255 C  
HETATM   23  N   UNL     1     -10.523   8.605  67.998  1.00  0.00    -0.218 NA 
HETATM   24  C   UNL     1     -10.583   8.402  69.389  1.00  0.00    -0.197 A  
HETATM   25  C   UNL     1     -10.266   7.189  69.989  1.00  0.00    -0.205 A  
HETATM   26  C   UNL     1     -10.288   7.068  71.385  1.00  0.00    -0.211 A  
HETATM   27  C   UNL     1     -10.655   8.147  72.194  1.00  0.00    -0.358 A  
HETATM   28  C   UNL     1     -11.036   9.344  71.609  1.00  0.00    -0.409 A  
HETATM   29  C   UNL     1     -11.009   9.451  70.218  1.00  0.00    -0.305 A  
HETATM   30  C   UNL     1     -11.396  10.715  69.579  1.00  0.00    -0.277 C  
HETATM   31  O   UNL     1     -12.114  11.513  70.168  1.00  0.00    -0.325 OA 
ENDBRANCH  18  21
ENDBRANCH  10  17
ENDBRANCH   2   5
TORSDOF 4
ENDMDL
MODEL       57
REMARK 921   NORMALIZED FREE ENERGY PREDICTED BY IDOCK:   -5.54 KCAL/MOL
REMARK 922        TOTAL FREE ENERGY PREDICTED BY IDOCK:   -8.01 KCAL/MOL
REMARK 923 INTER-LIGAND FREE ENERGY PREDICTED BY IDOCK:   -7.06 KCAL/MOL
REMARK 924 INTRA-LIGAND FREE ENERGY PREDICTED BY IDOCK:   -0.94 KCAL/MOL
REMARK 927      BINDING AFFINITY PREDICTED BY RF-SCORE:    0.00 PKD
ROOT
HETATM    1  C   UNL     1     -12.019  12.842  66.145  1.00  0.00    -0.491 C  
HETATM    2  C   UNL     1     -10.680  12.340  65.556  1.00  0.00    -0.314 C  
HETATM    3  C   UNL     1     -11.037  11.300  64.444  1.00  0.00    -0.273 C  
HETATM    4  C   UNL     1     -10.020  13.485  64.775  1.00  0.00    -0.156 C  
ENDROOT
BRANCH   2   5
HETATM    5  C   UNL     1      -9.864  11.755  66.756  1.00  0.00    -0.218 A  
HETATM    6  C   UNL     1      -9.991  10.345  66.945  1.00  0.00    -0.254 A  
HETATM    7  C   UNL     1      -9.478   9.596  68.027  1.00  0.00    -0.146 A  
HETATM    8  H   UNL     1      -7.738  10.345  70.761  1.00  0.00     0.000 HD 
HETATM    9  C   UNL     1      -8.779  10.334  68.973  1.00  0.00    -0.163 A  
HETATM   10  C   UNL     1      -9.120  12.449  67.746  1.00  0.00    -0.193 A  
HETATM   11  O   UNL     1      -8.216   9.840  70.115  1.00  0.00    -0.176 OA 
HETATM   12  C   UNL     1      -8.605  11.710  68.826  1.00  0.00    -0.023 A  
BRANCH   7  13
HETATM   13  C   UNL     1      -9.744   8.080  68.116  1.00  0.00    -0.179 C  
HETATM   14  C   UNL     1     -10.406   7.571  66.819  1.00  0.00    -0.332 C  
HETATM   15  C   UNL     1      -8.431   7.318  68.397  1.00  0.00    -0.125 C  
HETATM   16  C   UNL     1     -10.707   7.684  69.271  1.00  0.00    -0.169 C  
ENDBRANCH   7  13
BRANCH  10  17
HETATM   17  N   UNL     1      -8.869  13.847  67.712  1.00  0.00    -0.178 N  
HETATM   18  C   UNL     1      -7.661  14.483  67.418  1.00  0.00    -0.184 C  
HETATM   19  H   UNL     1      -9.660  14.455  67.927  1.00  0.00     0.000 HD 
HETATM   20  O   UNL     1      -6.580  13.955  67.173  1.00  0.00    -0.178 OA 
BRANCH  18  21
HETATM   21  C   UNL     1      -7.742  15.961  67.294  1.00  0.00    -0.224 C  
HETATM   22  C   UNL     1      -7.528  16.580  66.113  1.00  0.00     0.118 C  
HETATM   23  N   UNL     1      -7.756  17.923  65.868  1.00  0.00    -0.545 NA 
HETATM   24  C   UNL     1      -8.605  18.623  66.746  1.00  0.00    -0.288 A  
HETATM   25  C   UNL     1      -9.193  19.838  66.418  1.00  0.00    -0.468 A  
HETATM   26  C   UNL     1     -10.076  20.457  67.313  1.00  0.00    -0.504 A  
HETATM   27  C   UNL     1     -10.358  19.883  68.556  1.00  0.00    -0.463 A  
HETATM   28  C   UNL     1      -9.729  18.704  68.925  1.00  0.00    -0.363 A  
HETATM   29  C   UNL     1      -8.853  18.099  68.024  1.00  0.00    -0.286 A  
HETATM   30  C   UNL     1      -8.188  16.842  68.390  1.00  0.00    -0.232 C  
HETATM   31  O   UNL     1      -8.050  16.534  69.567  1.00  0.00    -0.058 OA 
ENDBRANCH  18  21
ENDBRANCH  10  17
ENDBRANCH   2   5
TORSDOF 4
ENDMDL
MODEL       58
REMARK 921   NORMALIZED FREE ENERGY PREDICTED BY IDOCK:   -5.46 KCAL/MOL
REMARK 922        TOTAL FREE ENERGY PREDICTED BY IDOCK:   -7.91 KCAL/MOL
REMARK 923 INTER-LIGAND FREE ENERGY PREDICTED BY IDOCK:   -6.99 KCAL/MOL
REMARK 924 INTRA-LIGAND FREE ENERGY PREDICTED BY IDOCK:   -0.92 KCAL/MOL
REMARK 927      BINDING AFFINITY PREDICTED BY RF-SCORE:    0.00 PKD
ROOT
HETATM    1  C   UNL     1     -11.138  10.753  67.222  1.00  0.00    -0.339 C  
HETATM    2  C   UNL     1      -9.788  10.286  66.629  1.00  0.00    -0.256 C  
HETATM    3  C   UNL     1      -9.982   8.803  66.174  1.00  0.00    -0.244 C  
HETATM    4  C   UNL     1      -9.539  11.034  65.311  1.00  0.00    -0.270 C  
ENDROOT
BRANCH   2   5
HETATM    5  C   UNL     1      -8.721  10.487  67.754  1.00  0.00    -0.122 A  
HETATM    6  C   UNL     1      -8.323   9.294  68.432  1.00  0.00    -0.119 A  
HETATM    7  C   UNL     1      -7.490   9.216  69.571  1.00  0.00    -0.077 A  
HETATM    8  H   UNL     1      -5.906  11.452  71.456  1.00  0.00     0.000 HD 
HETATM    9  C   UNL     1      -7.022  10.436  70.040  1.00  0.00    -0.157 A  
HETATM   10  C   UNL     1      -8.191  11.699  68.270  1.00  0.00    -0.156 A  
HETATM   11  O   UNL     1      -6.227  10.618  71.136  1.00  0.00    -0.344 OA 
HETATM   12  C   UNL     1      -7.359  11.630  69.403  1.00  0.00     0.093 A  
BRANCH   7  13
HETATM   13  C   UNL     1      -7.193   7.851  70.222  1.00  0.00    -0.057 C  
HETATM   14  C   UNL     1      -5.677   7.568  70.216  1.00  0.00    -0.023 C  
HETATM   15  C   UNL     1      -7.754   7.806  71.660  1.00  0.00    -0.091 C  
HETATM   16  C   UNL     1      -7.855   6.653  69.484  1.00  0.00    -0.106 C  
ENDBRANCH   7  13
BRANCH  10  17
HETATM   17  N   UNL     1      -8.455  12.979  67.712  1.00  0.00    -0.174 N  
HETATM   18  C   UNL     1      -9.500  13.846  68.039  1.00  0.00    -0.208 C  
HETATM   19  H   UNL     1      -7.808  13.302  66.992  1.00  0.00     0.000 HD 
HETATM   20  O   UNL     1     -10.411  13.648  68.839  1.00  0.00    -0.209 OA 
BRANCH  18  21
HETATM   21  C   UNL     1      -9.423  15.189  67.410  1.00  0.00    -0.204 C  
HETATM   22  C   UNL     1      -9.866  15.403  66.153  1.00  0.00    -0.311 C  
HETATM   23  N   UNL     1      -9.998  16.646  65.558  1.00  0.00    -0.573 NA 
HETATM   24  C   UNL     1     -10.046  17.779  66.393  1.00  0.00    -0.357 A  
HETATM   25  C   UNL     1     -10.530  19.010  65.966  1.00  0.00    -0.530 A  
HETATM   26  C   UNL     1     -10.606  20.084  66.863  1.00  0.00    -0.455 A  
HETATM   27  C   UNL     1     -10.173  19.949  68.184  1.00  0.00    -0.564 A  
HETATM   28  C   UNL     1      -9.628  18.747  68.608  1.00  0.00    -0.432 A  
HETATM   29  C   UNL     1      -9.558  17.686  67.705  1.00  0.00    -0.267 A  
HETATM   30  C   UNL     1      -8.997  16.400  68.138  1.00  0.00    -0.197 C  
HETATM   31  O   UNL     1      -8.233  16.347  69.093  1.00  0.00    -0.240 OA 
ENDBRANCH  18  21
ENDBRANCH  10  17
ENDBRANCH   2   5
TORSDOF 4
ENDMDL
MODEL       59
REMARK 921   NORMALIZED FREE ENERGY PREDICTED BY IDOCK:   -5.45 KCAL/MOL
REMARK 922        TOTAL FREE ENERGY PREDICTED BY IDOCK:   -7.89 KCAL/MOL
REMARK 923 INTER-LIGAND FREE ENERGY PREDICTED BY IDOCK:   -6.91 KCAL/MOL
REMARK 924 INTRA-LIGAND FREE ENERGY PREDICTED BY IDOCK:   -0.98 KCAL/MOL
REMARK 927      BINDING AFFINITY PREDICTED BY RF-SCORE:    0.00 PKD
ROOT
HETATM    1  C   UNL     1      -9.629   9.845  66.922  1.00  0.00    -0.225 C  
HETATM    2  C   UNL     1      -9.681  11.360  67.227  1.00  0.00    -0.201 C  
HETATM    3  C   UNL     1      -8.202  11.865  67.263  1.00  0.00    -0.170 C  
HETATM    4  C   UNL     1     -10.277  12.091  66.014  1.00  0.00    -0.256 C  
ENDROOT
BRANCH   2   5
HETATM    5  C   UNL     1     -10.454  11.510  68.578  1.00  0.00    -0.228 A  
HETATM    6  C   UNL     1     -10.729  10.285  69.258  1.00  0.00    -0.265 A  
HETATM    7  C   UNL     1     -11.527  10.128  70.414  1.00  0.00    -0.400 A  
HETATM    8  H   UNL     1     -13.263  12.209  72.343  1.00  0.00     0.000 HD 
HETATM    9  C   UNL     1     -12.070  11.304  70.915  1.00  0.00    -0.301 A  
HETATM   10  C   UNL     1     -11.020  12.678  69.153  1.00  0.00    -0.142 A  
HETATM   11  O   UNL     1     -12.892  11.405  72.001  1.00  0.00    -0.359 OA 
HETATM   12  C   UNL     1     -11.815  12.532  70.304  1.00  0.00    -0.305 A  
BRANCH   7  13
HETATM   13  C   UNL     1     -11.772   8.726  71.003  1.00  0.00    -0.329 C  
HETATM   14  C   UNL     1     -11.208   8.635  72.436  1.00  0.00    -0.339 C  
HETATM   15  C   UNL     1     -13.279   8.389  70.984  1.00  0.00     0.093 C  
HETATM   16  C   UNL     1     -11.085   7.585  70.200  1.00  0.00    -0.246 C  
ENDBRANCH   7  13
BRANCH  10  17
HETATM   17  N   UNL     1     -10.835  13.987  68.630  1.00  0.00    -0.251 N  
HETATM   18  C   UNL     1      -9.766  14.852  68.872  1.00  0.00    -0.223 C  
HETATM   19  H   UNL     1     -11.566  14.334  68.009  1.00  0.00     0.000 HD 
HETATM   20  O   UNL     1      -8.804  14.660  69.612  1.00  0.00     0.121 OA 
BRANCH  18  21
HETATM   21  C   UNL     1      -9.761  16.091  68.053  1.00  0.00    -0.217 C  
HETATM   22  C   UNL     1     -10.845  16.894  67.988  1.00  0.00    -0.338 C  
HETATM   23  N   UNL     1     -10.869  18.147  67.401  1.00  0.00    -0.324 NA 
HETATM   24  C   UNL     1      -9.643  18.806  67.191  1.00  0.00    -0.300 A  
HETATM   25  C   UNL     1      -9.551  20.173  66.959  1.00  0.00    -0.558 A  
HETATM   26  C   UNL     1      -8.296  20.779  66.816  1.00  0.00    -0.041 A  
HETATM   27  C   UNL     1      -7.122  20.024  66.874  1.00  0.00    -0.264 A  
HETATM   28  C   UNL     1      -7.199  18.649  67.041  1.00  0.00    -0.217 A  
HETATM   29  C   UNL     1      -8.455  18.059  67.182  1.00  0.00    -0.241 A  
HETATM   30  C   UNL     1      -8.558  16.607  67.372  1.00  0.00    -0.189 C  
HETATM   31  O   UNL     1      -7.652  15.868  67.008  1.00  0.00    -0.197 OA 
ENDBRANCH  18  21
ENDBRANCH  10  17
ENDBRANCH   2   5
TORSDOF 4
ENDMDL
MODEL       60
REMARK 921   NORMALIZED FREE ENERGY PREDICTED BY IDOCK:   -5.40 KCAL/MOL
REMARK 922        TOTAL FREE ENERGY PREDICTED BY IDOCK:   -7.84 KCAL/MOL
REMARK 923 INTER-LIGAND FREE ENERGY PREDICTED BY IDOCK:   -7.50 KCAL/MOL
REMARK 924 INTRA-LIGAND FREE ENERGY PREDICTED BY IDOCK:   -0.33 KCAL/MOL
REMARK 927      BINDING AFFINITY PREDICTED BY RF-SCORE:    0.00 PKD
ROOT
HETATM    1  C   UNL     1      -7.142  12.282  68.004  1.00  0.00    -0.099 C  
HETATM    2  C   UNL     1      -7.913  10.977  67.696  1.00  0.00    -0.115 C  
HETATM    3  C   UNL     1      -8.197  10.973  66.158  1.00  0.00    -0.155 C  
HETATM    4  C   UNL     1      -6.966   9.783  67.886  1.00  0.00    -0.078 C  
ENDROOT
BRANCH   2   5
HETATM    5  C   UNL     1      -9.193  11.000  68.594  1.00  0.00    -0.186 A  
HETATM    6  C   UNL     1      -9.413   9.817  69.365  1.00  0.00    -0.212 A  
HETATM    7  C   UNL     1     -10.557   9.525  70.142  1.00  0.00    -0.298 A  
HETATM    8  H   UNL     1     -13.400  11.123  70.793  1.00  0.00     0.000 HD 
HETATM    9  C   UNL     1     -11.534  10.512  70.142  1.00  0.00    -0.325 A  
HETATM   10  C   UNL     1     -10.219  11.978  68.654  1.00  0.00    -0.177 A  
HETATM   11  O   UNL     1     -12.732  10.448  70.793  1.00  0.00    -0.340 OA 
HETATM   12  C   UNL     1     -11.360  11.696  69.427  1.00  0.00    -0.342 A  
BRANCH   7  13
HETATM   13  C   UNL     1     -10.669   8.176  70.879  1.00  0.00    -0.246 C  
HETATM   14  C   UNL     1      -9.406   7.323  70.639  1.00  0.00    -0.157 C  
HETATM   15  C   UNL     1     -10.898   8.404  72.389  1.00  0.00    -0.416 C  
HETATM   16  C   UNL     1     -11.868   7.307  70.406  1.00  0.00    -0.174 C  
ENDBRANCH   7  13
BRANCH  10  17
HETATM   17  N   UNL     1     -10.164  13.226  67.974  1.00  0.00    -0.234 N  
HETATM   18  C   UNL     1     -10.696  14.445  68.399  1.00  0.00    -0.245 C  
HETATM   19  H   UNL     1      -9.681  13.231  67.075  1.00  0.00     0.000 HD 
HETATM   20  O   UNL     1     -11.346  14.661  69.418  1.00  0.00    -0.257 OA 
BRANCH  18  21
HETATM   21  C   UNL     1     -10.336  15.615  67.558  1.00  0.00    -0.277 C  
HETATM   22  C   UNL     1     -10.748  15.713  66.276  1.00  0.00    -0.295 C  
HETATM   23  N   UNL     1     -10.612  16.839  65.483  1.00  0.00    -0.535 NA 
HETATM   24  C   UNL     1     -10.387  18.076  66.118  1.00  0.00    -0.366 A  
HETATM   25  C   UNL     1     -10.593  19.297  65.487  1.00  0.00    -0.190 A  
HETATM   26  C   UNL     1     -10.408  20.493  66.193  1.00  0.00    -0.034 A  
HETATM   27  C   UNL     1      -9.987  20.483  67.525  1.00  0.00    -0.497 A  
HETATM   28  C   UNL     1      -9.714  19.276  68.150  1.00  0.00    -0.441 A  
HETATM   29  C   UNL     1      -9.903  18.092  67.436  1.00  0.00    -0.316 A  
HETATM   30  C   UNL     1      -9.633  16.803  68.082  1.00  0.00    -0.242 C  
HETATM   31  O   UNL     1      -8.880  16.737  69.045  1.00  0.00    -0.253 OA 
ENDBRANCH  18  21
ENDBRANCH  10  17
ENDBRANCH   2   5
TORSDOF 4
ENDMDL
MODEL       61
REMARK 921   NORMALIZED FREE ENERGY PREDICTED BY IDOCK:   -5.40 KCAL/MOL
REMARK 922        TOTAL FREE ENERGY PREDICTED BY IDOCK:   -7.83 KCAL/MOL
REMARK 923 INTER-LIGAND FREE ENERGY PREDICTED BY IDOCK:   -6.77 KCAL/MOL
REMARK 924 INTRA-LIGAND FREE ENERGY PREDICTED BY IDOCK:   -1.06 KCAL/MOL
REMARK 927      BINDING AFFINITY PREDICTED BY RF-SCORE:    0.00 PKD
ROOT
HETATM    1  C   UNL     1      -8.108   9.839  70.214  1.00  0.00    -0.181 C  
HETATM    2  C   UNL     1      -7.692  10.399  68.833  1.00  0.00    -0.111 C  
HETATM    3  C   UNL     1      -6.701  11.578  69.104  1.00  0.00    -0.108 C  
HETATM    4  C   UNL     1      -6.819   9.358  68.117  1.00  0.00    -0.064 C  
ENDROOT
BRANCH   2   5
HETATM    5  C   UNL     1      -9.015  10.813  68.110  1.00  0.00    -0.140 A  
HETATM    6  C   UNL     1      -9.025  12.138  67.577  1.00  0.00    -0.177 A  
HETATM    7  C   UNL     1     -10.134  12.804  67.007  1.00  0.00    -0.240 A  
HETATM    8  H   UNL     1     -13.312  11.987  66.463  1.00  0.00     0.000 HD 
HETATM    9  C   UNL     1     -11.306  12.061  66.968  1.00  0.00    -0.336 A  
HETATM   10  C   UNL     1     -10.239  10.100  68.020  1.00  0.00    -0.173 A  
HETATM   11  O   UNL     1     -12.510  12.495  66.491  1.00  0.00    -0.396 OA 
HETATM   12  C   UNL     1     -11.347  10.754  67.452  1.00  0.00    -0.239 A  
BRANCH   7  13
HETATM   13  C   UNL     1      -9.998  14.260  66.521  1.00  0.00    -0.289 C  
HETATM   14  C   UNL     1      -8.562  14.776  66.754  1.00  0.00    -0.226 C  
HETATM   15  C   UNL     1     -10.384  14.368  65.030  1.00  0.00    -0.449 C  
HETATM   16  C   UNL     1     -10.935  15.254  67.263  1.00  0.00    -0.327 C  
ENDBRANCH   7  13
BRANCH  10  17
HETATM   17  N   UNL     1     -10.412   8.764  68.474  1.00  0.00    -0.286 N  
HETATM   18  C   UNL     1     -10.308   7.594  67.720  1.00  0.00    -0.219 C  
HETATM   19  H   UNL     1     -10.638   8.647  69.462  1.00  0.00     0.000 HD 
HETATM   20  O   UNL     1     -10.087   7.499  66.515  1.00  0.00    -0.213 OA 
BRANCH  18  21
HETATM   21  C   UNL     1     -10.374   6.333  68.502  1.00  0.00    -0.238 C  
HETATM   22  C   UNL     1      -9.702   5.228  68.112  1.00  0.00    -0.142 C  
HETATM   23  N   UNL     1      -9.564   4.076  68.867  1.00  0.00    -0.166 NA 
HETATM   24  C   UNL     1      -9.790   4.160  70.254  1.00  0.00    -0.169 A  
HETATM   25  C   UNL     1      -9.342   3.198  71.151  1.00  0.00    -0.211 A  
HETATM   26  C   UNL     1      -9.549   3.369  72.526  1.00  0.00    -0.191 A  
HETATM   27  C   UNL     1     -10.230   4.486  73.017  1.00  0.00    -0.220 A  
HETATM   28  C   UNL     1     -10.741   5.422  72.131  1.00  0.00    -0.286 A  
HETATM   29  C   UNL     1     -10.528   5.240  70.764  1.00  0.00    -0.298 A  
HETATM   30  C   UNL     1     -11.048   6.226  69.810  1.00  0.00    -0.406 C  
HETATM   31  O   UNL     1     -11.984   6.953  70.118  1.00  0.00    -0.271 OA 
ENDBRANCH  18  21
ENDBRANCH  10  17
ENDBRANCH   2   5
TORSDOF 4
ENDMDL
MODEL       62
REMARK 921   NORMALIZED FREE ENERGY PREDICTED BY IDOCK:   -5.35 KCAL/MOL
REMARK 922        TOTAL FREE ENERGY PREDICTED BY IDOCK:   -7.77 KCAL/MOL
REMARK 923 INTER-LIGAND FREE ENERGY PREDICTED BY IDOCK:   -6.61 KCAL/MOL
REMARK 924 INTRA-LIGAND FREE ENERGY PREDICTED BY IDOCK:   -1.15 KCAL/MOL
REMARK 927      BINDING AFFINITY PREDICTED BY RF-SCORE:    0.00 PKD
ROOT
HETATM    1  C   UNL     1      -7.948   9.694  70.014  1.00  0.00    -0.182 C  
HETATM    2  C   UNL     1      -7.475   9.248  68.611  1.00  0.00    -0.080 C  
HETATM    3  C   UNL     1      -7.265  10.549  67.770  1.00  0.00    -0.085 C  
HETATM    4  C   UNL     1      -6.059   8.665  68.726  1.00  0.00    -0.045 C  
ENDROOT
BRANCH   2   5
HETATM    5  C   UNL     1      -8.579   8.287  68.060  1.00  0.00    -0.132 A  
HETATM    6  C   UNL     1      -8.221   6.904  68.034  1.00  0.00    -0.115 A  
HETATM    7  C   UNL     1      -8.973   5.855  67.458  1.00  0.00    -0.107 A  
HETATM    8  H   UNL     1     -11.881   5.684  65.852  1.00  0.00     0.000 HD 
HETATM    9  C   UNL     1     -10.176   6.243  66.883  1.00  0.00    -0.209 A  
HETATM   10  C   UNL     1      -9.830   8.615  67.475  1.00  0.00    -0.180 A  
HETATM   11  O   UNL     1     -11.059   5.418  66.245  1.00  0.00    -0.149 OA 
HETATM   12  C   UNL     1     -10.586   7.576  66.901  1.00  0.00    -0.367 A  
BRANCH   7  13
HETATM   13  C   UNL     1      -8.425   4.415  67.465  1.00  0.00    -0.103 C  
HETATM   14  C   UNL     1      -6.984   4.388  68.013  1.00  0.00    -0.056 C  
HETATM   15  C   UNL     1      -9.345   3.492  68.293  1.00  0.00    -0.235 C  
HETATM   16  C   UNL     1      -8.357   3.769  66.052  1.00  0.00    -0.109 C  
ENDBRANCH   7  13
BRANCH  10  17
HETATM   17  N   UNL     1     -10.363   9.932  67.430  1.00  0.00    -0.229 N  
HETATM   18  C   UNL     1     -11.142  10.563  68.402  1.00  0.00    -0.281 C  
HETATM   19  H   UNL     1     -10.152  10.477  66.594  1.00  0.00     0.000 HD 
HETATM   20  O   UNL     1     -11.547  10.086  69.459  1.00  0.00    -0.173 OA 
BRANCH  18  21
HETATM   21  C   UNL     1     -11.412  12.002  68.155  1.00  0.00    -0.383 C  
HETATM   22  C   UNL     1     -11.358  12.909  69.154  1.00  0.00    -0.273 C  
HETATM   23  N   UNL     1     -11.418  14.281  68.984  1.00  0.00    -0.265 NA 
HETATM   24  C   UNL     1     -11.140  14.805  67.707  1.00  0.00    -0.299 A  
HETATM   25  C   UNL     1     -10.814  16.139  67.493  1.00  0.00    -0.284 A  
HETATM   26  C   UNL     1     -10.489  16.586  66.205  1.00  0.00    -0.301 A  
HETATM   27  C   UNL     1     -10.516  15.713  65.114  1.00  0.00    -0.417 A  
HETATM   28  C   UNL     1     -10.902  14.394  65.300  1.00  0.00    -0.370 A  
HETATM   29  C   UNL     1     -11.222  13.963  66.587  1.00  0.00    -0.328 A  
HETATM   30  C   UNL     1     -11.619  12.567  66.808  1.00  0.00    -0.382 C  
HETATM   31  O   UNL     1     -12.070  11.898  65.887  1.00  0.00    -0.474 OA 
ENDBRANCH  18  21
ENDBRANCH  10  17
ENDBRANCH   2   5
TORSDOF 4
ENDMDL
MODEL       63
REMARK 921   NORMALIZED FREE ENERGY PREDICTED BY IDOCK:   -5.33 KCAL/MOL
REMARK 922        TOTAL FREE ENERGY PREDICTED BY IDOCK:   -7.74 KCAL/MOL
REMARK 923 INTER-LIGAND FREE ENERGY PREDICTED BY IDOCK:   -6.74 KCAL/MOL
REMARK 924 INTRA-LIGAND FREE ENERGY PREDICTED BY IDOCK:   -1.01 KCAL/MOL
REMARK 927      BINDING AFFINITY PREDICTED BY RF-SCORE:    0.00 PKD
ROOT
HETATM    1  C   UNL     1     -12.750  10.467  69.278  1.00  0.00     0.705 C  
HETATM    2  C   UNL     1     -11.986  10.845  70.569  1.00  0.00    -0.466 C  
HETATM    3  C   UNL     1     -11.845  12.402  70.572  1.00  0.00    -0.153 C  
HETATM    4  C   UNL     1     -12.887  10.566  71.780  1.00  0.00    -0.559 C  
ENDROOT
BRANCH   2   5
HETATM    5  C   UNL     1     -10.629  10.068  70.518  1.00  0.00    -0.313 A  
HETATM    6  C   UNL     1     -10.416   9.149  71.591  1.00  0.00    -0.403 A  
HETATM    7  C   UNL     1      -9.227   8.435  71.858  1.00  0.00    -0.306 A  
HETATM    8  H   UNL     1      -6.236   8.268  70.414  1.00  0.00     0.000 HD 
HETATM    9  C   UNL     1      -8.191   8.664  70.962  1.00  0.00    -0.150 A  
HETATM   10  C   UNL     1      -9.539  10.242  69.626  1.00  0.00    -0.162 A  
HETATM   11  O   UNL     1      -6.944   8.111  71.026  1.00  0.00    -0.044 OA 
HETATM   12  C   UNL     1      -8.352   9.532  69.883  1.00  0.00    -0.180 A  
BRANCH   7  13
HETATM   13  C   UNL     1      -9.136   7.515  73.092  1.00  0.00    -0.227 C  
HETATM   14  C   UNL     1      -8.673   6.102  72.679  1.00  0.00    -0.124 C  
HETATM   15  C   UNL     1      -8.183   8.119  74.146  1.00  0.00    -0.310 C  
HETATM   16  C   UNL     1     -10.493   7.322  73.825  1.00  0.00    -0.335 C  
ENDBRANCH   7  13
BRANCH  10  17
HETATM   17  N   UNL     1      -9.575  11.094  68.489  1.00  0.00    -0.188 N  
HETATM   18  C   UNL     1     -10.039  10.781  67.210  1.00  0.00    -0.196 C  
HETATM   19  H   UNL     1      -9.221  12.042  68.622  1.00  0.00     0.000 HD 
HETATM   20  O   UNL     1     -10.467   9.699  66.816  1.00  0.00    -0.230 OA 
BRANCH  18  21
HETATM   21  C   UNL     1     -10.109  11.927  66.268  1.00  0.00    -0.249 C  
HETATM   22  C   UNL     1     -10.953  11.918  65.213  1.00  0.00    -0.302 C  
HETATM   23  N   UNL     1     -11.212  13.005  64.396  1.00  0.00    -0.340 NA 
HETATM   24  C   UNL     1     -10.896  14.289  64.879  1.00  0.00    -0.416 A  
HETATM   25  C   UNL     1     -11.425  15.452  64.331  1.00  0.00    -0.260 A  
HETATM   26  C   UNL     1     -11.117  16.698  64.895  1.00  0.00    -0.137 A  
HETATM   27  C   UNL     1     -10.255  16.797  65.991  1.00  0.00    -0.361 A  
HETATM   28  C   UNL     1      -9.668  15.652  66.507  1.00  0.00    -0.286 A  
HETATM   29  C   UNL     1      -9.983  14.419  65.937  1.00  0.00    -0.350 A  
HETATM   30  C   UNL     1      -9.383  13.194  66.478  1.00  0.00    -0.216 C  
HETATM   31  O   UNL     1      -8.336  13.243  67.111  1.00  0.00    -0.180 OA 
ENDBRANCH  18  21
ENDBRANCH  10  17
ENDBRANCH   2   5
TORSDOF 4
ENDMDL
MODEL       64
REMARK 921   NORMALIZED FREE ENERGY PREDICTED BY IDOCK:   -5.32 KCAL/MOL
REMARK 922        TOTAL FREE ENERGY PREDICTED BY IDOCK:   -7.73 KCAL/MOL
REMARK 923 INTER-LIGAND FREE ENERGY PREDICTED BY IDOCK:   -7.03 KCAL/MOL
REMARK 924 INTRA-LIGAND FREE ENERGY PREDICTED BY IDOCK:   -0.71 KCAL/MOL
REMARK 927      BINDING AFFINITY PREDICTED BY RF-SCORE:    0.00 PKD
ROOT
HETATM    1  C   UNL     1     -12.044  14.358  66.960  1.00  0.00    -0.374 C  
HETATM    2  C   UNL     1     -11.193  14.861  68.150  1.00  0.00    -0.310 C  
HETATM    3  C   UNL     1     -12.149  15.685  69.073  1.00  0.00    -0.227 C  
HETATM    4  C   UNL     1     -10.801  13.660  69.023  1.00  0.00    -0.237 C  
ENDROOT
BRANCH   2   5
HETATM    5  C   UNL     1     -10.016  15.684  67.531  1.00  0.00    -0.231 A  
HETATM    6  C   UNL     1     -10.173  17.103  67.590  1.00  0.00    -0.329 A  
HETATM    7  C   UNL     1      -9.333  18.065  66.984  1.00  0.00    -0.265 A  
HETATM    8  H   UNL     1      -6.587  17.910  65.113  1.00  0.00     0.000 HD 
HETATM    9  C   UNL     1      -8.255  17.542  66.282  1.00  0.00    -0.240 A  
HETATM   10  C   UNL     1      -8.883  15.216  66.816  1.00  0.00    -0.271 A  
HETATM   11  O   UNL     1      -7.325  18.267  65.593  1.00  0.00    -0.519 OA 
HETATM   12  C   UNL     1      -8.041  16.167  66.211  1.00  0.00    -0.210 A  
BRANCH   7  13
HETATM   13  C   UNL     1      -9.666  19.565  67.097  1.00  0.00    -0.447 C  
HETATM   14  C   UNL     1      -8.373  20.399  67.212  1.00  0.00    -0.398 C  
HETATM   15  C   UNL     1     -10.508  20.023  65.885  1.00  0.00    -0.511 C  
HETATM   16  C   UNL     1     -10.517  19.921  68.348  1.00  0.00    -0.395 C  
ENDBRANCH   7  13
BRANCH  10  17
HETATM   17  N   UNL     1      -8.551  13.841  66.672  1.00  0.00    -0.445 N  
HETATM   18  C   UNL     1      -7.558  13.134  67.353  1.00  0.00    -0.131 C  
HETATM   19  H   UNL     1      -9.100  13.311  65.995  1.00  0.00     0.000 HD 
HETATM   20  O   UNL     1      -6.759  13.575  68.175  1.00  0.00    -0.091 OA 
BRANCH  18  21
HETATM   21  C   UNL     1      -7.555  11.668  67.117  1.00  0.00    -0.152 C  
HETATM   22  C   UNL     1      -8.518  10.872  67.629  1.00  0.00    -0.123 C  
HETATM   23  N   UNL     1      -8.692   9.535  67.314  1.00  0.00    -0.128 NA 
HETATM   24  C   UNL     1      -8.103   9.049  66.131  1.00  0.00    -0.111 A  
HETATM   25  C   UNL     1      -8.494   7.860  65.527  1.00  0.00    -0.153 A  
HETATM   26  C   UNL     1      -7.908   7.461  64.318  1.00  0.00    -0.127 A  
HETATM   27  C   UNL     1      -6.907   8.227  63.717  1.00  0.00    -0.076 A  
HETATM   28  C   UNL     1      -6.460   9.383  64.340  1.00  0.00    -0.089 A  
HETATM   29  C   UNL     1      -7.052   9.769  65.543  1.00  0.00    -0.108 A  
HETATM   30  C   UNL     1      -6.603  10.996  66.211  1.00  0.00    -0.105 C  
HETATM   31  O   UNL     1      -5.490  11.453  65.987  1.00  0.00    -0.227 OA 
ENDBRANCH  18  21
ENDBRANCH  10  17
ENDBRANCH   2   5
TORSDOF 4
ENDMDL
MODEL       65
REMARK 921   NORMALIZED FREE ENERGY PREDICTED BY IDOCK:   -5.31 KCAL/MOL
REMARK 922        TOTAL FREE ENERGY PREDICTED BY IDOCK:   -7.72 KCAL/MOL
REMARK 923 INTER-LIGAND FREE ENERGY PREDICTED BY IDOCK:   -6.81 KCAL/MOL
REMARK 924 INTRA-LIGAND FREE ENERGY PREDICTED BY IDOCK:   -0.92 KCAL/MOL
REMARK 927      BINDING AFFINITY PREDICTED BY RF-SCORE:    0.00 PKD
ROOT
HETATM    1  C   UNL     1     -11.154   6.790  71.843  1.00  0.00    -0.279 C  
HETATM    2  C   UNL     1     -10.756   8.069  71.069  1.00  0.00    -0.245 C  
HETATM    3  C   UNL     1     -11.977   9.043  71.148  1.00  0.00    -0.356 C  
HETATM    4  C   UNL     1      -9.662   8.806  71.856  1.00  0.00    -0.386 C  
ENDROOT
BRANCH   2   5
HETATM    5  C   UNL     1     -10.382   7.609  69.623  1.00  0.00    -0.213 A  
HETATM    6  C   UNL     1      -9.959   6.249  69.510  1.00  0.00    -0.198 A  
HETATM    7  C   UNL     1      -9.435   5.628  68.354  1.00  0.00    -0.142 A  
HETATM    8  H   UNL     1      -8.799   6.643  65.250  1.00  0.00     0.000 HD 
HETATM    9  C   UNL     1      -9.351   6.447  67.235  1.00  0.00    -0.119 A  
HETATM   10  C   UNL     1     -10.291   8.387  68.439  1.00  0.00    -0.200 A  
HETATM   11  O   UNL     1      -8.857   6.083  66.015  1.00  0.00    -0.148 OA 
HETATM   12  C   UNL     1      -9.772   7.775  67.282  1.00  0.00    -0.224 A  
BRANCH   7  13
HETATM   13  C   UNL     1      -8.971   4.159  68.405  1.00  0.00    -0.157 C  
HETATM   14  C   UNL     1      -9.331   3.527  69.766  1.00  0.00    -0.244 C  
HETATM   15  C   UNL     1      -9.597   3.356  67.244  1.00  0.00    -0.133 C  
HETATM   16  C   UNL     1      -7.435   3.986  68.246  1.00  0.00    -0.059 C  
ENDBRANCH   7  13
BRANCH  10  17
HETATM   17  N   UNL     1     -10.689   9.749  68.353  1.00  0.00    -0.276 N  
HETATM   18  C   UNL     1      -9.903  10.877  68.597  1.00  0.00    -0.190 C  
HETATM   19  H   UNL     1     -11.658   9.921  68.084  1.00  0.00     0.000 HD 
HETATM   20  O   UNL     1      -8.733  10.905  68.969  1.00  0.00    -0.159 OA 
BRANCH  18  21
HETATM   21  C   UNL     1     -10.544  12.174  68.263  1.00  0.00    -0.236 C  
HETATM   22  C   UNL     1     -11.361  12.799  69.138  1.00  0.00    -0.281 C  
HETATM   23  N   UNL     1     -11.854  14.084  68.985  1.00  0.00    -0.334 NA 
HETATM   24  C   UNL     1     -11.195  14.944  68.085  1.00  0.00    -0.299 A  
HETATM   25  C   UNL     1     -11.354  16.325  68.110  1.00  0.00    -0.248 A  
HETATM   26  C   UNL     1     -10.625  17.132  67.225  1.00  0.00    -0.270 A  
HETATM   27  C   UNL     1      -9.754  16.567  66.290  1.00  0.00    -0.328 A  
HETATM   28  C   UNL     1      -9.634  15.188  66.209  1.00  0.00    -0.325 A  
HETATM   29  C   UNL     1     -10.365  14.397  67.096  1.00  0.00    -0.262 A  
HETATM   30  C   UNL     1     -10.241  12.936  67.037  1.00  0.00    -0.243 C  
HETATM   31  O   UNL     1      -9.861  12.387  66.010  1.00  0.00    -0.251 OA 
ENDBRANCH  18  21
ENDBRANCH  10  17
ENDBRANCH   2   5
TORSDOF 4
ENDMDL
MODEL       66
REMARK 921   NORMALIZED FREE ENERGY PREDICTED BY IDOCK:   -5.27 KCAL/MOL
REMARK 922        TOTAL FREE ENERGY PREDICTED BY IDOCK:   -7.67 KCAL/MOL
REMARK 923 INTER-LIGAND FREE ENERGY PREDICTED BY IDOCK:   -6.66 KCAL/MOL
REMARK 924 INTRA-LIGAND FREE ENERGY PREDICTED BY IDOCK:   -1.01 KCAL/MOL
REMARK 927      BINDING AFFINITY PREDICTED BY RF-SCORE:    0.00 PKD
ROOT
HETATM    1  C   UNL     1     -11.246  10.646  69.423  1.00  0.00    -0.329 C  
HETATM    2  C   UNL     1     -10.236   9.813  68.600  1.00  0.00    -0.210 C  
HETATM    3  C   UNL     1      -8.863   9.903  69.344  1.00  0.00    -0.195 C  
HETATM    4  C   UNL     1     -10.606   8.327  68.715  1.00  0.00    -0.152 C  
ENDROOT
BRANCH   2   5
HETATM    5  C   UNL     1     -10.236  10.421  67.159  1.00  0.00    -0.271 A  
HETATM    6  C   UNL     1     -10.621  11.794  67.081  1.00  0.00    -0.267 A  
HETATM    7  C   UNL     1     -10.840  12.536  65.899  1.00  0.00    -0.302 A  
HETATM    8  H   UNL     1     -10.674  11.844  62.649  1.00  0.00     0.000 HD 
HETATM    9  C   UNL     1     -10.639  11.833  64.718  1.00  0.00    -0.301 A  
HETATM   10  C   UNL     1     -10.025   9.764  65.918  1.00  0.00    -0.275 A  
HETATM   11  O   UNL     1     -10.812  12.325  63.456  1.00  0.00    -0.425 OA 
HETATM   12  C   UNL     1     -10.239  10.497  64.736  1.00  0.00    -0.373 A  
BRANCH   7  13
HETATM   13  C   UNL     1     -11.306  14.003  65.980  1.00  0.00    -0.328 C  
HETATM   14  C   UNL     1     -12.635  14.192  65.219  1.00  0.00    -0.460 C  
HETATM   15  C   UNL     1     -11.450  14.442  67.453  1.00  0.00    -0.377 C  
HETATM   16  C   UNL     1     -10.304  15.009  65.346  1.00  0.00    -0.410 C  
ENDBRANCH   7  13
BRANCH  10  17
HETATM   17  N   UNL     1      -9.615   8.409  65.799  1.00  0.00    -0.451 N  
HETATM   18  C   UNL     1      -8.312   7.911  65.849  1.00  0.00    -0.132 C  
HETATM   19  H   UNL     1     -10.357   7.722  65.662  1.00  0.00     0.000 HD 
HETATM   20  O   UNL     1      -7.272   8.554  65.964  1.00  0.00    -0.075 OA 
BRANCH  18  21
HETATM   21  C   UNL     1      -8.204   6.430  65.864  1.00  0.00    -0.130 C  
HETATM   22  C   UNL     1      -7.072   5.804  65.475  1.00  0.00    -0.069 C  
HETATM   23  N   UNL     1      -6.822   4.451  65.625  1.00  0.00    -0.056 NA 
HETATM   24  C   UNL     1      -7.593   3.733  66.560  1.00  0.00    -0.084 A  
HETATM   25  C   UNL     1      -7.210   2.494  67.059  1.00  0.00    -0.057 A  
HETATM   26  C   UNL     1      -7.992   1.857  68.033  1.00  0.00    -0.062 A  
HETATM   27  C   UNL     1      -9.176   2.436  68.495  1.00  0.00    -0.242 A  
HETATM   28  C   UNL     1      -9.605   3.641  67.960  1.00  0.00    -0.172 A  
HETATM   29  C   UNL     1      -8.817   4.265  66.992  1.00  0.00    -0.121 A  
HETATM   30  C   UNL     1      -9.246   5.548  66.423  1.00  0.00    -0.150 C  
HETATM   31  O   UNL     1     -10.425   5.876  66.452  1.00  0.00    -0.189 OA 
ENDBRANCH  18  21
ENDBRANCH  10  17
ENDBRANCH   2   5
TORSDOF 4
ENDMDL
MODEL       67
REMARK 921   NORMALIZED FREE ENERGY PREDICTED BY IDOCK:   -5.24 KCAL/MOL
REMARK 922        TOTAL FREE ENERGY PREDICTED BY IDOCK:   -7.63 KCAL/MOL
REMARK 923 INTER-LIGAND FREE ENERGY PREDICTED BY IDOCK:   -6.72 KCAL/MOL
REMARK 924 INTRA-LIGAND FREE ENERGY PREDICTED BY IDOCK:   -0.91 KCAL/MOL
REMARK 927      BINDING AFFINITY PREDICTED BY RF-SCORE:    0.00 PKD
ROOT
HETATM    1  C   UNL     1      -7.217   8.296  67.242  1.00  0.00    -0.084 C  
HETATM    2  C   UNL     1      -8.313   8.012  66.189  1.00  0.00    -0.125 C  
HETATM    3  C   UNL     1      -7.619   8.060  64.789  1.00  0.00    -0.105 C  
HETATM    4  C   UNL     1      -8.757   6.547  66.316  1.00  0.00    -0.148 C  
ENDROOT
BRANCH   2   5
HETATM    5  C   UNL     1      -9.420   9.095  66.404  1.00  0.00    -0.288 A  
HETATM    6  C   UNL     1      -9.612   9.992  65.309  1.00  0.00    -0.355 A  
HETATM    7  C   UNL     1     -10.439  11.137  65.299  1.00  0.00    -0.326 A  
HETATM    8  H   UNL     1     -12.433  12.589  67.531  1.00  0.00     0.000 HD 
HETATM    9  C   UNL     1     -11.127  11.374  66.482  1.00  0.00    -0.251 A  
HETATM   10  C   UNL     1     -10.168   9.380  67.577  1.00  0.00    -0.231 A  
HETATM   11  O   UNL     1     -11.963  12.427  66.722  1.00  0.00    -0.559 OA 
HETATM   12  C   UNL     1     -10.996  10.517  67.575  1.00  0.00    -0.365 A  
BRANCH   7  13
HETATM   13  C   UNL     1     -10.500  12.039  64.051  1.00  0.00    -0.410 C  
HETATM   14  C   UNL     1      -9.434  11.609  63.022  1.00  0.00    -0.265 C  
HETATM   15  C   UNL     1     -11.912  12.001  63.426  1.00  0.00    -0.571 C  
HETATM   16  C   UNL     1     -10.222  13.538  64.353  1.00  0.00    -0.194 C  
ENDBRANCH   7  13
BRANCH  10  17
HETATM   17  N   UNL     1     -10.126   8.586  68.755  1.00  0.00    -0.192 N  
HETATM   18  C   UNL     1     -10.687   7.321  68.944  1.00  0.00    -0.150 C  
HETATM   19  H   UNL     1      -9.630   8.985  69.553  1.00  0.00     0.000 HD 
HETATM   20  O   UNL     1     -11.357   6.675  68.143  1.00  0.00    -0.182 OA 
BRANCH  18  21
HETATM   21  C   UNL     1     -10.337   6.663  70.228  1.00  0.00    -0.235 C  
HETATM   22  C   UNL     1     -10.010   5.354  70.280  1.00  0.00    -0.230 C  
HETATM   23  N   UNL     1      -9.501   4.707  71.393  1.00  0.00    -0.148 NA 
HETATM   24  C   UNL     1      -8.928   5.491  72.412  1.00  0.00    -0.135 A  
HETATM   25  C   UNL     1      -8.079   4.966  73.379  1.00  0.00    -0.104 A  
HETATM   26  C   UNL     1      -7.494   5.811  74.333  1.00  0.00    -0.087 A  
HETATM   27  C   UNL     1      -7.774   7.179  74.349  1.00  0.00    -0.145 A  
HETATM   28  C   UNL     1      -8.670   7.707  73.432  1.00  0.00    -0.253 A  
HETATM   29  C   UNL     1      -9.244   6.856  72.488  1.00  0.00    -0.149 A  
HETATM   30  C   UNL     1     -10.185   7.397  71.499  1.00  0.00    -0.192 C  
HETATM   31  O   UNL     1     -10.785   8.440  71.721  1.00  0.00    -0.244 OA 
ENDBRANCH  18  21
ENDBRANCH  10  17
ENDBRANCH   2   5
TORSDOF 4
ENDMDL
MODEL       68
REMARK 921   NORMALIZED FREE ENERGY PREDICTED BY IDOCK:   -5.16 KCAL/MOL
REMARK 922        TOTAL FREE ENERGY PREDICTED BY IDOCK:   -7.54 KCAL/MOL
REMARK 923 INTER-LIGAND FREE ENERGY PREDICTED BY IDOCK:   -6.99 KCAL/MOL
REMARK 924 INTRA-LIGAND FREE ENERGY PREDICTED BY IDOCK:   -0.55 KCAL/MOL
REMARK 927      BINDING AFFINITY PREDICTED BY RF-SCORE:    0.00 PKD
ROOT
HETATM    1  C   UNL     1     -11.778  16.105  68.504  1.00  0.00    -0.170 C  
HETATM    2  C   UNL     1     -11.140  14.784  68.016  1.00  0.00    -0.294 C  
HETATM    3  C   UNL     1     -11.704  13.645  68.927  1.00  0.00    -0.377 C  
HETATM    4  C   UNL     1     -11.703  14.442  66.629  1.00  0.00    -0.410 C  
ENDROOT
BRANCH   2   5
HETATM    5  C   UNL     1      -9.591  14.985  68.108  1.00  0.00    -0.207 A  
HETATM    6  C   UNL     1      -9.119  16.260  67.669  1.00  0.00    -0.194 A  
HETATM    7  C   UNL     1      -7.768  16.645  67.516  1.00  0.00    -0.186 A  
HETATM    8  H   UNL     1      -4.846  15.124  67.981  1.00  0.00     0.000 HD 
HETATM    9  C   UNL     1      -6.838  15.667  67.846  1.00  0.00    -0.143 A  
HETATM   10  C   UNL     1      -8.591  14.037  68.449  1.00  0.00    -0.174 A  
HETATM   11  O   UNL     1      -5.481  15.793  67.755  1.00  0.00    -0.127 OA 
HETATM   12  C   UNL     1      -7.244  14.413  68.302  1.00  0.00    -0.122 A  
BRANCH   7  13
HETATM   13  C   UNL     1      -7.417  18.047  66.981  1.00  0.00    -0.228 C  
HETATM   14  C   UNL     1      -8.700  18.818  66.606  1.00  0.00    -0.306 C  
HETATM   15  C   UNL     1      -6.590  18.830  68.023  1.00  0.00    -0.230 C  
HETATM   16  C   UNL     1      -6.543  18.021  65.695  1.00  0.00    -0.242 C  
ENDBRANCH   7  13
BRANCH  10  17
HETATM   17  N   UNL     1      -8.871  12.728  68.928  1.00  0.00    -0.349 N  
HETATM   18  C   UNL     1      -8.400  11.519  68.411  1.00  0.00    -0.154 C  
HETATM   19  H   UNL     1      -9.486  12.665  69.740  1.00  0.00     0.000 HD 
HETATM   20  O   UNL     1      -7.690  11.357  67.423  1.00  0.00    -0.121 OA 
BRANCH  18  21
HETATM   21  C   UNL     1      -8.725  10.319  69.224  1.00  0.00    -0.182 C  
HETATM   22  C   UNL     1      -7.787   9.704  69.975  1.00  0.00    -0.165 C  
HETATM   23  N   UNL     1      -8.039   8.699  70.892  1.00  0.00    -0.121 NA 
HETATM   24  C   UNL     1      -9.356   8.549  71.368  1.00  0.00    -0.211 A  
HETATM   25  C   UNL     1      -9.663   7.846  72.527  1.00  0.00    -0.290 A  
HETATM   26  C   UNL     1     -10.988   7.782  72.979  1.00  0.00    -0.442 A  
HETATM   27  C   UNL     1     -12.021   8.395  72.265  1.00  0.00    -0.455 A  
HETATM   28  C   UNL     1     -11.740   9.045  71.073  1.00  0.00    -0.353 A  
HETATM   29  C   UNL     1     -10.417   9.100  70.634  1.00  0.00    -0.305 A  
HETATM   30  C   UNL     1     -10.096   9.796  69.382  1.00  0.00    -0.209 C  
HETATM   31  O   UNL     1     -10.956   9.961  68.526  1.00  0.00    -0.225 OA 
ENDBRANCH  18  21
ENDBRANCH  10  17
ENDBRANCH   2   5
TORSDOF 4
ENDMDL
MODEL       69
REMARK 921   NORMALIZED FREE ENERGY PREDICTED BY IDOCK:   -5.15 KCAL/MOL
REMARK 922        TOTAL FREE ENERGY PREDICTED BY IDOCK:   -7.53 KCAL/MOL
REMARK 923 INTER-LIGAND FREE ENERGY PREDICTED BY IDOCK:   -6.56 KCAL/MOL
REMARK 924 INTRA-LIGAND FREE ENERGY PREDICTED BY IDOCK:   -0.97 KCAL/MOL
REMARK 927      BINDING AFFINITY PREDICTED BY RF-SCORE:    0.00 PKD
ROOT
HETATM    1  C   UNL     1      -8.307   8.584  66.717  1.00  0.00    -0.109 C  
HETATM    2  C   UNL     1      -7.677   8.769  68.118  1.00  0.00    -0.101 C  
HETATM    3  C   UNL     1      -6.901   7.451  68.442  1.00  0.00    -0.063 C  
HETATM    4  C   UNL     1      -6.565   9.825  68.027  1.00  0.00    -0.061 C  
ENDROOT
BRANCH   2   5
HETATM    5  C   UNL     1      -8.859   9.085  69.092  1.00  0.00    -0.142 A  
HETATM    6  C   UNL     1      -9.061   8.125  70.131  1.00  0.00    -0.147 A  
HETATM    7  C   UNL     1     -10.135   8.097  71.048  1.00  0.00    -0.221 A  
HETATM    8  H   UNL     1     -12.816  10.000  71.554  1.00  0.00     0.000 HD 
HETATM    9  C   UNL     1     -11.056   9.126  70.904  1.00  0.00    -0.291 A  
HETATM   10  C   UNL     1      -9.824  10.123  69.012  1.00  0.00    -0.205 A  
HETATM   11  O   UNL     1     -12.186   9.297  71.652  1.00  0.00    -0.323 OA 
HETATM   12  C   UNL     1     -10.895  10.104  69.923  1.00  0.00    -0.347 A  
BRANCH   7  13
HETATM   13  C   UNL     1     -10.242   6.960  72.083  1.00  0.00    -0.213 C  
HETATM   14  C   UNL     1     -10.173   7.526  73.517  1.00  0.00    -0.380 C  
HETATM   15  C   UNL     1     -11.545   6.158  71.871  1.00  0.00    -0.352 C  
HETATM   16  C   UNL     1      -9.094   5.916  71.980  1.00  0.00    -0.147 C  
ENDBRANCH   7  13
BRANCH  10  17
HETATM   17  N   UNL     1      -9.773  11.179  68.061  1.00  0.00    -0.171 N  
HETATM   18  C   UNL     1     -10.537  11.309  66.900  1.00  0.00    -0.257 C  
HETATM   19  H   UNL     1      -9.104  11.926  68.249  1.00  0.00     0.000 HD 
HETATM   20  O   UNL     1     -11.365  10.517  66.459  1.00  0.00    -0.021 OA 
BRANCH  18  21
HETATM   21  C   UNL     1     -10.385  12.604  66.189  1.00  0.00    -0.273 C  
HETATM   22  C   UNL     1     -11.220  12.958  65.189  1.00  0.00    -0.288 C  
HETATM   23  N   UNL     1     -11.264  14.209  64.597  1.00  0.00    -0.373 NA 
HETATM   24  C   UNL     1     -10.698  15.293  65.295  1.00  0.00    -0.415 A  
HETATM   25  C   UNL     1     -10.991  16.619  64.995  1.00  0.00    -0.172 A  
HETATM   26  C   UNL     1     -10.440  17.652  65.766  1.00  0.00    -0.208 A  
HETATM   27  C   UNL     1      -9.569  17.374  66.822  1.00  0.00    -0.283 A  
HETATM   28  C   UNL     1      -9.216  16.061  67.093  1.00  0.00    -0.221 A  
HETATM   29  C   UNL     1      -9.772  15.042  66.319  1.00  0.00    -0.316 A  
HETATM   30  C   UNL     1      -9.422  13.644  66.598  1.00  0.00    -0.277 C  
HETATM   31  O   UNL     1      -8.382  13.371  67.184  1.00  0.00    -0.187 OA 
ENDBRANCH  18  21
ENDBRANCH  10  17
ENDBRANCH   2   5
TORSDOF 4
ENDMDL
MODEL       70
REMARK 921   NORMALIZED FREE ENERGY PREDICTED BY IDOCK:   -5.15 KCAL/MOL
REMARK 922        TOTAL FREE ENERGY PREDICTED BY IDOCK:   -7.52 KCAL/MOL
REMARK 923 INTER-LIGAND FREE ENERGY PREDICTED BY IDOCK:   -6.68 KCAL/MOL
REMARK 924 INTRA-LIGAND FREE ENERGY PREDICTED BY IDOCK:   -0.84 KCAL/MOL
REMARK 927      BINDING AFFINITY PREDICTED BY RF-SCORE:    0.00 PKD
ROOT
HETATM    1  C   UNL     1     -12.029  12.007  67.638  1.00  0.00    -0.149 C  
HETATM    2  C   UNL     1     -11.429  11.602  69.005  1.00  0.00    -0.356 C  
HETATM    3  C   UNL     1     -11.470  12.876  69.911  1.00  0.00    -0.147 C  
HETATM    4  C   UNL     1     -12.395  10.635  69.705  1.00  0.00    -0.263 C  
ENDROOT
BRANCH   2   5
HETATM    5  C   UNL     1      -9.993  11.059  68.710  1.00  0.00    -0.215 A  
HETATM    6  C   UNL     1      -9.890   9.637  68.615  1.00  0.00    -0.171 A  
HETATM    7  C   UNL     1      -8.697   8.889  68.498  1.00  0.00    -0.134 A  
HETATM    8  H   UNL     1      -5.466   9.665  68.358  1.00  0.00     0.000 HD 
HETATM    9  C   UNL     1      -7.533   9.644  68.463  1.00  0.00    -0.079 A  
HETATM   10  C   UNL     1      -8.768  11.773  68.647  1.00  0.00    -0.058 A  
HETATM   11  O   UNL     1      -6.262   9.149  68.381  1.00  0.00    -0.052 OA 
HETATM   12  C   UNL     1      -7.575  11.036  68.529  1.00  0.00    -0.114 A  
BRANCH   7  13
HETATM   13  C   UNL     1      -8.749   7.349  68.457  1.00  0.00    -0.127 C  
HETATM   14  C   UNL     1     -10.210   6.856  68.508  1.00  0.00    -0.187 C  
HETATM   15  C   UNL     1      -8.034   6.819  67.195  1.00  0.00    -0.116 C  
HETATM   16  C   UNL     1      -8.027   6.671  69.655  1.00  0.00    -0.124 C  
ENDBRANCH   7  13
BRANCH  10  17
HETATM   17  N   UNL     1      -8.675  13.191  68.701  1.00  0.00    -0.370 N  
HETATM   18  C   UNL     1      -8.927  14.095  67.668  1.00  0.00    -0.192 C  
HETATM   19  H   UNL     1      -8.392  13.592  69.596  1.00  0.00     0.000 HD 
HETATM   20  O   UNL     1      -9.236  13.836  66.508  1.00  0.00    -0.257 OA 
BRANCH  18  21
HETATM   21  C   UNL     1      -8.911  15.526  68.066  1.00  0.00    -0.174 C  
HETATM   22  C   UNL     1      -7.784  16.118  68.517  1.00  0.00    -0.170 C  
HETATM   23  N   UNL     1      -7.635  17.476  68.738  1.00  0.00    -0.267 NA 
HETATM   24  C   UNL     1      -8.546  18.353  68.118  1.00  0.00    -0.284 A  
HETATM   25  C   UNL     1      -8.297  19.712  67.962  1.00  0.00    -0.341 A  
HETATM   26  C   UNL     1      -9.218  20.521  67.284  1.00  0.00    -0.500 A  
HETATM   27  C   UNL     1     -10.408  19.990  66.782  1.00  0.00    -0.564 A  
HETATM   28  C   UNL     1     -10.702  18.650  66.986  1.00  0.00    -0.400 A  
HETATM   29  C   UNL     1      -9.776  17.856  67.662  1.00  0.00    -0.280 A  
HETATM   30  C   UNL     1     -10.061  16.432  67.877  1.00  0.00    -0.250 C  
HETATM   31  O   UNL     1     -11.214  16.020  67.859  1.00  0.00    -0.338 OA 
ENDBRANCH  18  21
ENDBRANCH  10  17
ENDBRANCH   2   5
TORSDOF 4
ENDMDL
MODEL       71
REMARK 921   NORMALIZED FREE ENERGY PREDICTED BY IDOCK:   -5.14 KCAL/MOL
REMARK 922        TOTAL FREE ENERGY PREDICTED BY IDOCK:   -7.51 KCAL/MOL
REMARK 923 INTER-LIGAND FREE ENERGY PREDICTED BY IDOCK:   -6.57 KCAL/MOL
REMARK 924 INTRA-LIGAND FREE ENERGY PREDICTED BY IDOCK:   -0.94 KCAL/MOL
REMARK 927      BINDING AFFINITY PREDICTED BY RF-SCORE:    0.00 PKD
ROOT
HETATM    1  C   UNL     1     -11.295   7.667  70.739  1.00  0.00    -0.296 C  
HETATM    2  C   UNL     1     -10.805   9.046  70.239  1.00  0.00    -0.269 C  
HETATM    3  C   UNL     1     -11.957  10.065  70.520  1.00  0.00    -0.357 C  
HETATM    4  C   UNL     1      -9.669   9.531  71.152  1.00  0.00    -0.134 C  
ENDROOT
BRANCH   2   5
HETATM    5  C   UNL     1     -10.452   8.864  68.726  1.00  0.00    -0.223 A  
HETATM    6  C   UNL     1     -10.083   7.537  68.346  1.00  0.00    -0.200 A  
HETATM    7  C   UNL     1      -9.586   7.135  67.086  1.00  0.00    -0.191 A  
HETATM    8  H   UNL     1      -8.915   8.712  64.235  1.00  0.00     0.000 HD 
HETATM    9  C   UNL     1      -9.471   8.153  66.148  1.00  0.00    -0.147 A  
HETATM   10  C   UNL     1     -10.332   9.854  67.716  1.00  0.00    -0.221 A  
HETATM   11  O   UNL     1      -8.994   8.016  64.876  1.00  0.00     0.130 OA 
HETATM   12  C   UNL     1      -9.840   9.461  66.458  1.00  0.00    -0.325 A  
BRANCH   7  13
HETATM   13  C   UNL     1      -9.181   5.667  66.845  1.00  0.00    -0.120 C  
HETATM   14  C   UNL     1     -10.208   4.967  65.931  1.00  0.00    -0.251 C  
HETATM   15  C   UNL     1      -7.764   5.592  66.236  1.00  0.00    -0.099 C  
HETATM   16  C   UNL     1      -9.116   4.819  68.145  1.00  0.00    -0.141 C  
ENDBRANCH   7  13
BRANCH  10  17
HETATM   17  N   UNL     1     -10.675  11.221  67.903  1.00  0.00    -0.195 N  
HETATM   18  C   UNL     1      -9.826  12.263  68.280  1.00  0.00    -0.217 C  
HETATM   19  H   UNL     1     -11.652  11.468  67.743  1.00  0.00     0.000 HD 
HETATM   20  O   UNL     1      -8.633  12.189  68.561  1.00  0.00    -0.153 OA 
BRANCH  18  21
HETATM   21  C   UNL     1     -10.433  13.618  68.230  1.00  0.00    -0.253 C  
HETATM   22  C   UNL     1     -10.799  14.265  69.357  1.00  0.00    -0.168 C  
HETATM   23  N   UNL     1     -11.201  15.588  69.417  1.00  0.00    -0.277 NA 
HETATM   24  C   UNL     1     -10.863  16.434  68.343  1.00  0.00    -0.342 A  
HETATM   25  C   UNL     1     -10.882  17.820  68.440  1.00  0.00    -0.088 A  
HETATM   26  C   UNL     1     -10.478  18.606  67.352  1.00  0.00    -0.467 A  
HETATM   27  C   UNL     1     -10.079  18.018  66.149  1.00  0.00    -0.334 A  
HETATM   28  C   UNL     1     -10.117  16.639  66.015  1.00  0.00    -0.359 A  
HETATM   29  C   UNL     1     -10.521  15.868  67.105  1.00  0.00    -0.313 A  
HETATM   30  C   UNL     1     -10.554  14.405  66.988  1.00  0.00    -0.274 C  
HETATM   31  O   UNL     1     -10.642  13.873  65.889  1.00  0.00    -0.282 OA 
ENDBRANCH  18  21
ENDBRANCH  10  17
ENDBRANCH   2   5
TORSDOF 4
ENDMDL
MODEL       72
REMARK 921   NORMALIZED FREE ENERGY PREDICTED BY IDOCK:   -5.11 KCAL/MOL
REMARK 922        TOTAL FREE ENERGY PREDICTED BY IDOCK:   -7.47 KCAL/MOL
REMARK 923 INTER-LIGAND FREE ENERGY PREDICTED BY IDOCK:   -6.85 KCAL/MOL
REMARK 924 INTRA-LIGAND FREE ENERGY PREDICTED BY IDOCK:   -0.62 KCAL/MOL
REMARK 927      BINDING AFFINITY PREDICTED BY RF-SCORE:    0.00 PKD
ROOT
HETATM    1  C   UNL     1     -12.132  14.251  67.390  1.00  0.00    -0.371 C  
HETATM    2  C   UNL     1     -11.466  14.341  68.783  1.00  0.00    -0.327 C  
HETATM    3  C   UNL     1     -12.351  15.297  69.648  1.00  0.00    -0.245 C  
HETATM    4  C   UNL     1     -11.609  12.985  69.491  1.00  0.00    -0.342 C  
ENDROOT
BRANCH   2   5
HETATM    5  C   UNL     1     -10.006  14.847  68.540  1.00  0.00    -0.223 A  
HETATM    6  C   UNL     1      -9.864  16.266  68.454  1.00  0.00    -0.229 A  
HETATM    7  C   UNL     1      -8.691  16.971  68.101  1.00  0.00    -0.233 A  
HETATM    8  H   UNL     1      -5.600  16.075  67.262  1.00  0.00     0.000 HD 
HETATM    9  C   UNL     1      -7.587  16.173  67.831  1.00  0.00    -0.134 A  
HETATM   10  C   UNL     1      -8.836  14.090  68.273  1.00  0.00    -0.184 A  
HETATM   11  O   UNL     1      -6.355  16.620  67.446  1.00  0.00    -0.138 OA 
HETATM   12  C   UNL     1      -7.663  14.784  67.923  1.00  0.00    -0.146 A  
BRANCH   7  13
HETATM   13  C   UNL     1      -8.711  18.509  68.001  1.00  0.00    -0.313 C  
HETATM   14  C   UNL     1      -8.633  18.956  66.527  1.00  0.00    -0.309 C  
HETATM   15  C   UNL     1      -9.976  19.077  68.681  1.00  0.00    -0.482 C  
HETATM   16  C   UNL     1      -7.514  19.194  68.720  1.00  0.00    -0.379 C  
ENDBRANCH   7  13
BRANCH  10  17
HETATM   17  N   UNL     1      -8.780  12.671  68.334  1.00  0.00    -0.300 N  
HETATM   18  C   UNL     1      -7.779  11.888  68.913  1.00  0.00    -0.016 C  
HETATM   19  H   UNL     1      -9.559  12.168  67.908  1.00  0.00     0.000 HD 
HETATM   20  O   UNL     1      -6.740  12.276  69.441  1.00  0.00    -0.102 OA 
BRANCH  18  21
HETATM   21  C   UNL     1      -8.075  10.434  68.974  1.00  0.00    -0.138 C  
HETATM   22  C   UNL     1      -8.115   9.775  70.152  1.00  0.00    -0.182 C  
HETATM   23  N   UNL     1      -8.554   8.472  70.317  1.00  0.00    -0.131 NA 
HETATM   24  C   UNL     1      -9.357   7.909  69.307  1.00  0.00    -0.148 A  
HETATM   25  C   UNL     1     -10.143   6.782  69.510  1.00  0.00    -0.192 A  
HETATM   26  C   UNL     1     -10.966   6.304  68.480  1.00  0.00    -0.421 A  
HETATM   27  C   UNL     1     -10.989   6.929  67.231  1.00  0.00    -0.406 A  
HETATM   28  C   UNL     1     -10.162   8.016  66.992  1.00  0.00    -0.374 A  
HETATM   29  C   UNL     1      -9.348   8.481  68.026  1.00  0.00    -0.147 A  
HETATM   30  C   UNL     1      -8.476   9.639  67.798  1.00  0.00    -0.125 C  
HETATM   31  O   UNL     1      -8.132   9.943  66.663  1.00  0.00    -0.115 OA 
ENDBRANCH  18  21
ENDBRANCH  10  17
ENDBRANCH   2   5
TORSDOF 4
ENDMDL
MODEL       73
REMARK 921   NORMALIZED FREE ENERGY PREDICTED BY IDOCK:   -5.10 KCAL/MOL
REMARK 922        TOTAL FREE ENERGY PREDICTED BY IDOCK:   -7.47 KCAL/MOL
REMARK 923 INTER-LIGAND FREE ENERGY PREDICTED BY IDOCK:   -7.69 KCAL/MOL
REMARK 924 INTRA-LIGAND FREE ENERGY PREDICTED BY IDOCK:    0.22 KCAL/MOL
REMARK 927      BINDING AFFINITY PREDICTED BY RF-SCORE:    0.00 PKD
ROOT
HETATM    1  C   UNL     1     -12.005  13.467  70.412  1.00  0.00    -0.367 C  
HETATM    2  C   UNL     1     -11.600  14.953  70.556  1.00  0.00    -0.336 C  
HETATM    3  C   UNL     1     -12.911  15.794  70.418  1.00  0.00    -0.108 C  
HETATM    4  C   UNL     1     -11.162  15.211  72.005  1.00  0.00    -0.232 C  
ENDROOT
BRANCH   2   5
HETATM    5  C   UNL     1     -10.532  15.226  69.447  1.00  0.00    -0.253 A  
HETATM    6  C   UNL     1     -10.353  16.601  69.104  1.00  0.00    -0.326 A  
HETATM    7  C   UNL     1      -9.562  17.105  68.046  1.00  0.00    -0.267 A  
HETATM    8  H   UNL     1      -7.650  15.718  65.704  1.00  0.00     0.000 HD 
HETATM    9  C   UNL     1      -8.900  16.140  67.299  1.00  0.00    -0.186 A  
HETATM   10  C   UNL     1      -9.811  14.292  68.658  1.00  0.00    -0.228 A  
HETATM   11  O   UNL     1      -8.103  16.378  66.216  1.00  0.00    -0.312 OA 
HETATM   12  C   UNL     1      -9.020  14.785  67.604  1.00  0.00    -0.183 A  
BRANCH   7  13
HETATM   13  C   UNL     1      -9.512  18.620  67.770  1.00  0.00    -0.326 C  
HETATM   14  C   UNL     1     -10.106  19.406  68.957  1.00  0.00    -0.417 C  
HETATM   15  C   UNL     1      -8.061  19.068  67.486  1.00  0.00    -0.292 C  
HETATM   16  C   UNL     1     -10.329  19.051  66.520  1.00  0.00    -0.512 C  
ENDBRANCH   7  13
BRANCH  10  17
HETATM   17  N   UNL     1      -9.845  12.886  68.867  1.00  0.00    -0.420 N  
HETATM   18  C   UNL     1     -10.512  11.932  68.096  1.00  0.00    -0.207 C  
HETATM   19  H   UNL     1      -9.324  12.535  69.671  1.00  0.00     0.000 HD 
HETATM   20  O   UNL     1     -11.226  12.130  67.117  1.00  0.00    -0.275 OA 
BRANCH  18  21
HETATM   21  C   UNL     1     -10.227  10.520  68.459  1.00  0.00    -0.190 C  
HETATM   22  C   UNL     1     -10.600  10.013  69.654  1.00  0.00    -0.252 C  
HETATM   23  N   UNL     1     -10.536   8.675  70.002  1.00  0.00    -0.224 NA 
HETATM   24  C   UNL     1     -10.447   7.723  68.968  1.00  0.00    -0.205 A  
HETATM   25  C   UNL     1     -10.739   6.377  69.155  1.00  0.00    -0.339 A  
HETATM   26  C   UNL     1     -10.688   5.490  68.071  1.00  0.00    -0.165 A  
HETATM   27  C   UNL     1     -10.317   5.931  66.799  1.00  0.00    -0.302 A  
HETATM   28  C   UNL     1      -9.959   7.258  66.610  1.00  0.00    -0.246 A  
HETATM   29  C   UNL     1     -10.015   8.130  67.697  1.00  0.00    -0.240 A  
HETATM   30  C   UNL     1      -9.654   9.541  67.515  1.00  0.00    -0.144 C  
HETATM   31  O   UNL     1      -8.933   9.882  66.586  1.00  0.00    -0.137 OA 
ENDBRANCH  18  21
ENDBRANCH  10  17
ENDBRANCH   2   5
TORSDOF 4
ENDMDL
MODEL       74
REMARK 921   NORMALIZED FREE ENERGY PREDICTED BY IDOCK:   -5.05 KCAL/MOL
REMARK 922        TOTAL FREE ENERGY PREDICTED BY IDOCK:   -7.40 KCAL/MOL
REMARK 923 INTER-LIGAND FREE ENERGY PREDICTED BY IDOCK:   -6.42 KCAL/MOL
REMARK 924 INTRA-LIGAND FREE ENERGY PREDICTED BY IDOCK:   -0.98 KCAL/MOL
REMARK 927      BINDING AFFINITY PREDICTED BY RF-SCORE:    0.00 PKD
ROOT
HETATM    1  C   UNL     1      -6.610   8.535  64.188  1.00  0.00    -0.071 C  
HETATM    2  C   UNL     1      -7.683   9.526  64.697  1.00  0.00    -0.120 C  
HETATM    3  C   UNL     1      -6.919  10.717  65.362  1.00  0.00    -0.013 C  
HETATM    4  C   UNL     1      -8.373  10.176  63.488  1.00  0.00    -0.169 C  
ENDROOT
BRANCH   2   5
HETATM    5  C   UNL     1      -8.601   8.716  65.670  1.00  0.00    -0.191 A  
HETATM    6  C   UNL     1      -8.380   7.305  65.679  1.00  0.00    -0.142 A  
HETATM    7  C   UNL     1      -9.160   6.339  66.353  1.00  0.00    -0.164 A  
HETATM    8  H   UNL     1     -11.867   6.465  68.282  1.00  0.00     0.000 HD 
HETATM    9  C   UNL     1     -10.229   6.850  67.077  1.00  0.00    -0.248 A  
HETATM   10  C   UNL     1      -9.697   9.177  66.446  1.00  0.00    -0.262 A  
HETATM   11  O   UNL     1     -11.136   6.116  67.787  1.00  0.00    -0.326 OA 
HETATM   12  C   UNL     1     -10.477   8.221  67.123  1.00  0.00    -0.386 A  
BRANCH   7  13
HETATM   13  C   UNL     1      -8.822   4.841  66.223  1.00  0.00    -0.114 C  
HETATM   14  C   UNL     1      -7.725   4.625  65.159  1.00  0.00    -0.085 C  
HETATM   15  C   UNL     1      -8.382   4.267  67.588  1.00  0.00    -0.098 C  
HETATM   16  C   UNL     1     -10.028   3.968  65.777  1.00  0.00    -0.153 C  
ENDBRANCH   7  13
BRANCH  10  17
HETATM   17  N   UNL     1     -10.054  10.546  66.577  1.00  0.00    -0.218 N  
HETATM   18  C   UNL     1     -10.927  11.274  65.766  1.00  0.00    -0.145 C  
HETATM   19  H   UNL     1      -9.625  11.054  67.351  1.00  0.00     0.000 HD 
HETATM   20  O   UNL     1     -11.518  10.881  64.764  1.00  0.00     0.239 OA 
BRANCH  18  21
HETATM   21  C   UNL     1     -11.238  12.645  66.248  1.00  0.00    -0.354 C  
HETATM   22  C   UNL     1     -11.838  12.851  67.440  1.00  0.00    -0.360 C  
HETATM   23  N   UNL     1     -12.002  14.086  68.042  1.00  0.00    -0.369 NA 
HETATM   24  C   UNL     1     -11.186  15.149  67.610  1.00  0.00    -0.327 A  
HETATM   25  C   UNL     1     -10.995  16.305  68.356  1.00  0.00    -0.351 A  
HETATM   26  C   UNL     1     -10.123  17.302  67.897  1.00  0.00    -0.317 A  
HETATM   27  C   UNL     1      -9.457  17.168  66.677  1.00  0.00    -0.279 A  
HETATM   28  C   UNL     1      -9.686  16.050  65.889  1.00  0.00    -0.378 A  
HETATM   29  C   UNL     1     -10.556  15.065  66.358  1.00  0.00    -0.310 A  
HETATM   30  C   UNL     1     -10.802  13.867  65.547  1.00  0.00    -0.306 C  
HETATM   31  O   UNL     1     -10.612  13.888  64.337  1.00  0.00    -0.400 OA 
ENDBRANCH  18  21
ENDBRANCH  10  17
ENDBRANCH   2   5
TORSDOF 4
ENDMDL
MODEL       75
REMARK 921   NORMALIZED FREE ENERGY PREDICTED BY IDOCK:   -5.04 KCAL/MOL
REMARK 922        TOTAL FREE ENERGY PREDICTED BY IDOCK:   -7.38 KCAL/MOL
REMARK 923 INTER-LIGAND FREE ENERGY PREDICTED BY IDOCK:   -6.29 KCAL/MOL
REMARK 924 INTRA-LIGAND FREE ENERGY PREDICTED BY IDOCK:   -1.10 KCAL/MOL
REMARK 927      BINDING AFFINITY PREDICTED BY RF-SCORE:    0.00 PKD
ROOT
HETATM    1  C   UNL     1     -10.244  12.262  64.303  1.00  0.00    -0.356 C  
HETATM    2  C   UNL     1     -10.905  13.183  65.355  1.00  0.00    -0.299 C  
HETATM    3  C   UNL     1     -11.663  14.299  64.566  1.00  0.00    -0.431 C  
HETATM    4  C   UNL     1     -12.034  12.410  66.053  1.00  0.00    -0.419 C  
ENDROOT
BRANCH   2   5
HETATM    5  C   UNL     1      -9.749  13.703  66.271  1.00  0.00    -0.295 A  
HETATM    6  C   UNL     1      -9.585  15.123  66.291  1.00  0.00    -0.325 A  
HETATM    7  C   UNL     1      -8.537  15.835  66.917  1.00  0.00    -0.279 A  
HETATM    8  H   UNL     1      -5.856  14.964  68.682  1.00  0.00     0.000 HD 
HETATM    9  C   UNL     1      -7.604  15.047  67.577  1.00  0.00    -0.192 A  
HETATM   10  C   UNL     1      -8.773  12.956  66.981  1.00  0.00    -0.195 A  
HETATM   11  O   UNL     1      -6.494  15.503  68.230  1.00  0.00    -0.105 OA 
HETATM   12  C   UNL     1      -7.728  13.659  67.609  1.00  0.00    -0.184 A  
BRANCH   7  13
HETATM   13  C   UNL     1      -8.470  17.371  66.805  1.00  0.00    -0.280 C  
HETATM   14  C   UNL     1      -7.285  17.797  65.914  1.00  0.00    -0.260 C  
HETATM   15  C   UNL     1      -9.800  17.930  66.253  1.00  0.00    -0.307 C  
HETATM   16  C   UNL     1      -8.258  18.085  68.170  1.00  0.00    -0.275 C  
ENDBRANCH   7  13
BRANCH  10  17
HETATM   17  N   UNL     1      -8.787  11.539  67.093  1.00  0.00    -0.163 N  
HETATM   18  C   UNL     1      -9.529  10.768  67.989  1.00  0.00    -0.160 C  
HETATM   19  H   UNL     1      -8.188  11.028  66.444  1.00  0.00     0.000 HD 
HETATM   20  O   UNL     1     -10.277  11.169  68.877  1.00  0.00    -0.198 OA 
BRANCH  18  21
HETATM   21  C   UNL     1      -9.469   9.302  67.758  1.00  0.00    -0.160 C  
HETATM   22  C   UNL     1     -10.576   8.593  67.453  1.00  0.00    -0.228 C  
HETATM   23  N   UNL     1     -10.584   7.269  67.049  1.00  0.00    -0.335 NA 
HETATM   24  C   UNL     1      -9.385   6.718  66.557  1.00  0.00    -0.161 A  
HETATM   25  C   UNL     1      -9.346   5.553  65.801  1.00  0.00    -0.107 A  
HETATM   26  C   UNL     1      -8.126   5.087  65.290  1.00  0.00    -0.117 A  
HETATM   27  C   UNL     1      -6.932   5.763  65.554  1.00  0.00    -0.068 A  
HETATM   28  C   UNL     1      -6.946   6.890  66.362  1.00  0.00    -0.069 A  
HETATM   29  C   UNL     1      -8.167   7.343  66.863  1.00  0.00    -0.121 A  
HETATM   30  C   UNL     1      -8.205   8.542  67.708  1.00  0.00    -0.122 C  
HETATM   31  O   UNL     1      -7.205   8.907  68.313  1.00  0.00    -0.077 OA 
ENDBRANCH  18  21
ENDBRANCH  10  17
ENDBRANCH   2   5
TORSDOF 4
ENDMDL
MODEL       76
REMARK 921   NORMALIZED FREE ENERGY PREDICTED BY IDOCK:   -5.02 KCAL/MOL
REMARK 922        TOTAL FREE ENERGY PREDICTED BY IDOCK:   -7.37 KCAL/MOL
REMARK 923 INTER-LIGAND FREE ENERGY PREDICTED BY IDOCK:   -6.58 KCAL/MOL
REMARK 924 INTRA-LIGAND FREE ENERGY PREDICTED BY IDOCK:   -0.78 KCAL/MOL
REMARK 927      BINDING AFFINITY PREDICTED BY RF-SCORE:    0.00 PKD
ROOT
HETATM    1  C   UNL     1     -11.719  11.157  68.625  1.00  0.00    -0.389 C  
HETATM    2  C   UNL     1     -11.123  12.459  68.039  1.00  0.00    -0.288 C  
HETATM    3  C   UNL     1     -12.099  12.936  66.915  1.00  0.00    -0.313 C  
HETATM    4  C   UNL     1     -11.225  13.570  69.094  1.00  0.00    -0.310 C  
ENDROOT
BRANCH   2   5
HETATM    5  C   UNL     1      -9.685  12.099  67.543  1.00  0.00    -0.185 A  
HETATM    6  C   UNL     1      -9.500  10.737  67.155  1.00  0.00    -0.180 A  
HETATM    7  C   UNL     1      -8.276  10.123  66.808  1.00  0.00    -0.122 A  
HETATM    8  H   UNL     1      -5.123  11.165  66.608  1.00  0.00     0.000 HD 
HETATM    9  C   UNL     1      -7.168  10.960  66.848  1.00  0.00    -0.124 A  
HETATM   10  C   UNL     1      -8.517  12.907  67.543  1.00  0.00    -0.186 A  
HETATM   11  O   UNL     1      -5.880  10.593  66.581  1.00  0.00    -0.058 OA 
HETATM   12  C   UNL     1      -7.294  12.304  67.197  1.00  0.00    -0.107 A  
BRANCH   7  13
HETATM   13  C   UNL     1      -8.232   8.623  66.460  1.00  0.00    -0.107 C  
HETATM   14  C   UNL     1      -9.621   7.981  66.658  1.00  0.00    -0.297 C  
HETATM   15  C   UNL     1      -7.736   8.420  65.012  1.00  0.00    -0.104 C  
HETATM   16  C   UNL     1      -7.253   7.806  67.350  1.00  0.00    -0.091 C  
ENDBRANCH   7  13
BRANCH  10  17
HETATM   17  N   UNL     1      -8.511  14.289  67.877  1.00  0.00    -0.157 N  
HETATM   18  C   UNL     1      -7.817  14.905  68.920  1.00  0.00    -0.161 C  
HETATM   19  H   UNL     1      -9.077  14.900  67.287  1.00  0.00     0.000 HD 
HETATM   20  O   UNL     1      -7.115  14.364  69.771  1.00  0.00    -0.109 OA 
BRANCH  18  21
HETATM   21  C   UNL     1      -7.867  16.389  68.920  1.00  0.00    -0.234 C  
HETATM   22  C   UNL     1      -6.738  17.130  68.908  1.00  0.00    -0.209 C  
HETATM   23  N   UNL     1      -6.692  18.502  68.728  1.00  0.00    -0.257 NA 
HETATM   24  C   UNL     1      -7.809  19.133  68.149  1.00  0.00    -0.300 A  
HETATM   25  C   UNL     1      -7.752  20.405  67.592  1.00  0.00    -0.312 A  
HETATM   26  C   UNL     1      -8.886  20.955  66.978  1.00  0.00    -0.094 A  
HETATM   27  C   UNL     1     -10.094  20.255  66.941  1.00  0.00    -0.565 A  
HETATM   28  C   UNL     1     -10.185  19.012  67.550  1.00  0.00    -0.472 A  
HETATM   29  C   UNL     1      -9.049  18.476  68.157  1.00  0.00    -0.329 A  
HETATM   30  C   UNL     1      -9.121  17.156  68.795  1.00  0.00    -0.244 C  
HETATM   31  O   UNL     1     -10.196  16.707  69.170  1.00  0.00    -0.278 OA 
ENDBRANCH  18  21
ENDBRANCH  10  17
ENDBRANCH   2   5
TORSDOF 4
ENDMDL
MODEL       77
REMARK 921   NORMALIZED FREE ENERGY PREDICTED BY IDOCK:   -5.02 KCAL/MOL
REMARK 922        TOTAL FREE ENERGY PREDICTED BY IDOCK:   -7.36 KCAL/MOL
REMARK 923 INTER-LIGAND FREE ENERGY PREDICTED BY IDOCK:   -6.37 KCAL/MOL
REMARK 924 INTRA-LIGAND FREE ENERGY PREDICTED BY IDOCK:   -0.99 KCAL/MOL
REMARK 927      BINDING AFFINITY PREDICTED BY RF-SCORE:    0.00 PKD
ROOT
HETATM    1  C   UNL     1     -10.267   6.706  68.016  1.00  0.00    -0.193 C  
HETATM    2  C   UNL     1     -10.354   6.329  69.513  1.00  0.00    -0.263 C  
HETATM    3  C   UNL     1     -11.822   6.617  69.967  1.00  0.00    -0.301 C  
HETATM    4  C   UNL     1     -10.231   4.805  69.650  1.00  0.00    -0.200 C  
ENDROOT
BRANCH   2   5
HETATM    5  C   UNL     1      -9.267   7.184  70.245  1.00  0.00    -0.156 A  
HETATM    6  C   UNL     1      -8.403   6.449  71.114  1.00  0.00    -0.123 A  
HETATM    7  C   UNL     1      -7.439   6.993  71.992  1.00  0.00    -0.090 A  
HETATM    8  H   UNL     1      -6.441  10.079  72.732  1.00  0.00     0.000 HD 
HETATM    9  C   UNL     1      -7.343   8.379  71.971  1.00  0.00    -0.097 A  
HETATM   10  C   UNL     1      -9.104   8.594  70.255  1.00  0.00    -0.162 A  
HETATM   11  O   UNL     1      -6.507   9.132  72.746  1.00  0.00    -0.313 OA 
HETATM   12  C   UNL     1      -8.145   9.143  71.126  1.00  0.00    -0.136 A  
BRANCH   7  13
HETATM   13  C   UNL     1      -6.615   6.068  72.909  1.00  0.00    -0.065 C  
HETATM   14  C   UNL     1      -7.287   4.684  73.023  1.00  0.00    -0.081 C  
HETATM   15  C   UNL     1      -5.170   5.934  72.381  1.00  0.00    -0.022 C  
HETATM   16  C   UNL     1      -6.476   6.597  74.364  1.00  0.00    -0.080 C  
ENDBRANCH   7  13
BRANCH  10  17
HETATM   17  N   UNL     1      -9.856   9.484  69.441  1.00  0.00    -0.177 N  
HETATM   18  C   UNL     1     -10.925  10.291  69.833  1.00  0.00    -0.303 C  
HETATM   19  H   UNL     1      -9.583   9.539  68.459  1.00  0.00     0.000 HD 
HETATM   20  O   UNL     1     -11.444  10.354  70.945  1.00  0.00    -0.344 OA 
BRANCH  18  21
HETATM   21  C   UNL     1     -11.406  11.244  68.801  1.00  0.00    -0.335 C  
HETATM   22  C   UNL     1     -11.823  12.485  69.130  1.00  0.00    -0.296 C  
HETATM   23  N   UNL     1     -12.115  13.491  68.225  1.00  0.00    -0.328 NA 
HETATM   24  C   UNL     1     -11.603  13.376  66.918  1.00  0.00    -0.365 A  
HETATM   25  C   UNL     1     -11.513  14.454  66.046  1.00  0.00    -0.349 A  
HETATM   26  C   UNL     1     -10.940  14.287  64.778  1.00  0.00    -0.408 A  
HETATM   27  C   UNL     1     -10.478  13.037  64.358  1.00  0.00    -0.426 A  
HETATM   28  C   UNL     1     -10.620  11.938  65.190  1.00  0.00    -0.333 A  
HETATM   29  C   UNL     1     -11.192  12.118  66.450  1.00  0.00    -0.380 A  
HETATM   30  C   UNL     1     -11.339  10.970  67.352  1.00  0.00    -0.230 C  
HETATM   31  O   UNL     1     -11.365   9.830  66.906  1.00  0.00     0.183 OA 
ENDBRANCH  18  21
ENDBRANCH  10  17
ENDBRANCH   2   5
TORSDOF 4
ENDMDL
MODEL       78
REMARK 921   NORMALIZED FREE ENERGY PREDICTED BY IDOCK:   -5.01 KCAL/MOL
REMARK 922        TOTAL FREE ENERGY PREDICTED BY IDOCK:   -7.35 KCAL/MOL
REMARK 923 INTER-LIGAND FREE ENERGY PREDICTED BY IDOCK:   -6.80 KCAL/MOL
REMARK 924 INTRA-LIGAND FREE ENERGY PREDICTED BY IDOCK:   -0.56 KCAL/MOL
REMARK 927      BINDING AFFINITY PREDICTED BY RF-SCORE:    0.00 PKD
ROOT
HETATM    1  C   UNL     1      -5.273  15.839  68.413  1.00  0.00    -0.102 C  
HETATM    2  C   UNL     1      -6.248  14.682  68.733  1.00  0.00    -0.087 C  
HETATM    3  C   UNL     1      -5.815  13.468  67.848  1.00  0.00    -0.133 C  
HETATM    4  C   UNL     1      -5.986  14.192  70.164  1.00  0.00    -0.151 C  
ENDROOT
BRANCH   2   5
HETATM    5  C   UNL     1      -7.685  15.225  68.436  1.00  0.00    -0.124 A  
HETATM    6  C   UNL     1      -7.767  16.634  68.216  1.00  0.00    -0.183 A  
HETATM    7  C   UNL     1      -8.951  17.391  68.070  1.00  0.00    -0.255 A  
HETATM    8  H   UNL     1     -12.198  16.667  68.102  1.00  0.00     0.000 HD 
HETATM    9  C   UNL     1     -10.128  16.658  68.140  1.00  0.00    -0.267 A  
HETATM   10  C   UNL     1      -8.922  14.530  68.476  1.00  0.00    -0.188 A  
HETATM   11  O   UNL     1     -11.393  17.168  68.054  1.00  0.00    -0.103 OA 
HETATM   12  C   UNL     1     -10.106  15.277  68.329  1.00  0.00    -0.225 A  
BRANCH   7  13
HETATM   13  C   UNL     1      -8.876  18.920  67.890  1.00  0.00    -0.326 C  
HETATM   14  C   UNL     1      -9.833  19.627  68.872  1.00  0.00    -0.498 C  
HETATM   15  C   UNL     1      -7.426  19.415  68.084  1.00  0.00    -0.328 C  
HETATM   16  C   UNL     1      -9.290  19.399  66.470  1.00  0.00    -0.414 C  
ENDBRANCH   7  13
BRANCH  10  17
HETATM   17  N   UNL     1      -9.036  13.125  68.659  1.00  0.00    -0.387 N  
HETATM   18  C   UNL     1      -9.328  12.166  67.688  1.00  0.00    -0.187 C  
HETATM   19  H   UNL     1      -8.888  12.779  69.608  1.00  0.00     0.000 HD 
HETATM   20  O   UNL     1      -9.581  12.358  66.502  1.00  0.00    -0.229 OA 
BRANCH  18  21
HETATM   21  C   UNL     1      -9.214  10.756  68.142  1.00  0.00    -0.151 C  
HETATM   22  C   UNL     1      -9.092  10.448  69.451  1.00  0.00    -0.152 C  
HETATM   23  N   UNL     1      -9.159   9.168  69.974  1.00  0.00    -0.176 NA 
HETATM   24  C   UNL     1      -9.760   8.162  69.192  1.00  0.00    -0.163 A  
HETATM   25  C   UNL     1     -10.210   6.960  69.725  1.00  0.00    -0.210 A  
HETATM   26  C   UNL     1     -10.852   6.024  68.904  1.00  0.00    -0.400 A  
HETATM   27  C   UNL     1     -11.026   6.265  67.539  1.00  0.00    -0.444 A  
HETATM   28  C   UNL     1     -10.525   7.430  66.979  1.00  0.00    -0.404 A  
HETATM   29  C   UNL     1      -9.887   8.354  67.808  1.00  0.00    -0.218 A  
HETATM   30  C   UNL     1      -9.362   9.600  67.237  1.00  0.00    -0.138 C  
HETATM   31  O   UNL     1      -9.097   9.672  66.044  1.00  0.00    -0.152 OA 
ENDBRANCH  18  21
ENDBRANCH  10  17
ENDBRANCH   2   5
TORSDOF 4
ENDMDL
MODEL       79
REMARK 921   NORMALIZED FREE ENERGY PREDICTED BY IDOCK:   -5.01 KCAL/MOL
REMARK 922        TOTAL FREE ENERGY PREDICTED BY IDOCK:   -7.35 KCAL/MOL
REMARK 923 INTER-LIGAND FREE ENERGY PREDICTED BY IDOCK:   -6.20 KCAL/MOL
REMARK 924 INTRA-LIGAND FREE ENERGY PREDICTED BY IDOCK:   -1.15 KCAL/MOL
REMARK 927      BINDING AFFINITY PREDICTED BY RF-SCORE:    0.00 PKD
ROOT
HETATM    1  C   UNL     1     -12.124  14.225  67.448  1.00  0.00    -0.371 C  
HETATM    2  C   UNL     1     -11.400  14.477  68.791  1.00  0.00    -0.298 C  
HETATM    3  C   UNL     1     -12.118  15.690  69.470  1.00  0.00    -0.307 C  
HETATM    4  C   UNL     1     -11.698  13.309  69.743  1.00  0.00    -0.354 C  
ENDROOT
BRANCH   2   5
HETATM    5  C   UNL     1      -9.897  14.724  68.441  1.00  0.00    -0.220 A  
HETATM    6  C   UNL     1      -9.497  16.095  68.417  1.00  0.00    -0.210 A  
HETATM    7  C   UNL     1      -8.244  16.595  67.995  1.00  0.00    -0.185 A  
HETATM    8  H   UNL     1      -5.456  15.207  66.827  1.00  0.00     0.000 HD 
HETATM    9  C   UNL     1      -7.336  15.629  67.583  1.00  0.00    -0.167 A  
HETATM   10  C   UNL     1      -8.916  13.785  68.027  1.00  0.00    -0.187 A  
HETATM   11  O   UNL     1      -6.077  15.868  67.109  1.00  0.00    -0.315 OA 
HETATM   12  C   UNL     1      -7.665  14.274  67.607  1.00  0.00    -0.190 A  
BRANCH   7  13
HETATM   13  C   UNL     1      -7.981  18.114  67.980  1.00  0.00    -0.269 C  
HETATM   14  C   UNL     1      -6.830  18.473  68.942  1.00  0.00    -0.296 C  
HETATM   15  C   UNL     1      -7.667  18.592  66.545  1.00  0.00    -0.278 C  
HETATM   16  C   UNL     1      -9.201  18.961  68.439  1.00  0.00    -0.390 C  
ENDBRANCH   7  13
BRANCH  10  17
HETATM   17  N   UNL     1      -9.123  12.379  68.008  1.00  0.00    -0.190 N  
HETATM   18  C   UNL     1      -9.553  11.602  66.930  1.00  0.00    -0.186 C  
HETATM   19  H   UNL     1      -8.938  11.882  68.879  1.00  0.00     0.000 HD 
HETATM   20  O   UNL     1      -9.871  11.990  65.810  1.00  0.00    -0.236 OA 
BRANCH  18  21
HETATM   21  C   UNL     1      -9.516  10.134  67.159  1.00  0.00    -0.185 C  
HETATM   22  C   UNL     1     -10.568   9.348  66.844  1.00  0.00    -0.167 C  
HETATM   23  N   UNL     1     -10.554   7.964  66.856  1.00  0.00    -0.331 NA 
HETATM   24  C   UNL     1      -9.307   7.312  66.817  1.00  0.00    -0.163 A  
HETATM   25  C   UNL     1      -9.166   5.975  66.463  1.00  0.00    -0.158 A  
HETATM   26  C   UNL     1      -7.890   5.400  66.387  1.00  0.00    -0.100 A  
HETATM   27  C   UNL     1      -6.747   6.143  66.691  1.00  0.00    -0.060 A  
HETATM   28  C   UNL     1      -6.876   7.459  67.109  1.00  0.00    -0.074 A  
HETATM   29  C   UNL     1      -8.151   8.019  67.180  1.00  0.00    -0.117 A  
HETATM   30  C   UNL     1      -8.308   9.415  67.607  1.00  0.00    -0.119 C  
HETATM   31  O   UNL     1      -7.441   9.959  68.278  1.00  0.00    -0.079 OA 
ENDBRANCH  18  21
ENDBRANCH  10  17
ENDBRANCH   2   5
TORSDOF 4
ENDMDL
MODEL       80
REMARK 921   NORMALIZED FREE ENERGY PREDICTED BY IDOCK:   -4.99 KCAL/MOL
REMARK 922        TOTAL FREE ENERGY PREDICTED BY IDOCK:   -7.33 KCAL/MOL
REMARK 923 INTER-LIGAND FREE ENERGY PREDICTED BY IDOCK:   -6.33 KCAL/MOL
REMARK 924 INTRA-LIGAND FREE ENERGY PREDICTED BY IDOCK:   -1.00 KCAL/MOL
REMARK 927      BINDING AFFINITY PREDICTED BY RF-SCORE:    0.00 PKD
ROOT
HETATM    1  C   UNL     1     -12.059  15.690  69.121  1.00  0.00    -0.249 C  
HETATM    2  C   UNL     1     -11.456  14.511  68.323  1.00  0.00    -0.336 C  
HETATM    3  C   UNL     1     -11.556  13.247  69.239  1.00  0.00    -0.370 C  
HETATM    4  C   UNL     1     -12.388  14.175  67.150  1.00  0.00    -0.213 C  
ENDROOT
BRANCH   2   5
HETATM    5  C   UNL     1      -9.996  14.932  67.953  1.00  0.00    -0.219 A  
HETATM    6  C   UNL     1      -9.730  16.333  68.038  1.00  0.00    -0.230 A  
HETATM    7  C   UNL     1      -8.548  16.988  67.625  1.00  0.00    -0.213 A  
HETATM    8  H   UNL     1      -5.684  15.984  66.262  1.00  0.00     0.000 HD 
HETATM    9  C   UNL     1      -7.567  16.154  67.104  1.00  0.00    -0.202 A  
HETATM   10  C   UNL     1      -8.946  14.133  67.431  1.00  0.00    -0.202 A  
HETATM   11  O   UNL     1      -6.355  16.554  66.618  1.00  0.00    -0.281 OA 
HETATM   12  C   UNL     1      -7.764  14.776  67.020  1.00  0.00    -0.038 A  
BRANCH   7  13
HETATM   13  C   UNL     1      -8.432  18.521  67.734  1.00  0.00    -0.285 C  
HETATM   14  C   UNL     1      -7.327  18.909  68.739  1.00  0.00    -0.356 C  
HETATM   15  C   UNL     1      -8.155  19.141  66.347  1.00  0.00    -0.319 C  
HETATM   16  C   UNL     1      -9.731  19.208  68.241  1.00  0.00    -0.439 C  
ENDBRANCH   7  13
BRANCH  10  17
HETATM   17  N   UNL     1      -9.019  12.720  67.296  1.00  0.00    -0.191 N  
HETATM   18  C   UNL     1      -9.615  11.999  66.260  1.00  0.00    -0.231 C  
HETATM   19  H   UNL     1      -8.586  12.170  68.039  1.00  0.00     0.000 HD 
HETATM   20  O   UNL     1     -10.225  12.448  65.292  1.00  0.00    -0.276 OA 
BRANCH  18  21
HETATM   21  C   UNL     1      -9.387  10.531  66.301  1.00  0.00    -0.202 C  
HETATM   22  C   UNL     1      -8.319   9.969  65.696  1.00  0.00    -0.145 C  
HETATM   23  N   UNL     1      -7.935   8.647  65.834  1.00  0.00    -0.101 NA 
HETATM   24  C   UNL     1      -8.426   7.924  66.938  1.00  0.00    -0.128 A  
HETATM   25  C   UNL     1      -7.847   6.742  67.384  1.00  0.00    -0.110 A  
HETATM   26  C   UNL     1      -8.348   6.101  68.525  1.00  0.00    -0.114 A  
HETATM   27  C   UNL     1      -9.448   6.617  69.215  1.00  0.00    -0.141 A  
HETATM   28  C   UNL     1     -10.077   7.760  68.745  1.00  0.00    -0.205 A  
HETATM   29  C   UNL     1      -9.568   8.388  67.608  1.00  0.00    -0.188 A  
HETATM   30  C   UNL     1     -10.211   9.607  67.103  1.00  0.00    -0.243 C  
HETATM   31  O   UNL     1     -11.379   9.851  67.378  1.00  0.00    -0.108 OA 
ENDBRANCH  18  21
ENDBRANCH  10  17
ENDBRANCH   2   5
TORSDOF 4
ENDMDL
MODEL       81
REMARK 921   NORMALIZED FREE ENERGY PREDICTED BY IDOCK:   -4.96 KCAL/MOL
REMARK 922        TOTAL FREE ENERGY PREDICTED BY IDOCK:   -7.29 KCAL/MOL
REMARK 923 INTER-LIGAND FREE ENERGY PREDICTED BY IDOCK:   -6.29 KCAL/MOL
REMARK 924 INTRA-LIGAND FREE ENERGY PREDICTED BY IDOCK:   -1.00 KCAL/MOL
REMARK 927      BINDING AFFINITY PREDICTED BY RF-SCORE:    0.00 PKD
ROOT
HETATM    1  C   UNL     1     -11.969  14.674  67.493  1.00  0.00    -0.309 C  
HETATM    2  C   UNL     1     -11.347  13.267  67.334  1.00  0.00    -0.337 C  
HETATM    3  C   UNL     1     -12.015  12.353  68.412  1.00  0.00    -0.269 C  
HETATM    4  C   UNL     1     -11.823  12.660  66.007  1.00  0.00    -0.492 C  
ENDROOT
BRANCH   2   5
HETATM    5  C   UNL     1      -9.803  13.449  67.501  1.00  0.00    -0.227 A  
HETATM    6  C   UNL     1      -9.356  14.805  67.569  1.00  0.00    -0.194 A  
HETATM    7  C   UNL     1      -8.013  15.245  67.576  1.00  0.00    -0.197 A  
HETATM    8  H   UNL     1      -5.061  13.717  67.459  1.00  0.00     0.000 HD 
HETATM    9  C   UNL     1      -7.064  14.232  67.524  1.00  0.00    -0.167 A  
HETATM   10  C   UNL     1      -8.783  12.462  67.472  1.00  0.00    -0.179 A  
HETATM   11  O   UNL     1      -5.710  14.409  67.494  1.00  0.00    -0.345 OA 
HETATM   12  C   UNL     1      -7.443  12.891  67.481  1.00  0.00    -0.155 A  
BRANCH   7  13
HETATM   13  C   UNL     1      -7.691  16.752  67.601  1.00  0.00    -0.183 C  
HETATM   14  C   UNL     1      -8.988  17.579  67.716  1.00  0.00    -0.245 C  
HETATM   15  C   UNL     1      -6.727  17.079  68.762  1.00  0.00    -0.193 C  
HETATM   16  C   UNL     1      -6.975  17.256  66.316  1.00  0.00    -0.299 C  
ENDBRANCH   7  13
BRANCH  10  17
HETATM   17  N   UNL     1      -9.036  11.064  67.430  1.00  0.00    -0.141 N  
HETATM   18  C   UNL     1      -9.170  10.262  66.295  1.00  0.00    -0.159 C  
HETATM   19  H   UNL     1      -9.131  10.593  68.330  1.00  0.00     0.000 HD 
HETATM   20  O   UNL     1      -9.135  10.619  65.120  1.00  0.00    -0.185 OA 
BRANCH  18  21
HETATM   21  C   UNL     1      -9.263   8.804  66.562  1.00  0.00    -0.228 C  
HETATM   22  C   UNL     1     -10.348   8.267  67.160  1.00  0.00    -0.317 C  
HETATM   23  N   UNL     1     -10.596   6.911  67.284  1.00  0.00    -0.282 NA 
HETATM   24  C   UNL     1      -9.904   6.029  66.432  1.00  0.00    -0.110 A  
HETATM   25  C   UNL     1     -10.316   4.721  66.206  1.00  0.00    -0.329 A  
HETATM   26  C   UNL     1      -9.618   3.911  65.300  1.00  0.00    -0.185 A  
HETATM   27  C   UNL     1      -8.486   4.388  64.634  1.00  0.00    -0.125 A  
HETATM   28  C   UNL     1      -8.024   5.669  64.897  1.00  0.00    -0.117 A  
HETATM   29  C   UNL     1      -8.729   6.464  65.801  1.00  0.00    -0.135 A  
HETATM   30  C   UNL     1      -8.265   7.828  66.083  1.00  0.00    -0.123 C  
HETATM   31  O   UNL     1      -7.097   8.138  65.888  1.00  0.00    -0.063 OA 
ENDBRANCH  18  21
ENDBRANCH  10  17
ENDBRANCH   2   5
TORSDOF 4
ENDMDL
MODEL       82
REMARK 921   NORMALIZED FREE ENERGY PREDICTED BY IDOCK:   -4.96 KCAL/MOL
REMARK 922        TOTAL FREE ENERGY PREDICTED BY IDOCK:   -7.29 KCAL/MOL
REMARK 923 INTER-LIGAND FREE ENERGY PREDICTED BY IDOCK:   -6.09 KCAL/MOL
REMARK 924 INTRA-LIGAND FREE ENERGY PREDICTED BY IDOCK:   -1.20 KCAL/MOL
REMARK 927      BINDING AFFINITY PREDICTED BY RF-SCORE:    0.00 PKD
ROOT
HETATM    1  C   UNL     1      -7.436   9.731  67.263  1.00  0.00    -0.088 C  
HETATM    2  C   UNL     1      -7.880   8.997  68.550  1.00  0.00    -0.102 C  
HETATM    3  C   UNL     1      -7.998   7.481  68.188  1.00  0.00    -0.123 C  
HETATM    4  C   UNL     1      -6.728   9.033  69.565  1.00  0.00    -0.047 C  
ENDROOT
BRANCH   2   5
HETATM    5  C   UNL     1      -9.221   9.666  68.996  1.00  0.00    -0.156 A  
HETATM    6  C   UNL     1      -9.547  10.881  68.318  1.00  0.00    -0.169 A  
HETATM    7  C   UNL     1     -10.617  11.751  68.626  1.00  0.00    -0.250 A  
HETATM    8  H   UNL     1     -13.034  11.752  70.911  1.00  0.00     0.000 HD 
HETATM    9  C   UNL     1     -11.415  11.346  69.688  1.00  0.00    -0.309 A  
HETATM   10  C   UNL     1     -10.089   9.297  70.057  1.00  0.00    -0.212 A  
HETATM   11  O   UNL     1     -12.488  12.029  70.186  1.00  0.00    -0.166 OA 
HETATM   12  C   UNL     1     -11.158  10.157  70.369  1.00  0.00    -0.393 A  
BRANCH   7  13
HETATM   13  C   UNL     1     -10.807  13.058  67.832  1.00  0.00    -0.260 C  
HETATM   14  C   UNL     1     -12.149  13.038  67.071  1.00  0.00    -0.330 C  
HETATM   15  C   UNL     1     -10.729  14.279  68.775  1.00  0.00    -0.262 C  
HETATM   16  C   UNL     1      -9.709  13.297  66.757  1.00  0.00    -0.258 C  
ENDBRANCH   7  13
BRANCH  10  17
HETATM   17  N   UNL     1      -9.938   8.112  70.827  1.00  0.00    -0.187 N  
HETATM   18  C   UNL     1      -9.373   7.994  72.098  1.00  0.00    -0.190 C  
HETATM   19  H   UNL     1     -10.281   7.249  70.402  1.00  0.00     0.000 HD 
HETATM   20  O   UNL     1      -8.864   8.885  72.774  1.00  0.00    -0.324 OA 
BRANCH  18  21
HETATM   21  C   UNL     1      -9.506   6.654  72.725  1.00  0.00    -0.153 C  
HETATM   22  C   UNL     1     -10.242   6.471  73.842  1.00  0.00    -0.332 C  
HETATM   23  N   UNL     1     -10.564   5.240  74.386  1.00  0.00    -0.307 NA 
HETATM   24  C   UNL     1     -10.464   4.103  73.562  1.00  0.00    -0.184 A  
HETATM   25  C   UNL     1     -11.089   2.897  73.860  1.00  0.00    -0.251 A  
HETATM   26  C   UNL     1     -10.998   1.820  72.968  1.00  0.00    -0.248 A  
HETATM   27  C   UNL     1     -10.261   1.925  71.786  1.00  0.00    -0.107 A  
HETATM   28  C   UNL     1      -9.578   3.099  71.506  1.00  0.00    -0.227 A  
HETATM   29  C   UNL     1      -9.677   4.164  72.401  1.00  0.00    -0.210 A  
HETATM   30  C   UNL     1      -8.974   5.420  72.116  1.00  0.00    -0.133 C  
HETATM   31  O   UNL     1      -8.005   5.432  71.368  1.00  0.00    -0.109 OA 
ENDBRANCH  18  21
ENDBRANCH  10  17
ENDBRANCH   2   5
TORSDOF 4
ENDMDL
MODEL       83
REMARK 921   NORMALIZED FREE ENERGY PREDICTED BY IDOCK:   -4.95 KCAL/MOL
REMARK 922        TOTAL FREE ENERGY PREDICTED BY IDOCK:   -7.28 KCAL/MOL
REMARK 923 INTER-LIGAND FREE ENERGY PREDICTED BY IDOCK:   -6.37 KCAL/MOL
REMARK 924 INTRA-LIGAND FREE ENERGY PREDICTED BY IDOCK:   -0.91 KCAL/MOL
REMARK 927      BINDING AFFINITY PREDICTED BY RF-SCORE:    0.00 PKD
ROOT
HETATM    1  C   UNL     1      -7.778   7.221  67.750  1.00  0.00    -0.112 C  
HETATM    2  C   UNL     1      -7.080   7.665  69.057  1.00  0.00    -0.078 C  
HETATM    3  C   UNL     1      -5.946   6.625  69.339  1.00  0.00    -0.022 C  
HETATM    4  C   UNL     1      -6.311   8.968  68.794  1.00  0.00    -0.049 C  
ENDROOT
BRANCH   2   5
HETATM    5  C   UNL     1      -8.195   7.724  70.152  1.00  0.00    -0.123 A  
HETATM    6  C   UNL     1      -8.246   6.596  71.027  1.00  0.00    -0.120 A  
HETATM    7  C   UNL     1      -9.236   6.336  72.001  1.00  0.00    -0.145 A  
HETATM    8  H   UNL     1     -11.988   7.913  73.004  1.00  0.00     0.000 HD 
HETATM    9  C   UNL     1     -10.233   7.298  72.096  1.00  0.00    -0.190 A  
HETATM   10  C   UNL     1      -9.231   8.681  70.313  1.00  0.00    -0.166 A  
HETATM   11  O   UNL     1     -11.306   7.255  72.939  1.00  0.00    -0.299 OA 
HETATM   12  C   UNL     1     -10.220   8.430  71.282  1.00  0.00    -0.269 A  
BRANCH   7  13
HETATM   13  C   UNL     1      -9.180   5.042  72.837  1.00  0.00    -0.144 C  
HETATM   14  C   UNL     1      -7.948   4.199  72.446  1.00  0.00    -0.087 C  
HETATM   15  C   UNL     1      -9.160   5.375  74.345  1.00  0.00    -0.117 C  
HETATM   16  C   UNL     1     -10.412   4.117  72.635  1.00  0.00    -0.228 C  
ENDBRANCH   7  13
BRANCH  10  17
HETATM   17  N   UNL     1      -9.330   9.876  69.551  1.00  0.00    -0.207 N  
HETATM   18  C   UNL     1     -10.000  10.053  68.338  1.00  0.00    -0.160 C  
HETATM   19  H   UNL     1      -8.860  10.698  69.932  1.00  0.00     0.000 HD 
HETATM   20  O   UNL     1     -10.593   9.201  67.682  1.00  0.00    -0.258 OA 
BRANCH  18  21
HETATM   21  C   UNL     1     -10.074  11.458  67.860  1.00  0.00    -0.198 C  
HETATM   22  C   UNL     1      -8.959  12.161  67.570  1.00  0.00    -0.177 C  
HETATM   23  N   UNL     1      -8.940  13.401  66.954  1.00  0.00    -0.228 NA 
HETATM   24  C   UNL     1     -10.085  13.805  66.242  1.00  0.00    -0.300 A  
HETATM   25  C   UNL     1     -10.066  14.828  65.301  1.00  0.00    -0.388 A  
HETATM   26  C   UNL     1     -11.227  15.144  64.582  1.00  0.00    -0.352 A  
HETATM   27  C   UNL     1     -12.424  14.463  64.816  1.00  0.00    -0.371 A  
HETATM   28  C   UNL     1     -12.476  13.484  65.796  1.00  0.00    -0.514 A  
HETATM   29  C   UNL     1     -11.314  13.179  66.504  1.00  0.00    -0.350 A  
HETATM   30  C   UNL     1     -11.344  12.136  67.537  1.00  0.00    -0.326 C  
HETATM   31  O   UNL     1     -12.400  11.826  68.074  1.00  0.00    -0.391 OA 
ENDBRANCH  18  21
ENDBRANCH  10  17
ENDBRANCH   2   5
TORSDOF 4
ENDMDL
MODEL       84
REMARK 921   NORMALIZED FREE ENERGY PREDICTED BY IDOCK:   -4.94 KCAL/MOL
REMARK 922        TOTAL FREE ENERGY PREDICTED BY IDOCK:   -7.27 KCAL/MOL
REMARK 923 INTER-LIGAND FREE ENERGY PREDICTED BY IDOCK:   -6.38 KCAL/MOL
REMARK 924 INTRA-LIGAND FREE ENERGY PREDICTED BY IDOCK:   -0.88 KCAL/MOL
REMARK 927      BINDING AFFINITY PREDICTED BY RF-SCORE:    0.00 PKD
ROOT
HETATM    1  C   UNL     1      -5.869  10.407  69.802  1.00  0.00    -0.049 C  
HETATM    2  C   UNL     1      -6.291  11.727  69.115  1.00  0.00    -0.086 C  
HETATM    3  C   UNL     1      -5.791  12.892  70.030  1.00  0.00    -0.142 C  
HETATM    4  C   UNL     1      -5.468  11.905  67.831  1.00  0.00    -0.055 C  
ENDROOT
BRANCH   2   5
HETATM    5  C   UNL     1      -7.843  11.656  68.943  1.00  0.00    -0.040 A  
HETATM    6  C   UNL     1      -8.447  10.439  69.387  1.00  0.00    -0.145 A  
HETATM    7  C   UNL     1      -9.799  10.064  69.216  1.00  0.00    -0.227 A  
HETATM    8  H   UNL     1     -12.452  11.492  67.808  1.00  0.00     0.000 HD 
HETATM    9  C   UNL     1     -10.589  10.999  68.560  1.00  0.00    -0.190 A  
HETATM   10  C   UNL     1      -8.709  12.578  68.299  1.00  0.00    -0.171 A  
HETATM   11  O   UNL     1     -11.912  10.853  68.256  1.00  0.00    -0.561 OA 
HETATM   12  C   UNL     1     -10.057  12.213  68.126  1.00  0.00    -0.206 A  
BRANCH   7  13
HETATM   13  C   UNL     1     -10.289   8.688  69.708  1.00  0.00    -0.212 C  
HETATM   14  C   UNL     1     -11.544   8.846  70.591  1.00  0.00    -0.251 C  
HETATM   15  C   UNL     1     -10.575   7.758  68.509  1.00  0.00    -0.153 C  
HETATM   16  C   UNL     1      -9.247   7.931  70.578  1.00  0.00    -0.158 C  
ENDBRANCH   7  13
BRANCH  10  17
HETATM   17  N   UNL     1      -8.293  13.848  67.813  1.00  0.00    -0.160 N  
HETATM   18  C   UNL     1      -8.760  15.101  68.214  1.00  0.00    -0.171 C  
HETATM   19  H   UNL     1      -7.573  13.842  67.090  1.00  0.00     0.000 HD 
HETATM   20  O   UNL     1      -9.645  15.342  69.031  1.00  0.00    -0.212 OA 
BRANCH  18  21
HETATM   21  C   UNL     1      -8.018  16.258  67.651  1.00  0.00    -0.160 C  
HETATM   22  C   UNL     1      -8.298  16.740  66.421  1.00  0.00    -0.309 C  
HETATM   23  N   UNL     1      -7.786  17.914  65.894  1.00  0.00    -0.545 NA 
HETATM   24  C   UNL     1      -7.253  18.864  66.784  1.00  0.00    -0.209 A  
HETATM   25  C   UNL     1      -7.051  20.195  66.436  1.00  0.00    -0.297 A  
HETATM   26  C   UNL     1      -6.571  21.105  67.386  1.00  0.00    -0.437 A  
HETATM   27  C   UNL     1      -6.260  20.692  68.684  1.00  0.00    -0.341 A  
HETATM   28  C   UNL     1      -6.394  19.356  69.029  1.00  0.00    -0.314 A  
HETATM   29  C   UNL     1      -6.873  18.460  68.073  1.00  0.00    -0.221 A  
HETATM   30  C   UNL     1      -7.036  17.044  68.422  1.00  0.00    -0.180 C  
HETATM   31  O   UNL     1      -6.399  16.556  69.348  1.00  0.00    -0.181 OA 
ENDBRANCH  18  21
ENDBRANCH  10  17
ENDBRANCH   2   5
TORSDOF 4
ENDMDL
MODEL       85
REMARK 921   NORMALIZED FREE ENERGY PREDICTED BY IDOCK:   -4.89 KCAL/MOL
REMARK 922        TOTAL FREE ENERGY PREDICTED BY IDOCK:   -7.20 KCAL/MOL
REMARK 923 INTER-LIGAND FREE ENERGY PREDICTED BY IDOCK:   -6.32 KCAL/MOL
REMARK 924 INTRA-LIGAND FREE ENERGY PREDICTED BY IDOCK:   -0.88 KCAL/MOL
REMARK 927      BINDING AFFINITY PREDICTED BY RF-SCORE:    0.00 PKD
ROOT
HETATM    1  C   UNL     1     -12.082  12.474  66.105  1.00  0.00    -0.357 C  
HETATM    2  C   UNL     1     -10.632  12.152  65.672  1.00  0.00    -0.297 C  
HETATM    3  C   UNL     1     -10.730  11.169  64.460  1.00  0.00    -0.368 C  
HETATM    4  C   UNL     1     -10.004  13.412  65.059  1.00  0.00    -0.179 C  
ENDROOT
BRANCH   2   5
HETATM    5  C   UNL     1      -9.919  11.562  66.932  1.00  0.00    -0.231 A  
HETATM    6  C   UNL     1     -10.146  10.170  67.161  1.00  0.00    -0.260 A  
HETATM    7  C   UNL     1      -9.739   9.430  68.294  1.00  0.00    -0.162 A  
HETATM    8  H   UNL     1      -8.098  10.168  71.092  1.00  0.00     0.000 HD 
HETATM    9  C   UNL     1      -9.044  10.158  69.251  1.00  0.00    -0.198 A  
HETATM   10  C   UNL     1      -9.184  12.243  67.938  1.00  0.00    -0.190 A  
HETATM   11  O   UNL     1      -8.573   9.671  70.438  1.00  0.00    -0.207 OA 
HETATM   12  C   UNL     1      -8.773  11.513  69.068  1.00  0.00     0.134 A  
BRANCH   7  13
HETATM   13  C   UNL     1     -10.107   7.939  68.419  1.00  0.00    -0.218 C  
HETATM   14  C   UNL     1      -8.837   7.064  68.377  1.00  0.00    -0.123 C  
HETATM   15  C   UNL     1     -10.904   7.686  69.717  1.00  0.00    -0.222 C  
HETATM   16  C   UNL     1     -11.018   7.424  67.269  1.00  0.00    -0.234 C  
ENDBRANCH   7  13
BRANCH  10  17
HETATM   17  N   UNL     1      -8.841  13.621  67.871  1.00  0.00    -0.177 N  
HETATM   18  C   UNL     1      -9.443  14.677  68.557  1.00  0.00    -0.216 C  
HETATM   19  H   UNL     1      -8.067  13.866  67.252  1.00  0.00     0.000 HD 
HETATM   20  O   UNL     1     -10.408  14.621  69.315  1.00  0.00    -0.227 OA 
BRANCH  18  21
HETATM   21  C   UNL     1      -8.761  15.989  68.418  1.00  0.00    -0.186 C  
HETATM   22  C   UNL     1      -9.461  17.129  68.236  1.00  0.00    -0.276 C  
HETATM   23  N   UNL     1      -8.924  18.404  68.275  1.00  0.00    -0.305 NA 
HETATM   24  C   UNL     1      -7.678  18.581  68.906  1.00  0.00    -0.227 A  
HETATM   25  C   UNL     1      -7.214  19.821  69.327  1.00  0.00    -0.293 A  
HETATM   26  C   UNL     1      -5.990  19.922  70.001  1.00  0.00    -0.356 A  
HETATM   27  C   UNL     1      -5.203  18.792  70.235  1.00  0.00    -0.215 A  
HETATM   28  C   UNL     1      -5.621  17.556  69.764  1.00  0.00    -0.227 A  
HETATM   29  C   UNL     1      -6.841  17.470  69.095  1.00  0.00    -0.232 A  
HETATM   30  C   UNL     1      -7.308  16.169  68.601  1.00  0.00    -0.175 C  
HETATM   31  O   UNL     1      -6.511  15.264  68.388  1.00  0.00    -0.096 OA 
ENDBRANCH  18  21
ENDBRANCH  10  17
ENDBRANCH   2   5
TORSDOF 4
ENDMDL
MODEL       86
REMARK 921   NORMALIZED FREE ENERGY PREDICTED BY IDOCK:   -4.83 KCAL/MOL
REMARK 922        TOTAL FREE ENERGY PREDICTED BY IDOCK:   -7.13 KCAL/MOL
REMARK 923 INTER-LIGAND FREE ENERGY PREDICTED BY IDOCK:   -6.39 KCAL/MOL
REMARK 924 INTRA-LIGAND FREE ENERGY PREDICTED BY IDOCK:   -0.74 KCAL/MOL
REMARK 927      BINDING AFFINITY PREDICTED BY RF-SCORE:    0.00 PKD
ROOT
HETATM    1  C   UNL     1      -8.614   8.291  64.742  1.00  0.00    -0.047 C  
HETATM    2  C   UNL     1      -8.918   8.066  66.241  1.00  0.00    -0.208 C  
HETATM    3  C   UNL     1      -9.545   6.639  66.366  1.00  0.00    -0.147 C  
HETATM    4  C   UNL     1      -7.592   7.941  67.005  1.00  0.00    -0.100 C  
ENDROOT
BRANCH   2   5
HETATM    5  C   UNL     1      -9.864   9.232  66.677  1.00  0.00    -0.311 A  
HETATM    6  C   UNL     1     -10.187  10.168  65.647  1.00  0.00    -0.288 A  
HETATM    7  C   UNL     1     -10.899  11.378  65.807  1.00  0.00    -0.290 A  
HETATM    8  H   UNL     1     -12.286  12.939  68.397  1.00  0.00     0.000 HD 
HETATM    9  C   UNL     1     -11.320  11.644  67.104  1.00  0.00    -0.306 A  
HETATM   10  C   UNL     1     -10.342   9.551  67.975  1.00  0.00    -0.214 A  
HETATM   11  O   UNL     1     -11.998  12.757  67.510  1.00  0.00    -0.364 OA 
HETATM   12  C   UNL     1     -11.053  10.754  68.143  1.00  0.00    -0.337 A  
BRANCH   7  13
HETATM   13  C   UNL     1     -11.124  12.311  64.601  1.00  0.00    -0.358 C  
HETATM   14  C   UNL     1     -10.754  13.764  64.965  1.00  0.00    -0.391 C  
HETATM   15  C   UNL     1     -10.306  11.825  63.384  1.00  0.00    -0.481 C  
HETATM   16  C   UNL     1     -12.600  12.354  64.115  1.00  0.00    -0.498 C  
ENDBRANCH   7  13
BRANCH  10  17
HETATM   17  N   UNL     1     -10.140   8.730  69.117  1.00  0.00    -0.192 N  
HETATM   18  C   UNL     1      -9.250   8.948  70.171  1.00  0.00    -0.180 C  
HETATM   19  H   UNL     1     -10.709   7.884  69.174  1.00  0.00     0.000 HD 
HETATM   20  O   UNL     1      -8.446   9.869  70.290  1.00  0.00    -0.178 OA 
BRANCH  18  21
HETATM   21  C   UNL     1      -9.380   8.005  71.311  1.00  0.00    -0.182 C  
HETATM   22  C   UNL     1     -10.588   7.573  71.731  1.00  0.00    -0.206 C  
HETATM   23  N   UNL     1     -10.792   6.566  72.658  1.00  0.00    -0.236 NA 
HETATM   24  C   UNL     1      -9.734   5.672  72.911  1.00  0.00    -0.155 A  
HETATM   25  C   UNL     1      -9.920   4.437  73.521  1.00  0.00    -0.178 A  
HETATM   26  C   UNL     1      -8.834   3.567  73.691  1.00  0.00    -0.088 A  
HETATM   27  C   UNL     1      -7.549   3.932  73.281  1.00  0.00    -0.074 A  
HETATM   28  C   UNL     1      -7.336   5.187  72.730  1.00  0.00    -0.094 A  
HETATM   29  C   UNL     1      -8.425   6.042  72.566  1.00  0.00    -0.119 A  
HETATM   30  C   UNL     1      -8.224   7.369  71.971  1.00  0.00    -0.102 C  
HETATM   31  O   UNL     1      -7.120   7.899  71.997  1.00  0.00    -0.064 OA 
ENDBRANCH  18  21
ENDBRANCH  10  17
ENDBRANCH   2   5
TORSDOF 4
ENDMDL
MODEL       87
REMARK 921   NORMALIZED FREE ENERGY PREDICTED BY IDOCK:   -4.82 KCAL/MOL
REMARK 922        TOTAL FREE ENERGY PREDICTED BY IDOCK:   -7.12 KCAL/MOL
REMARK 923 INTER-LIGAND FREE ENERGY PREDICTED BY IDOCK:   -6.04 KCAL/MOL
REMARK 924 INTRA-LIGAND FREE ENERGY PREDICTED BY IDOCK:   -1.07 KCAL/MOL
REMARK 927      BINDING AFFINITY PREDICTED BY RF-SCORE:    0.00 PKD
ROOT
HETATM    1  C   UNL     1     -11.763   8.329  70.151  1.00  0.00     0.207 C  
HETATM    2  C   UNL     1     -10.882   9.597  70.060  1.00  0.00    -0.302 C  
HETATM    3  C   UNL     1     -11.704  10.765  70.696  1.00  0.00    -0.442 C  
HETATM    4  C   UNL     1      -9.687   9.442  71.013  1.00  0.00    -0.293 C  
ENDROOT
BRANCH   2   5
HETATM    5  C   UNL     1     -10.543   9.788  68.546  1.00  0.00    -0.252 A  
HETATM    6  C   UNL     1     -10.908  11.057  67.999  1.00  0.00    -0.278 A  
HETATM    7  C   UNL     1     -10.844  11.432  66.638  1.00  0.00    -0.339 A  
HETATM    8  H   UNL     1      -9.904   9.897  63.841  1.00  0.00     0.000 HD 
HETATM    9  C   UNL     1     -10.362  10.451  65.781  1.00  0.00    -0.187 A  
HETATM   10  C   UNL     1     -10.038   8.837  67.621  1.00  0.00    -0.216 A  
HETATM   11  O   UNL     1     -10.233  10.567  64.426  1.00  0.00    -0.346 OA 
HETATM   12  C   UNL     1      -9.969   9.203  66.264  1.00  0.00    -0.352 A  
BRANCH   7  13
HETATM   13  C   UNL     1     -11.325  12.827  66.195  1.00  0.00    -0.371 C  
HETATM   14  C   UNL     1     -11.882  13.614  67.399  1.00  0.00    -0.429 C  
HETATM   15  C   UNL     1     -10.176  13.604  65.516  1.00  0.00    -0.316 C  
HETATM   16  C   UNL     1     -12.471  12.785  65.145  1.00  0.00    -0.565 C  
ENDBRANCH   7  13
BRANCH  10  17
HETATM   17  N   UNL     1      -9.602   7.534  67.984  1.00  0.00    -0.142 N  
HETATM   18  C   UNL     1      -8.339   7.163  68.450  1.00  0.00    -0.125 C  
HETATM   19  H   UNL     1     -10.289   6.785  67.895  1.00  0.00     0.000 HD 
HETATM   20  O   UNL     1      -7.356   7.885  68.595  1.00  0.00    -0.086 OA 
BRANCH  18  21
HETATM   21  C   UNL     1      -8.227   5.756  68.911  1.00  0.00    -0.101 C  
HETATM   22  C   UNL     1      -7.106   5.034  68.696  1.00  0.00    -0.057 C  
HETATM   23  N   UNL     1      -6.848   3.788  69.242  1.00  0.00    -0.044 NA 
HETATM   24  C   UNL     1      -7.587   3.393  70.373  1.00  0.00    -0.044 A  
HETATM   25  C   UNL     1      -7.187   2.361  71.213  1.00  0.00    -0.033 A  
HETATM   26  C   UNL     1      -7.936   2.054  72.357  1.00  0.00    -0.053 A  
HETATM   27  C   UNL     1      -9.107   2.755  72.658  1.00  0.00    -0.119 A  
HETATM   28  C   UNL     1      -9.555   3.744  71.795  1.00  0.00    -0.226 A  
HETATM   29  C   UNL     1      -8.800   4.039  70.661  1.00  0.00    -0.132 A  
HETATM   30  C   UNL     1      -9.249   5.092  69.742  1.00  0.00    -0.118 C  
HETATM   31  O   UNL     1     -10.428   5.422  69.707  1.00  0.00    -0.284 OA 
ENDBRANCH  18  21
ENDBRANCH  10  17
ENDBRANCH   2   5
TORSDOF 4
ENDMDL
MODEL       88
REMARK 921   NORMALIZED FREE ENERGY PREDICTED BY IDOCK:   -4.82 KCAL/MOL
REMARK 922        TOTAL FREE ENERGY PREDICTED BY IDOCK:   -7.12 KCAL/MOL
REMARK 923 INTER-LIGAND FREE ENERGY PREDICTED BY IDOCK:   -6.20 KCAL/MOL
REMARK 924 INTRA-LIGAND FREE ENERGY PREDICTED BY IDOCK:   -0.91 KCAL/MOL
REMARK 927      BINDING AFFINITY PREDICTED BY RF-SCORE:    0.00 PKD
ROOT
HETATM    1  C   UNL     1      -6.885  10.423  69.035  1.00  0.00    -0.064 C  
HETATM    2  C   UNL     1      -7.711  10.633  67.744  1.00  0.00    -0.100 C  
HETATM    3  C   UNL     1      -6.842  11.517  66.790  1.00  0.00    -0.114 C  
HETATM    4  C   UNL     1      -7.812   9.295  66.996  1.00  0.00    -0.098 C  
ENDROOT
BRANCH   2   5
HETATM    5  C   UNL     1      -9.061  11.286  68.187  1.00  0.00    -0.166 A  
HETATM    6  C   UNL     1      -9.174  12.684  67.919  1.00  0.00    -0.201 A  
HETATM    7  C   UNL     1     -10.219  13.536  68.342  1.00  0.00    -0.245 A  
HETATM    8  H   UNL     1     -13.001  13.107  70.114  1.00  0.00     0.000 HD 
HETATM    9  C   UNL     1     -11.221  12.915  69.076  1.00  0.00    -0.267 A  
HETATM   10  C   UNL     1     -10.128  10.708  68.924  1.00  0.00    -0.202 A  
HETATM   11  O   UNL     1     -12.316  13.531  69.613  1.00  0.00    -0.270 OA 
HETATM   12  C   UNL     1     -11.173  11.548  69.347  1.00  0.00    -0.324 A  
BRANCH   7  13
HETATM   13  C   UNL     1     -10.172  15.041  68.015  1.00  0.00    -0.228 C  
HETATM   14  C   UNL     1      -8.768  15.443  67.519  1.00  0.00    -0.186 C  
HETATM   15  C   UNL     1     -11.247  15.399  66.965  1.00  0.00    -0.229 C  
HETATM   16  C   UNL     1     -10.471  15.953  69.238  1.00  0.00    -0.253 C  
ENDBRANCH   7  13
BRANCH  10  17
HETATM   17  N   UNL     1     -10.200   9.329  69.263  1.00  0.00    -0.199 N  
HETATM   18  C   UNL     1      -9.774   8.725  70.448  1.00  0.00    -0.180 C  
HETATM   19  H   UNL     1     -10.609   8.711  68.562  1.00  0.00     0.000 HD 
HETATM   20  O   UNL     1      -9.219   9.264  71.402  1.00  0.00    -0.282 OA 
BRANCH  18  21
HETATM   21  C   UNL     1     -10.132   7.291  70.588  1.00  0.00    -0.198 C  
HETATM   22  C   UNL     1      -9.559   6.345  69.814  1.00  0.00    -0.151 C  
HETATM   23  N   UNL     1      -9.698   4.980  69.996  1.00  0.00    -0.187 NA 
HETATM   24  C   UNL     1     -10.135   4.518  71.252  1.00  0.00    -0.155 A  
HETATM   25  C   UNL     1      -9.970   3.204  71.672  1.00  0.00    -0.164 A  
HETATM   26  C   UNL     1     -10.374   2.821  72.958  1.00  0.00    -0.239 A  
HETATM   27  C   UNL     1     -10.973   3.738  73.826  1.00  0.00    -0.312 A  
HETATM   28  C   UNL     1     -11.204   5.037  73.399  1.00  0.00    -0.391 A  
HETATM   29  C   UNL     1     -10.797   5.404  72.116  1.00  0.00    -0.275 A  
HETATM   30  C   UNL     1     -11.019   6.778  71.650  1.00  0.00    -0.235 C  
HETATM   31  O   UNL     1     -11.889   7.473  72.160  1.00  0.00    -0.287 OA 
ENDBRANCH  18  21
ENDBRANCH  10  17
ENDBRANCH   2   5
TORSDOF 4
ENDMDL
MODEL       89
REMARK 921   NORMALIZED FREE ENERGY PREDICTED BY IDOCK:   -4.79 KCAL/MOL
REMARK 922        TOTAL FREE ENERGY PREDICTED BY IDOCK:   -7.08 KCAL/MOL
REMARK 923 INTER-LIGAND FREE ENERGY PREDICTED BY IDOCK:   -5.85 KCAL/MOL
REMARK 924 INTRA-LIGAND FREE ENERGY PREDICTED BY IDOCK:   -1.23 KCAL/MOL
REMARK 927      BINDING AFFINITY PREDICTED BY RF-SCORE:    0.00 PKD
ROOT
HETATM    1  C   UNL     1      -6.757  12.496  67.516  1.00  0.00    -0.151 C  
HETATM    2  C   UNL     1      -7.306  11.121  67.069  1.00  0.00    -0.128 C  
HETATM    3  C   UNL     1      -6.264  10.522  66.069  1.00  0.00    -0.123 C  
HETATM    4  C   UNL     1      -7.253  10.153  68.260  1.00  0.00    -0.080 C  
ENDROOT
BRANCH   2   5
HETATM    5  C   UNL     1      -8.718  11.391  66.454  1.00  0.00    -0.185 A  
HETATM    6  C   UNL     1      -9.132  12.758  66.463  1.00  0.00    -0.150 A  
HETATM    7  C   UNL     1     -10.406  13.250  66.102  1.00  0.00    -0.290 A  
HETATM    8  H   UNL     1     -13.229  11.848  65.040  1.00  0.00     0.000 HD 
HETATM    9  C   UNL     1     -11.313  12.283  65.691  1.00  0.00    -0.350 A  
HETATM   10  C   UNL     1      -9.685  10.454  66.004  1.00  0.00    -0.211 A  
HETATM   11  O   UNL     1     -12.608  12.509  65.321  1.00  0.00    -0.645 OA 
HETATM   12  C   UNL     1     -10.956  10.936  65.641  1.00  0.00    -0.032 A  
BRANCH   7  13
HETATM   13  C   UNL     1     -10.716  14.756  66.215  1.00  0.00    -0.313 C  
HETATM   14  C   UNL     1     -11.313  15.285  64.894  1.00  0.00    -0.387 C  
HETATM   15  C   UNL     1     -11.675  15.021  67.396  1.00  0.00    -0.255 C  
HETATM   16  C   UNL     1      -9.462  15.630  66.498  1.00  0.00    -0.300 C  
ENDBRANCH   7  13
BRANCH  10  17
HETATM   17  N   UNL     1      -9.446   9.056  65.903  1.00  0.00    -0.273 N  
HETATM   18  C   UNL     1      -9.866   8.060  66.787  1.00  0.00    -0.257 C  
HETATM   19  H   UNL     1      -8.908   8.746  65.094  1.00  0.00     0.000 HD 
HETATM   20  O   UNL     1     -10.484   8.207  67.838  1.00  0.00    -0.222 OA 
BRANCH  18  21
HETATM   21  C   UNL     1      -9.613   6.669  66.333  1.00  0.00    -0.147 C  
HETATM   22  C   UNL     1     -10.519   5.689  66.534  1.00  0.00    -0.249 C  
HETATM   23  N   UNL     1     -10.446   4.417  65.992  1.00  0.00    -0.196 NA 
HETATM   24  C   UNL     1      -9.612   4.219  64.875  1.00  0.00    -0.173 A  
HETATM   25  C   UNL     1      -9.726   3.117  64.035  1.00  0.00    -0.149 A  
HETATM   26  C   UNL     1      -8.904   3.007  62.905  1.00  0.00    -0.088 A  
HETATM   27  C   UNL     1      -7.943   3.979  62.619  1.00  0.00    -0.067 A  
HETATM   28  C   UNL     1      -7.772   5.051  63.482  1.00  0.00    -0.075 A  
HETATM   29  C   UNL     1      -8.597   5.148  64.603  1.00  0.00    -0.142 A  
HETATM   30  C   UNL     1      -8.442   6.282  65.522  1.00  0.00    -0.144 C  
HETATM   31  O   UNL     1      -7.385   6.898  65.574  1.00  0.00    -0.074 OA 
ENDBRANCH  18  21
ENDBRANCH  10  17
ENDBRANCH   2   5
TORSDOF 4
ENDMDL
MODEL       90
REMARK 921   NORMALIZED FREE ENERGY PREDICTED BY IDOCK:   -4.77 KCAL/MOL
REMARK 922        TOTAL FREE ENERGY PREDICTED BY IDOCK:   -7.06 KCAL/MOL
REMARK 923 INTER-LIGAND FREE ENERGY PREDICTED BY IDOCK:   -6.94 KCAL/MOL
REMARK 924 INTRA-LIGAND FREE ENERGY PREDICTED BY IDOCK:   -0.13 KCAL/MOL
REMARK 927      BINDING AFFINITY PREDICTED BY RF-SCORE:    0.00 PKD
ROOT
HETATM    1  C   UNL     1     -12.074  13.940  66.303  1.00  0.00    -0.484 C  
HETATM    2  C   UNL     1     -11.154  14.606  65.253  1.00  0.00    -0.363 C  
HETATM    3  C   UNL     1     -10.606  13.460  64.342  1.00  0.00    -0.423 C  
HETATM    4  C   UNL     1     -12.015  15.442  64.295  1.00  0.00    -0.198 C  
ENDROOT
BRANCH   2   5
HETATM    5  C   UNL     1     -10.058  15.379  66.057  1.00  0.00    -0.346 A  
HETATM    6  C   UNL     1     -10.255  16.791  66.146  1.00  0.00    -0.363 A  
HETATM    7  C   UNL     1      -9.349  17.731  66.687  1.00  0.00    -0.296 A  
HETATM    8  H   UNL     1      -6.329  17.526  68.068  1.00  0.00     0.000 HD 
HETATM    9  C   UNL     1      -8.170  17.190  67.183  1.00  0.00    -0.192 A  
HETATM   10  C   UNL     1      -8.843  14.887  66.601  1.00  0.00    -0.254 A  
HETATM   11  O   UNL     1      -7.136  17.896  67.729  1.00  0.00    -0.198 OA 
HETATM   12  C   UNL     1      -7.936  15.816  67.144  1.00  0.00    -0.250 A  
BRANCH   7  13
HETATM   13  C   UNL     1      -9.685  19.235  66.664  1.00  0.00    -0.421 C  
HETATM   14  C   UNL     1      -8.414  20.069  66.403  1.00  0.00    -0.341 C  
HETATM   15  C   UNL     1     -10.763  19.529  65.597  1.00  0.00    -0.420 C  
HETATM   16  C   UNL     1     -10.275  19.761  68.002  1.00  0.00    -0.581 C  
ENDBRANCH   7  13
BRANCH  10  17
HETATM   17  N   UNL     1      -8.485  13.512  66.626  1.00  0.00    -0.432 N  
HETATM   18  C   UNL     1      -7.482  12.911  67.389  1.00  0.00    -0.132 C  
HETATM   19  H   UNL     1      -9.022  12.894  66.017  1.00  0.00     0.000 HD 
HETATM   20  O   UNL     1      -6.694  13.463  68.152  1.00  0.00    -0.089 OA 
BRANCH  18  21
HETATM   21  C   UNL     1      -7.452  11.427  67.333  1.00  0.00    -0.120 C  
HETATM   22  C   UNL     1      -6.373  10.765  66.863  1.00  0.00    -0.084 C  
HETATM   23  N   UNL     1      -6.189   9.395  66.940  1.00  0.00    -0.064 NA 
HETATM   24  C   UNL     1      -6.953   8.673  67.876  1.00  0.00    -0.078 A  
HETATM   25  C   UNL     1      -6.615   7.394  68.300  1.00  0.00    -0.050 A  
HETATM   26  C   UNL     1      -7.386   6.751  69.279  1.00  0.00    -0.093 A  
HETATM   27  C   UNL     1      -8.516   7.367  69.822  1.00  0.00    -0.136 A  
HETATM   28  C   UNL     1      -8.904   8.616  69.363  1.00  0.00    -0.144 A  
HETATM   29  C   UNL     1      -8.128   9.245  68.389  1.00  0.00    -0.106 A  
HETATM   30  C   UNL     1      -8.514  10.573  67.899  1.00  0.00    -0.119 C  
HETATM   31  O   UNL     1      -9.671  10.959  67.998  1.00  0.00    -0.159 OA 
ENDBRANCH  18  21
ENDBRANCH  10  17
ENDBRANCH   2   5
TORSDOF 4
ENDMDL
MODEL       91
REMARK 921   NORMALIZED FREE ENERGY PREDICTED BY IDOCK:   -4.75 KCAL/MOL
REMARK 922        TOTAL FREE ENERGY PREDICTED BY IDOCK:   -7.03 KCAL/MOL
REMARK 923 INTER-LIGAND FREE ENERGY PREDICTED BY IDOCK:   -6.11 KCAL/MOL
REMARK 924 INTRA-LIGAND FREE ENERGY PREDICTED BY IDOCK:   -0.92 KCAL/MOL
REMARK 927      BINDING AFFINITY PREDICTED BY RF-SCORE:    0.00 PKD
ROOT
HETATM    1  C   UNL     1     -10.901   8.981  67.257  1.00  0.00    -0.100 C  
HETATM    2  C   UNL     1     -10.627  10.447  67.666  1.00  0.00    -0.304 C  
HETATM    3  C   UNL     1     -10.872  11.325  66.396  1.00  0.00    -0.306 C  
HETATM    4  C   UNL     1     -11.726  10.907  68.635  1.00  0.00    -0.334 C  
ENDROOT
BRANCH   2   5
HETATM    5  C   UNL     1      -9.161  10.483  68.210  1.00  0.00    -0.146 A  
HETATM    6  C   UNL     1      -8.508   9.215  68.276  1.00  0.00    -0.125 A  
HETATM    7  C   UNL     1      -7.246   8.951  68.856  1.00  0.00    -0.074 A  
HETATM    8  H   UNL     1      -4.954  10.811  70.390  1.00  0.00     0.000 HD 
HETATM    9  C   UNL     1      -6.604  10.060  69.391  1.00  0.00    -0.053 A  
HETATM   10  C   UNL     1      -8.442  11.579  68.755  1.00  0.00    -0.056 A  
HETATM   11  O   UNL     1      -5.393  10.053  70.024  1.00  0.00    -0.036 OA 
HETATM   12  C   UNL     1      -7.184  11.326  69.332  1.00  0.00    -0.063 A  
BRANCH   7  13
HETATM   13  C   UNL     1      -6.696   7.512  68.896  1.00  0.00    -0.049 C  
HETATM   14  C   UNL     1      -5.430   7.393  68.022  1.00  0.00    -0.026 C  
HETATM   15  C   UNL     1      -6.401   7.088  70.351  1.00  0.00    -0.042 C  
HETATM   16  C   UNL     1      -7.693   6.451  68.351  1.00  0.00    -0.104 C  
ENDBRANCH   7  13
BRANCH  10  17
HETATM   17  N   UNL     1      -8.921  12.918  68.757  1.00  0.00    -0.387 N  
HETATM   18  C   UNL     1      -8.739  13.883  67.764  1.00  0.00    -0.187 C  
HETATM   19  H   UNL     1      -9.459  13.206  69.575  1.00  0.00     0.000 HD 
HETATM   20  O   UNL     1      -8.097  13.771  66.723  1.00  0.00     0.041 OA 
BRANCH  18  21
HETATM   21  C   UNL     1      -9.499  15.143  67.965  1.00  0.00    -0.199 C  
HETATM   22  C   UNL     1      -9.530  15.761  69.165  1.00  0.00    -0.255 C  
HETATM   23  N   UNL     1     -10.059  17.020  69.395  1.00  0.00    -0.196 NA 
HETATM   24  C   UNL     1     -10.233  17.878  68.293  1.00  0.00    -0.388 A  
HETATM   25  C   UNL     1     -10.402  19.251  68.426  1.00  0.00    -0.435 A  
HETATM   26  C   UNL     1     -10.512  20.060  67.287  1.00  0.00    -0.505 A  
HETATM   27  C   UNL     1     -10.485  19.503  66.006  1.00  0.00    -0.611 A  
HETATM   28  C   UNL     1     -10.383  18.128  65.857  1.00  0.00    -0.284 A  
HETATM   29  C   UNL     1     -10.274  17.335  67.000  1.00  0.00    -0.320 A  
HETATM   30  C   UNL     1     -10.151  15.879  66.864  1.00  0.00    -0.266 C  
HETATM   31  O   UNL     1     -10.546  15.315  65.852  1.00  0.00    -0.304 OA 
ENDBRANCH  18  21
ENDBRANCH  10  17
ENDBRANCH   2   5
TORSDOF 4
ENDMDL
MODEL       92
REMARK 921   NORMALIZED FREE ENERGY PREDICTED BY IDOCK:   -4.73 KCAL/MOL
REMARK 922        TOTAL FREE ENERGY PREDICTED BY IDOCK:   -7.00 KCAL/MOL
REMARK 923 INTER-LIGAND FREE ENERGY PREDICTED BY IDOCK:   -6.09 KCAL/MOL
REMARK 924 INTRA-LIGAND FREE ENERGY PREDICTED BY IDOCK:   -0.91 KCAL/MOL
REMARK 927      BINDING AFFINITY PREDICTED BY RF-SCORE:    0.00 PKD
ROOT
HETATM    1  C   UNL     1      -7.144  11.711  69.497  1.00  0.00     0.055 C  
HETATM    2  C   UNL     1      -7.569  11.912  68.024  1.00  0.00    -0.122 C  
HETATM    3  C   UNL     1      -6.407  12.684  67.319  1.00  0.00    -0.099 C  
HETATM    4  C   UNL     1      -7.571  10.548  67.317  1.00  0.00    -0.096 C  
ENDROOT
BRANCH   2   5
HETATM    5  C   UNL     1      -8.932  12.678  68.060  1.00  0.00    -0.200 A  
HETATM    6  C   UNL     1      -8.961  13.898  67.317  1.00  0.00    -0.225 A  
HETATM    7  C   UNL     1     -10.011  14.843  67.300  1.00  0.00    -0.230 A  
HETATM    8  H   UNL     1     -12.981  15.053  68.784  1.00  0.00     0.000 HD 
HETATM    9  C   UNL     1     -11.109  14.514  68.084  1.00  0.00    -0.266 A  
HETATM   10  C   UNL     1     -10.093  12.390  68.824  1.00  0.00    -0.055 A  
HETATM   11  O   UNL     1     -12.230  15.278  68.248  1.00  0.00    -0.106 OA 
HETATM   12  C   UNL     1     -11.144  13.325  68.811  1.00  0.00    -0.303 A  
BRANCH   7  13
HETATM   13  C   UNL     1      -9.871  16.143  66.484  1.00  0.00    -0.283 C  
HETATM   14  C   UNL     1      -8.384  16.449  66.207  1.00  0.00    -0.362 C  
HETATM   15  C   UNL     1     -10.664  16.038  65.163  1.00  0.00    -0.429 C  
HETATM   16  C   UNL     1     -10.438  17.396  67.208  1.00  0.00    -0.321 C  
ENDBRANCH   7  13
BRANCH  10  17
HETATM   17  N   UNL     1     -10.255  11.213  69.605  1.00  0.00    -0.422 N  
HETATM   18  C   UNL     1     -10.634   9.946  69.158  1.00  0.00    -0.220 C  
HETATM   19  H   UNL     1     -10.074  11.305  70.605  1.00  0.00     0.000 HD 
HETATM   20  O   UNL     1     -10.938   9.618  68.014  1.00  0.00    -0.227 OA 
BRANCH  18  21
HETATM   21  C   UNL     1     -10.555   8.869  70.178  1.00  0.00    -0.243 C  
HETATM   22  C   UNL     1     -11.639   8.497  70.892  1.00  0.00    -0.263 C  
HETATM   23  N   UNL     1     -11.699   7.394  71.726  1.00  0.00    -0.275 NA 
HETATM   24  C   UNL     1     -10.738   6.380  71.555  1.00  0.00    -0.238 A  
HETATM   25  C   UNL     1     -10.900   5.095  72.060  1.00  0.00    -0.194 A  
HETATM   26  C   UNL     1      -9.933   4.113  71.806  1.00  0.00    -0.246 A  
HETATM   27  C   UNL     1      -8.782   4.411  71.072  1.00  0.00    -0.136 A  
HETATM   28  C   UNL     1      -8.574   5.705  70.617  1.00  0.00    -0.130 A  
HETATM   29  C   UNL     1      -9.545   6.672  70.877  1.00  0.00    -0.183 A  
HETATM   30  C   UNL     1      -9.351   8.044  70.393  1.00  0.00    -0.158 C  
HETATM   31  O   UNL     1      -8.227   8.461  70.144  1.00  0.00    -0.111 OA 
ENDBRANCH  18  21
ENDBRANCH  10  17
ENDBRANCH   2   5
TORSDOF 4
ENDMDL
MODEL       93
REMARK 921   NORMALIZED FREE ENERGY PREDICTED BY IDOCK:   -4.73 KCAL/MOL
REMARK 922        TOTAL FREE ENERGY PREDICTED BY IDOCK:   -7.00 KCAL/MOL
REMARK 923 INTER-LIGAND FREE ENERGY PREDICTED BY IDOCK:   -6.61 KCAL/MOL
REMARK 924 INTRA-LIGAND FREE ENERGY PREDICTED BY IDOCK:   -0.39 KCAL/MOL
REMARK 927      BINDING AFFINITY PREDICTED BY RF-SCORE:    0.00 PKD
ROOT
HETATM    1  C   UNL     1      -9.876  14.886  66.539  1.00  0.00    -0.281 C  
HETATM    2  C   UNL     1      -9.946  15.236  68.044  1.00  0.00    -0.224 C  
HETATM    3  C   UNL     1      -8.473  15.409  68.537  1.00  0.00    -0.163 C  
HETATM    4  C   UNL     1     -10.541  16.644  68.199  1.00  0.00    -0.336 C  
ENDROOT
BRANCH   2   5
HETATM    5  C   UNL     1     -10.730  14.070  68.729  1.00  0.00    -0.272 A  
HETATM    6  C   UNL     1     -11.631  14.471  69.763  1.00  0.00    -0.345 A  
HETATM    7  C   UNL     1     -12.348  13.614  70.629  1.00  0.00    -0.440 A  
HETATM    8  H   UNL     1     -12.556  10.315  70.992  1.00  0.00     0.000 HD 
HETATM    9  C   UNL     1     -12.140  12.258  70.416  1.00  0.00    -0.300 A  
HETATM   10  C   UNL     1     -10.579  12.670  68.549  1.00  0.00    -0.243 A  
HETATM   11  O   UNL     1     -12.698  11.242  71.138  1.00  0.00    -0.384 OA 
HETATM   12  C   UNL     1     -11.290  11.810  69.405  1.00  0.00    -0.337 A  
BRANCH   7  13
HETATM   13  C   UNL     1     -13.246  14.204  71.734  1.00  0.00    -0.450 C  
HETATM   14  C   UNL     1     -12.387  14.854  72.839  1.00  0.00    -0.430 C  
HETATM   15  C   UNL     1     -14.236  15.226  71.136  1.00  0.00    -0.410 C  
HETATM   16  C   UNL     1     -14.130  13.143  72.449  1.00  0.00    -0.388 C  
ENDBRANCH   7  13
BRANCH  10  17
HETATM   17  N   UNL     1      -9.746  12.086  67.555  1.00  0.00    -0.185 N  
HETATM   18  C   UNL     1      -8.477  11.532  67.733  1.00  0.00    -0.137 C  
HETATM   19  H   UNL     1     -10.118  12.069  66.605  1.00  0.00     0.000 HD 
HETATM   20  O   UNL     1      -7.824  11.482  68.772  1.00  0.00    -0.140 OA 
BRANCH  18  21
HETATM   21  C   UNL     1      -7.918  10.843  66.542  1.00  0.00    -0.152 C  
HETATM   22  C   UNL     1      -6.676  11.118  66.090  1.00  0.00    -0.015 C  
HETATM   23  N   UNL     1      -6.014  10.404  65.107  1.00  0.00    -0.131 NA 
HETATM   24  C   UNL     1      -6.466   9.104  64.812  1.00  0.00    -0.071 A  
HETATM   25  C   UNL     1      -5.692   8.171  64.132  1.00  0.00    -0.056 A  
HETATM   26  C   UNL     1      -6.177   6.874  63.921  1.00  0.00    -0.036 A  
HETATM   27  C   UNL     1      -7.451   6.503  64.360  1.00  0.00    -0.091 A  
HETATM   28  C   UNL     1      -8.262   7.440  64.982  1.00  0.00    -0.101 A  
HETATM   29  C   UNL     1      -7.766   8.728  65.186  1.00  0.00    -0.103 A  
HETATM   30  C   UNL     1      -8.603   9.731  65.855  1.00  0.00    -0.137 C  
HETATM   31  O   UNL     1      -9.821   9.614  65.866  1.00  0.00    -0.258 OA 
ENDBRANCH  18  21
ENDBRANCH  10  17
ENDBRANCH   2   5
TORSDOF 4
ENDMDL
MODEL       94
REMARK 921   NORMALIZED FREE ENERGY PREDICTED BY IDOCK:   -4.68 KCAL/MOL
REMARK 922        TOTAL FREE ENERGY PREDICTED BY IDOCK:   -6.95 KCAL/MOL
REMARK 923 INTER-LIGAND FREE ENERGY PREDICTED BY IDOCK:   -6.21 KCAL/MOL
REMARK 924 INTRA-LIGAND FREE ENERGY PREDICTED BY IDOCK:   -0.73 KCAL/MOL
REMARK 927      BINDING AFFINITY PREDICTED BY RF-SCORE:    0.00 PKD
ROOT
HETATM    1  C   UNL     1      -6.792  12.595  68.401  1.00  0.00    -0.090 C  
HETATM    2  C   UNL     1      -7.508  11.249  68.139  1.00  0.00    -0.091 C  
HETATM    3  C   UNL     1      -6.529  10.374  67.290  1.00  0.00    -0.067 C  
HETATM    4  C   UNL     1      -7.617  10.478  69.463  1.00  0.00    -0.148 C  
ENDROOT
BRANCH   2   5
HETATM    5  C   UNL     1      -8.854  11.599  67.425  1.00  0.00    -0.160 A  
HETATM    6  C   UNL     1      -9.045  12.986  67.138  1.00  0.00    -0.225 A  
HETATM    7  C   UNL     1     -10.222  13.583  66.633  1.00  0.00    -0.275 A  
HETATM    8  H   UNL     1     -13.223  12.442  65.765  1.00  0.00     0.000 HD 
HETATM    9  C   UNL     1     -11.268  12.703  66.392  1.00  0.00    -0.305 A  
HETATM   10  C   UNL     1      -9.954  10.750  67.137  1.00  0.00    -0.194 A  
HETATM   11  O   UNL     1     -12.508  13.044  65.930  1.00  0.00    -0.469 OA 
HETATM   12  C   UNL     1     -11.129  11.336  66.631  1.00  0.00    -0.299 A  
BRANCH   7  13
HETATM   13  C   UNL     1     -10.289  15.108  66.424  1.00  0.00    -0.292 C  
HETATM   14  C   UNL     1      -8.884  15.733  66.549  1.00  0.00    -0.345 C  
HETATM   15  C   UNL     1     -10.916  15.437  65.051  1.00  0.00    -0.450 C  
HETATM   16  C   UNL     1     -11.177  15.840  67.469  1.00  0.00    -0.218 C  
ENDBRANCH   7  13
BRANCH  10  17
HETATM   17  N   UNL     1      -9.940   9.342  67.333  1.00  0.00    -0.186 N  
HETATM   18  C   UNL     1     -10.466   8.633  68.415  1.00  0.00    -0.176 C  
HETATM   19  H   UNL     1      -9.497   8.788  66.600  1.00  0.00     0.000 HD 
HETATM   20  O   UNL     1     -11.001   9.094  69.419  1.00  0.00    -0.197 OA 
BRANCH  18  21
HETATM   21  C   UNL     1     -10.454   7.156  68.264  1.00  0.00    -0.235 C  
HETATM   22  C   UNL     1     -10.809   6.565  67.103  1.00  0.00    -0.401 C  
HETATM   23  N   UNL     1     -10.657   5.219  66.819  1.00  0.00    -0.276 NA 
HETATM   24  C   UNL     1      -9.752   4.474  67.598  1.00  0.00    -0.157 A  
HETATM   25  C   UNL     1      -9.246   3.243  67.197  1.00  0.00    -0.214 A  
HETATM   26  C   UNL     1      -8.302   2.578  67.991  1.00  0.00    -0.088 A  
HETATM   27  C   UNL     1      -7.876   3.120  69.206  1.00  0.00    -0.054 A  
HETATM   28  C   UNL     1      -8.419   4.316  69.652  1.00  0.00    -0.091 A  
HETATM   29  C   UNL     1      -9.358   4.967  68.851  1.00  0.00    -0.174 A  
HETATM   30  C   UNL     1      -9.934   6.241  69.298  1.00  0.00    -0.155 C  
HETATM   31  O   UNL     1      -9.942   6.535  70.487  1.00  0.00    -0.182 OA 
ENDBRANCH  18  21
ENDBRANCH  10  17
ENDBRANCH   2   5
TORSDOF 4
ENDMDL
MODEL       95
REMARK 921   NORMALIZED FREE ENERGY PREDICTED BY IDOCK:   -4.59 KCAL/MOL
REMARK 922        TOTAL FREE ENERGY PREDICTED BY IDOCK:   -6.84 KCAL/MOL
REMARK 923 INTER-LIGAND FREE ENERGY PREDICTED BY IDOCK:   -5.78 KCAL/MOL
REMARK 924 INTRA-LIGAND FREE ENERGY PREDICTED BY IDOCK:   -1.06 KCAL/MOL
REMARK 927      BINDING AFFINITY PREDICTED BY RF-SCORE:    0.00 PKD
ROOT
HETATM    1  C   UNL     1     -11.926   8.099  70.649  1.00  0.00    -0.036 C  
HETATM    2  C   UNL     1     -10.659   7.815  71.490  1.00  0.00    -0.247 C  
HETATM    3  C   UNL     1      -9.834   9.142  71.526  1.00  0.00    -0.335 C  
HETATM    4  C   UNL     1     -11.070   7.611  72.956  1.00  0.00    -0.437 C  
ENDROOT
BRANCH   2   5
HETATM    5  C   UNL     1      -9.933   6.615  70.798  1.00  0.00    -0.201 A  
HETATM    6  C   UNL     1      -9.948   5.392  71.536  1.00  0.00    -0.237 A  
HETATM    7  C   UNL     1      -9.251   4.207  71.207  1.00  0.00    -0.200 A  
HETATM    8  H   UNL     1      -7.212   3.315  68.735  1.00  0.00     0.000 HD 
HETATM    9  C   UNL     1      -8.500   4.273  70.040  1.00  0.00    -0.065 A  
HETATM   10  C   UNL     1      -9.165   6.611  69.605  1.00  0.00    -0.145 A  
HETATM   11  O   UNL     1      -7.725   3.270  69.532  1.00  0.00    -0.050 OA 
HETATM   12  C   UNL     1      -8.469   5.434  69.269  1.00  0.00    -0.099 A  
BRANCH   7  13
HETATM   13  C   UNL     1      -9.326   2.980  72.136  1.00  0.00    -0.182 C  
HETATM   14  C   UNL     1      -9.835   1.747  71.361  1.00  0.00    -0.193 C  
HETATM   15  C   UNL     1      -7.947   2.698  72.770  1.00  0.00    -0.055 C  
HETATM   16  C   UNL     1     -10.301   3.165  73.333  1.00  0.00    -0.231 C  
ENDBRANCH   7  13
BRANCH  10  17
HETATM   17  N   UNL     1      -9.053   7.726  68.731  1.00  0.00    -0.141 N  
HETATM   18  C   UNL     1      -9.798   7.975  67.577  1.00  0.00    -0.172 C  
HETATM   19  H   UNL     1      -8.348   8.423  68.974  1.00  0.00     0.000 HD 
HETATM   20  O   UNL     1     -10.662   7.259  67.077  1.00  0.00    -0.332 OA 
BRANCH  18  21
HETATM   21  C   UNL     1      -9.575   9.307  66.959  1.00  0.00    -0.223 C  
HETATM   22  C   UNL     1     -10.031   9.592  65.720  1.00  0.00    -0.272 C  
HETATM   23  N   UNL     1     -10.025  10.850  65.143  1.00  0.00    -0.263 NA 
HETATM   24  C   UNL     1      -9.902  11.969  65.990  1.00  0.00    -0.237 A  
HETATM   25  C   UNL     1     -10.242  13.256  65.593  1.00  0.00    -0.295 A  
HETATM   26  C   UNL     1     -10.152  14.319  66.502  1.00  0.00    -0.283 A  
HETATM   27  C   UNL     1      -9.695  14.112  67.806  1.00  0.00    -0.223 A  
HETATM   28  C   UNL     1      -9.291  12.845  68.198  1.00  0.00    -0.214 A  
HETATM   29  C   UNL     1      -9.385  11.797  67.283  1.00  0.00    -0.171 A  
HETATM   30  C   UNL     1      -8.975  10.445  67.683  1.00  0.00    -0.138 C  
HETATM   31  O   UNL     1      -8.192  10.283  68.610  1.00  0.00    -0.104 OA 
ENDBRANCH  18  21
ENDBRANCH  10  17
ENDBRANCH   2   5
TORSDOF 4
ENDMDL
MODEL       96
REMARK 921   NORMALIZED FREE ENERGY PREDICTED BY IDOCK:   -4.57 KCAL/MOL
REMARK 922        TOTAL FREE ENERGY PREDICTED BY IDOCK:   -6.81 KCAL/MOL
REMARK 923 INTER-LIGAND FREE ENERGY PREDICTED BY IDOCK:   -6.02 KCAL/MOL
REMARK 924 INTRA-LIGAND FREE ENERGY PREDICTED BY IDOCK:   -0.78 KCAL/MOL
REMARK 927      BINDING AFFINITY PREDICTED BY RF-SCORE:    0.00 PKD
ROOT
HETATM    1  C   UNL     1      -9.174   9.753  70.157  1.00  0.00    -0.253 C  
HETATM    2  C   UNL     1     -10.566   9.802  69.485  1.00  0.00    -0.253 C  
HETATM    3  C   UNL     1     -11.268   8.441  69.802  1.00  0.00     0.027 C  
HETATM    4  C   UNL     1     -11.437  10.831  70.220  1.00  0.00    -0.406 C  
ENDROOT
BRANCH   2   5
HETATM    5  C   UNL     1     -10.311  10.065  67.965  1.00  0.00    -0.238 A  
HETATM    6  C   UNL     1     -10.807  11.311  67.474  1.00  0.00    -0.292 A  
HETATM    7  C   UNL     1     -10.835  11.729  66.125  1.00  0.00    -0.336 A  
HETATM    8  H   UNL     1      -9.888  10.361  63.244  1.00  0.00     0.000 HD 
HETATM    9  C   UNL     1     -10.308  10.818  65.218  1.00  0.00    -0.258 A  
HETATM   10  C   UNL     1      -9.767   9.187  66.991  1.00  0.00    -0.188 A  
HETATM   11  O   UNL     1     -10.248  10.984  63.864  1.00  0.00    -0.310 OA 
HETATM   12  C   UNL     1      -9.788   9.597  65.645  1.00  0.00    -0.369 A  
BRANCH   7  13
HETATM   13  C   UNL     1     -11.453  13.089  65.747  1.00  0.00    -0.367 C  
HETATM   14  C   UNL     1     -11.895  13.852  67.012  1.00  0.00    -0.447 C  
HETATM   15  C   UNL     1     -10.451  13.926  64.922  1.00  0.00    -0.446 C  
HETATM   16  C   UNL     1     -12.721  12.969  64.855  1.00  0.00    -0.456 C  
ENDBRANCH   7  13
BRANCH  10  17
HETATM   17  N   UNL     1      -9.205   7.918  67.294  1.00  0.00    -0.139 N  
HETATM   18  C   UNL     1      -9.839   6.675  67.234  1.00  0.00    -0.146 C  
HETATM   19  H   UNL     1      -8.228   7.913  67.590  1.00  0.00     0.000 HD 
HETATM   20  O   UNL     1     -11.012   6.449  66.947  1.00  0.00    -0.370 OA 
BRANCH  18  21
HETATM   21  C   UNL     1      -8.951   5.504  67.446  1.00  0.00    -0.107 C  
HETATM   22  C   UNL     1      -8.008   5.165  66.540  1.00  0.00    -0.104 C  
HETATM   23  N   UNL     1      -7.028   4.208  66.737  1.00  0.00    -0.058 NA 
HETATM   24  C   UNL     1      -6.731   3.823  68.058  1.00  0.00    -0.046 A  
HETATM   25  C   UNL     1      -5.556   3.168  68.407  1.00  0.00    -0.018 A  
HETATM   26  C   UNL     1      -5.293   2.864  69.750  1.00  0.00    -0.012 A  
HETATM   27  C   UNL     1      -6.212   3.184  70.752  1.00  0.00    -0.019 A  
HETATM   28  C   UNL     1      -7.417   3.778  70.413  1.00  0.00    -0.041 A  
HETATM   29  C   UNL     1      -7.666   4.076  69.073  1.00  0.00    -0.053 A  
HETATM   30  C   UNL     1      -8.931   4.718  68.694  1.00  0.00    -0.107 C  
HETATM   31  O   UNL     1      -9.914   4.627  69.419  1.00  0.00    -0.209 OA 
ENDBRANCH  18  21
ENDBRANCH  10  17
ENDBRANCH   2   5
TORSDOF 4
ENDMDL
MODEL       97
REMARK 921   NORMALIZED FREE ENERGY PREDICTED BY IDOCK:   -4.55 KCAL/MOL
REMARK 922        TOTAL FREE ENERGY PREDICTED BY IDOCK:   -6.78 KCAL/MOL
REMARK 923 INTER-LIGAND FREE ENERGY PREDICTED BY IDOCK:   -5.92 KCAL/MOL
REMARK 924 INTRA-LIGAND FREE ENERGY PREDICTED BY IDOCK:   -0.86 KCAL/MOL
REMARK 927      BINDING AFFINITY PREDICTED BY RF-SCORE:    0.00 PKD
ROOT
HETATM    1  C   UNL     1     -12.059  12.701  67.282  1.00  0.00    -0.184 C  
HETATM    2  C   UNL     1     -11.124  12.249  68.429  1.00  0.00    -0.283 C  
HETATM    3  C   UNL     1     -10.812  13.520  69.285  1.00  0.00    -0.107 C  
HETATM    4  C   UNL     1     -11.917  11.355  69.393  1.00  0.00    -0.407 C  
ENDROOT
BRANCH   2   5
HETATM    5  C   UNL     1      -9.875  11.600  67.747  1.00  0.00    -0.186 A  
HETATM    6  C   UNL     1      -9.887  10.173  67.695  1.00  0.00    -0.201 A  
HETATM    7  C   UNL     1      -8.827   9.342  67.266  1.00  0.00    -0.132 A  
HETATM    8  H   UNL     1      -5.749   9.891  66.132  1.00  0.00     0.000 HD 
HETATM    9  C   UNL     1      -7.686  10.014  66.849  1.00  0.00    -0.096 A  
HETATM   10  C   UNL     1      -8.688  12.228  67.287  1.00  0.00    -0.188 A  
HETATM   11  O   UNL     1      -6.529   9.431  66.417  1.00  0.00    -0.065 OA 
HETATM   12  C   UNL     1      -7.629  11.408  66.856  1.00  0.00    -0.151 A  
BRANCH   7  13
HETATM   13  C   UNL     1      -8.975   7.809  67.317  1.00  0.00    -0.136 C  
HETATM   14  C   UNL     1     -10.388   7.418  67.799  1.00  0.00    -0.273 C  
HETATM   15  C   UNL     1      -8.677   7.191  65.934  1.00  0.00    -0.146 C  
HETATM   16  C   UNL     1      -7.984   7.121  68.298  1.00  0.00    -0.123 C  
ENDBRANCH   7  13
BRANCH  10  17
HETATM   17  N   UNL     1      -8.504  13.636  67.241  1.00  0.00    -0.206 N  
HETATM   18  C   UNL     1      -9.124  14.543  66.380  1.00  0.00    -0.185 C  
HETATM   19  H   UNL     1      -7.843  14.029  67.914  1.00  0.00     0.000 HD 
HETATM   20  O   UNL     1      -9.914  14.292  65.475  1.00  0.00    -0.334 OA 
BRANCH  18  21
HETATM   21  C   UNL     1      -8.861  15.975  66.679  1.00  0.00    -0.307 C  
HETATM   22  C   UNL     1      -9.863  16.880  66.714  1.00  0.00    -0.279 C  
HETATM   23  N   UNL     1      -9.736  18.186  67.155  1.00  0.00    -0.291 NA 
HETATM   24  C   UNL     1      -8.630  18.509  67.964  1.00  0.00    -0.291 A  
HETATM   25  C   UNL     1      -8.580  19.653  68.751  1.00  0.00    -0.277 A  
HETATM   26  C   UNL     1      -7.475  19.888  69.580  1.00  0.00     0.078 A  
HETATM   27  C   UNL     1      -6.397  19.000  69.609  1.00  0.00    -0.280 A  
HETATM   28  C   UNL     1      -6.402  17.888  68.781  1.00  0.00    -0.217 A  
HETATM   29  C   UNL     1      -7.508  17.666  67.961  1.00  0.00    -0.223 A  
HETATM   30  C   UNL     1      -7.539  16.487  67.087  1.00  0.00    -0.179 C  
HETATM   31  O   UNL     1      -6.499  15.938  66.750  1.00  0.00    -0.255 OA 
ENDBRANCH  18  21
ENDBRANCH  10  17
ENDBRANCH   2   5
TORSDOF 4
ENDMDL
MODEL       98
REMARK 921   NORMALIZED FREE ENERGY PREDICTED BY IDOCK:   -4.54 KCAL/MOL
REMARK 922        TOTAL FREE ENERGY PREDICTED BY IDOCK:   -6.77 KCAL/MOL
REMARK 923 INTER-LIGAND FREE ENERGY PREDICTED BY IDOCK:   -5.90 KCAL/MOL
REMARK 924 INTRA-LIGAND FREE ENERGY PREDICTED BY IDOCK:   -0.87 KCAL/MOL
REMARK 927      BINDING AFFINITY PREDICTED BY RF-SCORE:    0.00 PKD
ROOT
HETATM    1  C   UNL     1      -5.735  10.368  70.073  1.00  0.00    -0.055 C  
HETATM    2  C   UNL     1      -6.233  11.580  69.252  1.00  0.00    -0.079 C  
HETATM    3  C   UNL     1      -5.984  12.852  70.127  1.00  0.00    -0.136 C  
HETATM    4  C   UNL     1      -5.298  11.785  68.051  1.00  0.00    -0.047 C  
ENDROOT
BRANCH   2   5
HETATM    5  C   UNL     1      -7.736  11.300  68.923  1.00  0.00    -0.125 A  
HETATM    6  C   UNL     1      -8.077   9.921  68.772  1.00  0.00    -0.102 A  
HETATM    7  C   UNL     1      -9.320   9.407  68.339  1.00  0.00    -0.137 A  
HETATM    8  H   UNL     1     -12.205  10.773  67.404  1.00  0.00     0.000 HD 
HETATM    9  C   UNL     1     -10.283  10.366  68.055  1.00  0.00    -0.169 A  
HETATM   10  C   UNL     1      -8.771  12.228  68.637  1.00  0.00     0.023 A  
HETATM   11  O   UNL     1     -11.546  10.117  67.598  1.00  0.00    -0.204 OA 
HETATM   12  C   UNL     1     -10.013  11.725  68.208  1.00  0.00    -0.200 A  
BRANCH   7  13
HETATM   13  C   UNL     1      -9.517   7.887  68.177  1.00  0.00    -0.154 C  
HETATM   14  C   UNL     1      -8.168   7.150  68.315  1.00  0.00    -0.124 C  
HETATM   15  C   UNL     1     -10.538   7.362  69.209  1.00  0.00    -0.220 C  
HETATM   16  C   UNL     1     -10.087   7.479  66.789  1.00  0.00    -0.313 C  
ENDBRANCH   7  13
BRANCH  10  17
HETATM   17  N   UNL     1      -8.626  13.637  68.756  1.00  0.00    -0.363 N  
HETATM   18  C   UNL     1      -7.961  14.496  67.878  1.00  0.00    -0.147 C  
HETATM   19  H   UNL     1      -9.055  14.070  69.574  1.00  0.00     0.000 HD 
HETATM   20  O   UNL     1      -7.344  14.192  66.861  1.00  0.00     0.117 OA 
BRANCH  18  21
HETATM   21  C   UNL     1      -8.120  15.943  68.173  1.00  0.00    -0.145 C  
HETATM   22  C   UNL     1      -7.048  16.754  68.308  1.00  0.00    -0.167 C  
HETATM   23  N   UNL     1      -7.104  18.133  68.404  1.00  0.00    -0.243 NA 
HETATM   24  C   UNL     1      -8.273  18.782  67.964  1.00  0.00    -0.291 A  
HETATM   25  C   UNL     1      -8.317  20.140  67.670  1.00  0.00    -0.348 A  
HETATM   26  C   UNL     1      -9.497  20.715  67.179  1.00  0.00    -0.505 A  
HETATM   27  C   UNL     1     -10.652  19.949  67.005  1.00  0.00    -0.533 A  
HETATM   28  C   UNL     1     -10.643  18.607  67.354  1.00  0.00    -0.490 A  
HETATM   29  C   UNL     1      -9.462  18.047  67.841  1.00  0.00    -0.273 A  
HETATM   30  C   UNL     1      -9.428  16.625  68.204  1.00  0.00    -0.228 C  
HETATM   31  O   UNL     1     -10.462  16.031  68.483  1.00  0.00    -0.239 OA 
ENDBRANCH  18  21
ENDBRANCH  10  17
ENDBRANCH   2   5
TORSDOF 4
ENDMDL
MODEL       99
REMARK 921   NORMALIZED FREE ENERGY PREDICTED BY IDOCK:   -4.53 KCAL/MOL
REMARK 922        TOTAL FREE ENERGY PREDICTED BY IDOCK:   -6.77 KCAL/MOL
REMARK 923 INTER-LIGAND FREE ENERGY PREDICTED BY IDOCK:   -5.87 KCAL/MOL
REMARK 924 INTRA-LIGAND FREE ENERGY PREDICTED BY IDOCK:   -0.89 KCAL/MOL
REMARK 927      BINDING AFFINITY PREDICTED BY RF-SCORE:    0.00 PKD
ROOT
HETATM    1  C   UNL     1      -6.155  11.471  67.330  1.00  0.00    -0.100 C  
HETATM    2  C   UNL     1      -6.729  12.351  68.465  1.00  0.00    -0.077 C  
HETATM    3  C   UNL     1      -6.526  11.559  69.798  1.00  0.00    -0.125 C  
HETATM    4  C   UNL     1      -5.830  13.583  68.642  1.00  0.00    -0.085 C  
ENDROOT
BRANCH   2   5
HETATM    5  C   UNL     1      -8.222  12.628  68.093  1.00  0.00    -0.170 A  
HETATM    6  C   UNL     1      -8.469  13.894  67.479  1.00  0.00    -0.200 A  
HETATM    7  C   UNL     1      -9.734  14.446  67.177  1.00  0.00    -0.248 A  
HETATM    8  H   UNL     1     -12.875  13.426  67.573  1.00  0.00     0.000 HD 
HETATM    9  C   UNL     1     -10.819  13.646  67.513  1.00  0.00    -0.264 A  
HETATM   10  C   UNL     1      -9.371  11.850  68.392  1.00  0.00    -0.184 A  
HETATM   11  O   UNL     1     -12.134  13.973  67.343  1.00  0.00    -0.402 OA 
HETATM   12  C   UNL     1     -10.635  12.392  68.092  1.00  0.00    -0.232 A  
BRANCH   7  13
HETATM   13  C   UNL     1      -9.838  15.854  66.558  1.00  0.00    -0.277 C  
HETATM   14  C   UNL     1      -8.435  16.467  66.372  1.00  0.00    -0.357 C  
HETATM   15  C   UNL     1     -10.595  15.797  65.213  1.00  0.00    -0.446 C  
HETATM   16  C   UNL     1     -10.632  16.862  67.436  1.00  0.00    -0.294 C  
ENDBRANCH   7  13
BRANCH  10  17
HETATM   17  N   UNL     1      -9.321  10.557  68.980  1.00  0.00    -0.192 N  
HETATM   18  C   UNL     1      -9.024   9.349  68.344  1.00  0.00    -0.128 C  
HETATM   19  H   UNL     1      -9.524  10.505  69.978  1.00  0.00     0.000 HD 
HETATM   20  O   UNL     1      -8.791   9.171  67.152  1.00  0.00    -0.119 OA 
BRANCH  18  21
HETATM   21  C   UNL     1      -8.881   8.181  69.250  1.00  0.00    -0.144 C  
HETATM   22  C   UNL     1      -7.718   7.924  69.886  1.00  0.00    -0.098 C  
HETATM   23  N   UNL     1      -7.549   6.972  70.876  1.00  0.00    -0.085 NA 
HETATM   24  C   UNL     1      -8.694   6.496  71.543  1.00  0.00    -0.132 A  
HETATM   25  C   UNL     1      -8.637   5.838  72.765  1.00  0.00    -0.119 A  
HETATM   26  C   UNL     1      -9.818   5.441  73.406  1.00  0.00    -0.173 A  
HETATM   27  C   UNL     1     -11.065   5.672  72.820  1.00  0.00    -0.334 A  
HETATM   28  C   UNL     1     -11.137   6.269  71.571  1.00  0.00    -0.333 A  
HETATM   29  C   UNL     1      -9.953   6.659  70.945  1.00  0.00    -0.204 A  
HETATM   30  C   UNL     1     -10.007   7.306  69.628  1.00  0.00    -0.176 C  
HETATM   31  O   UNL     1     -10.977   7.147  68.898  1.00  0.00    -0.170 OA 
ENDBRANCH  18  21
ENDBRANCH  10  17
ENDBRANCH   2   5
TORSDOF 4
ENDMDL
MODEL      100
REMARK 921   NORMALIZED FREE ENERGY PREDICTED BY IDOCK:   -4.53 KCAL/MOL
REMARK 922        TOTAL FREE ENERGY PREDICTED BY IDOCK:   -6.75 KCAL/MOL
REMARK 923 INTER-LIGAND FREE ENERGY PREDICTED BY IDOCK:   -5.87 KCAL/MOL
REMARK 924 INTRA-LIGAND FREE ENERGY PREDICTED BY IDOCK:   -0.88 KCAL/MOL
REMARK 927      BINDING AFFINITY PREDICTED BY RF-SCORE:    0.00 PKD
ROOT
HETATM    1  C   UNL     1      -7.026  11.560  69.186  1.00  0.00    -0.113 C  
HETATM    2  C   UNL     1      -6.911  12.152  67.762  1.00  0.00    -0.109 C  
HETATM    3  C   UNL     1      -5.785  13.235  67.812  1.00  0.00    -0.121 C  
HETATM    4  C   UNL     1      -6.335  11.081  66.824  1.00  0.00    -0.114 C  
ENDROOT
BRANCH   2   5
HETATM    5  C   UNL     1      -8.329  12.703  67.400  1.00  0.00    -0.184 A  
HETATM    6  C   UNL     1      -8.421  14.126  67.306  1.00  0.00    -0.228 A  
HETATM    7  C   UNL     1      -9.604  14.879  67.135  1.00  0.00    -0.229 A  
HETATM    8  H   UNL     1     -12.827  14.118  66.832  1.00  0.00     0.000 HD 
HETATM    9  C   UNL     1     -10.768  14.129  67.039  1.00  0.00    -0.285 A  
HETATM   10  C   UNL     1      -9.552  11.994  67.273  1.00  0.00    -0.183 A  
HETATM   11  O   UNL     1     -12.031  14.631  66.898  1.00  0.00    -0.373 OA 
HETATM   12  C   UNL     1     -10.735  12.737  67.100  1.00  0.00    -0.264 A  
BRANCH   7  13
HETATM   13  C   UNL     1      -9.544  16.419  67.104  1.00  0.00    -0.239 C  
HETATM   14  C   UNL     1     -10.025  17.005  68.448  1.00  0.00    -0.289 C  
HETATM   15  C   UNL     1      -8.112  16.897  66.779  1.00  0.00    -0.276 C  
HETATM   16  C   UNL     1     -10.449  17.055  66.012  1.00  0.00    -0.280 C  
ENDBRANCH   7  13
BRANCH  10  17
HETATM   17  N   UNL     1      -9.654  10.577  67.315  1.00  0.00    -0.161 N  
HETATM   18  C   UNL     1      -9.789   9.705  66.232  1.00  0.00    -0.256 C  
HETATM   19  H   UNL     1      -9.624  10.148  68.241  1.00  0.00     0.000 HD 
HETATM   20  O   UNL     1      -9.887  10.001  65.044  1.00  0.00    -0.310 OA 
BRANCH  18  21
HETATM   21  C   UNL     1      -9.701   8.262  66.571  1.00  0.00    -0.323 C  
HETATM   22  C   UNL     1     -10.762   7.591  67.068  1.00  0.00    -0.297 C  
HETATM   23  N   UNL     1     -10.822   6.219  67.242  1.00  0.00    -0.344 NA 
HETATM   24  C   UNL     1      -9.909   5.419  66.530  1.00  0.00    -0.176 A  
HETATM   25  C   UNL     1     -10.094   4.055  66.333  1.00  0.00    -0.012 A  
HETATM   26  C   UNL     1      -9.177   3.325  65.564  1.00  0.00    -0.151 A  
HETATM   27  C   UNL     1      -8.054   3.942  65.009  1.00  0.00    -0.093 A  
HETATM   28  C   UNL     1      -7.820   5.287  65.249  1.00  0.00    -0.095 A  
HETATM   29  C   UNL     1      -8.740   6.002  66.016  1.00  0.00    -0.154 A  
HETATM   30  C   UNL     1      -8.519   7.431  66.271  1.00  0.00    -0.137 C  
HETATM   31  O   UNL     1      -7.394   7.907  66.196  1.00  0.00    -0.072 OA 
ENDBRANCH  18  21
ENDBRANCH  10  17
ENDBRANCH   2   5
TORSDOF 4
ENDMDL
MODEL      101
REMARK 921   NORMALIZED FREE ENERGY PREDICTED BY IDOCK:   -4.52 KCAL/MOL
REMARK 922        TOTAL FREE ENERGY PREDICTED BY IDOCK:   -6.75 KCAL/MOL
REMARK 923 INTER-LIGAND FREE ENERGY PREDICTED BY IDOCK:   -6.58 KCAL/MOL
REMARK 924 INTRA-LIGAND FREE ENERGY PREDICTED BY IDOCK:   -0.17 KCAL/MOL
REMARK 927      BINDING AFFINITY PREDICTED BY RF-SCORE:    0.00 PKD
ROOT
HETATM    1  C   UNL     1      -8.613   7.985  67.118  1.00  0.00    -0.124 C  
HETATM    2  C   UNL     1     -10.087   8.053  67.581  1.00  0.00    -0.269 C  
HETATM    3  C   UNL     1     -10.733   9.278  66.856  1.00  0.00    -0.164 C  
HETATM    4  C   UNL     1     -10.847   6.852  66.999  1.00  0.00    -0.436 C  
ENDROOT
BRANCH   2   5
HETATM    5  C   UNL     1     -10.052   8.164  69.141  1.00  0.00    -0.204 A  
HETATM    6  C   UNL     1      -9.979   6.917  69.836  1.00  0.00    -0.185 A  
HETATM    7  C   UNL     1     -10.077   6.730  71.233  1.00  0.00    -0.203 A  
HETATM    8  H   UNL     1     -10.509   8.763  73.830  1.00  0.00     0.000 HD 
HETATM    9  C   UNL     1     -10.247   7.895  71.970  1.00  0.00    -0.211 A  
HETATM   10  C   UNL     1     -10.205   9.318  69.953  1.00  0.00    -0.214 A  
HETATM   11  O   UNL     1     -10.392   7.967  73.326  1.00  0.00    -0.335 OA 
HETATM   12  C   UNL     1     -10.301   9.140  71.346  1.00  0.00    -0.409 A  
BRANCH   7  13
HETATM   13  C   UNL     1     -10.032   5.310  71.830  1.00  0.00    -0.245 C  
HETATM   14  C   UNL     1     -10.092   4.251  70.709  1.00  0.00    -0.154 C  
HETATM   15  C   UNL     1      -8.762   5.127  72.690  1.00  0.00    -0.123 C  
HETATM   16  C   UNL     1     -11.222   4.996  72.779  1.00  0.00    -0.295 C  
ENDBRANCH   7  13
BRANCH  10  17
HETATM   17  N   UNL     1     -10.271  10.642  69.442  1.00  0.00    -0.313 N  
HETATM   18  C   UNL     1      -9.218  11.408  68.937  1.00  0.00    -0.023 C  
HETATM   19  H   UNL     1     -11.191  11.083  69.445  1.00  0.00     0.000 HD 
HETATM   20  O   UNL     1      -8.031  11.097  68.876  1.00  0.00    -0.141 OA 
BRANCH  18  21
HETATM   21  C   UNL     1      -9.619  12.697  68.317  1.00  0.00    -0.208 C  
HETATM   22  C   UNL     1     -10.906  13.103  68.310  1.00  0.00    -0.253 C  
HETATM   23  N   UNL     1     -11.340  14.358  67.919  1.00  0.00    -0.286 NA 
HETATM   24  C   UNL     1     -10.399  15.405  67.884  1.00  0.00    -0.247 A  
HETATM   25  C   UNL     1     -10.764  16.746  67.867  1.00  0.00    -0.347 A  
HETATM   26  C   UNL     1      -9.778  17.742  67.892  1.00  0.00    -0.294 A  
HETATM   27  C   UNL     1      -8.421  17.410  67.905  1.00  0.00    -0.228 A  
HETATM   28  C   UNL     1      -8.041  16.078  67.856  1.00  0.00    -0.149 A  
HETATM   29  C   UNL     1      -9.031  15.096  67.832  1.00  0.00    -0.174 A  
HETATM   30  C   UNL     1      -8.650  13.680  67.794  1.00  0.00    -0.182 C  
HETATM   31  O   UNL     1      -7.548  13.345  67.377  1.00  0.00    -0.162 OA 
ENDBRANCH  18  21
ENDBRANCH  10  17
ENDBRANCH   2   5
TORSDOF 4
ENDMDL
MODEL      102
REMARK 921   NORMALIZED FREE ENERGY PREDICTED BY IDOCK:   -4.38 KCAL/MOL
REMARK 922        TOTAL FREE ENERGY PREDICTED BY IDOCK:   -6.58 KCAL/MOL
REMARK 923 INTER-LIGAND FREE ENERGY PREDICTED BY IDOCK:   -5.96 KCAL/MOL
REMARK 924 INTRA-LIGAND FREE ENERGY PREDICTED BY IDOCK:   -0.62 KCAL/MOL
REMARK 927      BINDING AFFINITY PREDICTED BY RF-SCORE:    0.00 PKD
ROOT
HETATM    1  C   UNL     1      -9.411  14.411  67.677  1.00  0.00    -0.200 C  
HETATM    2  C   UNL     1      -9.452  12.865  67.687  1.00  0.00    -0.197 C  
HETATM    3  C   UNL     1      -9.759  12.412  66.222  1.00  0.00    -0.253 C  
HETATM    4  C   UNL     1      -8.034  12.331  67.934  1.00  0.00    -0.152 C  
ENDROOT
BRANCH   2   5
HETATM    5  C   UNL     1     -10.540  12.461  68.734  1.00  0.00    -0.213 A  
HETATM    6  C   UNL     1     -11.215  13.555  69.360  1.00  0.00    -0.244 A  
HETATM    7  C   UNL     1     -12.130  13.471  70.433  1.00  0.00    -0.415 A  
HETATM    8  H   UNL     1     -13.381  10.973  72.237  1.00  0.00     0.000 HD 
HETATM    9  C   UNL     1     -12.384  12.184  70.888  1.00  0.00    -0.273 A  
HETATM   10  C   UNL     1     -10.859  11.171  69.232  1.00  0.00    -0.229 A  
HETATM   11  O   UNL     1     -13.208  11.853  71.926  1.00  0.00    -0.482 OA 
HETATM   12  C   UNL     1     -11.772  11.078  70.299  1.00  0.00    -0.445 A  
BRANCH   7  13
HETATM   13  C   UNL     1     -12.738  14.753  71.035  1.00  0.00    -0.411 C  
HETATM   14  C   UNL     1     -12.099  16.005  70.398  1.00  0.00    -0.198 C  
HETATM   15  C   UNL     1     -14.270  14.763  70.847  1.00  0.00     0.030 C  
HETATM   16  C   UNL     1     -12.509  14.889  72.567  1.00  0.00    -0.432 C  
ENDBRANCH   7  13
BRANCH  10  17
HETATM   17  N   UNL     1     -10.308   9.965  68.718  1.00  0.00    -0.194 N  
HETATM   18  C   UNL     1     -10.531   9.401  67.461  1.00  0.00    -0.280 C  
HETATM   19  H   UNL     1      -9.678   9.456  69.339  1.00  0.00     0.000 HD 
HETATM   20  O   UNL     1     -11.276   9.817  66.578  1.00  0.00     0.303 OA 
BRANCH  18  21
HETATM   21  C   UNL     1      -9.684   8.223  67.141  1.00  0.00    -0.255 C  
HETATM   22  C   UNL     1      -8.344   8.334  67.019  1.00  0.00    -0.122 C  
HETATM   23  N   UNL     1      -7.468   7.269  66.901  1.00  0.00    -0.095 NA 
HETATM   24  C   UNL     1      -7.913   5.995  67.305  1.00  0.00    -0.102 A  
HETATM   25  C   UNL     1      -7.045   4.944  67.577  1.00  0.00    -0.066 A  
HETATM   26  C   UNL     1      -7.547   3.718  68.032  1.00  0.00    -0.066 A  
HETATM   27  C   UNL     1      -8.921   3.519  68.191  1.00  0.00    -0.176 A  
HETATM   28  C   UNL     1      -9.804   4.535  67.862  1.00  0.00    -0.162 A  
HETATM   29  C   UNL     1      -9.291   5.751  67.410  1.00  0.00    -0.112 A  
HETATM   30  C   UNL     1     -10.208   6.845  67.070  1.00  0.00    -0.248 C  
HETATM   31  O   UNL     1     -11.373   6.609  66.776  1.00  0.00    -0.270 OA 
ENDBRANCH  18  21
ENDBRANCH  10  17
ENDBRANCH   2   5
TORSDOF 4
ENDMDL
MODEL      103
REMARK 921   NORMALIZED FREE ENERGY PREDICTED BY IDOCK:   -4.36 KCAL/MOL
REMARK 922        TOTAL FREE ENERGY PREDICTED BY IDOCK:   -6.55 KCAL/MOL
REMARK 923 INTER-LIGAND FREE ENERGY PREDICTED BY IDOCK:   -5.33 KCAL/MOL
REMARK 924 INTRA-LIGAND FREE ENERGY PREDICTED BY IDOCK:   -1.23 KCAL/MOL
REMARK 927      BINDING AFFINITY PREDICTED BY RF-SCORE:    0.00 PKD
ROOT
HETATM    1  C   UNL     1      -6.215  13.678  69.728  1.00  0.00    -0.120 C  
HETATM    2  C   UNL     1      -6.483  14.028  68.245  1.00  0.00    -0.116 C  
HETATM    3  C   UNL     1      -5.378  15.047  67.814  1.00  0.00    -0.057 C  
HETATM    4  C   UNL     1      -6.185  12.793  67.381  1.00  0.00    -0.133 C  
ENDROOT
BRANCH   2   5
HETATM    5  C   UNL     1      -7.943  14.585  68.182  1.00  0.00    -0.133 A  
HETATM    6  C   UNL     1      -8.046  15.983  67.906  1.00  0.00    -0.149 A  
HETATM    7  C   UNL     1      -9.228  16.757  67.935  1.00  0.00    -0.225 A  
HETATM    8  H   UNL     1     -12.424  16.105  68.588  1.00  0.00     0.000 HD 
HETATM    9  C   UNL     1     -10.382  16.054  68.254  1.00  0.00    -0.261 A  
HETATM   10  C   UNL     1      -9.161  13.921  68.481  1.00  0.00    -0.154 A  
HETATM   11  O   UNL     1     -11.635  16.586  68.370  1.00  0.00    -0.231 OA 
HETATM   12  C   UNL     1     -10.343  14.684  68.510  1.00  0.00    -0.238 A  
BRANCH   7  13
HETATM   13  C   UNL     1      -9.168  18.273  67.663  1.00  0.00    -0.271 C  
HETATM   14  C   UNL     1      -9.916  18.617  66.358  1.00  0.00    -0.415 C  
HETATM   15  C   UNL     1      -9.756  19.059  68.855  1.00  0.00    -0.442 C  
HETATM   16  C   UNL     1      -7.723  18.816  67.483  1.00  0.00    -0.244 C  
ENDBRANCH   7  13
BRANCH  10  17
HETATM   17  N   UNL     1      -9.257  12.529  68.757  1.00  0.00    -0.398 N  
HETATM   18  C   UNL     1      -9.687  11.522  67.891  1.00  0.00    -0.183 C  
HETATM   19  H   UNL     1      -8.981  12.234  69.694  1.00  0.00     0.000 HD 
HETATM   20  O   UNL     1     -10.101  11.653  66.742  1.00  0.00    -0.208 OA 
BRANCH  18  21
HETATM   21  C   UNL     1      -9.520  10.138  68.403  1.00  0.00    -0.147 C  
HETATM   22  C   UNL     1     -10.427   9.175  68.133  1.00  0.00    -0.211 C  
HETATM   23  N   UNL     1     -10.263   7.830  68.415  1.00  0.00    -0.196 NA 
HETATM   24  C   UNL     1      -8.958   7.353  68.642  1.00  0.00    -0.131 A  
HETATM   25  C   UNL     1      -8.625   6.006  68.572  1.00  0.00    -0.111 A  
HETATM   26  C   UNL     1      -7.295   5.601  68.750  1.00  0.00    -0.083 A  
HETATM   27  C   UNL     1      -6.291   6.532  69.029  1.00  0.00    -0.035 A  
HETATM   28  C   UNL     1      -6.618   7.872  69.166  1.00  0.00    -0.040 A  
HETATM   29  C   UNL     1      -7.946   8.262  68.986  1.00  0.00    -0.112 A  
HETATM   30  C   UNL     1      -8.311   9.678  69.113  1.00  0.00    -0.130 C  
HETATM   31  O   UNL     1      -7.606  10.445  69.757  1.00  0.00    -0.155 OA 
ENDBRANCH  18  21
ENDBRANCH  10  17
ENDBRANCH   2   5
TORSDOF 4
ENDMDL
MODEL      104
REMARK 921   NORMALIZED FREE ENERGY PREDICTED BY IDOCK:   -4.34 KCAL/MOL
REMARK 922        TOTAL FREE ENERGY PREDICTED BY IDOCK:   -6.52 KCAL/MOL
REMARK 923 INTER-LIGAND FREE ENERGY PREDICTED BY IDOCK:   -6.08 KCAL/MOL
REMARK 924 INTRA-LIGAND FREE ENERGY PREDICTED BY IDOCK:   -0.44 KCAL/MOL
REMARK 927      BINDING AFFINITY PREDICTED BY RF-SCORE:    0.00 PKD
ROOT
HETATM    1  C   UNL     1     -11.584  16.689  67.552  1.00  0.00     0.511 C  
HETATM    2  C   UNL     1     -10.293  16.666  66.701  1.00  0.00    -0.296 C  
HETATM    3  C   UNL     1     -10.400  15.428  65.751  1.00  0.00    -0.381 C  
HETATM    4  C   UNL     1     -10.313  17.859  65.734  1.00  0.00    -0.182 C  
ENDROOT
BRANCH   2   5
HETATM    5  C   UNL     1      -9.102  16.609  67.712  1.00  0.00    -0.212 A  
HETATM    6  C   UNL     1      -8.408  17.844  67.901  1.00  0.00    -0.247 A  
HETATM    7  C   UNL     1      -7.220  18.032  68.642  1.00  0.00    -0.276 A  
HETATM    8  H   UNL     1      -5.225  16.028  70.393  1.00  0.00     0.000 HD 
HETATM    9  C   UNL     1      -6.715  16.886  69.241  1.00  0.00    -0.238 A  
HETATM   10  C   UNL     1      -8.546  15.480  68.368  1.00  0.00    -0.168 A  
HETATM   11  O   UNL     1      -5.570  16.812  69.983  1.00  0.00    -0.193 OA 
HETATM   12  C   UNL     1      -7.364  15.659  69.110  1.00  0.00    -0.187 A  
BRANCH   7  13
HETATM   13  C   UNL     1      -6.561  19.424  68.709  1.00  0.00    -0.322 C  
HETATM   14  C   UNL     1      -5.143  19.380  68.103  1.00  0.00    -0.175 C  
HETATM   15  C   UNL     1      -7.435  20.470  67.984  1.00  0.00    -0.166 C  
HETATM   16  C   UNL     1      -6.390  19.962  70.158  1.00  0.00    -0.360 C  
ENDBRANCH   7  13
BRANCH  10  17
HETATM   17  N   UNL     1      -9.111  14.177  68.316  1.00  0.00    -0.186 N  
HETATM   18  C   UNL     1     -10.271  13.731  68.952  1.00  0.00    -0.102 C  
HETATM   19  H   UNL     1      -8.613  13.489  67.749  1.00  0.00     0.000 HD 
HETATM   20  O   UNL     1     -10.999  14.368  69.709  1.00  0.00    -0.211 OA 
BRANCH  18  21
HETATM   21  C   UNL     1     -10.708  12.362  68.577  1.00  0.00    -0.262 C  
HETATM   22  C   UNL     1     -10.414  11.837  67.368  1.00  0.00    -0.211 C  
HETATM   23  N   UNL     1     -10.623  10.518  67.004  1.00  0.00    -0.253 NA 
HETATM   24  C   UNL     1     -10.792   9.566  68.027  1.00  0.00    -0.168 A  
HETATM   25  C   UNL     1     -10.646   8.200  67.817  1.00  0.00    -0.233 A  
HETATM   26  C   UNL     1     -10.770   7.306  68.890  1.00  0.00    -0.173 A  
HETATM   27  C   UNL     1     -11.069   7.765  70.175  1.00  0.00    -0.216 A  
HETATM   28  C   UNL     1     -11.282   9.118  70.388  1.00  0.00    -0.279 A  
HETATM   29  C   UNL     1     -11.156   9.996  69.312  1.00  0.00    -0.248 A  
HETATM   30  C   UNL     1     -11.363  11.434  69.519  1.00  0.00    -0.289 C  
HETATM   31  O   UNL     1     -12.027  11.835  70.467  1.00  0.00    -0.356 OA 
ENDBRANCH  18  21
ENDBRANCH  10  17
ENDBRANCH   2   5
TORSDOF 4
ENDMDL
MODEL      105
REMARK 921   NORMALIZED FREE ENERGY PREDICTED BY IDOCK:   -4.28 KCAL/MOL
REMARK 922        TOTAL FREE ENERGY PREDICTED BY IDOCK:   -6.46 KCAL/MOL
REMARK 923 INTER-LIGAND FREE ENERGY PREDICTED BY IDOCK:   -5.26 KCAL/MOL
REMARK 924 INTRA-LIGAND FREE ENERGY PREDICTED BY IDOCK:   -1.20 KCAL/MOL
REMARK 927      BINDING AFFINITY PREDICTED BY RF-SCORE:    0.00 PKD
ROOT
HETATM    1  C   UNL     1     -11.041   6.676  67.132  1.00  0.00    -0.427 C  
HETATM    2  C   UNL     1      -9.511   6.450  67.122  1.00  0.00    -0.145 C  
HETATM    3  C   UNL     1      -9.256   5.116  66.347  1.00  0.00    -0.141 C  
HETATM    4  C   UNL     1      -8.857   7.513  66.226  1.00  0.00    -0.184 C  
ENDROOT
BRANCH   2   5
HETATM    5  C   UNL     1      -9.060   6.430  68.619  1.00  0.00    -0.127 A  
HETATM    6  C   UNL     1      -8.748   5.136  69.140  1.00  0.00    -0.103 A  
HETATM    7  C   UNL     1      -8.456   4.824  70.487  1.00  0.00    -0.106 A  
HETATM    8  H   UNL     1      -8.254   6.594  73.297  1.00  0.00     0.000 HD 
HETATM    9  C   UNL     1      -8.470   5.907  71.356  1.00  0.00    -0.128 A  
HETATM   10  C   UNL     1      -9.036   7.497  69.554  1.00  0.00    -0.143 A  
HETATM   11  O   UNL     1      -8.245   5.853  72.702  1.00  0.00    -0.112 OA 
HETATM   12  C   UNL     1      -8.744   7.195  70.897  1.00  0.00    -0.146 A  
BRANCH   7  13
HETATM   13  C   UNL     1      -8.190   3.365  70.904  1.00  0.00    -0.081 C  
HETATM   14  C   UNL     1      -6.813   3.241  71.589  1.00  0.00    -0.030 C  
HETATM   15  C   UNL     1      -9.313   2.857  71.835  1.00  0.00    -0.190 C  
HETATM   16  C   UNL     1      -8.164   2.371  69.709  1.00  0.00    -0.063 C  
ENDBRANCH   7  13
BRANCH  10  17
HETATM   17  N   UNL     1      -9.295   8.853  69.215  1.00  0.00    -0.148 N  
HETATM   18  C   UNL     1      -8.364   9.825  68.843  1.00  0.00    -0.120 C  
HETATM   19  H   UNL     1     -10.271   9.149  69.247  1.00  0.00     0.000 HD 
HETATM   20  O   UNL     1      -7.143   9.703  68.778  1.00  0.00    -0.066 OA 
BRANCH  18  21
HETATM   21  C   UNL     1      -8.947  11.110  68.381  1.00  0.00    -0.165 C  
HETATM   22  C   UNL     1      -8.317  12.285  68.599  1.00  0.00    -0.002 C  
HETATM   23  N   UNL     1      -8.694  13.500  68.053  1.00  0.00    -0.172 NA 
HETATM   24  C   UNL     1      -9.529  13.488  66.919  1.00  0.00    -0.258 A  
HETATM   25  C   UNL     1      -9.677  14.585  66.080  1.00  0.00    -0.331 A  
HETATM   26  C   UNL     1     -10.478  14.491  64.934  1.00  0.00    -0.435 A  
HETATM   27  C   UNL     1     -11.162  13.311  64.630  1.00  0.00    -0.370 A  
HETATM   28  C   UNL     1     -11.076  12.228  65.492  1.00  0.00    -0.348 A  
HETATM   29  C   UNL     1     -10.275  12.335  66.629  1.00  0.00    -0.235 A  
HETATM   30  C   UNL     1     -10.161  11.196  67.547  1.00  0.00    -0.183 C  
HETATM   31  O   UNL     1     -11.031  10.336  67.580  1.00  0.00    -0.297 OA 
ENDBRANCH  18  21
ENDBRANCH  10  17
ENDBRANCH   2   5
TORSDOF 4
ENDMDL
MODEL      106
REMARK 921   NORMALIZED FREE ENERGY PREDICTED BY IDOCK:   -4.27 KCAL/MOL
REMARK 922        TOTAL FREE ENERGY PREDICTED BY IDOCK:   -6.44 KCAL/MOL
REMARK 923 INTER-LIGAND FREE ENERGY PREDICTED BY IDOCK:   -5.99 KCAL/MOL
REMARK 924 INTRA-LIGAND FREE ENERGY PREDICTED BY IDOCK:   -0.44 KCAL/MOL
REMARK 927      BINDING AFFINITY PREDICTED BY RF-SCORE:    0.00 PKD
ROOT
HETATM    1  C   UNL     1      -9.954  15.070  68.165  1.00  0.00    -0.220 C  
HETATM    2  C   UNL     1      -9.586  13.570  68.097  1.00  0.00    -0.215 C  
HETATM    3  C   UNL     1      -9.642  13.158  66.590  1.00  0.00    -0.260 C  
HETATM    4  C   UNL     1      -8.102  13.405  68.456  1.00  0.00    -0.105 C  
ENDROOT
BRANCH   2   5
HETATM    5  C   UNL     1     -10.610  12.825  69.014  1.00  0.00    -0.082 A  
HETATM    6  C   UNL     1     -11.428  13.673  69.823  1.00  0.00    -0.256 A  
HETATM    7  C   UNL     1     -12.324  13.257  70.833  1.00  0.00    -0.413 A  
HETATM    8  H   UNL     1     -13.226  10.305  72.075  1.00  0.00     0.000 HD 
HETATM    9  C   UNL     1     -12.401  11.883  71.019  1.00  0.00    -0.259 A  
HETATM   10  C   UNL     1     -10.752  11.430  69.239  1.00  0.00    -0.151 A  
HETATM   11  O   UNL     1     -13.174  11.245  71.948  1.00  0.00    -0.482 OA 
HETATM   12  C   UNL     1     -11.644  11.007  70.241  1.00  0.00    -0.414 A  
BRANCH   7  13
HETATM   13  C   UNL     1     -13.101  14.301  71.658  1.00  0.00    -0.417 C  
HETATM   14  C   UNL     1     -14.406  13.692  72.210  1.00  0.00    -0.411 C  
HETATM   15  C   UNL     1     -12.221  14.843  72.806  1.00  0.00    -0.397 C  
HETATM   16  C   UNL     1     -13.526  15.551  70.838  1.00  0.00    -0.349 C  
ENDBRANCH   7  13
BRANCH  10  17
HETATM   17  N   UNL     1     -10.041  10.436  68.514  1.00  0.00    -0.164 N  
HETATM   18  C   UNL     1     -10.352   9.923  67.253  1.00  0.00    -0.245 C  
HETATM   19  H   UNL     1      -9.209  10.053  68.966  1.00  0.00     0.000 HD 
HETATM   20  O   UNL     1     -11.320  10.204  66.551  1.00  0.00     0.199 OA 
BRANCH  18  21
HETATM   21  C   UNL     1      -9.331   9.013  66.674  1.00  0.00    -0.229 C  
HETATM   22  C   UNL     1      -9.384   7.679  66.875  1.00  0.00    -0.161 C  
HETATM   23  N   UNL     1      -8.586   6.748  66.233  1.00  0.00    -0.133 NA 
HETATM   24  C   UNL     1      -7.948   7.131  65.038  1.00  0.00    -0.129 A  
HETATM   25  C   UNL     1      -7.435   6.214  64.129  1.00  0.00    -0.081 A  
HETATM   26  C   UNL     1      -6.864   6.658  62.929  1.00  0.00    -0.043 A  
HETATM   27  C   UNL     1      -6.773   8.022  62.638  1.00  0.00    -0.086 A  
HETATM   28  C   UNL     1      -7.221   8.952  63.563  1.00  0.00    -0.093 A  
HETATM   29  C   UNL     1      -7.787   8.496  64.754  1.00  0.00    -0.125 A  
HETATM   30  C   UNL     1      -8.281   9.464  65.741  1.00  0.00    -0.116 C  
HETATM   31  O   UNL     1      -7.853  10.611  65.751  1.00  0.00    -0.156 OA 
ENDBRANCH  18  21
ENDBRANCH  10  17
ENDBRANCH   2   5
TORSDOF 4
ENDMDL
MODEL      107
REMARK 921   NORMALIZED FREE ENERGY PREDICTED BY IDOCK:   -4.27 KCAL/MOL
REMARK 922        TOTAL FREE ENERGY PREDICTED BY IDOCK:   -6.43 KCAL/MOL
REMARK 923 INTER-LIGAND FREE ENERGY PREDICTED BY IDOCK:   -6.39 KCAL/MOL
REMARK 924 INTRA-LIGAND FREE ENERGY PREDICTED BY IDOCK:   -0.04 KCAL/MOL
REMARK 927      BINDING AFFINITY PREDICTED BY RF-SCORE:    0.00 PKD
ROOT
HETATM    1  C   UNL     1      -8.009   9.357  66.761  1.00  0.00    -0.108 C  
HETATM    2  C   UNL     1      -8.616   8.851  68.091  1.00  0.00    -0.130 C  
HETATM    3  C   UNL     1      -9.098   7.385  67.839  1.00  0.00    -0.129 C  
HETATM    4  C   UNL     1      -7.489   8.684  69.120  1.00  0.00    -0.083 C  
ENDROOT
BRANCH   2   5
HETATM    5  C   UNL     1      -9.755   9.856  68.463  1.00  0.00    -0.163 A  
HETATM    6  C   UNL     1      -9.887  10.975  67.585  1.00  0.00    -0.192 A  
HETATM    7  C   UNL     1     -10.733  12.091  67.772  1.00  0.00    -0.243 A  
HETATM    8  H   UNL     1     -12.902  13.002  70.124  1.00  0.00     0.000 HD 
HETATM    9  C   UNL     1     -11.505  12.056  68.926  1.00  0.00    -0.301 A  
HETATM   10  C   UNL     1     -10.587   9.870  69.613  1.00  0.00    -0.250 A  
HETATM   11  O   UNL     1     -12.374  13.026  69.335  1.00  0.00    -0.166 OA 
HETATM   12  C   UNL     1     -11.434  10.977  69.806  1.00  0.00    -0.387 A  
BRANCH   7  13
HETATM   13  C   UNL     1     -10.724  13.250  66.755  1.00  0.00    -0.279 C  
HETATM   14  C   UNL     1      -9.486  14.146  66.968  1.00  0.00    -0.256 C  
HETATM   15  C   UNL     1     -10.762  12.700  65.312  1.00  0.00    -0.318 C  
HETATM   16  C   UNL     1     -11.957  14.189  66.872  1.00  0.00    -0.479 C  
ENDBRANCH   7  13
BRANCH  10  17
HETATM   17  N   UNL     1     -10.612   8.832  70.585  1.00  0.00    -0.206 N  
HETATM   18  C   UNL     1     -11.523   8.673  71.630  1.00  0.00    -0.305 C  
HETATM   19  H   UNL     1      -9.881   8.124  70.509  1.00  0.00     0.000 HD 
HETATM   20  O   UNL     1     -12.450   9.421  71.932  1.00  0.00    -0.360 OA 
BRANCH  18  21
HETATM   21  C   UNL     1     -11.400   7.400  72.384  1.00  0.00    -0.341 C  
HETATM   22  C   UNL     1     -12.280   6.391  72.206  1.00  0.00    -0.160 C  
HETATM   23  N   UNL     1     -12.141   5.116  72.727  1.00  0.00    -0.013 NA 
HETATM   24  C   UNL     1     -10.860   4.705  73.143  1.00  0.00    -0.264 A  
HETATM   25  C   UNL     1     -10.521   3.371  73.334  1.00  0.00    -0.261 A  
HETATM   26  C   UNL     1      -9.212   3.023  73.692  1.00  0.00    -0.092 A  
HETATM   27  C   UNL     1      -8.237   4.003  73.891  1.00  0.00    -0.092 A  
HETATM   28  C   UNL     1      -8.575   5.342  73.769  1.00  0.00    -0.113 A  
HETATM   29  C   UNL     1      -9.882   5.675  73.412  1.00  0.00    -0.175 A  
HETATM   30  C   UNL     1     -10.257   7.086  73.263  1.00  0.00    -0.275 C  
HETATM   31  O   UNL     1      -9.612   7.962  73.824  1.00  0.00    -0.248 OA 
ENDBRANCH  18  21
ENDBRANCH  10  17
ENDBRANCH   2   5
TORSDOF 4
ENDMDL
MODEL      108
REMARK 921   NORMALIZED FREE ENERGY PREDICTED BY IDOCK:   -4.21 KCAL/MOL
REMARK 922        TOTAL FREE ENERGY PREDICTED BY IDOCK:   -6.37 KCAL/MOL
REMARK 923 INTER-LIGAND FREE ENERGY PREDICTED BY IDOCK:   -5.18 KCAL/MOL
REMARK 924 INTRA-LIGAND FREE ENERGY PREDICTED BY IDOCK:   -1.19 KCAL/MOL
REMARK 927      BINDING AFFINITY PREDICTED BY RF-SCORE:    0.00 PKD
ROOT
HETATM    1  C   UNL     1     -12.754  10.380  71.630  1.00  0.00    -0.560 C  
HETATM    2  C   UNL     1     -11.712   9.389  71.062  1.00  0.00    -0.395 C  
HETATM    3  C   UNL     1     -10.899   8.839  72.279  1.00  0.00    -0.328 C  
HETATM    4  C   UNL     1     -12.444   8.147  70.533  1.00  0.00     0.400 C  
ENDROOT
BRANCH   2   5
HETATM    5  C   UNL     1     -10.864  10.191  70.022  1.00  0.00    -0.361 A  
HETATM    6  C   UNL     1     -11.291  11.537  69.801  1.00  0.00    -0.303 A  
HETATM    7  C   UNL     1     -10.793  12.423  68.820  1.00  0.00    -0.263 A  
HETATM    8  H   UNL     1      -8.472  12.206  66.447  1.00  0.00     0.000 HD 
HETATM    9  C   UNL     1      -9.782  11.906  68.021  1.00  0.00    -0.191 A  
HETATM   10  C   UNL     1      -9.813   9.730  69.186  1.00  0.00    -0.188 A  
HETATM   11  O   UNL     1      -9.163  12.559  66.993  1.00  0.00    -0.200 OA 
HETATM   12  C   UNL     1      -9.310  10.607  68.208  1.00  0.00    -0.156 A  
BRANCH   7  13
HETATM   13  C   UNL     1     -11.396  13.834  68.672  1.00  0.00    -0.321 C  
HETATM   14  C   UNL     1     -12.120  13.973  67.317  1.00  0.00    -0.405 C  
HETATM   15  C   UNL     1     -12.359  14.134  69.842  1.00  0.00    -0.382 C  
HETATM   16  C   UNL     1     -10.336  14.970  68.708  1.00  0.00    -0.240 C  
ENDBRANCH   7  13
BRANCH  10  17
HETATM   17  N   UNL     1      -9.242   8.431  69.276  1.00  0.00    -0.154 N  
HETATM   18  C   UNL     1      -8.187   8.026  70.096  1.00  0.00    -0.120 C  
HETATM   19  H   UNL     1      -9.649   7.715  68.675  1.00  0.00     0.000 HD 
HETATM   20  O   UNL     1      -7.527   8.723  70.862  1.00  0.00    -0.069 OA 
BRANCH  18  21
HETATM   21  C   UNL     1      -7.918   6.565  70.099  1.00  0.00    -0.112 C  
HETATM   22  C   UNL     1      -8.158   5.809  71.191  1.00  0.00    -0.117 C  
HETATM   23  N   UNL     1      -8.107   4.426  71.225  1.00  0.00    -0.081 NA 
HETATM   24  C   UNL     1      -8.186   3.729  70.004  1.00  0.00    -0.056 A  
HETATM   25  C   UNL     1      -8.507   2.379  69.926  1.00  0.00    -0.088 A  
HETATM   26  C   UNL     1      -8.628   1.756  68.677  1.00  0.00    -0.093 A  
HETATM   27  C   UNL     1      -8.400   2.466  67.495  1.00  0.00    -0.084 A  
HETATM   28  C   UNL     1      -8.015   3.796  67.558  1.00  0.00    -0.089 A  
HETATM   29  C   UNL     1      -7.899   4.404  68.808  1.00  0.00    -0.070 A  
HETATM   30  C   UNL     1      -7.507   5.816  68.896  1.00  0.00    -0.085 C  
HETATM   31  O   UNL     1      -6.894   6.347  67.979  1.00  0.00    -0.065 OA 
ENDBRANCH  18  21
ENDBRANCH  10  17
ENDBRANCH   2   5
TORSDOF 4
ENDMDL
MODEL      109
REMARK 921   NORMALIZED FREE ENERGY PREDICTED BY IDOCK:   -4.21 KCAL/MOL
REMARK 922        TOTAL FREE ENERGY PREDICTED BY IDOCK:   -6.36 KCAL/MOL
REMARK 923 INTER-LIGAND FREE ENERGY PREDICTED BY IDOCK:   -5.58 KCAL/MOL
REMARK 924 INTRA-LIGAND FREE ENERGY PREDICTED BY IDOCK:   -0.78 KCAL/MOL
REMARK 927      BINDING AFFINITY PREDICTED BY RF-SCORE:    0.00 PKD
ROOT
HETATM    1  C   UNL     1      -5.576   6.860  65.652  1.00  0.00    -0.031 C  
HETATM    2  C   UNL     1      -6.533   7.963  66.161  1.00  0.00    -0.046 C  
HETATM    3  C   UNL     1      -5.644   9.052  66.844  1.00  0.00    -0.041 C  
HETATM    4  C   UNL     1      -7.132   8.698  64.953  1.00  0.00    -0.080 C  
ENDROOT
BRANCH   2   5
HETATM    5  C   UNL     1      -7.548   7.256  67.118  1.00  0.00    -0.103 A  
HETATM    6  C   UNL     1      -7.259   5.885  67.401  1.00  0.00    -0.076 A  
HETATM    7  C   UNL     1      -8.084   4.986  68.114  1.00  0.00    -0.086 A  
HETATM    8  H   UNL     1     -11.057   5.220  69.587  1.00  0.00     0.000 HD 
HETATM    9  C   UNL     1      -9.275   5.526  68.580  1.00  0.00    -0.118 A  
HETATM   10  C   UNL     1      -8.771   7.752  67.640  1.00  0.00    -0.126 A  
HETATM   11  O   UNL     1     -10.242   4.851  69.268  1.00  0.00    -0.207 OA 
HETATM   12  C   UNL     1      -9.597   6.864  68.352  1.00  0.00    -0.126 A  
BRANCH   7  13
HETATM   13  C   UNL     1      -7.655   3.517  68.293  1.00  0.00    -0.057 C  
HETATM   14  C   UNL     1      -8.502   2.593  67.394  1.00  0.00    -0.107 C  
HETATM   15  C   UNL     1      -6.150   3.353  67.984  1.00  0.00    -0.031 C  
HETATM   16  C   UNL     1      -7.838   2.988  69.743  1.00  0.00    -0.048 C  
ENDBRANCH   7  13
BRANCH  10  17
HETATM   17  N   UNL     1      -9.213   9.094  67.481  1.00  0.00    -0.128 N  
HETATM   18  C   UNL     1      -9.575   9.991  68.488  1.00  0.00    -0.151 C  
HETATM   19  H   UNL     1      -9.272   9.441  66.523  1.00  0.00     0.000 HD 
HETATM   20  O   UNL     1      -9.619   9.777  69.696  1.00  0.00    -0.193 OA 
BRANCH  18  21
HETATM   21  C   UNL     1      -9.833  11.380  68.030  1.00  0.00    -0.191 C  
HETATM   22  C   UNL     1      -8.824  12.258  67.845  1.00  0.00    -0.178 C  
HETATM   23  N   UNL     1      -8.955  13.503  67.255  1.00  0.00    -0.212 NA 
HETATM   24  C   UNL     1     -10.091  13.745  66.459  1.00  0.00    -0.286 A  
HETATM   25  C   UNL     1     -10.161  14.787  65.542  1.00  0.00    -0.409 A  
HETATM   26  C   UNL     1     -11.298  14.939  64.737  1.00  0.00    -0.400 A  
HETATM   27  C   UNL     1     -12.387  14.072  64.860  1.00  0.00    -0.447 A  
HETATM   28  C   UNL     1     -12.359  13.068  65.816  1.00  0.00    -0.477 A  
HETATM   29  C   UNL     1     -11.221  12.927  66.610  1.00  0.00    -0.342 A  
HETATM   30  C   UNL     1     -11.166  11.861  67.618  1.00  0.00    -0.276 C  
HETATM   31  O   UNL     1     -12.197  11.374  68.062  1.00  0.00    -0.607 OA 
ENDBRANCH  18  21
ENDBRANCH  10  17
ENDBRANCH   2   5
TORSDOF 4
ENDMDL
MODEL      110
REMARK 921   NORMALIZED FREE ENERGY PREDICTED BY IDOCK:   -4.19 KCAL/MOL
REMARK 922        TOTAL FREE ENERGY PREDICTED BY IDOCK:   -6.34 KCAL/MOL
REMARK 923 INTER-LIGAND FREE ENERGY PREDICTED BY IDOCK:   -5.56 KCAL/MOL
REMARK 924 INTRA-LIGAND FREE ENERGY PREDICTED BY IDOCK:   -0.79 KCAL/MOL
REMARK 927      BINDING AFFINITY PREDICTED BY RF-SCORE:    0.00 PKD
ROOT
HETATM    1  C   UNL     1      -6.719  14.094  70.127  1.00  0.00     0.038 C  
HETATM    2  C   UNL     1      -6.348  14.852  68.830  1.00  0.00    -0.087 C  
HETATM    3  C   UNL     1      -5.211  15.858  69.205  1.00  0.00    -0.105 C  
HETATM    4  C   UNL     1      -5.657  13.877  67.866  1.00  0.00    -0.103 C  
ENDROOT
BRANCH   2   5
HETATM    5  C   UNL     1      -7.666  15.519  68.319  1.00  0.00    -0.115 A  
HETATM    6  C   UNL     1      -7.666  16.948  68.330  1.00  0.00    -0.219 A  
HETATM    7  C   UNL     1      -8.769  17.788  68.056  1.00  0.00    -0.251 A  
HETATM    8  H   UNL     1     -11.951  17.262  67.243  1.00  0.00     0.000 HD 
HETATM    9  C   UNL     1      -9.946  17.124  67.737  1.00  0.00    -0.290 A  
HETATM   10  C   UNL     1      -8.895  14.902  67.964  1.00  0.00    -0.167 A  
HETATM   11  O   UNL     1     -11.146  17.716  67.461  1.00  0.00    -0.182 OA 
HETATM   12  C   UNL     1      -9.997  15.732  67.688  1.00  0.00    -0.239 A  
BRANCH   7  13
HETATM   13  C   UNL     1      -8.622  19.318  68.160  1.00  0.00    -0.363 C  
HETATM   14  C   UNL     1      -8.487  19.945  66.757  1.00  0.00    -0.377 C  
HETATM   15  C   UNL     1      -9.823  19.925  68.918  1.00  0.00    -0.391 C  
HETATM   16  C   UNL     1      -7.363  19.770  68.953  1.00  0.00    -0.327 C  
ENDBRANCH   7  13
BRANCH  10  17
HETATM   17  N   UNL     1      -9.078  13.496  67.876  1.00  0.00    -0.194 N  
HETATM   18  C   UNL     1      -9.555  12.771  66.782  1.00  0.00    -0.244 C  
HETATM   19  H   UNL     1      -8.833  12.954  68.705  1.00  0.00     0.000 HD 
HETATM   20  O   UNL     1      -9.944  13.216  65.705  1.00  0.00    -0.281 OA 
BRANCH  18  21
HETATM   21  C   UNL     1      -9.478  11.295  66.923  1.00  0.00    -0.193 C  
HETATM   22  C   UNL     1      -8.785  10.540  66.043  1.00  0.00    -0.164 C  
HETATM   23  N   UNL     1      -8.514   9.192  66.196  1.00  0.00    -0.125 NA 
HETATM   24  C   UNL     1      -8.615   8.636  67.486  1.00  0.00    -0.135 A  
HETATM   25  C   UNL     1      -8.033   7.423  67.832  1.00  0.00    -0.119 A  
HETATM   26  C   UNL     1      -8.121   6.952  69.150  1.00  0.00    -0.121 A  
HETATM   27  C   UNL     1      -8.815   7.672  70.125  1.00  0.00    -0.146 A  
HETATM   28  C   UNL     1      -9.457   8.852  69.780  1.00  0.00    -0.174 A  
HETATM   29  C   UNL     1      -9.361   9.309  68.466  1.00  0.00    -0.143 A  
HETATM   30  C   UNL     1     -10.021  10.563  68.083  1.00  0.00    -0.153 C  
HETATM   31  O   UNL     1     -10.964  10.992  68.736  1.00  0.00    -0.188 OA 
ENDBRANCH  18  21
ENDBRANCH  10  17
ENDBRANCH   2   5
TORSDOF 4
ENDMDL
MODEL      111
REMARK 921   NORMALIZED FREE ENERGY PREDICTED BY IDOCK:   -4.19 KCAL/MOL
REMARK 922        TOTAL FREE ENERGY PREDICTED BY IDOCK:   -6.34 KCAL/MOL
REMARK 923 INTER-LIGAND FREE ENERGY PREDICTED BY IDOCK:   -5.24 KCAL/MOL
REMARK 924 INTRA-LIGAND FREE ENERGY PREDICTED BY IDOCK:   -1.11 KCAL/MOL
REMARK 927      BINDING AFFINITY PREDICTED BY RF-SCORE:    0.00 PKD
ROOT
HETATM    1  C   UNL     1      -7.774  11.547  68.560  1.00  0.00    -0.134 C  
HETATM    2  C   UNL     1      -7.864  10.334  67.604  1.00  0.00    -0.098 C  
HETATM    3  C   UNL     1      -6.405  10.012  67.145  1.00  0.00    -0.067 C  
HETATM    4  C   UNL     1      -8.266   9.092  68.413  1.00  0.00    -0.115 C  
ENDROOT
BRANCH   2   5
HETATM    5  C   UNL     1      -8.832  10.755  66.450  1.00  0.00    -0.174 A  
HETATM    6  C   UNL     1      -9.309  12.100  66.520  1.00  0.00    -0.229 A  
HETATM    7  C   UNL     1     -10.294  12.683  65.692  1.00  0.00    -0.293 A  
HETATM    8  H   UNL     1     -12.151  11.591  63.158  1.00  0.00     0.000 HD 
HETATM    9  C   UNL     1     -10.817  11.841  64.720  1.00  0.00    -0.302 A  
HETATM   10  C   UNL     1      -9.390   9.953  65.421  1.00  0.00    -0.239 A  
HETATM   11  O   UNL     1     -11.794  12.167  63.823  1.00  0.00    -0.421 OA 
HETATM   12  C   UNL     1     -10.370  10.526  64.591  1.00  0.00    -0.290 A  
BRANCH   7  13
HETATM   13  C   UNL     1     -10.741  14.140  65.927  1.00  0.00    -0.298 C  
HETATM   14  C   UNL     1     -10.136  14.686  67.237  1.00  0.00    -0.236 C  
HETATM   15  C   UNL     1     -10.343  15.026  64.727  1.00  0.00    -0.201 C  
HETATM   16  C   UNL     1     -12.281  14.302  66.067  1.00  0.00    -0.422 C  
ENDBRANCH   7  13
BRANCH  10  17
HETATM   17  N   UNL     1      -9.020   8.601  65.183  1.00  0.00    -0.405 N  
HETATM   18  C   UNL     1      -7.937   8.140  64.432  1.00  0.00    -0.145 C  
HETATM   19  H   UNL     1      -9.613   7.888  65.609  1.00  0.00     0.000 HD 
HETATM   20  O   UNL     1      -7.125   8.812  63.803  1.00  0.00    -0.091 OA 
BRANCH  18  21
HETATM   21  C   UNL     1      -7.703   6.674  64.500  1.00  0.00    -0.112 C  
HETATM   22  C   UNL     1      -7.093   6.109  65.564  1.00  0.00    -0.069 C  
HETATM   23  N   UNL     1      -6.995   4.747  65.791  1.00  0.00    -0.062 NA 
HETATM   24  C   UNL     1      -7.884   3.895  65.109  1.00  0.00    -0.086 A  
HETATM   25  C   UNL     1      -8.132   2.587  65.509  1.00  0.00    -0.084 A  
HETATM   26  C   UNL     1      -9.073   1.809  64.822  1.00  0.00    -0.126 A  
HETATM   27  C   UNL     1      -9.754   2.316  63.713  1.00  0.00    -0.131 A  
HETATM   28  C   UNL     1      -9.471   3.597  63.262  1.00  0.00    -0.118 A  
HETATM   29  C   UNL     1      -8.532   4.361  63.955  1.00  0.00    -0.117 A  
HETATM   30  C   UNL     1      -8.228   5.723  63.501  1.00  0.00    -0.072 C  
HETATM   31  O   UNL     1      -8.444   6.054  62.342  1.00  0.00    -0.099 OA 
ENDBRANCH  18  21
ENDBRANCH  10  17
ENDBRANCH   2   5
TORSDOF 4
ENDMDL
MODEL      112
REMARK 921   NORMALIZED FREE ENERGY PREDICTED BY IDOCK:   -4.16 KCAL/MOL
REMARK 922        TOTAL FREE ENERGY PREDICTED BY IDOCK:   -6.31 KCAL/MOL
REMARK 923 INTER-LIGAND FREE ENERGY PREDICTED BY IDOCK:   -5.87 KCAL/MOL
REMARK 924 INTRA-LIGAND FREE ENERGY PREDICTED BY IDOCK:   -0.44 KCAL/MOL
REMARK 927      BINDING AFFINITY PREDICTED BY RF-SCORE:    0.00 PKD
ROOT
HETATM    1  C   UNL     1      -8.971  10.587  69.523  1.00  0.00    -0.054 C  
HETATM    2  C   UNL     1     -10.411  10.701  68.972  1.00  0.00    -0.237 C  
HETATM    3  C   UNL     1     -11.212   9.487  69.546  1.00  0.00    -0.105 C  
HETATM    4  C   UNL     1     -11.095  11.916  69.616  1.00  0.00    -0.106 C  
ENDROOT
BRANCH   2   5
HETATM    5  C   UNL     1     -10.285  10.719  67.414  1.00  0.00    -0.241 A  
HETATM    6  C   UNL     1     -10.799  11.891  66.778  1.00  0.00    -0.307 A  
HETATM    7  C   UNL     1     -10.937  12.097  65.387  1.00  0.00    -0.346 A  
HETATM    8  H   UNL     1     -10.271  10.273  62.685  1.00  0.00     0.000 HD 
HETATM    9  C   UNL     1     -10.508  11.041  64.592  1.00  0.00    -0.329 A  
HETATM   10  C   UNL     1      -9.845   9.686  66.546  1.00  0.00    -0.235 A  
HETATM   11  O   UNL     1     -10.564  10.995  63.228  1.00  0.00    -0.312 OA 
HETATM   12  C   UNL     1      -9.976   9.884  65.159  1.00  0.00    -0.278 A  
BRANCH   7  13
HETATM   13  C   UNL     1     -11.561  13.401  64.854  1.00  0.00    -0.354 C  
HETATM   14  C   UNL     1     -10.589  14.584  65.048  1.00  0.00    -0.458 C  
HETATM   15  C   UNL     1     -11.946  13.247  63.367  1.00  0.00    -0.491 C  
HETATM   16  C   UNL     1     -12.874  13.804  65.581  1.00  0.00    -0.456 C  
ENDBRANCH   7  13
BRANCH  10  17
HETATM   17  N   UNL     1      -9.282   8.460  66.996  1.00  0.00    -0.145 N  
HETATM   18  C   UNL     1      -9.933   7.234  67.143  1.00  0.00    -0.215 C  
HETATM   19  H   UNL     1      -8.291   8.479  67.238  1.00  0.00     0.000 HD 
HETATM   20  O   UNL     1     -11.121   6.992  66.951  1.00  0.00    -0.359 OA 
BRANCH  18  21
HETATM   21  C   UNL     1      -9.047   6.087  67.471  1.00  0.00    -0.109 C  
HETATM   22  C   UNL     1      -9.263   5.324  68.564  1.00  0.00    -0.113 C  
HETATM   23  N   UNL     1      -8.604   4.140  68.847  1.00  0.00    -0.082 NA 
HETATM   24  C   UNL     1      -7.951   3.475  67.792  1.00  0.00    -0.080 A  
HETATM   25  C   UNL     1      -7.578   2.138  67.859  1.00  0.00    -0.055 A  
HETATM   26  C   UNL     1      -6.983   1.518  66.752  1.00  0.00    -0.038 A  
HETATM   27  C   UNL     1      -6.728   2.232  65.579  1.00  0.00    -0.035 A  
HETATM   28  C   UNL     1      -7.034   3.584  65.519  1.00  0.00    -0.058 A  
HETATM   29  C   UNL     1      -7.626   4.188  66.628  1.00  0.00    -0.089 A  
HETATM   30  C   UNL     1      -7.971   5.614  66.580  1.00  0.00    -0.101 C  
HETATM   31  O   UNL     1      -7.403   6.364  65.796  1.00  0.00    -0.076 OA 
ENDBRANCH  18  21
ENDBRANCH  10  17
ENDBRANCH   2   5
TORSDOF 4
ENDMDL
MODEL      113
REMARK 921   NORMALIZED FREE ENERGY PREDICTED BY IDOCK:   -4.13 KCAL/MOL
REMARK 922        TOTAL FREE ENERGY PREDICTED BY IDOCK:   -6.27 KCAL/MOL
REMARK 923 INTER-LIGAND FREE ENERGY PREDICTED BY IDOCK:   -5.29 KCAL/MOL
REMARK 924 INTRA-LIGAND FREE ENERGY PREDICTED BY IDOCK:   -0.98 KCAL/MOL
REMARK 927      BINDING AFFINITY PREDICTED BY RF-SCORE:    0.00 PKD
ROOT
HETATM    1  C   UNL     1     -10.258   9.233  70.536  1.00  0.00    -0.309 C  
HETATM    2  C   UNL     1      -9.031   8.349  70.860  1.00  0.00    -0.188 C  
HETATM    3  C   UNL     1      -7.805   9.310  70.998  1.00  0.00    -0.109 C  
HETATM    4  C   UNL     1      -9.193   7.773  72.275  1.00  0.00    -0.207 C  
ENDROOT
BRANCH   2   5
HETATM    5  C   UNL     1      -8.917   7.312  69.696  1.00  0.00    -0.141 A  
HETATM    6  C   UNL     1      -8.838   5.946  70.107  1.00  0.00    -0.144 A  
HETATM    7  C   UNL     1      -8.590   4.833  69.272  1.00  0.00    -0.098 A  
HETATM    8  H   UNL     1      -8.036   4.441  66.016  1.00  0.00     0.000 HD 
HETATM    9  C   UNL     1      -8.424   5.134  67.927  1.00  0.00    -0.104 A  
HETATM   10  C   UNL     1      -8.760   7.550  68.305  1.00  0.00    -0.123 A  
HETATM   11  O   UNL     1      -8.149   4.235  66.936  1.00  0.00    -0.100 OA 
HETATM   12  C   UNL     1      -8.514   6.447  67.467  1.00  0.00    -0.116 A  
BRANCH   7  13
HETATM   13  C   UNL     1      -8.482   3.419  69.877  1.00  0.00    -0.091 C  
HETATM   14  C   UNL     1      -9.274   2.406  69.025  1.00  0.00    -0.205 C  
HETATM   15  C   UNL     1      -7.002   2.996  69.998  1.00  0.00    -0.034 C  
HETATM   16  C   UNL     1      -9.060   3.313  71.316  1.00  0.00    -0.178 C  
ENDBRANCH   7  13
BRANCH  10  17
HETATM   17  N   UNL     1      -8.833   8.839  67.710  1.00  0.00    -0.135 N  
HETATM   18  C   UNL     1      -9.873   9.356  66.935  1.00  0.00    -0.201 C  
HETATM   19  H   UNL     1      -8.035   9.456  67.867  1.00  0.00     0.000 HD 
HETATM   20  O   UNL     1     -10.901   8.782  66.588  1.00  0.00    -0.079 OA 
BRANCH  18  21
HETATM   21  C   UNL     1      -9.744  10.795  66.590  1.00  0.00    -0.227 C  
HETATM   22  C   UNL     1     -10.148  11.268  65.391  1.00  0.00    -0.264 C  
HETATM   23  N   UNL     1     -10.231  12.608  65.055  1.00  0.00    -0.287 NA 
HETATM   24  C   UNL     1     -10.272  13.553  66.097  1.00  0.00    -0.302 A  
HETATM   25  C   UNL     1     -10.712  14.859  65.915  1.00  0.00    -0.329 A  
HETATM   26  C   UNL     1     -10.783  15.735  67.007  1.00  0.00    -0.306 A  
HETATM   27  C   UNL     1     -10.390  15.326  68.283  1.00  0.00    -0.234 A  
HETATM   28  C   UNL     1      -9.887  14.048  68.469  1.00  0.00    -0.225 A  
HETATM   29  C   UNL     1      -9.821  13.186  67.374  1.00  0.00    -0.226 A  
HETATM   30  C   UNL     1      -9.306  11.823  67.553  1.00  0.00    -0.174 C  
HETATM   31  O   UNL     1      -8.569  11.557  68.494  1.00  0.00    -0.152 OA 
ENDBRANCH  18  21
ENDBRANCH  10  17
ENDBRANCH   2   5
TORSDOF 4
ENDMDL
MODEL      114
REMARK 921   NORMALIZED FREE ENERGY PREDICTED BY IDOCK:   -4.13 KCAL/MOL
REMARK 922        TOTAL FREE ENERGY PREDICTED BY IDOCK:   -6.26 KCAL/MOL
REMARK 923 INTER-LIGAND FREE ENERGY PREDICTED BY IDOCK:   -5.26 KCAL/MOL
REMARK 924 INTRA-LIGAND FREE ENERGY PREDICTED BY IDOCK:   -1.00 KCAL/MOL
REMARK 927      BINDING AFFINITY PREDICTED BY RF-SCORE:    0.00 PKD
ROOT
HETATM    1  C   UNL     1      -6.586   9.641  67.461  1.00  0.00    -0.070 C  
HETATM    2  C   UNL     1      -6.967  10.773  68.444  1.00  0.00    -0.070 C  
HETATM    3  C   UNL     1      -6.306  10.420  69.817  1.00  0.00    -0.079 C  
HETATM    4  C   UNL     1      -6.246  12.061  68.022  1.00  0.00    -0.058 C  
ENDROOT
BRANCH   2   5
HETATM    5  C   UNL     1      -8.530  10.826  68.468  1.00  0.00    -0.143 A  
HETATM    6  C   UNL     1      -9.103  12.025  67.944  1.00  0.00    -0.183 A  
HETATM    7  C   UNL     1     -10.469  12.385  67.979  1.00  0.00    -0.227 A  
HETATM    8  H   UNL     1     -13.227  10.948  69.160  1.00  0.00     0.000 HD 
HETATM    9  C   UNL     1     -11.306  11.452  68.577  1.00  0.00    -0.271 A  
HETATM   10  C   UNL     1      -9.441   9.905  69.047  1.00  0.00    -0.183 A  
HETATM   11  O   UNL     1     -12.654  11.586  68.752  1.00  0.00    -0.183 OA 
HETATM   12  C   UNL     1     -10.804  10.255  69.084  1.00  0.00    -0.270 A  
BRANCH   7  13
HETATM   13  C   UNL     1     -10.927  13.744  67.415  1.00  0.00    -0.296 C  
HETATM   14  C   UNL     1      -9.732  14.509  66.809  1.00  0.00    -0.269 C  
HETATM   15  C   UNL     1     -12.039  13.543  66.362  1.00  0.00    -0.467 C  
HETATM   16  C   UNL     1     -11.540  14.688  68.487  1.00  0.00    -0.346 C  
ENDBRANCH   7  13
BRANCH  10  17
HETATM   17  N   UNL     1      -9.058   8.651  69.596  1.00  0.00    -0.147 N  
HETATM   18  C   UNL     1      -9.018   8.294  70.945  1.00  0.00    -0.151 C  
HETATM   19  H   UNL     1      -8.782   7.930  68.929  1.00  0.00     0.000 HD 
HETATM   20  O   UNL     1      -9.266   9.008  71.913  1.00  0.00    -0.353 OA 
BRANCH  18  21
HETATM   21  C   UNL     1      -8.740   6.859  71.209  1.00  0.00    -0.134 C  
HETATM   22  C   UNL     1      -9.042   6.292  72.396  1.00  0.00    -0.138 C  
HETATM   23  N   UNL     1      -8.984   4.935  72.665  1.00  0.00    -0.127 NA 
HETATM   24  C   UNL     1      -8.983   4.042  71.576  1.00  0.00    -0.114 A  
HETATM   25  C   UNL     1      -9.290   2.693  71.706  1.00  0.00    -0.185 A  
HETATM   26  C   UNL     1      -9.329   1.869  70.574  1.00  0.00    -0.181 A  
HETATM   27  C   UNL     1      -9.034   2.375  69.306  1.00  0.00    -0.167 A  
HETATM   28  C   UNL     1      -8.663   3.704  69.167  1.00  0.00    -0.137 A  
HETATM   29  C   UNL     1      -8.628   4.513  70.303  1.00  0.00    -0.104 A  
HETATM   30  C   UNL     1      -8.251   5.926  70.176  1.00  0.00    -0.118 C  
HETATM   31  O   UNL     1      -7.586   6.307  69.220  1.00  0.00    -0.094 OA 
ENDBRANCH  18  21
ENDBRANCH  10  17
ENDBRANCH   2   5
TORSDOF 4
ENDMDL
MODEL      115
REMARK 921   NORMALIZED FREE ENERGY PREDICTED BY IDOCK:   -4.07 KCAL/MOL
REMARK 922        TOTAL FREE ENERGY PREDICTED BY IDOCK:   -6.19 KCAL/MOL
REMARK 923 INTER-LIGAND FREE ENERGY PREDICTED BY IDOCK:   -5.98 KCAL/MOL
REMARK 924 INTRA-LIGAND FREE ENERGY PREDICTED BY IDOCK:   -0.21 KCAL/MOL
REMARK 927      BINDING AFFINITY PREDICTED BY RF-SCORE:    0.00 PKD
ROOT
HETATM    1  C   UNL     1      -5.290  15.554  67.258  1.00  0.00     0.240 C  
HETATM    2  C   UNL     1      -6.677  15.253  67.873  1.00  0.00    -0.167 C  
HETATM    3  C   UNL     1      -7.094  13.831  67.372  1.00  0.00    -0.093 C  
HETATM    4  C   UNL     1      -6.519  15.064  69.388  1.00  0.00    -0.135 C  
ENDROOT
BRANCH   2   5
HETATM    5  C   UNL     1      -7.623  16.409  67.411  1.00  0.00    -0.186 A  
HETATM    6  C   UNL     1      -6.959  17.567  66.899  1.00  0.00    -0.219 A  
HETATM    7  C   UNL     1      -7.566  18.794  66.551  1.00  0.00    -0.267 A  
HETATM    8  H   UNL     1     -10.686  19.947  66.599  1.00  0.00     0.000 HD 
HETATM    9  C   UNL     1      -8.943  18.837  66.723  1.00  0.00    -0.308 A  
HETATM   10  C   UNL     1      -9.032  16.511  67.543  1.00  0.00    -0.196 A  
HETATM   11  O   UNL     1      -9.744  19.917  66.481  1.00  0.00    -0.374 OA 
HETATM   12  C   UNL     1      -9.645  17.729  67.196  1.00  0.00    -0.276 A  
BRANCH   7  13
HETATM   13  C   UNL     1      -6.703  19.973  66.059  1.00  0.00    -0.261 C  
HETATM   14  C   UNL     1      -5.291  19.486  65.675  1.00  0.00    -0.174 C  
HETATM   15  C   UNL     1      -7.384  20.678  64.865  1.00  0.00     0.327 C  
HETATM   16  C   UNL     1      -6.497  21.081  67.130  1.00  0.00    -0.411 C  
ENDBRANCH   7  13
BRANCH  10  17
HETATM   17  N   UNL     1      -9.862  15.455  68.010  1.00  0.00    -0.215 N  
HETATM   18  C   UNL     1     -10.815  15.515  69.028  1.00  0.00    -0.249 C  
HETATM   19  H   UNL     1      -9.748  14.552  67.550  1.00  0.00     0.000 HD 
HETATM   20  O   UNL     1     -11.088  16.479  69.739  1.00  0.00    -0.337 OA 
BRANCH  18  21
HETATM   21  C   UNL     1     -11.649  14.296  69.182  1.00  0.00    -0.346 C  
HETATM   22  C   UNL     1     -11.489  13.229  68.371  1.00  0.00    -0.314 C  
HETATM   23  N   UNL     1     -12.092  11.996  68.554  1.00  0.00    -0.364 NA 
HETATM   24  C   UNL     1     -12.595  11.686  69.831  1.00  0.00     0.062 A  
HETATM   25  C   UNL     1     -12.882  10.387  70.234  1.00  0.00    -0.167 A  
HETATM   26  C   UNL     1     -13.325  10.138  71.540  1.00  0.00    -0.434 A  
HETATM   27  C   UNL     1     -13.514  11.184  72.447  1.00  0.00     0.208 A  
HETATM   28  C   UNL     1     -13.294  12.491  72.041  1.00  0.00    -0.528 A  
HETATM   29  C   UNL     1     -12.853  12.725  70.738  1.00  0.00    -0.109 A  
HETATM   30  C   UNL     1     -12.601  14.101  70.293  1.00  0.00    -0.306 C  
HETATM   31  O   UNL     1     -13.140  15.044  70.857  1.00  0.00    -0.380 OA 
ENDBRANCH  18  21
ENDBRANCH  10  17
ENDBRANCH   2   5
TORSDOF 4
ENDMDL
MODEL      116
REMARK 921   NORMALIZED FREE ENERGY PREDICTED BY IDOCK:   -4.06 KCAL/MOL
REMARK 922        TOTAL FREE ENERGY PREDICTED BY IDOCK:   -6.17 KCAL/MOL
REMARK 923 INTER-LIGAND FREE ENERGY PREDICTED BY IDOCK:   -6.01 KCAL/MOL
REMARK 924 INTRA-LIGAND FREE ENERGY PREDICTED BY IDOCK:   -0.16 KCAL/MOL
REMARK 927      BINDING AFFINITY PREDICTED BY RF-SCORE:    0.00 PKD
ROOT
HETATM    1  C   UNL     1     -10.057  10.260  69.840  1.00  0.00    -0.219 C  
HETATM    2  C   UNL     1     -10.332  11.220  68.658  1.00  0.00    -0.217 C  
HETATM    3  C   UNL     1     -11.824  11.006  68.241  1.00  0.00    -0.221 C  
HETATM    4  C   UNL     1     -10.311  12.665  69.177  1.00  0.00     0.156 C  
ENDROOT
BRANCH   2   5
HETATM    5  C   UNL     1      -9.288  10.863  67.550  1.00  0.00    -0.164 A  
HETATM    6  C   UNL     1      -8.956   9.476  67.455  1.00  0.00    -0.141 A  
HETATM    7  C   UNL     1      -7.946   8.911  66.644  1.00  0.00    -0.103 A  
HETATM    8  H   UNL     1      -5.721  10.141  64.499  1.00  0.00     0.000 HD 
HETATM    9  C   UNL     1      -7.239   9.821  65.869  1.00  0.00    -0.103 A  
HETATM   10  C   UNL     1      -8.543  11.737  66.717  1.00  0.00    -0.185 A  
HETATM   11  O   UNL     1      -6.205   9.519  65.029  1.00  0.00    -0.071 OA 
HETATM   12  C   UNL     1      -7.537  11.182  65.905  1.00  0.00     0.085 A  
BRANCH   7  13
HETATM   13  C   UNL     1      -7.673   7.395  66.690  1.00  0.00    -0.101 C  
HETATM   14  C   UNL     1      -7.799   6.780  65.281  1.00  0.00    -0.121 C  
HETATM   15  C   UNL     1      -6.276   7.117  67.288  1.00  0.00    -0.045 C  
HETATM   16  C   UNL     1      -8.670   6.611  67.590  1.00  0.00    -0.118 C  
ENDBRANCH   7  13
BRANCH  10  17
HETATM   17  N   UNL     1      -8.749  13.142  66.658  1.00  0.00    -0.426 N  
HETATM   18  C   UNL     1      -7.962  14.139  67.239  1.00  0.00    -0.150 C  
HETATM   19  H   UNL     1      -9.565  13.458  66.132  1.00  0.00     0.000 HD 
HETATM   20  O   UNL     1      -6.967  13.988  67.943  1.00  0.00    -0.124 OA 
BRANCH  18  21
HETATM   21  C   UNL     1      -8.330  15.529  66.865  1.00  0.00    -0.290 C  
HETATM   22  C   UNL     1      -9.214  15.779  65.877  1.00  0.00    -0.302 C  
HETATM   23  N   UNL     1      -9.746  17.024  65.585  1.00  0.00    -0.548 NA 
HETATM   24  C   UNL     1      -9.680  18.023  66.575  1.00  0.00    -0.338 A  
HETATM   25  C   UNL     1     -10.476  19.162  66.551  1.00  0.00    -0.534 A  
HETATM   26  C   UNL     1     -10.405  20.091  67.598  1.00  0.00    -0.510 A  
HETATM   27  C   UNL     1      -9.521  19.907  68.663  1.00  0.00    -0.299 A  
HETATM   28  C   UNL     1      -8.674  18.809  68.670  1.00  0.00    -0.360 A  
HETATM   29  C   UNL     1      -8.755  17.892  67.621  1.00  0.00    -0.242 A  
HETATM   30  C   UNL     1      -7.877  16.715  67.617  1.00  0.00    -0.174 C  
HETATM   31  O   UNL     1      -6.829  16.721  68.249  1.00  0.00    -0.147 OA 
ENDBRANCH  18  21
ENDBRANCH  10  17
ENDBRANCH   2   5
TORSDOF 4
ENDMDL
MODEL      117
REMARK 921   NORMALIZED FREE ENERGY PREDICTED BY IDOCK:   -4.03 KCAL/MOL
REMARK 922        TOTAL FREE ENERGY PREDICTED BY IDOCK:   -6.14 KCAL/MOL
REMARK 923 INTER-LIGAND FREE ENERGY PREDICTED BY IDOCK:   -4.95 KCAL/MOL
REMARK 924 INTRA-LIGAND FREE ENERGY PREDICTED BY IDOCK:   -1.19 KCAL/MOL
REMARK 927      BINDING AFFINITY PREDICTED BY RF-SCORE:    0.00 PKD
ROOT
HETATM    1  C   UNL     1     -10.948  10.925  67.182  1.00  0.00    -0.334 C  
HETATM    2  C   UNL     1      -9.592  10.292  66.789  1.00  0.00    -0.214 C  
HETATM    3  C   UNL     1      -9.881   9.298  65.617  1.00  0.00    -0.237 C  
HETATM    4  C   UNL     1      -8.712  11.367  66.136  1.00  0.00    -0.153 C  
ENDROOT
BRANCH   2   5
HETATM    5  C   UNL     1      -9.028   9.624  68.085  1.00  0.00    -0.123 A  
HETATM    6  C   UNL     1      -9.218   8.210  68.171  1.00  0.00    -0.136 A  
HETATM    7  C   UNL     1      -8.933   7.393  69.287  1.00  0.00    -0.136 A  
HETATM    8  H   UNL     1      -7.717   7.951  72.333  1.00  0.00     0.000 HD 
HETATM    9  C   UNL     1      -8.406   8.062  70.385  1.00  0.00    -0.120 A  
HETATM   10  C   UNL     1      -8.467  10.244  69.232  1.00  0.00    -0.166 A  
HETATM   11  O   UNL     1      -8.077   7.494  71.583  1.00  0.00    -0.099 OA 
HETATM   12  C   UNL     1      -8.178   9.437  70.348  1.00  0.00    -0.214 A  
BRANCH   7  13
HETATM   13  C   UNL     1      -9.243   5.884  69.243  1.00  0.00    -0.134 C  
HETATM   14  C   UNL     1      -9.905   5.508  67.901  1.00  0.00    -0.169 C  
HETATM   15  C   UNL     1      -7.955   5.062  69.468  1.00  0.00    -0.075 C  
HETATM   16  C   UNL     1     -10.229   5.419  70.351  1.00  0.00    -0.332 C  
ENDBRANCH   7  13
BRANCH  10  17
HETATM   17  N   UNL     1      -8.183  11.634  69.322  1.00  0.00    -0.338 N  
HETATM   18  C   UNL     1      -6.949  12.259  69.137  1.00  0.00    -0.041 C  
HETATM   19  H   UNL     1      -8.970  12.243  69.547  1.00  0.00     0.000 HD 
HETATM   20  O   UNL     1      -5.868  11.724  68.903  1.00  0.00    -0.050 OA 
BRANCH  18  21
HETATM   21  C   UNL     1      -6.991  13.744  69.127  1.00  0.00    -0.082 C  
HETATM   22  C   UNL     1      -5.983  14.479  69.645  1.00  0.00    -0.111 C  
HETATM   23  N   UNL     1      -5.856  15.851  69.519  1.00  0.00    -0.128 NA 
HETATM   24  C   UNL     1      -6.579  16.494  68.495  1.00  0.00    -0.139 A  
HETATM   25  C   UNL     1      -6.269  17.769  68.039  1.00  0.00    -0.167 A  
HETATM   26  C   UNL     1      -6.990  18.330  66.976  1.00  0.00    -0.210 A  
HETATM   27  C   UNL     1      -8.046  17.637  66.379  1.00  0.00    -0.302 A  
HETATM   28  C   UNL     1      -8.410  16.390  66.866  1.00  0.00    -0.263 A  
HETATM   29  C   UNL     1      -7.684  15.844  67.923  1.00  0.00    -0.146 A  
HETATM   30  C   UNL     1      -8.044  14.520  68.444  1.00  0.00    -0.143 C  
HETATM   31  O   UNL     1      -9.172  14.073  68.276  1.00  0.00    -0.191 OA 
ENDBRANCH  18  21
ENDBRANCH  10  17
ENDBRANCH   2   5
TORSDOF 4
ENDMDL
MODEL      118
REMARK 921   NORMALIZED FREE ENERGY PREDICTED BY IDOCK:   -4.01 KCAL/MOL
REMARK 922        TOTAL FREE ENERGY PREDICTED BY IDOCK:   -6.12 KCAL/MOL
REMARK 923 INTER-LIGAND FREE ENERGY PREDICTED BY IDOCK:   -6.30 KCAL/MOL
REMARK 924 INTRA-LIGAND FREE ENERGY PREDICTED BY IDOCK:    0.18 KCAL/MOL
REMARK 927      BINDING AFFINITY PREDICTED BY RF-SCORE:    0.00 PKD
ROOT
HETATM    1  C   UNL     1     -11.003   6.158  66.826  1.00  0.00    -0.322 C  
HETATM    2  C   UNL     1      -9.664   6.754  67.320  1.00  0.00    -0.175 C  
HETATM    3  C   UNL     1      -8.524   5.986  66.575  1.00  0.00    -0.115 C  
HETATM    4  C   UNL     1      -9.533   8.189  66.790  1.00  0.00    -0.256 C  
ENDROOT
BRANCH   2   5
HETATM    5  C   UNL     1      -9.655   6.584  68.875  1.00  0.00    -0.128 A  
HETATM    6  C   UNL     1      -9.148   5.333  69.344  1.00  0.00    -0.135 A  
HETATM    7  C   UNL     1      -9.162   4.872  70.680  1.00  0.00    -0.189 A  
HETATM    8  H   UNL     1     -10.246   6.124  73.565  1.00  0.00     0.000 HD 
HETATM    9  C   UNL     1      -9.718   5.753  71.599  1.00  0.00    -0.161 A  
HETATM   10  C   UNL     1     -10.190   7.447  69.866  1.00  0.00    -0.211 A  
HETATM   11  O   UNL     1      -9.866   5.522  72.937  1.00  0.00    -0.161 OA 
HETATM   12  C   UNL     1     -10.205   6.996  71.199  1.00  0.00    -0.208 A  
BRANCH   7  13
HETATM   13  C   UNL     1      -8.622   3.470  71.021  1.00  0.00    -0.111 C  
HETATM   14  C   UNL     1      -7.229   3.572  71.677  1.00  0.00    -0.039 C  
HETATM   15  C   UNL     1      -9.609   2.722  71.944  1.00  0.00    -0.212 C  
HETATM   16  C   UNL     1      -8.443   2.552  69.779  1.00  0.00    -0.088 C  
ENDBRANCH   7  13
BRANCH  10  17
HETATM   17  N   UNL     1     -10.715   8.739  69.592  1.00  0.00    -0.273 N  
HETATM   18  C   UNL     1     -11.215   9.662  70.511  1.00  0.00    -0.297 C  
HETATM   19  H   UNL     1     -10.729   9.023  68.612  1.00  0.00     0.000 HD 
HETATM   20  O   UNL     1     -11.333   9.518  71.725  1.00  0.00    -0.370 OA 
BRANCH  18  21
HETATM   21  C   UNL     1     -11.540  10.998  69.949  1.00  0.00    -0.416 C  
HETATM   22  C   UNL     1     -12.349  11.858  70.604  1.00  0.00    -0.313 C  
HETATM   23  N   UNL     1     -12.560  13.178  70.245  1.00  0.00    -0.133 NA 
HETATM   24  C   UNL     1     -11.619  13.794  69.397  1.00  0.00    -0.310 A  
HETATM   25  C   UNL     1     -11.516  15.174  69.261  1.00  0.00    -0.327 A  
HETATM   26  C   UNL     1     -10.519  15.726  68.446  1.00  0.00    -0.245 A  
HETATM   27  C   UNL     1      -9.637  14.909  67.735  1.00  0.00    -0.208 A  
HETATM   28  C   UNL     1      -9.768  13.531  67.809  1.00  0.00    -0.226 A  
HETATM   29  C   UNL     1     -10.764  12.993  68.625  1.00  0.00    -0.273 A  
HETATM   30  C   UNL     1     -10.911  11.537  68.727  1.00  0.00    -0.222 C  
HETATM   31  O   UNL     1     -10.488  10.807  67.840  1.00  0.00    -0.179 OA 
ENDBRANCH  18  21
ENDBRANCH  10  17
ENDBRANCH   2   5
TORSDOF 4
ENDMDL
MODEL      119
REMARK 921   NORMALIZED FREE ENERGY PREDICTED BY IDOCK:   -4.01 KCAL/MOL
REMARK 922        TOTAL FREE ENERGY PREDICTED BY IDOCK:   -6.11 KCAL/MOL
REMARK 923 INTER-LIGAND FREE ENERGY PREDICTED BY IDOCK:   -5.09 KCAL/MOL
REMARK 924 INTRA-LIGAND FREE ENERGY PREDICTED BY IDOCK:   -1.02 KCAL/MOL
REMARK 927      BINDING AFFINITY PREDICTED BY RF-SCORE:    0.00 PKD
ROOT
HETATM    1  C   UNL     1      -8.136   6.358  67.598  1.00  0.00    -0.114 C  
HETATM    2  C   UNL     1      -9.458   5.804  68.179  1.00  0.00    -0.120 C  
HETATM    3  C   UNL     1     -10.602   6.263  67.216  1.00  0.00    -0.371 C  
HETATM    4  C   UNL     1      -9.463   4.275  68.034  1.00  0.00    -0.212 C  
ENDROOT
BRANCH   2   5
HETATM    5  C   UNL     1      -9.568   6.366  69.634  1.00  0.00    -0.157 A  
HETATM    6  C   UNL     1      -9.773   5.382  70.649  1.00  0.00    -0.241 A  
HETATM    7  C   UNL     1     -10.045   5.630  72.014  1.00  0.00    -0.230 A  
HETATM    8  H   UNL     1     -10.403   8.378  73.854  1.00  0.00     0.000 HD 
HETATM    9  C   UNL     1     -10.097   6.972  72.366  1.00  0.00    -0.174 A  
HETATM   10  C   UNL     1      -9.612   7.718  70.063  1.00  0.00    -0.161 A  
HETATM   11  O   UNL     1     -10.368   7.460  73.613  1.00  0.00    -0.351 OA 
HETATM   12  C   UNL     1      -9.880   7.974  71.421  1.00  0.00    -0.213 A  
BRANCH   7  13
HETATM   13  C   UNL     1     -10.296   4.456  72.980  1.00  0.00    -0.241 C  
HETATM   14  C   UNL     1      -9.370   4.561  74.210  1.00  0.00    -0.127 C  
HETATM   15  C   UNL     1     -11.778   4.420  73.411  1.00  0.00    -0.128 C  
HETATM   16  C   UNL     1     -10.015   3.062  72.352  1.00  0.00    -0.235 C  
ENDBRANCH   7  13
BRANCH  10  17
HETATM   17  N   UNL     1      -9.406   8.829  69.202  1.00  0.00    -0.149 N  
HETATM   18  C   UNL     1     -10.377   9.554  68.508  1.00  0.00    -0.207 C  
HETATM   19  H   UNL     1      -8.440   9.132  69.076  1.00  0.00     0.000 HD 
HETATM   20  O   UNL     1     -11.587   9.342  68.478  1.00  0.00     0.359 OA 
BRANCH  18  21
HETATM   21  C   UNL     1      -9.880  10.771  67.817  1.00  0.00    -0.186 C  
HETATM   22  C   UNL     1     -10.708  11.794  67.513  1.00  0.00    -0.221 C  
HETATM   23  N   UNL     1     -10.302  13.028  67.037  1.00  0.00    -0.246 NA 
HETATM   24  C   UNL     1      -8.959  13.404  67.226  1.00  0.00    -0.221 A  
HETATM   25  C   UNL     1      -8.522  14.720  67.130  1.00  0.00    -0.247 A  
HETATM   26  C   UNL     1      -7.182  15.036  67.387  1.00  0.00    -0.224 A  
HETATM   27  C   UNL     1      -6.258  14.040  67.713  1.00  0.00    -0.152 A  
HETATM   28  C   UNL     1      -6.663  12.714  67.749  1.00  0.00    -0.127 A  
HETATM   29  C   UNL     1      -8.000  12.413  67.491  1.00  0.00    -0.173 A  
HETATM   30  C   UNL     1      -8.453  11.018  67.538  1.00  0.00    -0.127 C  
HETATM   31  O   UNL     1      -7.654  10.102  67.386  1.00  0.00    -0.094 OA 
ENDBRANCH  18  21
ENDBRANCH  10  17
ENDBRANCH   2   5
TORSDOF 4
ENDMDL
MODEL      120
REMARK 921   NORMALIZED FREE ENERGY PREDICTED BY IDOCK:   -3.99 KCAL/MOL
REMARK 922        TOTAL FREE ENERGY PREDICTED BY IDOCK:   -6.10 KCAL/MOL
REMARK 923 INTER-LIGAND FREE ENERGY PREDICTED BY IDOCK:   -5.56 KCAL/MOL
REMARK 924 INTRA-LIGAND FREE ENERGY PREDICTED BY IDOCK:   -0.53 KCAL/MOL
REMARK 927      BINDING AFFINITY PREDICTED BY RF-SCORE:    0.00 PKD
ROOT
HETATM    1  C   UNL     1      -8.555   7.118  66.257  1.00  0.00    -0.143 C  
HETATM    2  C   UNL     1      -9.588   6.696  67.328  1.00  0.00    -0.157 C  
HETATM    3  C   UNL     1     -10.878   7.543  67.070  1.00  0.00    -0.264 C  
HETATM    4  C   UNL     1     -10.043   5.258  67.041  1.00  0.00    -0.243 C  
ENDROOT
BRANCH   2   5
HETATM    5  C   UNL     1      -8.911   6.948  68.715  1.00  0.00    -0.130 A  
HETATM    6  C   UNL     1      -8.556   5.769  69.439  1.00  0.00    -0.111 A  
HETATM    7  C   UNL     1      -8.066   5.714  70.763  1.00  0.00    -0.117 A  
HETATM    8  H   UNL     1      -7.386   7.992  73.090  1.00  0.00     0.000 HD 
HETATM    9  C   UNL     1      -7.917   6.947  71.384  1.00  0.00    -0.108 A  
HETATM   10  C   UNL     1      -8.716   8.177  69.398  1.00  0.00    -0.143 A  
HETATM   11  O   UNL     1      -7.488   7.149  72.665  1.00  0.00    -0.082 OA 
HETATM   12  C   UNL     1      -8.226   8.132  70.716  1.00  0.00    -0.111 A  
BRANCH   7  13
HETATM   13  C   UNL     1      -7.776   4.354  71.427  1.00  0.00    -0.080 C  
HETATM   14  C   UNL     1      -8.709   4.132  72.635  1.00  0.00    -0.110 C  
HETATM   15  C   UNL     1      -7.927   3.210  70.400  1.00  0.00    -0.049 C  
HETATM   16  C   UNL     1      -6.327   4.227  71.976  1.00  0.00    -0.021 C  
ENDBRANCH   7  13
BRANCH  10  17
HETATM   17  N   UNL     1      -8.989   9.451  68.830  1.00  0.00    -0.131 N  
HETATM   18  C   UNL     1      -9.919  10.393  69.272  1.00  0.00    -0.228 C  
HETATM   19  H   UNL     1      -8.443   9.706  68.006  1.00  0.00     0.000 HD 
HETATM   20  O   UNL     1     -10.705  10.282  70.210  1.00  0.00    -0.288 OA 
BRANCH  18  21
HETATM   21  C   UNL     1      -9.864  11.706  68.580  1.00  0.00    -0.196 C  
HETATM   22  C   UNL     1      -8.690  12.239  68.179  1.00  0.00    -0.186 C  
HETATM   23  N   UNL     1      -8.561  13.359  67.376  1.00  0.00    -0.194 NA 
HETATM   24  C   UNL     1      -9.674  13.761  66.613  1.00  0.00    -0.289 A  
HETATM   25  C   UNL     1      -9.572  14.618  65.524  1.00  0.00    -0.139 A  
HETATM   26  C   UNL     1     -10.710  14.934  64.769  1.00  0.00    -0.365 A  
HETATM   27  C   UNL     1     -11.964  14.422  65.111  1.00  0.00    -0.391 A  
HETATM   28  C   UNL     1     -12.094  13.618  66.234  1.00  0.00    -0.477 A  
HETATM   29  C   UNL     1     -10.953  13.311  66.976  1.00  0.00    -0.291 A  
HETATM   30  C   UNL     1     -11.066  12.451  68.159  1.00  0.00    -0.247 C  
HETATM   31  O   UNL     1     -12.136  12.336  68.743  1.00  0.00    -0.271 OA 
ENDBRANCH  18  21
ENDBRANCH  10  17
ENDBRANCH   2   5
TORSDOF 4
ENDMDL
MODEL      121
REMARK 921   NORMALIZED FREE ENERGY PREDICTED BY IDOCK:   -3.98 KCAL/MOL
REMARK 922        TOTAL FREE ENERGY PREDICTED BY IDOCK:   -6.08 KCAL/MOL
REMARK 923 INTER-LIGAND FREE ENERGY PREDICTED BY IDOCK:   -5.24 KCAL/MOL
REMARK 924 INTRA-LIGAND FREE ENERGY PREDICTED BY IDOCK:   -0.84 KCAL/MOL
REMARK 927      BINDING AFFINITY PREDICTED BY RF-SCORE:    0.00 PKD
ROOT
HETATM    1  C   UNL     1      -6.237  14.243  68.969  1.00  0.00    -0.095 C  
HETATM    2  C   UNL     1      -6.438  12.733  68.699  1.00  0.00    -0.079 C  
HETATM    3  C   UNL     1      -5.267  12.281  67.766  1.00  0.00    -0.080 C  
HETATM    4  C   UNL     1      -6.178  11.956  69.998  1.00  0.00    -0.123 C  
ENDROOT
BRANCH   2   5
HETATM    5  C   UNL     1      -7.863  12.585  68.073  1.00  0.00    -0.147 A  
HETATM    6  C   UNL     1      -8.382  13.767  67.462  1.00  0.00    -0.197 A  
HETATM    7  C   UNL     1      -9.689  13.943  66.954  1.00  0.00    -0.268 A  
HETATM    8  H   UNL     1     -12.388  12.010  66.750  1.00  0.00     0.000 HD 
HETATM    9  C   UNL     1     -10.516  12.833  67.067  1.00  0.00    -0.237 A  
HETATM   10  C   UNL     1      -8.752  11.480  68.138  1.00  0.00    -0.157 A  
HETATM   11  O   UNL     1     -11.823  12.769  66.674  1.00  0.00    -0.383 OA 
HETATM   12  C   UNL     1     -10.054  11.646  67.633  1.00  0.00    -0.204 A  
BRANCH   7  13
HETATM   13  C   UNL     1     -10.117  15.303  66.368  1.00  0.00    -0.287 C  
HETATM   14  C   UNL     1     -11.126  16.001  67.303  1.00  0.00    -0.131 C  
HETATM   15  C   UNL     1      -8.881  16.198  66.127  1.00  0.00    -0.367 C  
HETATM   16  C   UNL     1     -10.820  15.191  64.986  1.00  0.00    -0.457 C  
ENDBRANCH   7  13
BRANCH  10  17
HETATM   17  N   UNL     1      -8.404  10.216  68.688  1.00  0.00    -0.111 N  
HETATM   18  C   UNL     1      -9.032   9.551  69.743  1.00  0.00    -0.200 C  
HETATM   19  H   UNL     1      -7.607   9.741  68.264  1.00  0.00     0.000 HD 
HETATM   20  O   UNL     1      -9.975   9.949  70.421  1.00  0.00    -0.259 OA 
BRANCH  18  21
HETATM   21  C   UNL     1      -8.552   8.166  69.988  1.00  0.00    -0.129 C  
HETATM   22  C   UNL     1      -8.145   7.770  71.213  1.00  0.00    -0.095 C  
HETATM   23  N   UNL     1      -7.856   6.464  71.568  1.00  0.00    -0.100 NA 
HETATM   24  C   UNL     1      -8.361   5.428  70.759  1.00  0.00    -0.116 A  
HETATM   25  C   UNL     1      -8.454   4.110  71.191  1.00  0.00    -0.103 A  
HETATM   26  C   UNL     1      -9.021   3.136  70.358  1.00  0.00    -0.170 A  
HETATM   27  C   UNL     1      -9.472   3.460  69.077  1.00  0.00    -0.202 A  
HETATM   28  C   UNL     1      -9.326   4.757  68.606  1.00  0.00    -0.187 A  
HETATM   29  C   UNL     1      -8.761   5.717  69.445  1.00  0.00    -0.109 A  
HETATM   30  C   UNL     1      -8.611   7.098  68.971  1.00  0.00    -0.129 C  
HETATM   31  O   UNL     1      -8.576   7.342  67.772  1.00  0.00    -0.120 OA 
ENDBRANCH  18  21
ENDBRANCH  10  17
ENDBRANCH   2   5
TORSDOF 4
ENDMDL
MODEL      122
REMARK 921   NORMALIZED FREE ENERGY PREDICTED BY IDOCK:   -3.97 KCAL/MOL
REMARK 922        TOTAL FREE ENERGY PREDICTED BY IDOCK:   -6.07 KCAL/MOL
REMARK 923 INTER-LIGAND FREE ENERGY PREDICTED BY IDOCK:   -5.02 KCAL/MOL
REMARK 924 INTRA-LIGAND FREE ENERGY PREDICTED BY IDOCK:   -1.05 KCAL/MOL
REMARK 927      BINDING AFFINITY PREDICTED BY RF-SCORE:    0.00 PKD
ROOT
HETATM    1  C   UNL     1      -8.131   9.380  69.751  1.00  0.00    -0.134 C  
HETATM    2  C   UNL     1      -7.563  10.070  68.489  1.00  0.00    -0.087 C  
HETATM    3  C   UNL     1      -6.640  11.231  68.984  1.00  0.00    -0.079 C  
HETATM    4  C   UNL     1      -6.587   9.110  67.793  1.00  0.00    -0.060 C  
ENDROOT
BRANCH   2   5
HETATM    5  C   UNL     1      -8.799  10.535  67.650  1.00  0.00    -0.131 A  
HETATM    6  C   UNL     1      -8.857  11.937  67.383  1.00  0.00    -0.171 A  
HETATM    7  C   UNL     1      -9.929  12.630  66.776  1.00  0.00    -0.237 A  
HETATM    8  H   UNL     1     -12.898  11.735  65.573  1.00  0.00     0.000 HD 
HETATM    9  C   UNL     1     -11.005  11.836  66.405  1.00  0.00    -0.294 A  
HETATM   10  C   UNL     1      -9.921   9.776  67.227  1.00  0.00    -0.191 A  
HETATM   11  O   UNL     1     -12.162  12.278  65.827  1.00  0.00    -0.622 OA 
HETATM   12  C   UNL     1     -10.991  10.458  66.619  1.00  0.00    -0.067 A  
BRANCH   7  13
HETATM   13  C   UNL     1      -9.864  14.160  66.604  1.00  0.00    -0.289 C  
HETATM   14  C   UNL     1     -10.166  14.553  65.143  1.00  0.00    -0.420 C  
HETATM   15  C   UNL     1     -10.846  14.855  67.573  1.00  0.00    -0.292 C  
HETATM   16  C   UNL     1      -8.468  14.764  66.929  1.00  0.00    -0.230 C  
ENDBRANCH   7  13
BRANCH  10  17
HETATM   17  N   UNL     1     -10.030   8.368  67.384  1.00  0.00    -0.193 N  
HETATM   18  C   UNL     1      -9.455   7.380  66.582  1.00  0.00    -0.187 C  
HETATM   19  H   UNL     1     -10.590   8.042  68.172  1.00  0.00     0.000 HD 
HETATM   20  O   UNL     1      -8.783   7.540  65.567  1.00  0.00    -0.127 OA 
BRANCH  18  21
HETATM   21  C   UNL     1      -9.603   5.992  67.090  1.00  0.00    -0.134 C  
HETATM   22  C   UNL     1      -9.954   4.978  66.271  1.00  0.00    -0.224 C  
HETATM   23  N   UNL     1      -9.941   3.638  66.617  1.00  0.00     0.052 NA 
HETATM   24  C   UNL     1      -9.174   3.247  67.731  1.00  0.00    -0.195 A  
HETATM   25  C   UNL     1      -8.789   1.931  67.959  1.00  0.00    -0.148 A  
HETATM   26  C   UNL     1      -7.975   1.616  69.056  1.00  0.00    -0.055 A  
HETATM   27  C   UNL     1      -7.562   2.606  69.951  1.00  0.00    -0.043 A  
HETATM   28  C   UNL     1      -7.991   3.913  69.775  1.00  0.00    -0.058 A  
HETATM   29  C   UNL     1      -8.800   4.212  68.679  1.00  0.00    -0.141 A  
HETATM   30  C   UNL     1      -9.253   5.592  68.467  1.00  0.00    -0.121 C  
HETATM   31  O   UNL     1      -9.297   6.381  69.402  1.00  0.00    -0.141 OA 
ENDBRANCH  18  21
ENDBRANCH  10  17
ENDBRANCH   2   5
TORSDOF 4
ENDMDL
MODEL      123
REMARK 921   NORMALIZED FREE ENERGY PREDICTED BY IDOCK:   -3.94 KCAL/MOL
REMARK 922        TOTAL FREE ENERGY PREDICTED BY IDOCK:   -6.03 KCAL/MOL
REMARK 923 INTER-LIGAND FREE ENERGY PREDICTED BY IDOCK:   -5.33 KCAL/MOL
REMARK 924 INTRA-LIGAND FREE ENERGY PREDICTED BY IDOCK:   -0.70 KCAL/MOL
REMARK 927      BINDING AFFINITY PREDICTED BY RF-SCORE:    0.00 PKD
ROOT
HETATM    1  C   UNL     1     -10.416   9.234  68.755  1.00  0.00    -0.233 C  
HETATM    2  C   UNL     1     -10.171  10.579  68.032  1.00  0.00    -0.195 C  
HETATM    3  C   UNL     1     -11.527  10.993  67.374  1.00  0.00    -0.217 C  
HETATM    4  C   UNL     1      -9.937  11.674  69.084  1.00  0.00     0.098 C  
ENDROOT
BRANCH   2   5
HETATM    5  C   UNL     1      -9.006  10.328  67.020  1.00  0.00    -0.147 A  
HETATM    6  C   UNL     1      -8.824   8.965  66.631  1.00  0.00    -0.150 A  
HETATM    7  C   UNL     1      -7.767   8.451  65.848  1.00  0.00    -0.086 A  
HETATM    8  H   UNL     1      -5.090   9.781  64.389  1.00  0.00     0.000 HD 
HETATM    9  C   UNL     1      -6.840   9.394  65.422  1.00  0.00    -0.079 A  
HETATM   10  C   UNL     1      -8.036  11.244  66.535  1.00  0.00    -0.160 A  
HETATM   11  O   UNL     1      -5.723   9.136  64.680  1.00  0.00    -0.061 OA 
HETATM   12  C   UNL     1      -6.981  10.741  65.752  1.00  0.00    -0.048 A  
BRANCH   7  13
HETATM   13  C   UNL     1      -7.682   6.940  65.556  1.00  0.00    -0.101 C  
HETATM   14  C   UNL     1      -6.345   6.365  66.068  1.00  0.00    -0.039 C  
HETATM   15  C   UNL     1      -8.878   6.200  66.193  1.00  0.00    -0.158 C  
HETATM   16  C   UNL     1      -7.743   6.595  64.041  1.00  0.00    -0.112 C  
ENDBRANCH   7  13
BRANCH  10  17
HETATM   17  N   UNL     1      -8.067  12.641  66.797  1.00  0.00    -0.403 N  
HETATM   18  C   UNL     1      -8.948  13.583  66.262  1.00  0.00     0.136 C  
HETATM   19  H   UNL     1      -7.366  12.995  67.449  1.00  0.00     0.000 HD 
HETATM   20  O   UNL     1      -9.835  13.391  65.435  1.00  0.00    -0.221 OA 
BRANCH  18  21
HETATM   21  C   UNL     1      -8.847  14.944  66.851  1.00  0.00    -0.284 C  
HETATM   22  C   UNL     1      -7.649  15.501  67.129  1.00  0.00    -0.218 C  
HETATM   23  N   UNL     1      -7.456  16.819  67.506  1.00  0.00    -0.153 NA 
HETATM   24  C   UNL     1      -8.480  17.745  67.231  1.00  0.00    -0.231 A  
HETATM   25  C   UNL     1      -8.272  19.119  67.222  1.00  0.00    -0.299 A  
HETATM   26  C   UNL     1      -9.319  19.987  66.882  1.00  0.00    -0.515 A  
HETATM   27  C   UNL     1     -10.590  19.494  66.576  1.00  0.00    -0.579 A  
HETATM   28  C   UNL     1     -10.831  18.130  66.643  1.00  0.00    -0.043 A  
HETATM   29  C   UNL     1      -9.780  17.278  66.983  1.00  0.00    -0.267 A  
HETATM   30  C   UNL     1     -10.010  15.830  67.046  1.00  0.00    -0.239 C  
HETATM   31  O   UNL     1     -11.140  15.388  67.217  1.00  0.00    -0.325 OA 
ENDBRANCH  18  21
ENDBRANCH  10  17
ENDBRANCH   2   5
TORSDOF 4
ENDMDL
MODEL      124
REMARK 921   NORMALIZED FREE ENERGY PREDICTED BY IDOCK:   -3.93 KCAL/MOL
REMARK 922        TOTAL FREE ENERGY PREDICTED BY IDOCK:   -6.02 KCAL/MOL
REMARK 923 INTER-LIGAND FREE ENERGY PREDICTED BY IDOCK:   -5.19 KCAL/MOL
REMARK 924 INTRA-LIGAND FREE ENERGY PREDICTED BY IDOCK:   -0.83 KCAL/MOL
REMARK 927      BINDING AFFINITY PREDICTED BY RF-SCORE:    0.00 PKD
ROOT
HETATM    1  C   UNL     1     -10.216   6.724  68.089  1.00  0.00    -0.198 C  
HETATM    2  C   UNL     1     -10.302   6.157  69.525  1.00  0.00    -0.277 C  
HETATM    3  C   UNL     1     -11.703   6.564  70.089  1.00  0.00    -0.419 C  
HETATM    4  C   UNL     1     -10.378   4.625  69.452  1.00  0.00     0.083 C  
ENDROOT
BRANCH   2   5
HETATM    5  C   UNL     1      -9.088   6.757  70.307  1.00  0.00    -0.153 A  
HETATM    6  C   UNL     1      -8.388   5.832  71.142  1.00  0.00    -0.123 A  
HETATM    7  C   UNL     1      -7.354   6.143  72.053  1.00  0.00    -0.093 A  
HETATM    8  H   UNL     1      -5.813   8.948  72.959  1.00  0.00     0.000 HD 
HETATM    9  C   UNL     1      -7.002   7.485  72.105  1.00  0.00    -0.063 A  
HETATM   10  C   UNL     1      -8.666   8.109  70.392  1.00  0.00    -0.136 A  
HETATM   11  O   UNL     1      -6.054   8.030  72.923  1.00  0.00    -0.054 OA 
HETATM   12  C   UNL     1      -7.635   8.427  71.295  1.00  0.00    -0.100 A  
BRANCH   7  13
HETATM   13  C   UNL     1      -6.731   5.035  72.926  1.00  0.00    -0.066 C  
HETATM   14  C   UNL     1      -5.379   4.581  72.338  1.00  0.00    -0.004 C  
HETATM   15  C   UNL     1      -6.560   5.527  74.380  1.00  0.00    -0.072 C  
HETATM   16  C   UNL     1      -7.607   3.754  73.023  1.00  0.00    -0.069 C  
ENDBRANCH   7  13
BRANCH  10  17
HETATM   17  N   UNL     1      -9.226   9.163  69.620  1.00  0.00    -0.160 N  
HETATM   18  C   UNL     1     -10.303   9.984  69.964  1.00  0.00    -0.272 C  
HETATM   19  H   UNL     1      -8.793   9.341  68.713  1.00  0.00     0.000 HD 
HETATM   20  O   UNL     1     -10.994   9.923  70.977  1.00  0.00    -0.335 OA 
BRANCH  18  21
HETATM   21  C   UNL     1     -10.558  11.111  69.031  1.00  0.00    -0.251 C  
HETATM   22  C   UNL     1     -11.794  11.358  68.549  1.00  0.00    -0.294 C  
HETATM   23  N   UNL     1     -12.153  12.482  67.825  1.00  0.00    -0.398 NA 
HETATM   24  C   UNL     1     -11.322  13.615  67.901  1.00  0.00    -0.295 A  
HETATM   25  C   UNL     1     -11.744  14.887  67.533  1.00  0.00    -0.328 A  
HETATM   26  C   UNL     1     -10.886  15.984  67.689  1.00  0.00    -0.311 A  
HETATM   27  C   UNL     1      -9.591  15.819  68.185  1.00  0.00    -0.199 A  
HETATM   28  C   UNL     1      -9.132  14.548  68.496  1.00  0.00    -0.190 A  
HETATM   29  C   UNL     1      -9.996  13.465  68.337  1.00  0.00    -0.231 A  
HETATM   30  C   UNL     1      -9.535  12.113  68.673  1.00  0.00    -0.045 C  
HETATM   31  O   UNL     1      -8.339  11.851  68.689  1.00  0.00    -0.136 OA 
ENDBRANCH  18  21
ENDBRANCH  10  17
ENDBRANCH   2   5
TORSDOF 4
ENDMDL
MODEL      125
REMARK 921   NORMALIZED FREE ENERGY PREDICTED BY IDOCK:   -3.89 KCAL/MOL
REMARK 922        TOTAL FREE ENERGY PREDICTED BY IDOCK:   -5.97 KCAL/MOL
REMARK 923 INTER-LIGAND FREE ENERGY PREDICTED BY IDOCK:   -5.65 KCAL/MOL
REMARK 924 INTRA-LIGAND FREE ENERGY PREDICTED BY IDOCK:   -0.32 KCAL/MOL
REMARK 927      BINDING AFFINITY PREDICTED BY RF-SCORE:    0.00 PKD
ROOT
HETATM    1  C   UNL     1      -6.160   9.483  69.634  1.00  0.00    -0.039 C  
HETATM    2  C   UNL     1      -7.076   8.273  69.334  1.00  0.00    -0.055 C  
HETATM    3  C   UNL     1      -7.499   8.388  67.833  1.00  0.00    -0.098 C  
HETATM    4  C   UNL     1      -6.233   6.990  69.369  1.00  0.00    -0.034 C  
ENDROOT
BRANCH   2   5
HETATM    5  C   UNL     1      -8.260   8.355  70.352  1.00  0.00    -0.115 A  
HETATM    6  C   UNL     1      -8.459   7.183  71.145  1.00  0.00    -0.121 A  
HETATM    7  C   UNL     1      -9.534   6.944  72.030  1.00  0.00    -0.147 A  
HETATM    8  H   UNL     1     -12.224   8.673  72.949  1.00  0.00     0.000 HD 
HETATM    9  C   UNL     1     -10.459   7.976  72.122  1.00  0.00    -0.265 A  
HETATM   10  C   UNL     1      -9.229   9.380  70.508  1.00  0.00    -0.259 A  
HETATM   11  O   UNL     1     -11.591   7.967  72.886  1.00  0.00    -0.397 OA 
HETATM   12  C   UNL     1     -10.301   9.151  71.389  1.00  0.00    -0.409 A  
BRANCH   7  13
HETATM   13  C   UNL     1      -9.638   5.601  72.779  1.00  0.00    -0.164 C  
HETATM   14  C   UNL     1     -10.729   5.671  73.867  1.00  0.00    -0.228 C  
HETATM   15  C   UNL     1      -9.924   4.451  71.788  1.00  0.00    -0.257 C  
HETATM   16  C   UNL     1      -8.328   5.196  73.513  1.00  0.00    -0.110 C  
ENDBRANCH   7  13
BRANCH  10  17
HETATM   17  N   UNL     1      -9.182  10.625  69.822  1.00  0.00    -0.371 N  
HETATM   18  C   UNL     1      -9.866  10.975  68.656  1.00  0.00    -0.193 C  
HETATM   19  H   UNL     1      -8.580  11.343  70.227  1.00  0.00     0.000 HD 
HETATM   20  O   UNL     1     -10.605  10.263  67.982  1.00  0.00    -0.198 OA 
BRANCH  18  21
HETATM   21  C   UNL     1      -9.752  12.403  68.265  1.00  0.00    -0.218 C  
HETATM   22  C   UNL     1     -10.680  13.310  68.638  1.00  0.00    -0.259 C  
HETATM   23  N   UNL     1     -10.562  14.680  68.473  1.00  0.00    -0.238 NA 
HETATM   24  C   UNL     1      -9.277  15.215  68.261  1.00  0.00    -0.188 A  
HETATM   25  C   UNL     1      -8.982  16.561  68.442  1.00  0.00    -0.219 A  
HETATM   26  C   UNL     1      -7.669  17.021  68.271  1.00  0.00    -0.209 A  
HETATM   27  C   UNL     1      -6.646  16.149  67.891  1.00  0.00    -0.155 A  
HETATM   28  C   UNL     1      -6.937  14.816  67.643  1.00  0.00    -0.204 A  
HETATM   29  C   UNL     1      -8.248  14.372  67.816  1.00  0.00    -0.173 A  
HETATM   30  C   UNL     1      -8.574  12.961  67.573  1.00  0.00    -0.188 C  
HETATM   31  O   UNL     1      -7.863  12.277  66.848  1.00  0.00    -0.138 OA 
ENDBRANCH  18  21
ENDBRANCH  10  17
ENDBRANCH   2   5
TORSDOF 4
ENDMDL
MODEL      126
REMARK 921   NORMALIZED FREE ENERGY PREDICTED BY IDOCK:   -3.87 KCAL/MOL
REMARK 922        TOTAL FREE ENERGY PREDICTED BY IDOCK:   -5.95 KCAL/MOL
REMARK 923 INTER-LIGAND FREE ENERGY PREDICTED BY IDOCK:   -4.74 KCAL/MOL
REMARK 924 INTRA-LIGAND FREE ENERGY PREDICTED BY IDOCK:   -1.21 KCAL/MOL
REMARK 927      BINDING AFFINITY PREDICTED BY RF-SCORE:    0.00 PKD
ROOT
HETATM    1  C   UNL     1      -8.357  10.556  64.717  1.00  0.00    -0.125 C  
HETATM    2  C   UNL     1      -9.708  11.071  65.266  1.00  0.00    -0.286 C  
HETATM    3  C   UNL     1     -10.505  11.638  64.046  1.00  0.00    -0.418 C  
HETATM    4  C   UNL     1     -10.552   9.870  65.717  1.00  0.00     0.127 C  
ENDROOT
BRANCH   2   5
HETATM    5  C   UNL     1      -9.360  12.128  66.365  1.00  0.00    -0.225 A  
HETATM    6  C   UNL     1      -9.706  13.476  66.040  1.00  0.00    -0.233 A  
HETATM    7  C   UNL     1      -9.376  14.629  66.787  1.00  0.00    -0.275 A  
HETATM    8  H   UNL     1      -7.710  15.173  69.615  1.00  0.00     0.000 HD 
HETATM    9  C   UNL     1      -8.656  14.387  67.950  1.00  0.00    -0.165 A  
HETATM   10  C   UNL     1      -8.643  11.947  67.576  1.00  0.00    -0.160 A  
HETATM   11  O   UNL     1      -8.202  15.338  68.819  1.00  0.00    -0.145 OA 
HETATM   12  C   UNL     1      -8.312  13.090  68.328  1.00  0.00    -0.158 A  
BRANCH   7  13
HETATM   13  C   UNL     1      -9.779  16.025  66.276  1.00  0.00    -0.332 C  
HETATM   14  C   UNL     1     -10.574  15.910  64.959  1.00  0.00    -0.372 C  
HETATM   15  C   UNL     1     -10.599  16.776  67.348  1.00  0.00    -0.291 C  
HETATM   16  C   UNL     1      -8.567  16.947  65.964  1.00  0.00    -0.194 C  
ENDBRANCH   7  13
BRANCH  10  17
HETATM   17  N   UNL     1      -8.236  10.680  68.074  1.00  0.00    -0.111 N  
HETATM   18  C   UNL     1      -8.982   9.800  68.861  1.00  0.00    -0.144 C  
HETATM   19  H   UNL     1      -7.293  10.378  67.827  1.00  0.00     0.000 HD 
HETATM   20  O   UNL     1     -10.113   9.973  69.306  1.00  0.00    -0.188 OA 
BRANCH  18  21
HETATM   21  C   UNL     1      -8.355   8.473  69.088  1.00  0.00    -0.120 C  
HETATM   22  C   UNL     1      -8.408   7.868  70.293  1.00  0.00    -0.126 C  
HETATM   23  N   UNL     1      -8.012   6.565  70.546  1.00  0.00    -0.110 NA 
HETATM   24  C   UNL     1      -7.903   5.682  69.455  1.00  0.00    -0.088 A  
HETATM   25  C   UNL     1      -7.875   4.300  69.604  1.00  0.00    -0.057 A  
HETATM   26  C   UNL     1      -7.823   3.473  68.473  1.00  0.00    -0.055 A  
HETATM   27  C   UNL     1      -7.771   4.015  67.187  1.00  0.00    -0.084 A  
HETATM   28  C   UNL     1      -7.732   5.392  67.025  1.00  0.00    -0.100 A  
HETATM   29  C   UNL     1      -7.784   6.204  68.158  1.00  0.00    -0.103 A  
HETATM   30  C   UNL     1      -7.758   7.664  68.007  1.00  0.00    -0.119 C  
HETATM   31  O   UNL     1      -7.290   8.175  66.998  1.00  0.00    -0.085 OA 
ENDBRANCH  18  21
ENDBRANCH  10  17
ENDBRANCH   2   5
TORSDOF 4
ENDMDL
MODEL      127
REMARK 921   NORMALIZED FREE ENERGY PREDICTED BY IDOCK:   -3.85 KCAL/MOL
REMARK 922        TOTAL FREE ENERGY PREDICTED BY IDOCK:   -5.91 KCAL/MOL
REMARK 923 INTER-LIGAND FREE ENERGY PREDICTED BY IDOCK:   -5.62 KCAL/MOL
REMARK 924 INTRA-LIGAND FREE ENERGY PREDICTED BY IDOCK:   -0.29 KCAL/MOL
REMARK 927      BINDING AFFINITY PREDICTED BY RF-SCORE:    0.00 PKD
ROOT
HETATM    1  C   UNL     1     -12.765  13.813  66.006  1.00  0.00    -0.407 C  
HETATM    2  C   UNL     1     -11.288  13.515  65.659  1.00  0.00    -0.312 C  
HETATM    3  C   UNL     1     -11.115  11.962  65.719  1.00  0.00    -0.367 C  
HETATM    4  C   UNL     1     -11.049  13.843  64.177  1.00  0.00    -0.128 C  
ENDROOT
BRANCH   2   5
HETATM    5  C   UNL     1     -10.425  14.307  66.694  1.00  0.00    -0.278 A  
HETATM    6  C   UNL     1     -10.357  15.717  66.474  1.00  0.00    -0.296 A  
HETATM    7  C   UNL     1      -9.540  16.635  67.171  1.00  0.00    -0.244 A  
HETATM    8  H   UNL     1      -7.322  16.374  69.637  1.00  0.00     0.000 HD 
HETATM    9  C   UNL     1      -8.749  16.077  68.168  1.00  0.00    -0.173 A  
HETATM   10  C   UNL     1      -9.609  13.803  67.741  1.00  0.00    -0.219 A  
HETATM   11  O   UNL     1      -7.863  16.755  68.956  1.00  0.00    -0.240 OA 
HETATM   12  C   UNL     1      -8.793  14.711  68.441  1.00  0.00    -0.181 A  
BRANCH   7  13
HETATM   13  C   UNL     1      -9.541  18.126  66.780  1.00  0.00    -0.301 C  
HETATM   14  C   UNL     1      -9.823  19.008  68.014  1.00  0.00    -0.414 C  
HETATM   15  C   UNL     1      -8.197  18.512  66.125  1.00  0.00    -0.183 C  
HETATM   16  C   UNL     1     -10.630  18.493  65.734  1.00  0.00    -0.265 C  
ENDBRANCH   7  13
BRANCH  10  17
HETATM   17  N   UNL     1      -9.563  12.434  68.120  1.00  0.00    -0.214 N  
HETATM   18  C   UNL     1     -10.513  11.730  68.864  1.00  0.00    -0.154 C  
HETATM   19  H   UNL     1      -8.745  11.906  67.815  1.00  0.00     0.000 HD 
HETATM   20  O   UNL     1     -11.544  12.170  69.364  1.00  0.00    -0.282 OA 
BRANCH  18  21
HETATM   21  C   UNL     1     -10.277  10.266  68.960  1.00  0.00    -0.225 C  
HETATM   22  C   UNL     1     -10.870   9.402  68.109  1.00  0.00    -0.119 C  
HETATM   23  N   UNL     1     -10.572   8.054  68.013  1.00  0.00    -0.171 NA 
HETATM   24  C   UNL     1      -9.343   7.607  68.535  1.00  0.00    -0.147 A  
HETATM   25  C   UNL     1      -8.775   6.387  68.187  1.00  0.00    -0.116 A  
HETATM   26  C   UNL     1      -7.520   6.025  68.697  1.00  0.00    -0.087 A  
HETATM   27  C   UNL     1      -6.835   6.863  69.580  1.00  0.00    -0.051 A  
HETATM   28  C   UNL     1      -7.417   8.053  69.987  1.00  0.00    -0.074 A  
HETATM   29  C   UNL     1      -8.666   8.401  69.473  1.00  0.00    -0.137 A  
HETATM   30  C   UNL     1      -9.293   9.664  69.881  1.00  0.00    -0.228 C  
HETATM   31  O   UNL     1      -8.974  10.204  70.932  1.00  0.00     0.388 OA 
ENDBRANCH  18  21
ENDBRANCH  10  17
ENDBRANCH   2   5
TORSDOF 4
ENDMDL
MODEL      128
REMARK 921   NORMALIZED FREE ENERGY PREDICTED BY IDOCK:   -3.83 KCAL/MOL
REMARK 922        TOTAL FREE ENERGY PREDICTED BY IDOCK:   -5.89 KCAL/MOL
REMARK 923 INTER-LIGAND FREE ENERGY PREDICTED BY IDOCK:   -5.45 KCAL/MOL
REMARK 924 INTRA-LIGAND FREE ENERGY PREDICTED BY IDOCK:   -0.45 KCAL/MOL
REMARK 927      BINDING AFFINITY PREDICTED BY RF-SCORE:    0.00 PKD
ROOT
HETATM    1  C   UNL     1      -8.879   6.571  70.739  1.00  0.00    -0.144 C  
HETATM    2  C   UNL     1      -9.640   7.715  70.030  1.00  0.00    -0.164 C  
HETATM    3  C   UNL     1     -11.148   7.559  70.414  1.00  0.00    -0.277 C  
HETATM    4  C   UNL     1      -9.244   9.051  70.676  1.00  0.00    -0.279 C  
ENDROOT
BRANCH   2   5
HETATM    5  C   UNL     1      -9.338   7.563  68.503  1.00  0.00    -0.142 A  
HETATM    6  C   UNL     1      -9.392   6.225  68.005  1.00  0.00    -0.114 A  
HETATM    7  C   UNL     1      -9.025   5.799  66.709  1.00  0.00    -0.118 A  
HETATM    8  H   UNL     1      -7.855   7.330  63.997  1.00  0.00     0.000 HD 
HETATM    9  C   UNL     1      -8.586   6.808  65.862  1.00  0.00    -0.147 A  
HETATM   10  C   UNL     1      -8.902   8.550  67.582  1.00  0.00    -0.136 A  
HETATM   11  O   UNL     1      -8.155   6.640  64.577  1.00  0.00    -0.122 OA 
HETATM   12  C   UNL     1      -8.536   8.135  66.288  1.00  0.00    -0.157 A  
BRANCH   7  13
HETATM   13  C   UNL     1      -9.090   4.305  66.337  1.00  0.00    -0.130 C  
HETATM   14  C   UNL     1     -10.070   4.082  65.165  1.00  0.00    -0.189 C  
HETATM   15  C   UNL     1      -7.683   3.775  65.984  1.00  0.00    -0.089 C  
HETATM   16  C   UNL     1      -9.595   3.397  67.494  1.00  0.00    -0.152 C  
ENDBRANCH   7  13
BRANCH  10  17
HETATM   17  N   UNL     1      -8.808   9.935  67.890  1.00  0.00    -0.128 N  
HETATM   18  C   UNL     1      -9.701  10.945  67.527  1.00  0.00    -0.167 C  
HETATM   19  H   UNL     1      -7.997  10.223  68.438  1.00  0.00     0.000 HD 
HETATM   20  O   UNL     1     -10.713  10.835  66.840  1.00  0.00    -0.256 OA 
BRANCH  18  21
HETATM   21  C   UNL     1      -9.431  12.272  68.137  1.00  0.00    -0.213 C  
HETATM   22  C   UNL     1      -8.188  12.800  68.148  1.00  0.00    -0.167 C  
HETATM   23  N   UNL     1      -7.880  14.095  68.529  1.00  0.00    -0.136 NA 
HETATM   24  C   UNL     1      -8.917  15.047  68.547  1.00  0.00    -0.186 A  
HETATM   25  C   UNL     1      -8.683  16.417  68.552  1.00  0.00    -0.223 A  
HETATM   26  C   UNL     1      -9.759  17.313  68.511  1.00  0.00    -0.296 A  
HETATM   27  C   UNL     1     -11.078  16.853  68.492  1.00  0.00    -0.213 A  
HETATM   28  C   UNL     1     -11.330  15.490  68.552  1.00  0.00    -0.356 A  
HETATM   29  C   UNL     1     -10.249  14.609  68.593  1.00  0.00    -0.244 A  
HETATM   30  C   UNL     1     -10.493  13.162  68.642  1.00  0.00    -0.227 C  
HETATM   31  O   UNL     1     -11.561  12.727  69.056  1.00  0.00    -0.276 OA 
ENDBRANCH  18  21
ENDBRANCH  10  17
ENDBRANCH   2   5
TORSDOF 4
ENDMDL
MODEL      129
REMARK 921   NORMALIZED FREE ENERGY PREDICTED BY IDOCK:   -3.81 KCAL/MOL
REMARK 922        TOTAL FREE ENERGY PREDICTED BY IDOCK:   -5.87 KCAL/MOL
REMARK 923 INTER-LIGAND FREE ENERGY PREDICTED BY IDOCK:   -5.58 KCAL/MOL
REMARK 924 INTRA-LIGAND FREE ENERGY PREDICTED BY IDOCK:   -0.29 KCAL/MOL
REMARK 927      BINDING AFFINITY PREDICTED BY RF-SCORE:    0.00 PKD
ROOT
HETATM    1  C   UNL     1     -13.316  10.000  70.055  1.00  0.00     0.707 C  
HETATM    2  C   UNL     1     -11.922  10.654  70.198  1.00  0.00    -0.417 C  
HETATM    3  C   UNL     1     -12.162  12.139  70.627  1.00  0.00    -0.392 C  
HETATM    4  C   UNL     1     -11.208  10.044  71.412  1.00  0.00    -0.162 C  
ENDROOT
BRANCH   2   5
HETATM    5  C   UNL     1     -11.212  10.483  68.815  1.00  0.00    -0.317 A  
HETATM    6  C   UNL     1     -11.352  11.589  67.921  1.00  0.00    -0.372 A  
HETATM    7  C   UNL     1     -10.934  11.633  66.572  1.00  0.00    -0.349 A  
HETATM    8  H   UNL     1      -9.439   9.478  64.525  1.00  0.00     0.000 HD 
HETATM    9  C   UNL     1     -10.321  10.475  66.110  1.00  0.00    -0.210 A  
HETATM   10  C   UNL     1     -10.559   9.338  68.288  1.00  0.00    -0.189 A  
HETATM   11  O   UNL     1      -9.858  10.270  64.841  1.00  0.00    -0.299 OA 
HETATM   12  C   UNL     1     -10.138   9.375  66.946  1.00  0.00    -0.314 A  
BRANCH   7  13
HETATM   13  C   UNL     1     -11.203  12.887  65.718  1.00  0.00    -0.324 C  
HETATM   14  C   UNL     1     -12.465  12.692  64.853  1.00  0.00    -0.564 C  
HETATM   15  C   UNL     1     -11.343  14.133  66.619  1.00  0.00    -0.352 C  
HETATM   16  C   UNL     1     -10.053  13.223  64.726  1.00  0.00    -0.250 C  
ENDBRANCH   7  13
BRANCH  10  17
HETATM   17  N   UNL     1     -10.309   8.155  69.035  1.00  0.00    -0.218 N  
HETATM   18  C   UNL     1      -9.233   7.905  69.889  1.00  0.00    -0.153 C  
HETATM   19  H   UNL     1     -10.992   7.404  68.935  1.00  0.00     0.000 HD 
HETATM   20  O   UNL     1      -8.281   8.644  70.125  1.00  0.00    -0.111 OA 
BRANCH  18  21
HETATM   21  C   UNL     1      -9.326   6.642  70.665  1.00  0.00    -0.164 C  
HETATM   22  C   UNL     1     -10.521   6.121  71.018  1.00  0.00    -0.229 C  
HETATM   23  N   UNL     1     -10.705   4.869  71.579  1.00  0.00    -0.053 NA 
HETATM   24  C   UNL     1      -9.674   3.921  71.440  1.00  0.00    -0.176 A  
HETATM   25  C   UNL     1      -9.873   2.558  71.627  1.00  0.00    -0.216 A  
HETATM   26  C   UNL     1      -8.819   1.658  71.415  1.00  0.00    -0.105 A  
HETATM   27  C   UNL     1      -7.551   2.112  71.044  1.00  0.00    -0.032 A  
HETATM   28  C   UNL     1      -7.319   3.473  70.917  1.00  0.00    -0.037 A  
HETATM   29  C   UNL     1      -8.377   4.358  71.130  1.00  0.00    -0.095 A  
HETATM   30  C   UNL     1      -8.157   5.801  70.986  1.00  0.00    -0.120 C  
HETATM   31  O   UNL     1      -7.031   6.271  71.095  1.00  0.00    -0.065 OA 
ENDBRANCH  18  21
ENDBRANCH  10  17
ENDBRANCH   2   5
TORSDOF 4
ENDMDL
MODEL      130
REMARK 921   NORMALIZED FREE ENERGY PREDICTED BY IDOCK:   -3.80 KCAL/MOL
REMARK 922        TOTAL FREE ENERGY PREDICTED BY IDOCK:   -5.86 KCAL/MOL
REMARK 923 INTER-LIGAND FREE ENERGY PREDICTED BY IDOCK:   -5.19 KCAL/MOL
REMARK 924 INTRA-LIGAND FREE ENERGY PREDICTED BY IDOCK:   -0.67 KCAL/MOL
REMARK 927      BINDING AFFINITY PREDICTED BY RF-SCORE:    0.00 PKD
ROOT
HETATM    1  C   UNL     1     -11.782  15.842  68.582  1.00  0.00    -0.328 C  
HETATM    2  C   UNL     1     -10.706  14.750  68.380  1.00  0.00    -0.243 C  
HETATM    3  C   UNL     1     -10.860  13.740  69.564  1.00  0.00    -0.003 C  
HETATM    4  C   UNL     1     -11.073  13.911  67.147  1.00  0.00    -0.312 C  
ENDROOT
BRANCH   2   5
HETATM    5  C   UNL     1      -9.331  15.492  68.332  1.00  0.00    -0.192 A  
HETATM    6  C   UNL     1      -9.406  16.889  68.040  1.00  0.00    -0.238 A  
HETATM    7  C   UNL     1      -8.315  17.754  67.800  1.00  0.00    -0.235 A  
HETATM    8  H   UNL     1      -5.012  17.369  67.711  1.00  0.00     0.000 HD 
HETATM    9  C   UNL     1      -7.064  17.156  67.877  1.00  0.00    -0.162 A  
HETATM   10  C   UNL     1      -8.023  14.947  68.417  1.00  0.00    -0.134 A  
HETATM   11  O   UNL     1      -5.868  17.778  67.659  1.00  0.00    -0.138 OA 
HETATM   12  C   UNL     1      -6.931  15.802  68.181  1.00  0.00    -0.125 A  
BRANCH   7  13
HETATM   13  C   UNL     1      -8.563  19.234  67.446  1.00  0.00    -0.322 C  
HETATM   14  C   UNL     1     -10.075  19.518  67.341  1.00  0.00    -0.525 C  
HETATM   15  C   UNL     1      -7.902  20.157  68.493  1.00  0.00    -0.060 C  
HETATM   16  C   UNL     1      -7.952  19.656  66.080  1.00  0.00    -0.352 C  
ENDBRANCH   7  13
BRANCH  10  17
HETATM   17  N   UNL     1      -7.751  13.585  68.721  1.00  0.00    -0.268 N  
HETATM   18  C   UNL     1      -6.666  13.078  69.438  1.00  0.00    -0.018 C  
HETATM   19  H   UNL     1      -8.426  12.901  68.378  1.00  0.00     0.000 HD 
HETATM   20  O   UNL     1      -5.720  13.708  69.905  1.00  0.00    -0.101 OA 
BRANCH  18  21
HETATM   21  C   UNL     1      -6.736  11.627  69.745  1.00  0.00    -0.013 C  
HETATM   22  C   UNL     1      -5.768  11.012  70.457  1.00  0.00    -0.133 C  
HETATM   23  N   UNL     1      -5.839   9.716  70.938  1.00  0.00    -0.066 NA 
HETATM   24  C   UNL     1      -7.108   9.113  71.038  1.00  0.00    -0.098 A  
HETATM   25  C   UNL     1      -7.351   7.992  71.823  1.00  0.00    -0.084 A  
HETATM   26  C   UNL     1      -8.649   7.475  71.927  1.00  0.00    -0.122 A  
HETATM   27  C   UNL     1      -9.711   8.053  71.227  1.00  0.00    -0.199 A  
HETATM   28  C   UNL     1      -9.474   9.132  70.389  1.00  0.00    -0.269 A  
HETATM   29  C   UNL     1      -8.177   9.637  70.295  1.00  0.00    -0.217 A  
HETATM   30  C   UNL     1      -7.907  10.788  69.424  1.00  0.00    -0.087 C  
HETATM   31  O   UNL     1      -8.657  11.050  68.493  1.00  0.00    -0.145 OA 
ENDBRANCH  18  21
ENDBRANCH  10  17
ENDBRANCH   2   5
TORSDOF 4
ENDMDL
MODEL      131
REMARK 921   NORMALIZED FREE ENERGY PREDICTED BY IDOCK:   -3.80 KCAL/MOL
REMARK 922        TOTAL FREE ENERGY PREDICTED BY IDOCK:   -5.85 KCAL/MOL
REMARK 923 INTER-LIGAND FREE ENERGY PREDICTED BY IDOCK:   -5.46 KCAL/MOL
REMARK 924 INTRA-LIGAND FREE ENERGY PREDICTED BY IDOCK:   -0.40 KCAL/MOL
REMARK 927      BINDING AFFINITY PREDICTED BY RF-SCORE:    0.00 PKD
ROOT
HETATM    1  C   UNL     1      -8.442  11.128  64.784  1.00  0.00     0.254 C  
HETATM    2  C   UNL     1      -9.944  11.435  64.987  1.00  0.00    -0.312 C  
HETATM    3  C   UNL     1     -10.469  12.030  63.640  1.00  0.00    -0.494 C  
HETATM    4  C   UNL     1     -10.709  10.109  65.114  1.00  0.00     0.466 C  
ENDROOT
BRANCH   2   5
HETATM    5  C   UNL     1     -10.032  12.408  66.208  1.00  0.00    -0.259 A  
HETATM    6  C   UNL     1     -10.003  13.798  65.877  1.00  0.00    -0.308 A  
HETATM    7  C   UNL     1      -9.926  14.874  66.790  1.00  0.00    -0.252 A  
HETATM    8  H   UNL     1      -9.763  15.111  70.104  1.00  0.00     0.000 HD 
HETATM    9  C   UNL     1      -9.889  14.507  68.128  1.00  0.00    -0.223 A  
HETATM   10  C   UNL     1     -10.013  12.100  67.593  1.00  0.00    -0.197 A  
HETATM   11  O   UNL     1      -9.789  15.362  69.188  1.00  0.00    -0.217 OA 
HETATM   12  C   UNL     1      -9.938  13.166  68.508  1.00  0.00    -0.182 A  
BRANCH   7  13
HETATM   13  C   UNL     1      -9.851  16.324  66.273  1.00  0.00    -0.334 C  
HETATM   14  C   UNL     1     -10.577  16.453  64.918  1.00  0.00    -0.116 C  
HETATM   15  C   UNL     1     -10.451  17.298  67.311  1.00  0.00    -0.319 C  
HETATM   16  C   UNL     1      -8.399  16.823  66.030  1.00  0.00    -0.187 C  
ENDBRANCH   7  13
BRANCH  10  17
HETATM   17  N   UNL     1     -10.061  10.777  68.111  1.00  0.00    -0.160 N  
HETATM   18  C   UNL     1      -9.157  10.180  68.992  1.00  0.00    -0.173 C  
HETATM   19  H   UNL     1     -10.844  10.199  67.804  1.00  0.00     0.000 HD 
HETATM   20  O   UNL     1      -8.130  10.670  69.453  1.00  0.00    -0.151 OA 
BRANCH  18  21
HETATM   21  C   UNL     1      -9.558   8.840  69.491  1.00  0.00    -0.167 C  
HETATM   22  C   UNL     1      -8.916   7.721  69.091  1.00  0.00    -0.145 C  
HETATM   23  N   UNL     1      -9.103   6.462  69.636  1.00  0.00    -0.143 NA 
HETATM   24  C   UNL     1      -9.692   6.371  70.912  1.00  0.00    -0.176 A  
HETATM   25  C   UNL     1      -9.602   5.234  71.705  1.00  0.00    -0.192 A  
HETATM   26  C   UNL     1     -10.161   5.227  72.991  1.00  0.00    -0.203 A  
HETATM   27  C   UNL     1     -10.838   6.344  73.485  1.00  0.00    -0.198 A  
HETATM   28  C   UNL     1     -10.993   7.464  72.682  1.00  0.00    -0.363 A  
HETATM   29  C   UNL     1     -10.432   7.457  71.405  1.00  0.00    -0.218 A  
HETATM   30  C   UNL     1     -10.572   8.638  70.544  1.00  0.00    -0.217 C  
HETATM   31  O   UNL     1     -11.481   9.436  70.730  1.00  0.00    -0.268 OA 
ENDBRANCH  18  21
ENDBRANCH  10  17
ENDBRANCH   2   5
TORSDOF 4
ENDMDL
MODEL      132
REMARK 921   NORMALIZED FREE ENERGY PREDICTED BY IDOCK:   -3.74 KCAL/MOL
REMARK 922        TOTAL FREE ENERGY PREDICTED BY IDOCK:   -5.79 KCAL/MOL
REMARK 923 INTER-LIGAND FREE ENERGY PREDICTED BY IDOCK:   -5.65 KCAL/MOL
REMARK 924 INTRA-LIGAND FREE ENERGY PREDICTED BY IDOCK:   -0.14 KCAL/MOL
REMARK 927      BINDING AFFINITY PREDICTED BY RF-SCORE:    0.00 PKD
ROOT
HETATM    1  C   UNL     1      -5.692   8.320  69.302  1.00  0.00    -0.031 C  
HETATM    2  C   UNL     1      -6.801   7.278  69.028  1.00  0.00    -0.064 C  
HETATM    3  C   UNL     1      -7.252   7.477  67.544  1.00  0.00    -0.090 C  
HETATM    4  C   UNL     1      -6.176   5.875  69.025  1.00  0.00    -0.036 C  
ENDROOT
BRANCH   2   5
HETATM    5  C   UNL     1      -7.920   7.539  70.089  1.00  0.00    -0.111 A  
HETATM    6  C   UNL     1      -7.831   6.743  71.272  1.00  0.00    -0.101 A  
HETATM    7  C   UNL     1      -8.785   6.679  72.313  1.00  0.00    -0.132 A  
HETATM    8  H   UNL     1     -11.719   8.141  72.875  1.00  0.00     0.000 HD 
HETATM    9  C   UNL     1      -9.896   7.493  72.140  1.00  0.00    -0.169 A  
HETATM   10  C   UNL     1      -9.070   8.364  69.983  1.00  0.00    -0.150 A  
HETATM   11  O   UNL     1     -10.959   7.584  72.993  1.00  0.00    -0.350 OA 
HETATM   12  C   UNL     1     -10.024   8.309  71.016  1.00  0.00    -0.226 A  
BRANCH   7  13
HETATM   13  C   UNL     1      -8.568   5.728  73.505  1.00  0.00    -0.120 C  
HETATM   14  C   UNL     1      -9.880   5.546  74.297  1.00  0.00    -0.209 C  
HETATM   15  C   UNL     1      -8.029   4.365  73.017  1.00  0.00    -0.094 C  
HETATM   16  C   UNL     1      -7.518   6.243  74.530  1.00  0.00    -0.096 C  
ENDBRANCH   7  13
BRANCH  10  17
HETATM   17  N   UNL     1      -9.318   9.241  68.892  1.00  0.00    -0.149 N  
HETATM   18  C   UNL     1      -8.866  10.553  68.741  1.00  0.00    -0.158 C  
HETATM   19  H   UNL     1      -9.890   8.869  68.133  1.00  0.00     0.000 HD 
HETATM   20  O   UNL     1      -8.204  11.211  69.540  1.00  0.00     0.089 OA 
BRANCH  18  21
HETATM   21  C   UNL     1      -9.142  11.166  67.416  1.00  0.00    -0.143 C  
HETATM   22  C   UNL     1      -8.780  10.552  66.270  1.00  0.00    -0.151 C  
HETATM   23  N   UNL     1      -9.153  10.959  65.000  1.00  0.00    -0.199 NA 
HETATM   24  C   UNL     1     -10.264  11.815  64.877  1.00  0.00    -0.273 A  
HETATM   25  C   UNL     1     -10.947  11.996  63.680  1.00  0.00    -0.517 A  
HETATM   26  C   UNL     1     -12.083  12.817  63.637  1.00  0.00    -0.624 A  
HETATM   27  C   UNL     1     -12.529  13.486  64.779  1.00  0.00    -0.402 A  
HETATM   28  C   UNL     1     -11.821  13.367  65.965  1.00  0.00    -0.423 A  
HETATM   29  C   UNL     1     -10.693  12.547  65.994  1.00  0.00    -0.292 A  
HETATM   30  C   UNL     1      -9.937  12.396  67.244  1.00  0.00    -0.206 C  
HETATM   31  O   UNL     1     -10.005  13.252  68.117  1.00  0.00    -0.223 OA 
ENDBRANCH  18  21
ENDBRANCH  10  17
ENDBRANCH   2   5
TORSDOF 4
ENDMDL
MODEL      133
REMARK 921   NORMALIZED FREE ENERGY PREDICTED BY IDOCK:   -3.74 KCAL/MOL
REMARK 922        TOTAL FREE ENERGY PREDICTED BY IDOCK:   -5.78 KCAL/MOL
REMARK 923 INTER-LIGAND FREE ENERGY PREDICTED BY IDOCK:   -5.10 KCAL/MOL
REMARK 924 INTRA-LIGAND FREE ENERGY PREDICTED BY IDOCK:   -0.68 KCAL/MOL
REMARK 927      BINDING AFFINITY PREDICTED BY RF-SCORE:    0.00 PKD
ROOT
HETATM    1  C   UNL     1     -13.039  10.127  71.402  1.00  0.00    -0.512 C  
HETATM    2  C   UNL     1     -12.012   8.996  71.161  1.00  0.00    -0.356 C  
HETATM    3  C   UNL     1     -11.489   8.552  72.566  1.00  0.00    -0.368 C  
HETATM    4  C   UNL     1     -12.754   7.753  70.648  1.00  0.00     0.254 C  
ENDROOT
BRANCH   2   5
HETATM    5  C   UNL     1     -10.917   9.591  70.217  1.00  0.00    -0.317 A  
HETATM    6  C   UNL     1     -11.239  10.857  69.638  1.00  0.00    -0.348 A  
HETATM    7  C   UNL     1     -10.494  11.540  68.650  1.00  0.00    -0.224 A  
HETATM    8  H   UNL     1      -7.682  10.897  66.994  1.00  0.00     0.000 HD 
HETATM    9  C   UNL     1      -9.338  10.893  68.235  1.00  0.00    -0.168 A  
HETATM   10  C   UNL     1      -9.711   8.992  69.766  1.00  0.00    -0.175 A  
HETATM   11  O   UNL     1      -8.473  11.340  67.277  1.00  0.00    -0.137 OA 
HETATM   12  C   UNL     1      -8.963   9.667  68.783  1.00  0.00    -0.134 A  
BRANCH   7  13
HETATM   13  C   UNL     1     -11.002  12.881  68.086  1.00  0.00    -0.273 C  
HETATM   14  C   UNL     1      -9.845  13.896  67.979  1.00  0.00    -0.234 C  
HETATM   15  C   UNL     1     -11.673  12.668  66.711  1.00  0.00    -0.460 C  
HETATM   16  C   UNL     1     -12.084  13.559  68.972  1.00  0.00    -0.330 C  
ENDBRANCH   7  13
BRANCH  10  17
HETATM   17  N   UNL     1      -9.218   7.749  70.245  1.00  0.00    -0.156 N  
HETATM   18  C   UNL     1      -9.428   6.484  69.692  1.00  0.00    -0.145 C  
HETATM   19  H   UNL     1      -8.644   7.784  71.089  1.00  0.00     0.000 HD 
HETATM   20  O   UNL     1     -10.113   6.203  68.712  1.00  0.00    -0.149 OA 
BRANCH  18  21
HETATM   21  C   UNL     1      -8.646   5.386  70.316  1.00  0.00    -0.126 C  
HETATM   22  C   UNL     1      -7.440   5.615  70.878  1.00  0.00    -0.089 C  
HETATM   23  N   UNL     1      -6.729   4.697  71.631  1.00  0.00    -0.033 NA 
HETATM   24  C   UNL     1      -7.428   3.603  72.177  1.00  0.00    -0.057 A  
HETATM   25  C   UNL     1      -6.929   2.835  73.223  1.00  0.00    -0.032 A  
HETATM   26  C   UNL     1      -7.700   1.796  73.761  1.00  0.00    -0.041 A  
HETATM   27  C   UNL     1      -8.962   1.494  73.243  1.00  0.00    -0.062 A  
HETATM   28  C   UNL     1      -9.446   2.208  72.158  1.00  0.00    -0.170 A  
HETATM   29  C   UNL     1      -8.669   3.241  71.632  1.00  0.00    -0.118 A  
HETATM   30  C   UNL     1      -9.170   4.018  70.492  1.00  0.00    -0.128 C  
HETATM   31  O   UNL     1     -10.019   3.548  69.746  1.00  0.00    -0.010 OA 
ENDBRANCH  18  21
ENDBRANCH  10  17
ENDBRANCH   2   5
TORSDOF 4
ENDMDL
MODEL      134
REMARK 921   NORMALIZED FREE ENERGY PREDICTED BY IDOCK:   -3.74 KCAL/MOL
REMARK 922        TOTAL FREE ENERGY PREDICTED BY IDOCK:   -5.78 KCAL/MOL
REMARK 923 INTER-LIGAND FREE ENERGY PREDICTED BY IDOCK:   -4.89 KCAL/MOL
REMARK 924 INTRA-LIGAND FREE ENERGY PREDICTED BY IDOCK:   -0.89 KCAL/MOL
REMARK 927      BINDING AFFINITY PREDICTED BY RF-SCORE:    0.00 PKD
ROOT
HETATM    1  C   UNL     1     -11.783  11.545  67.119  1.00  0.00    -0.140 C  
HETATM    2  C   UNL     1     -11.019  11.239  68.429  1.00  0.00    -0.268 C  
HETATM    3  C   UNL     1     -11.686  12.099  69.552  1.00  0.00    -0.402 C  
HETATM    4  C   UNL     1     -11.323   9.796  68.857  1.00  0.00     0.006 C  
ENDROOT
BRANCH   2   5
HETATM    5  C   UNL     1      -9.518  11.581  68.152  1.00  0.00    -0.184 A  
HETATM    6  C   UNL     1      -9.140  12.928  68.444  1.00  0.00    -0.126 A  
HETATM    7  C   UNL     1      -7.895  13.529  68.154  1.00  0.00    -0.144 A  
HETATM    8  H   UNL     1      -5.082  12.485  66.716  1.00  0.00     0.000 HD 
HETATM    9  C   UNL     1      -6.970  12.696  67.537  1.00  0.00    -0.150 A  
HETATM   10  C   UNL     1      -8.522  10.776  67.542  1.00  0.00    -0.119 A  
HETATM   11  O   UNL     1      -5.715  13.055  67.138  1.00  0.00    -0.349 OA 
HETATM   12  C   UNL     1      -7.278  11.367  67.251  1.00  0.00    -0.119 A  
BRANCH   7  13
HETATM   13  C   UNL     1      -7.656  15.015  68.485  1.00  0.00    -0.118 C  
HETATM   14  C   UNL     1      -8.919  15.639  69.114  1.00  0.00    -0.257 C  
HETATM   15  C   UNL     1      -6.442  15.169  69.428  1.00  0.00    -0.136 C  
HETATM   16  C   UNL     1      -7.324  15.885  67.240  1.00  0.00    -0.251 C  
ENDBRANCH   7  13
BRANCH  10  17
HETATM   17  N   UNL     1      -8.708   9.408  67.202  1.00  0.00    -0.127 N  
HETATM   18  C   UNL     1      -9.341   8.896  66.068  1.00  0.00    -0.242 C  
HETATM   19  H   UNL     1      -8.336   8.723  67.861  1.00  0.00     0.000 HD 
HETATM   20  O   UNL     1      -9.893   9.529  65.171  1.00  0.00    -0.248 OA 
BRANCH  18  21
HETATM   21  C   UNL     1      -9.235   7.425  65.898  1.00  0.00    -0.022 C  
HETATM   22  C   UNL     1      -8.252   6.873  65.154  1.00  0.00    -0.115 C  
HETATM   23  N   UNL     1      -7.973   5.519  65.088  1.00  0.00    -0.104 NA 
HETATM   24  C   UNL     1      -8.461   4.689  66.116  1.00  0.00    -0.114 A  
HETATM   25  C   UNL     1      -7.960   3.416  66.360  1.00  0.00    -0.084 A  
HETATM   26  C   UNL     1      -8.449   2.663  67.436  1.00  0.00    -0.107 A  
HETATM   27  C   UNL     1      -9.462   3.160  68.260  1.00  0.00    -0.215 A  
HETATM   28  C   UNL     1     -10.018   4.401  67.990  1.00  0.00    -0.076 A  
HETATM   29  C   UNL     1      -9.522   5.140  66.916  1.00  0.00    -0.142 A  
HETATM   30  C   UNL     1     -10.088   6.462  66.622  1.00  0.00    -0.145 C  
HETATM   31  O   UNL     1     -11.214   6.754  67.003  1.00  0.00    -0.393 OA 
ENDBRANCH  18  21
ENDBRANCH  10  17
ENDBRANCH   2   5
TORSDOF 4
ENDMDL
MODEL      135
REMARK 921   NORMALIZED FREE ENERGY PREDICTED BY IDOCK:   -3.72 KCAL/MOL
REMARK 922        TOTAL FREE ENERGY PREDICTED BY IDOCK:   -5.77 KCAL/MOL
REMARK 923 INTER-LIGAND FREE ENERGY PREDICTED BY IDOCK:   -5.12 KCAL/MOL
REMARK 924 INTRA-LIGAND FREE ENERGY PREDICTED BY IDOCK:   -0.64 KCAL/MOL
REMARK 927      BINDING AFFINITY PREDICTED BY RF-SCORE:    0.00 PKD
ROOT
HETATM    1  C   UNL     1      -8.658   6.781  66.302  1.00  0.00    -0.141 C  
HETATM    2  C   UNL     1      -9.699   6.110  67.228  1.00  0.00    -0.146 C  
HETATM    3  C   UNL     1     -11.081   6.767  66.905  1.00  0.00    -0.283 C  
HETATM    4  C   UNL     1      -9.887   4.650  66.788  1.00  0.00    -0.237 C  
ENDROOT
BRANCH   2   5
HETATM    5  C   UNL     1      -9.197   6.336  68.691  1.00  0.00    -0.124 A  
HETATM    6  C   UNL     1      -8.771   5.156  69.375  1.00  0.00    -0.112 A  
HETATM    7  C   UNL     1      -8.410   5.062  70.738  1.00  0.00    -0.107 A  
HETATM    8  H   UNL     1      -8.246   7.226  73.259  1.00  0.00     0.000 HD 
HETATM    9  C   UNL     1      -8.476   6.255  71.446  1.00  0.00    -0.127 A  
HETATM   10  C   UNL     1      -9.222   7.526  69.465  1.00  0.00    -0.146 A  
HETATM   11  O   UNL     1      -8.201   6.410  72.775  1.00  0.00    -0.108 OA 
HETATM   12  C   UNL     1      -8.862   7.441  70.823  1.00  0.00    -0.149 A  
BRANCH   7  13
HETATM   13  C   UNL     1      -8.019   3.700  71.344  1.00  0.00    -0.061 C  
HETATM   14  C   UNL     1      -9.055   3.262  72.401  1.00  0.00    -0.136 C  
HETATM   15  C   UNL     1      -7.885   2.634  70.234  1.00  0.00    -0.048 C  
HETATM   16  C   UNL     1      -6.646   3.714  72.071  1.00  0.00    -0.015 C  
ENDBRANCH   7  13
BRANCH  10  17
HETATM   17  N   UNL     1      -9.594   8.797  68.951  1.00  0.00    -0.156 N  
HETATM   18  C   UNL     1      -8.791   9.691  68.240  1.00  0.00    -0.120 C  
HETATM   19  H   UNL     1     -10.557   9.090  69.120  1.00  0.00     0.000 HD 
HETATM   20  O   UNL     1      -7.601   9.565  67.961  1.00  0.00    -0.086 OA 
BRANCH  18  21
HETATM   21  C   UNL     1      -9.501  10.870  67.683  1.00  0.00    -0.170 C  
HETATM   22  C   UNL     1     -10.763  10.771  67.211  1.00  0.00    -0.274 C  
HETATM   23  N   UNL     1     -11.558  11.843  66.843  1.00  0.00    -0.534 NA 
HETATM   24  C   UNL     1     -11.214  13.121  67.324  1.00  0.00    -0.287 A  
HETATM   25  C   UNL     1     -12.105  14.188  67.335  1.00  0.00    -0.379 A  
HETATM   26  C   UNL     1     -11.719  15.420  67.882  1.00  0.00    -0.198 A  
HETATM   27  C   UNL     1     -10.434  15.607  68.396  1.00  0.00    -0.242 A  
HETATM   28  C   UNL     1      -9.513  14.572  68.333  1.00  0.00    -0.209 A  
HETATM   29  C   UNL     1      -9.909  13.352  67.787  1.00  0.00    -0.234 A  
HETATM   30  C   UNL     1      -8.954  12.239  67.724  1.00  0.00    -0.177 C  
HETATM   31  O   UNL     1      -7.749  12.455  67.745  1.00  0.00    -0.116 OA 
ENDBRANCH  18  21
ENDBRANCH  10  17
ENDBRANCH   2   5
TORSDOF 4
ENDMDL
MODEL      136
REMARK 921   NORMALIZED FREE ENERGY PREDICTED BY IDOCK:   -3.71 KCAL/MOL
REMARK 922        TOTAL FREE ENERGY PREDICTED BY IDOCK:   -5.74 KCAL/MOL
REMARK 923 INTER-LIGAND FREE ENERGY PREDICTED BY IDOCK:   -5.38 KCAL/MOL
REMARK 924 INTRA-LIGAND FREE ENERGY PREDICTED BY IDOCK:   -0.37 KCAL/MOL
REMARK 927      BINDING AFFINITY PREDICTED BY RF-SCORE:    0.00 PKD
ROOT
HETATM    1  C   UNL     1      -8.198   7.994  72.978  1.00  0.00    -0.234 C  
HETATM    2  C   UNL     1      -7.304   7.693  71.752  1.00  0.00    -0.065 C  
HETATM    3  C   UNL     1      -6.968   9.069  71.089  1.00  0.00    -0.096 C  
HETATM    4  C   UNL     1      -5.939   7.190  72.243  1.00  0.00    -0.041 C  
ENDROOT
BRANCH   2   5
HETATM    5  C   UNL     1      -8.120   6.716  70.844  1.00  0.00    -0.119 A  
HETATM    6  C   UNL     1      -7.994   5.332  71.176  1.00  0.00    -0.108 A  
HETATM    7  C   UNL     1      -8.506   4.243  70.436  1.00  0.00    -0.096 A  
HETATM    8  H   UNL     1     -10.247   3.956  67.617  1.00  0.00     0.000 HD 
HETATM    9  C   UNL     1      -9.206   4.591  69.288  1.00  0.00    -0.133 A  
HETATM   10  C   UNL     1      -8.864   7.006  69.670  1.00  0.00    -0.141 A  
HETATM   11  O   UNL     1      -9.769   3.718  68.401  1.00  0.00    -0.131 OA 
HETATM   12  C   UNL     1      -9.380   5.927  68.929  1.00  0.00    -0.139 A  
BRANCH   7  13
HETATM   13  C   UNL     1      -8.241   2.797  70.900  1.00  0.00    -0.072 C  
HETATM   14  C   UNL     1      -9.569   2.076  71.210  1.00  0.00    -0.214 C  
HETATM   15  C   UNL     1      -7.435   2.027  69.831  1.00  0.00    -0.043 C  
HETATM   16  C   UNL     1      -7.392   2.707  72.200  1.00  0.00    -0.043 C  
ENDBRANCH   7  13
BRANCH  10  17
HETATM   17  N   UNL     1      -9.116   8.322  69.197  1.00  0.00    -0.147 N  
HETATM   18  C   UNL     1     -10.232   9.118  69.462  1.00  0.00    -0.203 C  
HETATM   19  H   UNL     1      -8.400   8.732  68.597  1.00  0.00     0.000 HD 
HETATM   20  O   UNL     1     -11.225   8.816  70.119  1.00  0.00    -0.237 OA 
BRANCH  18  21
HETATM   21  C   UNL     1     -10.140  10.516  68.968  1.00  0.00    -0.230 C  
HETATM   22  C   UNL     1      -8.957  11.164  68.911  1.00  0.00    -0.081 C  
HETATM   23  N   UNL     1      -8.754  12.391  68.303  1.00  0.00    -0.186 NA 
HETATM   24  C   UNL     1      -9.706  12.834  67.366  1.00  0.00    -0.197 A  
HETATM   25  C   UNL     1      -9.445  13.839  66.442  1.00  0.00    -0.259 A  
HETATM   26  C   UNL     1     -10.416  14.194  65.497  1.00  0.00    -0.352 A  
HETATM   27  C   UNL     1     -11.667  13.571  65.482  1.00  0.00    -0.361 A  
HETATM   28  C   UNL     1     -11.966  12.612  66.438  1.00  0.00    -0.425 A  
HETATM   29  C   UNL     1     -10.990  12.268  67.373  1.00  0.00    -0.298 A  
HETATM   30  C   UNL     1     -11.282  11.245  68.385  1.00  0.00    -0.262 C  
HETATM   31  O   UNL     1     -12.440  10.992  68.694  1.00  0.00    -0.462 OA 
ENDBRANCH  18  21
ENDBRANCH  10  17
ENDBRANCH   2   5
TORSDOF 4
ENDMDL
MODEL      137
REMARK 921   NORMALIZED FREE ENERGY PREDICTED BY IDOCK:   -3.70 KCAL/MOL
REMARK 922        TOTAL FREE ENERGY PREDICTED BY IDOCK:   -5.74 KCAL/MOL
REMARK 923 INTER-LIGAND FREE ENERGY PREDICTED BY IDOCK:   -5.37 KCAL/MOL
REMARK 924 INTRA-LIGAND FREE ENERGY PREDICTED BY IDOCK:   -0.37 KCAL/MOL
REMARK 927      BINDING AFFINITY PREDICTED BY RF-SCORE:    0.00 PKD
ROOT
HETATM    1  C   UNL     1      -8.320   9.246  70.781  1.00  0.00    -0.230 C  
HETATM    2  C   UNL     1      -7.531   8.806  69.525  1.00  0.00    -0.075 C  
HETATM    3  C   UNL     1      -7.199  10.106  68.722  1.00  0.00    -0.081 C  
HETATM    4  C   UNL     1      -6.150   8.294  69.961  1.00  0.00    -0.028 C  
ENDROOT
BRANCH   2   5
HETATM    5  C   UNL     1      -8.443   7.787  68.768  1.00  0.00    -0.129 A  
HETATM    6  C   UNL     1      -8.217   6.414  69.092  1.00  0.00    -0.111 A  
HETATM    7  C   UNL     1      -8.800   5.296  68.454  1.00  0.00    -0.105 A  
HETATM    8  H   UNL     1     -10.950   4.905  65.946  1.00  0.00     0.000 HD 
HETATM    9  C   UNL     1      -9.683   5.602  67.426  1.00  0.00    -0.127 A  
HETATM   10  C   UNL     1      -9.372   8.033  67.723  1.00  0.00    -0.137 A  
HETATM   11  O   UNL     1     -10.346   4.696  66.648  1.00  0.00    -0.237 OA 
HETATM   12  C   UNL     1      -9.958   6.925  67.083  1.00  0.00    -0.239 A  
BRANCH   7  13
HETATM   13  C   UNL     1      -8.414   3.868  68.886  1.00  0.00    -0.100 C  
HETATM   14  C   UNL     1      -7.018   3.498  68.343  1.00  0.00    -0.050 C  
HETATM   15  C   UNL     1      -8.455   3.741  70.425  1.00  0.00    -0.093 C  
HETATM   16  C   UNL     1      -9.383   2.774  68.356  1.00  0.00    -0.252 C  
ENDBRANCH   7  13
BRANCH  10  17
HETATM   17  N   UNL     1      -9.741   9.332  67.280  1.00  0.00    -0.158 N  
HETATM   18  C   UNL     1     -10.582  10.239  67.928  1.00  0.00    -0.239 C  
HETATM   19  H   UNL     1      -9.347   9.636  66.389  1.00  0.00     0.000 HD 
HETATM   20  O   UNL     1     -11.193  10.071  68.980  1.00  0.00    -0.207 OA 
BRANCH  18  21
HETATM   21  C   UNL     1     -10.649  11.588  67.308  1.00  0.00    -0.266 C  
HETATM   22  C   UNL     1     -11.794  12.303  67.305  1.00  0.00    -0.260 C  
HETATM   23  N   UNL     1     -11.902  13.626  66.914  1.00  0.00    -0.390 NA 
HETATM   24  C   UNL     1     -10.729  14.405  66.876  1.00  0.00    -0.292 A  
HETATM   25  C   UNL     1     -10.747  15.794  66.859  1.00  0.00    -0.299 A  
HETATM   26  C   UNL     1      -9.543  16.512  66.881  1.00  0.00    -0.253 A  
HETATM   27  C   UNL     1      -8.313  15.852  66.890  1.00  0.00    -0.281 A  
HETATM   28  C   UNL     1      -8.277  14.467  66.841  1.00  0.00    -0.048 A  
HETATM   29  C   UNL     1      -9.482  13.764  66.820  1.00  0.00    -0.281 A  
HETATM   30  C   UNL     1      -9.466  12.297  66.783  1.00  0.00    -0.222 C  
HETATM   31  O   UNL     1      -8.485  11.698  66.363  1.00  0.00    -0.176 OA 
ENDBRANCH  18  21
ENDBRANCH  10  17
ENDBRANCH   2   5
TORSDOF 4
ENDMDL
MODEL      138
REMARK 921   NORMALIZED FREE ENERGY PREDICTED BY IDOCK:   -3.64 KCAL/MOL
REMARK 922        TOTAL FREE ENERGY PREDICTED BY IDOCK:   -5.66 KCAL/MOL
REMARK 923 INTER-LIGAND FREE ENERGY PREDICTED BY IDOCK:   -5.67 KCAL/MOL
REMARK 924 INTRA-LIGAND FREE ENERGY PREDICTED BY IDOCK:    0.01 KCAL/MOL
REMARK 927      BINDING AFFINITY PREDICTED BY RF-SCORE:    0.00 PKD
ROOT
HETATM    1  C   UNL     1     -11.015   7.958  69.840  1.00  0.00    -0.179 C  
HETATM    2  C   UNL     1     -10.518   9.398  70.108  1.00  0.00    -0.280 C  
HETATM    3  C   UNL     1     -11.555  10.063  71.070  1.00  0.00    -0.476 C  
HETATM    4  C   UNL     1      -9.238   9.333  70.954  1.00  0.00    -0.300 C  
ENDROOT
BRANCH   2   5
HETATM    5  C   UNL     1     -10.393  10.086  68.709  1.00  0.00    -0.216 A  
HETATM    6  C   UNL     1     -10.597  11.500  68.709  1.00  0.00    -0.241 A  
HETATM    7  C   UNL     1     -10.680  12.335  67.572  1.00  0.00    -0.255 A  
HETATM    8  H   UNL     1     -10.497  11.823  64.290  1.00  0.00     0.000 HD 
HETATM    9  C   UNL     1     -10.531  11.683  66.354  1.00  0.00    -0.244 A  
HETATM   10  C   UNL     1     -10.227   9.484  67.435  1.00  0.00    -0.227 A  
HETATM   11  O   UNL     1     -10.599  12.269  65.122  1.00  0.00    -0.268 OA 
HETATM   12  C   UNL     1     -10.306  10.308  66.297  1.00  0.00    -0.256 A  
BRANCH   7  13
HETATM   13  C   UNL     1     -10.957  13.842  67.735  1.00  0.00    -0.272 C  
HETATM   14  C   UNL     1      -9.674  14.658  67.473  1.00  0.00    -0.210 C  
HETATM   15  C   UNL     1     -12.093  14.287  66.787  1.00  0.00    -0.446 C  
HETATM   16  C   UNL     1     -11.431  14.236  69.161  1.00  0.00    -0.330 C  
ENDBRANCH   7  13
BRANCH  10  17
HETATM   17  N   UNL     1      -9.990   8.096  67.239  1.00  0.00    -0.194 N  
HETATM   18  C   UNL     1      -9.072   7.509  66.366  1.00  0.00    -0.173 C  
HETATM   19  H   UNL     1     -10.553   7.457  67.801  1.00  0.00     0.000 HD 
HETATM   20  O   UNL     1      -8.327   8.079  65.573  1.00  0.00    -0.134 OA 
BRANCH  18  21
HETATM   21  C   UNL     1      -8.928   6.037  66.501  1.00  0.00    -0.137 C  
HETATM   22  C   UNL     1      -9.917   5.197  66.129  1.00  0.00    -0.194 C  
HETATM   23  N   UNL     1      -9.801   3.820  66.053  1.00  0.00    -0.125 NA 
HETATM   24  C   UNL     1      -8.509   3.265  65.983  1.00  0.00    -0.111 A  
HETATM   25  C   UNL     1      -8.268   1.968  65.546  1.00  0.00    -0.087 A  
HETATM   26  C   UNL     1      -6.953   1.494  65.444  1.00  0.00    -0.042 A  
HETATM   27  C   UNL     1      -5.869   2.298  65.803  1.00  0.00    -0.018 A  
HETATM   28  C   UNL     1      -6.096   3.572  66.303  1.00  0.00    -0.024 A  
HETATM   29  C   UNL     1      -7.410   4.031  66.399  1.00  0.00    -0.076 A  
HETATM   30  C   UNL     1      -7.671   5.382  66.912  1.00  0.00    -0.100 C  
HETATM   31  O   UNL     1      -6.849   5.945  67.623  1.00  0.00    -0.057 OA 
ENDBRANCH  18  21
ENDBRANCH  10  17
ENDBRANCH   2   5
TORSDOF 4
ENDMDL
MODEL      139
REMARK 921   NORMALIZED FREE ENERGY PREDICTED BY IDOCK:   -3.62 KCAL/MOL
REMARK 922        TOTAL FREE ENERGY PREDICTED BY IDOCK:   -5.63 KCAL/MOL
REMARK 923 INTER-LIGAND FREE ENERGY PREDICTED BY IDOCK:   -5.28 KCAL/MOL
REMARK 924 INTRA-LIGAND FREE ENERGY PREDICTED BY IDOCK:   -0.35 KCAL/MOL
REMARK 927      BINDING AFFINITY PREDICTED BY RF-SCORE:    0.00 PKD
ROOT
HETATM    1  C   UNL     1     -10.626   6.323  68.489  1.00  0.00    -0.315 C  
HETATM    2  C   UNL     1      -9.128   6.700  68.563  1.00  0.00    -0.128 C  
HETATM    3  C   UNL     1      -8.318   5.405  68.230  1.00  0.00    -0.098 C  
HETATM    4  C   UNL     1      -8.793   7.640  67.396  1.00  0.00    -0.124 C  
ENDROOT
BRANCH   2   5
HETATM    5  C   UNL     1      -8.888   7.265  70.002  1.00  0.00    -0.141 A  
HETATM    6  C   UNL     1      -8.567   6.287  70.992  1.00  0.00    -0.132 A  
HETATM    7  C   UNL     1      -8.444   6.510  72.381  1.00  0.00    -0.118 A  
HETATM    8  H   UNL     1      -8.753   9.174  74.349  1.00  0.00     0.000 HD 
HETATM    9  C   UNL     1      -8.650   7.822  72.785  1.00  0.00    -0.153 A  
HETATM   10  C   UNL     1      -9.066   8.591  70.476  1.00  0.00    -0.156 A  
HETATM   11  O   UNL     1      -8.612   8.277  74.073  1.00  0.00    -0.244 OA 
HETATM   12  C   UNL     1      -8.943   8.822  71.859  1.00  0.00    -0.254 A  
BRANCH   7  13
HETATM   13  C   UNL     1      -8.141   5.334  73.331  1.00  0.00    -0.111 C  
HETATM   14  C   UNL     1      -9.380   4.999  74.188  1.00  0.00    -0.123 C  
HETATM   15  C   UNL     1      -7.679   4.098  72.529  1.00  0.00    -0.075 C  
HETATM   16  C   UNL     1      -6.992   5.627  74.337  1.00  0.00    -0.081 C  
ENDBRANCH   7  13
BRANCH  10  17
HETATM   17  N   UNL     1      -9.365   9.699  69.638  1.00  0.00    -0.196 N  
HETATM   18  C   UNL     1      -8.492  10.708  69.225  1.00  0.00    -0.091 C  
HETATM   19  H   UNL     1     -10.325   9.764  69.298  1.00  0.00     0.000 HD 
HETATM   20  O   UNL     1      -7.315  10.852  69.542  1.00  0.00    -0.131 OA 
BRANCH  18  21
HETATM   21  C   UNL     1      -9.045  11.643  68.212  1.00  0.00    -0.187 C  
HETATM   22  C   UNL     1     -10.350  11.612  67.866  1.00  0.00    -0.188 C  
HETATM   23  N   UNL     1     -10.982  12.553  67.072  1.00  0.00    -0.258 NA 
HETATM   24  C   UNL     1     -10.368  13.810  66.914  1.00  0.00    -0.266 A  
HETATM   25  C   UNL     1     -11.051  14.932  66.462  1.00  0.00    -0.341 A  
HETATM   26  C   UNL     1     -10.397  16.169  66.383  1.00  0.00    -0.321 A  
HETATM   27  C   UNL     1      -9.048  16.291  66.726  1.00  0.00    -0.257 A  
HETATM   28  C   UNL     1      -8.335  15.168  67.117  1.00  0.00    -0.247 A  
HETATM   29  C   UNL     1      -8.999  13.944  67.192  1.00  0.00    -0.242 A  
HETATM   30  C   UNL     1      -8.266  12.745  67.617  1.00  0.00    -0.175 C  
HETATM   31  O   UNL     1      -7.047  12.693  67.509  1.00  0.00    -0.128 OA 
ENDBRANCH  18  21
ENDBRANCH  10  17
ENDBRANCH   2   5
TORSDOF 4
ENDMDL
MODEL      140
REMARK 921   NORMALIZED FREE ENERGY PREDICTED BY IDOCK:   -3.55 KCAL/MOL
REMARK 922        TOTAL FREE ENERGY PREDICTED BY IDOCK:   -5.55 KCAL/MOL
REMARK 923 INTER-LIGAND FREE ENERGY PREDICTED BY IDOCK:   -5.58 KCAL/MOL
REMARK 924 INTRA-LIGAND FREE ENERGY PREDICTED BY IDOCK:    0.03 KCAL/MOL
REMARK 927      BINDING AFFINITY PREDICTED BY RF-SCORE:    0.00 PKD
ROOT
HETATM    1  C   UNL     1     -12.158  15.261  68.201  1.00  0.00     0.052 C  
HETATM    2  C   UNL     1     -11.256  15.014  69.433  1.00  0.00    -0.299 C  
HETATM    3  C   UNL     1     -11.766  15.964  70.565  1.00  0.00    -0.394 C  
HETATM    4  C   UNL     1     -11.545  13.611  69.988  1.00  0.00    -0.250 C  
ENDROOT
BRANCH   2   5
HETATM    5  C   UNL     1      -9.789  15.288  68.965  1.00  0.00    -0.230 A  
HETATM    6  C   UNL     1      -9.453  16.667  68.801  1.00  0.00    -0.258 A  
HETATM    7  C   UNL     1      -8.253  17.178  68.257  1.00  0.00    -0.230 A  
HETATM    8  H   UNL     1      -5.484  15.806  67.027  1.00  0.00     0.000 HD 
HETATM    9  C   UNL     1      -7.330  16.216  67.867  1.00  0.00    -0.129 A  
HETATM   10  C   UNL     1      -8.795  14.357  68.566  1.00  0.00    -0.182 A  
HETATM   11  O   UNL     1      -6.115  16.463  67.294  1.00  0.00    -0.151 OA 
HETATM   12  C   UNL     1      -7.596  14.857  68.026  1.00  0.00    -0.128 A  
BRANCH   7  13
HETATM   13  C   UNL     1      -8.060  18.699  68.099  1.00  0.00    -0.318 C  
HETATM   14  C   UNL     1      -6.984  19.212  69.078  1.00  0.00    -0.371 C  
HETATM   15  C   UNL     1      -7.684  19.045  66.641  1.00  0.00    -0.260 C  
HETATM   16  C   UNL     1      -9.342  19.523  68.401  1.00  0.00    -0.431 C  
ENDBRANCH   7  13
BRANCH  10  17
HETATM   17  N   UNL     1      -8.941  12.947  68.678  1.00  0.00    -0.394 N  
HETATM   18  C   UNL     1      -7.997  11.970  68.353  1.00  0.00    -0.152 C  
HETATM   19  H   UNL     1      -9.835  12.611  69.035  1.00  0.00     0.000 HD 
HETATM   20  O   UNL     1      -6.880  12.142  67.872  1.00  0.00    -0.078 OA 
BRANCH  18  21
HETATM   21  C   UNL     1      -8.370  10.584  68.734  1.00  0.00    -0.136 C  
HETATM   22  C   UNL     1      -9.379   9.933  68.117  1.00  0.00    -0.131 C  
HETATM   23  N   UNL     1      -9.675   8.591  68.282  1.00  0.00    -0.151 NA 
HETATM   24  C   UNL     1      -8.676   7.751  68.810  1.00  0.00    -0.128 A  
HETATM   25  C   UNL     1      -8.713   6.367  68.687  1.00  0.00    -0.122 A  
HETATM   26  C   UNL     1      -7.657   5.589  69.183  1.00  0.00    -0.086 A  
HETATM   27  C   UNL     1      -6.571   6.182  69.831  1.00  0.00    -0.044 A  
HETATM   28  C   UNL     1      -6.551   7.555  70.019  1.00  0.00    -0.042 A  
HETATM   29  C   UNL     1      -7.608   8.317  69.521  1.00  0.00    -0.095 A  
HETATM   30  C   UNL     1      -7.599   9.775  69.697  1.00  0.00    -0.120 C  
HETATM   31  O   UNL     1      -6.940  10.287  70.593  1.00  0.00    -0.323 OA 
ENDBRANCH  18  21
ENDBRANCH  10  17
ENDBRANCH   2   5
TORSDOF 4
ENDMDL
MODEL      141
REMARK 921   NORMALIZED FREE ENERGY PREDICTED BY IDOCK:   -3.51 KCAL/MOL
REMARK 922        TOTAL FREE ENERGY PREDICTED BY IDOCK:   -5.50 KCAL/MOL
REMARK 923 INTER-LIGAND FREE ENERGY PREDICTED BY IDOCK:   -5.28 KCAL/MOL
REMARK 924 INTRA-LIGAND FREE ENERGY PREDICTED BY IDOCK:   -0.22 KCAL/MOL
REMARK 927      BINDING AFFINITY PREDICTED BY RF-SCORE:    0.00 PKD
ROOT
HETATM    1  C   UNL     1     -11.394  16.656  67.619  1.00  0.00     0.114 C  
HETATM    2  C   UNL     1     -10.166  17.024  66.753  1.00  0.00    -0.298 C  
HETATM    3  C   UNL     1     -10.117  15.994  65.578  1.00  0.00    -0.336 C  
HETATM    4  C   UNL     1     -10.438  18.359  66.046  1.00  0.00    -0.400 C  
ENDROOT
BRANCH   2   5
HETATM    5  C   UNL     1      -8.928  16.982  67.708  1.00  0.00    -0.224 A  
HETATM    6  C   UNL     1      -8.298  18.244  67.939  1.00  0.00    -0.259 A  
HETATM    7  C   UNL     1      -7.090  18.462  68.639  1.00  0.00    -0.293 A  
HETATM    8  H   UNL     1      -4.903  16.485  70.181  1.00  0.00     0.000 HD 
HETATM    9  C   UNL     1      -6.492  17.316  69.147  1.00  0.00    -0.235 A  
HETATM   10  C   UNL     1      -8.277  15.853  68.271  1.00  0.00    -0.152 A  
HETATM   11  O   UNL     1      -5.312  17.269  69.833  1.00  0.00    -0.177 OA 
HETATM   12  C   UNL     1      -7.075  16.062  68.971  1.00  0.00    -0.171 A  
BRANCH   7  13
HETATM   13  C   UNL     1      -6.510  19.884  68.760  1.00  0.00    -0.339 C  
HETATM   14  C   UNL     1      -7.480  20.917  68.150  1.00  0.00     0.144 C  
HETATM   15  C   UNL     1      -6.209  20.220  70.237  1.00  0.00    -0.336 C  
HETATM   16  C   UNL     1      -5.161  20.072  68.011  1.00  0.00    -0.188 C  
ENDBRANCH   7  13
BRANCH  10  17
HETATM   17  N   UNL     1      -8.768  14.523  68.166  1.00  0.00    -0.164 N  
HETATM   18  C   UNL     1      -8.029  13.367  67.909  1.00  0.00    -0.155 C  
HETATM   19  H   UNL     1      -9.773  14.400  68.293  1.00  0.00     0.000 HD 
HETATM   20  O   UNL     1      -6.824  13.285  67.685  1.00  0.00    -0.140 OA 
BRANCH  18  21
HETATM   21  C   UNL     1      -8.789  12.096  68.025  1.00  0.00    -0.181 C  
HETATM   22  C   UNL     1     -10.126  12.058  67.837  1.00  0.00    -0.195 C  
HETATM   23  N   UNL     1     -10.882  10.901  67.750  1.00  0.00    -0.237 NA 
HETATM   24  C   UNL     1     -10.218   9.695  67.456  1.00  0.00    -0.220 A  
HETATM   25  C   UNL     1     -10.878   8.564  66.991  1.00  0.00    -0.030 A  
HETATM   26  C   UNL     1     -10.152   7.412  66.661  1.00  0.00    -0.253 A  
HETATM   27  C   UNL     1      -8.765   7.367  66.820  1.00  0.00    -0.136 A  
HETATM   28  C   UNL     1      -8.099   8.464  67.345  1.00  0.00    -0.106 A  
HETATM   29  C   UNL     1      -8.833   9.604  67.669  1.00  0.00    -0.127 A  
HETATM   30  C   UNL     1      -8.146  10.781  68.212  1.00  0.00    -0.121 C  
HETATM   31  O   UNL     1      -7.059  10.665  68.765  1.00  0.00    -0.066 OA 
ENDBRANCH  18  21
ENDBRANCH  10  17
ENDBRANCH   2   5
TORSDOF 4
ENDMDL
MODEL      142
REMARK 921   NORMALIZED FREE ENERGY PREDICTED BY IDOCK:   -3.43 KCAL/MOL
REMARK 922        TOTAL FREE ENERGY PREDICTED BY IDOCK:   -5.40 KCAL/MOL
REMARK 923 INTER-LIGAND FREE ENERGY PREDICTED BY IDOCK:   -4.50 KCAL/MOL
REMARK 924 INTRA-LIGAND FREE ENERGY PREDICTED BY IDOCK:   -0.90 KCAL/MOL
REMARK 927      BINDING AFFINITY PREDICTED BY RF-SCORE:    0.00 PKD
ROOT
HETATM    1  C   UNL     1      -6.223   5.217  66.485  1.00  0.00    -0.035 C  
HETATM    2  C   UNL     1      -7.012   6.466  66.942  1.00  0.00    -0.068 C  
HETATM    3  C   UNL     1      -6.012   7.668  66.913  1.00  0.00    -0.047 C  
HETATM    4  C   UNL     1      -8.038   6.831  65.859  1.00  0.00    -0.123 C  
ENDROOT
BRANCH   2   5
HETATM    5  C   UNL     1      -7.585   6.131  68.358  1.00  0.00    -0.092 A  
HETATM    6  C   UNL     1      -7.519   4.752  68.727  1.00  0.00    -0.065 A  
HETATM    7  C   UNL     1      -8.089   4.165  69.879  1.00  0.00    -0.059 A  
HETATM    8  H   UNL     1      -9.871   5.317  72.440  1.00  0.00     0.000 HD 
HETATM    9  C   UNL     1      -8.760   5.047  70.715  1.00  0.00    -0.127 A  
HETATM   10  C   UNL     1      -8.267   6.983  69.265  1.00  0.00    -0.125 A  
HETATM   11  O   UNL     1      -9.412   4.714  71.868  1.00  0.00    -0.135 OA 
HETATM   12  C   UNL     1      -8.836   6.407  70.416  1.00  0.00    -0.151 A  
BRANCH   7  13
HETATM   13  C   UNL     1      -7.974   2.646  70.112  1.00  0.00    -0.052 C  
HETATM   14  C   UNL     1      -7.229   2.357  71.432  1.00  0.00    -0.032 C  
HETATM   15  C   UNL     1      -9.374   1.994  70.119  1.00  0.00    -0.171 C  
HETATM   16  C   UNL     1      -7.180   1.904  69.001  1.00  0.00    -0.043 C  
ENDBRANCH   7  13
BRANCH  10  17
HETATM   17  N   UNL     1      -8.412   8.385  69.078  1.00  0.00    -0.122 N  
HETATM   18  C   UNL     1      -9.458   9.049  68.435  1.00  0.00    -0.146 C  
HETATM   19  H   UNL     1      -7.668   8.971  69.457  1.00  0.00     0.000 HD 
HETATM   20  O   UNL     1     -10.428   8.546  67.874  1.00  0.00    -0.224 OA 
BRANCH  18  21
HETATM   21  C   UNL     1      -9.424  10.530  68.542  1.00  0.00    -0.164 C  
HETATM   22  C   UNL     1      -8.274  11.219  68.377  1.00  0.00    -0.149 C  
HETATM   23  N   UNL     1      -8.183  12.597  68.282  1.00  0.00    -0.164 NA 
HETATM   24  C   UNL     1      -9.346  13.319  67.956  1.00  0.00    -0.218 A  
HETATM   25  C   UNL     1      -9.316  14.625  67.482  1.00  0.00    -0.195 A  
HETATM   26  C   UNL     1     -10.506  15.269  67.119  1.00  0.00    -0.280 A  
HETATM   27  C   UNL     1     -11.740  14.628  67.253  1.00  0.00    -0.406 A  
HETATM   28  C   UNL     1     -11.793  13.348  67.785  1.00  0.00    -0.395 A  
HETATM   29  C   UNL     1     -10.601  12.718  68.142  1.00  0.00    -0.242 A  
HETATM   30  C   UNL     1     -10.635  11.359  68.694  1.00  0.00    -0.199 C  
HETATM   31  O   UNL     1     -11.651  10.930  69.225  1.00  0.00    -0.267 OA 
ENDBRANCH  18  21
ENDBRANCH  10  17
ENDBRANCH   2   5
TORSDOF 4
ENDMDL
MODEL      143
REMARK 921   NORMALIZED FREE ENERGY PREDICTED BY IDOCK:   -3.32 KCAL/MOL
REMARK 922        TOTAL FREE ENERGY PREDICTED BY IDOCK:   -5.27 KCAL/MOL
REMARK 923 INTER-LIGAND FREE ENERGY PREDICTED BY IDOCK:   -4.06 KCAL/MOL
REMARK 924 INTRA-LIGAND FREE ENERGY PREDICTED BY IDOCK:   -1.21 KCAL/MOL
REMARK 927      BINDING AFFINITY PREDICTED BY RF-SCORE:    0.00 PKD
ROOT
HETATM    1  C   UNL     1     -13.015  11.612  71.662  1.00  0.00    -0.483 C  
HETATM    2  C   UNL     1     -12.150  12.481  70.720  1.00  0.00    -0.240 C  
HETATM    3  C   UNL     1     -13.128  13.161  69.706  1.00  0.00     1.123 C  
HETATM    4  C   UNL     1     -11.583  13.666  71.516  1.00  0.00     1.223 C  
ENDROOT
BRANCH   2   5
HETATM    5  C   UNL     1     -11.105  11.517  70.069  1.00  0.00     0.021 A  
HETATM    6  C   UNL     1     -11.250  10.140  70.422  1.00  0.00    -0.402 A  
HETATM    7  C   UNL     1     -10.362   9.092  70.090  1.00  0.00    -0.244 A  
HETATM    8  H   UNL     1      -7.500   8.911  68.403  1.00  0.00     0.000 HD 
HETATM    9  C   UNL     1      -9.259   9.474  69.336  1.00  0.00    -0.176 A  
HETATM   10  C   UNL     1      -9.969  11.838  69.281  1.00  0.00     0.309 A  
HETATM   11  O   UNL     1      -8.254   8.650  68.918  1.00  0.00    -0.119 OA 
HETATM   12  C   UNL     1      -9.080  10.800  68.945  1.00  0.00    -0.170 A  
BRANCH   7  13
HETATM   13  C   UNL     1     -10.631   7.660  70.590  1.00  0.00    -0.225 C  
HETATM   14  C   UNL     1     -10.833   6.700  69.399  1.00  0.00    -0.340 C  
HETATM   15  C   UNL     1      -9.475   7.178  71.493  1.00  0.00    -0.161 C  
HETATM   16  C   UNL     1     -11.913   7.536  71.461  1.00  0.00    -0.336 C  
ENDBRANCH   7  13
BRANCH  10  17
HETATM   17  N   UNL     1      -9.673  13.148  68.816  1.00  0.00    -0.418 N  
HETATM   18  C   UNL     1     -10.083  13.733  67.616  1.00  0.00    -0.242 C  
HETATM   19  H   UNL     1      -9.096  13.727  69.427  1.00  0.00     0.000 HD 
HETATM   20  O   UNL     1     -10.742  13.212  66.719  1.00  0.00    -0.265 OA 
BRANCH  18  21
HETATM   21  C   UNL     1      -9.762  15.176  67.477  1.00  0.00    -0.205 C  
HETATM   22  C   UNL     1     -10.734  16.113  67.454  1.00  0.00    -0.291 C  
HETATM   23  N   UNL     1     -10.520  17.480  67.507  1.00  0.00    -0.355 NA 
HETATM   24  C   UNL     1      -9.279  17.939  67.991  1.00  0.00    -0.267 A  
HETATM   25  C   UNL     1      -9.077  19.242  68.429  1.00  0.00    -0.408 A  
HETATM   26  C   UNL     1      -7.834  19.621  68.954  1.00  0.00    -0.299 A  
HETATM   27  C   UNL     1      -6.774  18.713  69.019  1.00  0.00    -0.296 A  
HETATM   28  C   UNL     1      -6.940  17.428  68.526  1.00  0.00    -0.215 A  
HETATM   29  C   UNL     1      -8.183  17.064  68.006  1.00  0.00    -0.206 A  
HETATM   30  C   UNL     1      -8.384  15.704  67.492  1.00  0.00    -0.169 C  
HETATM   31  O   UNL     1      -7.428  15.031  67.127  1.00  0.00    -0.200 OA 
ENDBRANCH  18  21
ENDBRANCH  10  17
ENDBRANCH   2   5
TORSDOF 4
ENDMDL
MODEL      144
REMARK 921   NORMALIZED FREE ENERGY PREDICTED BY IDOCK:   -3.22 KCAL/MOL
REMARK 922        TOTAL FREE ENERGY PREDICTED BY IDOCK:   -5.14 KCAL/MOL
REMARK 923 INTER-LIGAND FREE ENERGY PREDICTED BY IDOCK:   -4.89 KCAL/MOL
REMARK 924 INTRA-LIGAND FREE ENERGY PREDICTED BY IDOCK:   -0.25 KCAL/MOL
REMARK 927      BINDING AFFINITY PREDICTED BY RF-SCORE:    0.00 PKD
ROOT
HETATM    1  C   UNL     1      -8.712   9.523  69.689  1.00  0.00    -0.189 C  
HETATM    2  C   UNL     1      -7.403   9.566  68.866  1.00  0.00    -0.073 C  
HETATM    3  C   UNL     1      -6.666  10.889  69.256  1.00  0.00    -0.086 C  
HETATM    4  C   UNL     1      -6.458   8.468  69.377  1.00  0.00    -0.037 C  
ENDROOT
BRANCH   2   5
HETATM    5  C   UNL     1      -7.826   9.475  67.363  1.00  0.00    -0.102 A  
HETATM    6  C   UNL     1      -7.625   8.199  66.753  1.00  0.00    -0.094 A  
HETATM    7  C   UNL     1      -7.789   7.890  65.384  1.00  0.00    -0.112 A  
HETATM    8  H   UNL     1      -8.677   9.633  62.694  1.00  0.00     0.000 HD 
HETATM    9  C   UNL     1      -8.198   8.952  64.588  1.00  0.00    -0.163 A  
HETATM   10  C   UNL     1      -8.264  10.513  66.500  1.00  0.00    -0.133 A  
HETATM   11  O   UNL     1      -8.398   8.907  63.238  1.00  0.00    -0.184 OA 
HETATM   12  C   UNL     1      -8.432  10.213  65.135  1.00  0.00    -0.167 A  
BRANCH   7  13
HETATM   13  C   UNL     1      -7.482   6.471  64.868  1.00  0.00    -0.086 C  
HETATM   14  C   UNL     1      -8.085   6.265  63.462  1.00  0.00    -0.049 C  
HETATM   15  C   UNL     1      -5.958   6.220  64.853  1.00  0.00    -0.026 C  
HETATM   16  C   UNL     1      -8.077   5.343  65.757  1.00  0.00    -0.110 C  
ENDBRANCH   7  13
BRANCH  10  17
HETATM   17  N   UNL     1      -8.539  11.839  66.931  1.00  0.00    -0.172 N  
HETATM   18  C   UNL     1      -9.723  12.316  67.498  1.00  0.00    -0.190 C  
HETATM   19  H   UNL     1      -7.787  12.519  66.814  1.00  0.00     0.000 HD 
HETATM   20  O   UNL     1     -10.762  11.691  67.693  1.00  0.00    -0.192 OA 
BRANCH  18  21
HETATM   21  C   UNL     1      -9.660  13.710  68.007  1.00  0.00    -0.216 C  
HETATM   22  C   UNL     1      -8.635  14.130  68.779  1.00  0.00    -0.067 C  
HETATM   23  N   UNL     1      -8.405  15.445  69.144  1.00  0.00    -0.225 NA 
HETATM   24  C   UNL     1      -9.019  16.462  68.388  1.00  0.00    -0.214 A  
HETATM   25  C   UNL     1      -8.593  17.785  68.416  1.00  0.00    -0.292 A  
HETATM   26  C   UNL     1      -9.210  18.739  67.595  1.00  0.00    -0.310 A  
HETATM   27  C   UNL     1     -10.275  18.389  66.762  1.00  0.00    -0.410 A  
HETATM   28  C   UNL     1     -10.754  17.088  66.771  1.00  0.00    -0.102 A  
HETATM   29  C   UNL     1     -10.131  16.148  67.592  1.00  0.00    -0.248 A  
HETATM   30  C   UNL     1     -10.614  14.762  67.606  1.00  0.00    -0.262 C  
HETATM   31  O   UNL     1     -11.758  14.500  67.258  1.00  0.00    -0.380 OA 
ENDBRANCH  18  21
ENDBRANCH  10  17
ENDBRANCH   2   5
TORSDOF 4
ENDMDL
MODEL      145
REMARK 921   NORMALIZED FREE ENERGY PREDICTED BY IDOCK:   -3.22 KCAL/MOL
REMARK 922        TOTAL FREE ENERGY PREDICTED BY IDOCK:   -5.14 KCAL/MOL
REMARK 923 INTER-LIGAND FREE ENERGY PREDICTED BY IDOCK:   -4.38 KCAL/MOL
REMARK 924 INTRA-LIGAND FREE ENERGY PREDICTED BY IDOCK:   -0.76 KCAL/MOL
REMARK 927      BINDING AFFINITY PREDICTED BY RF-SCORE:    0.00 PKD
ROOT
HETATM    1  C   UNL     1     -10.740  11.760  67.149  1.00  0.00    -0.283 C  
HETATM    2  C   UNL     1      -9.593  10.817  66.716  1.00  0.00    -0.201 C  
HETATM    3  C   UNL     1     -10.262   9.561  66.069  1.00  0.00    -0.242 C  
HETATM    4  C   UNL     1      -8.836  11.461  65.546  1.00  0.00    -0.034 C  
ENDROOT
BRANCH   2   5
HETATM    5  C   UNL     1      -8.759  10.520  68.005  1.00  0.00    -0.128 A  
HETATM    6  C   UNL     1      -8.699   9.144  68.384  1.00  0.00    -0.129 A  
HETATM    7  C   UNL     1      -8.137   8.626  69.572  1.00  0.00    -0.110 A  
HETATM    8  H   UNL     1      -6.640   9.972  72.220  1.00  0.00     0.000 HD 
HETATM    9  C   UNL     1      -7.589   9.576  70.424  1.00  0.00    -0.159 A  
HETATM   10  C   UNL     1      -8.163  11.438  68.909  1.00  0.00    -0.052 A  
HETATM   11  O   UNL     1      -7.015   9.323  71.637  1.00  0.00    -0.300 OA 
HETATM   12  C   UNL     1      -7.599  10.930  70.094  1.00  0.00     0.667 A  
BRANCH   7  13
HETATM   13  C   UNL     1      -8.196   7.113  69.862  1.00  0.00    -0.133 C  
HETATM   14  C   UNL     1      -8.956   6.377  68.740  1.00  0.00    -0.126 C  
HETATM   15  C   UNL     1      -6.771   6.541  70.027  1.00  0.00    -0.049 C  
HETATM   16  C   UNL     1      -8.937   6.762  71.183  1.00  0.00    -0.147 C  
ENDBRANCH   7  13
BRANCH  10  17
HETATM   17  N   UNL     1      -8.105  12.841  68.689  1.00  0.00    -0.322 N  
HETATM   18  C   UNL     1      -7.241  13.529  67.834  1.00  0.00    -0.139 C  
HETATM   19  H   UNL     1      -8.769  13.410  69.215  1.00  0.00     0.000 HD 
HETATM   20  O   UNL     1      -6.343  13.056  67.143  1.00  0.00    -0.257 OA 
BRANCH  18  21
HETATM   21  C   UNL     1      -7.526  14.979  67.684  1.00  0.00    -0.202 C  
HETATM   22  C   UNL     1      -8.764  15.423  67.377  1.00  0.00    -0.179 C  
HETATM   23  N   UNL     1      -9.157  16.750  67.394  1.00  0.00    -0.215 NA 
HETATM   24  C   UNL     1      -8.375  17.665  68.124  1.00  0.00    -0.259 A  
HETATM   25  C   UNL     1      -8.843  18.913  68.516  1.00  0.00    -0.387 A  
HETATM   26  C   UNL     1      -8.034  19.755  69.292  1.00  0.00    -0.008 A  
HETATM   27  C   UNL     1      -6.742  19.372  69.659  1.00  0.00    -0.275 A  
HETATM   28  C   UNL     1      -6.236  18.158  69.221  1.00  0.00    -0.253 A  
HETATM   29  C   UNL     1      -7.051  17.329  68.450  1.00  0.00    -0.209 A  
HETATM   30  C   UNL     1      -6.540  16.033  67.988  1.00  0.00    -0.133 C  
HETATM   31  O   UNL     1      -5.335  15.838  67.899  1.00  0.00    -0.115 OA 
ENDBRANCH  18  21
ENDBRANCH  10  17
ENDBRANCH   2   5
TORSDOF 4
ENDMDL
MODEL      146
REMARK 921   NORMALIZED FREE ENERGY PREDICTED BY IDOCK:   -3.18 KCAL/MOL
REMARK 922        TOTAL FREE ENERGY PREDICTED BY IDOCK:   -5.09 KCAL/MOL
REMARK 923 INTER-LIGAND FREE ENERGY PREDICTED BY IDOCK:   -5.27 KCAL/MOL
REMARK 924 INTRA-LIGAND FREE ENERGY PREDICTED BY IDOCK:    0.18 KCAL/MOL
REMARK 927      BINDING AFFINITY PREDICTED BY RF-SCORE:    0.00 PKD
ROOT
HETATM    1  C   UNL     1     -10.362  20.043  68.158  1.00  0.00    -0.503 C  
HETATM    2  C   UNL     1      -9.600  19.040  67.260  1.00  0.00    -0.363 C  
HETATM    3  C   UNL     1     -10.666  18.055  66.677  1.00  0.00    -0.156 C  
HETATM    4  C   UNL     1      -9.080  19.778  66.019  1.00  0.00    -0.319 C  
ENDROOT
BRANCH   2   5
HETATM    5  C   UNL     1      -8.522  18.366  68.172  1.00  0.00    -0.301 A  
HETATM    6  C   UNL     1      -7.819  19.258  69.038  1.00  0.00    -0.314 A  
HETATM    7  C   UNL     1      -6.709  18.935  69.851  1.00  0.00     0.030 A  
HETATM    8  H   UNL     1      -4.962  16.160  70.411  1.00  0.00     0.000 HD 
HETATM    9  C   UNL     1      -6.300  17.609  69.785  1.00  0.00    -0.126 A  
HETATM   10  C   UNL     1      -8.068  17.022  68.166  1.00  0.00    -0.212 A  
HETATM   11  O   UNL     1      -5.242  17.067  70.456  1.00  0.00    -0.209 OA 
HETATM   12  C   UNL     1      -6.966  16.691  68.975  1.00  0.00    -0.212 A  
BRANCH   7  13
HETATM   13  C   UNL     1      -6.023  20.026  70.696  1.00  0.00    -0.362 C  
HETATM   14  C   UNL     1      -5.147  19.388  71.794  1.00  0.00    -0.332 C  
HETATM   15  C   UNL     1      -5.183  20.957  69.795  1.00  0.00    -0.410 C  
HETATM   16  C   UNL     1      -7.022  20.960  71.435  1.00  0.00     2.149 C  
ENDBRANCH   7  13
BRANCH  10  17
HETATM   17  N   UNL     1      -8.660  15.990  67.388  1.00  0.00    -0.173 N  
HETATM   18  C   UNL     1      -9.456  14.937  67.843  1.00  0.00    -0.200 C  
HETATM   19  H   UNL     1      -8.483  16.022  66.383  1.00  0.00     0.000 HD 
HETATM   20  O   UNL     1      -9.762  14.681  69.004  1.00  0.00    -0.214 OA 
BRANCH  18  21
HETATM   21  C   UNL     1     -10.073  14.108  66.776  1.00  0.00    -0.262 C  
HETATM   22  C   UNL     1     -10.715  14.673  65.731  1.00  0.00    -0.315 C  
HETATM   23  N   UNL     1     -11.159  13.991  64.611  1.00  0.00    -0.384 NA 
HETATM   24  C   UNL     1     -10.601  12.727  64.338  1.00  0.00    -0.379 A  
HETATM   25  C   UNL     1     -10.684  12.119  63.091  1.00  0.00    -0.230 A  
HETATM   26  C   UNL     1     -10.057  10.886  62.868  1.00  0.00    -0.179 A  
HETATM   27  C   UNL     1      -9.368  10.234  63.893  1.00  0.00    -0.337 A  
HETATM   28  C   UNL     1      -9.332  10.796  65.160  1.00  0.00    -0.254 A  
HETATM   29  C   UNL     1      -9.959  12.024  65.369  1.00  0.00    -0.279 A  
HETATM   30  C   UNL     1      -9.921  12.642  66.699  1.00  0.00    -0.242 C  
HETATM   31  O   UNL     1      -9.730  11.958  67.696  1.00  0.00    -0.179 OA 
ENDBRANCH  18  21
ENDBRANCH  10  17
ENDBRANCH   2   5
TORSDOF 4
ENDMDL
MODEL      147
REMARK 921   NORMALIZED FREE ENERGY PREDICTED BY IDOCK:   -3.16 KCAL/MOL
REMARK 922        TOTAL FREE ENERGY PREDICTED BY IDOCK:   -5.07 KCAL/MOL
REMARK 923 INTER-LIGAND FREE ENERGY PREDICTED BY IDOCK:   -4.37 KCAL/MOL
REMARK 924 INTRA-LIGAND FREE ENERGY PREDICTED BY IDOCK:   -0.70 KCAL/MOL
REMARK 927      BINDING AFFINITY PREDICTED BY RF-SCORE:    0.00 PKD
ROOT
HETATM    1  C   UNL     1     -11.657  10.762  67.477  1.00  0.00    -0.011 C  
HETATM    2  C   UNL     1     -11.021  11.042  68.859  1.00  0.00    -0.277 C  
HETATM    3  C   UNL     1     -11.952  12.066  69.586  1.00  0.00    -0.360 C  
HETATM    4  C   UNL     1     -11.135   9.779  69.725  1.00  0.00    -0.272 C  
ENDROOT
BRANCH   2   5
HETATM    5  C   UNL     1      -9.574  11.564  68.578  1.00  0.00    -0.180 A  
HETATM    6  C   UNL     1      -9.407  12.979  68.690  1.00  0.00     0.009 A  
HETATM    7  C   UNL     1      -8.250  13.716  68.354  1.00  0.00    -0.146 A  
HETATM    8  H   UNL     1      -5.252  12.922  67.150  1.00  0.00     0.000 HD 
HETATM    9  C   UNL     1      -7.187  12.956  67.883  1.00  0.00    -0.125 A  
HETATM   10  C   UNL     1      -8.444  10.843  68.111  1.00  0.00    -0.131 A  
HETATM   11  O   UNL     1      -5.979  13.442  67.471  1.00  0.00    -0.277 OA 
HETATM   12  C   UNL     1      -7.286  11.569  67.775  1.00  0.00    -0.096 A  
BRANCH   7  13
HETATM   13  C   UNL     1      -8.243  15.251  68.483  1.00  0.00    -0.146 C  
HETATM   14  C   UNL     1      -7.193  15.702  69.521  1.00  0.00    -0.198 C  
HETATM   15  C   UNL     1      -7.975  15.907  67.111  1.00  0.00    -0.243 C  
HETATM   16  C   UNL     1      -9.599  15.840  68.964  1.00  0.00    -0.243 C  
ENDBRANCH   7  13
BRANCH  10  17
HETATM   17  N   UNL     1      -8.414   9.430  67.958  1.00  0.00    -0.120 N  
HETATM   18  C   UNL     1      -7.611   8.521  68.649  1.00  0.00    -0.098 C  
HETATM   19  H   UNL     1      -9.052   9.036  67.265  1.00  0.00     0.000 HD 
HETATM   20  O   UNL     1      -6.751   8.773  69.489  1.00  0.00    -0.046 OA 
BRANCH  18  21
HETATM   21  C   UNL     1      -7.921   7.090  68.397  1.00  0.00    -0.123 C  
HETATM   22  C   UNL     1      -7.096   6.311  67.665  1.00  0.00    -0.081 C  
HETATM   23  N   UNL     1      -7.212   4.939  67.532  1.00  0.00    -0.069 NA 
HETATM   24  C   UNL     1      -7.977   4.241  68.486  1.00  0.00    -0.073 A  
HETATM   25  C   UNL     1      -7.875   2.868  68.677  1.00  0.00    -0.057 A  
HETATM   26  C   UNL     1      -8.621   2.241  69.684  1.00  0.00    -0.104 A  
HETATM   27  C   UNL     1      -9.496   2.973  70.491  1.00  0.00    -0.221 A  
HETATM   28  C   UNL     1      -9.657   4.332  70.271  1.00  0.00    -0.269 A  
HETATM   29  C   UNL     1      -8.909   4.944  69.265  1.00  0.00    -0.115 A  
HETATM   30  C   UNL     1      -9.054   6.384  69.026  1.00  0.00    -0.130 C  
HETATM   31  O   UNL     1     -10.070   6.971  69.374  1.00  0.00    -0.163 OA 
ENDBRANCH  18  21
ENDBRANCH  10  17
ENDBRANCH   2   5
TORSDOF 4
ENDMDL
MODEL      148
REMARK 921   NORMALIZED FREE ENERGY PREDICTED BY IDOCK:   -3.00 KCAL/MOL
REMARK 922        TOTAL FREE ENERGY PREDICTED BY IDOCK:   -4.87 KCAL/MOL
REMARK 923 INTER-LIGAND FREE ENERGY PREDICTED BY IDOCK:   -4.56 KCAL/MOL
REMARK 924 INTRA-LIGAND FREE ENERGY PREDICTED BY IDOCK:   -0.32 KCAL/MOL
REMARK 927      BINDING AFFINITY PREDICTED BY RF-SCORE:    0.00 PKD
ROOT
HETATM    1  C   UNL     1      -5.337  16.476  66.763  1.00  0.00     0.093 C  
HETATM    2  C   UNL     1      -6.068  16.108  68.076  1.00  0.00    -0.131 C  
HETATM    3  C   UNL     1      -5.655  14.642  68.427  1.00  0.00    -0.107 C  
HETATM    4  C   UNL     1      -5.469  16.932  69.225  1.00  0.00    -0.143 C  
ENDROOT
BRANCH   2   5
HETATM    5  C   UNL     1      -7.594  16.307  67.799  1.00  0.00    -0.151 A  
HETATM    6  C   UNL     1      -8.005  17.662  67.617  1.00  0.00    -0.212 A  
HETATM    7  C   UNL     1      -9.335  18.125  67.496  1.00  0.00    -0.258 A  
HETATM    8  H   UNL     1     -12.322  16.661  67.522  1.00  0.00     0.000 HD 
HETATM    9  C   UNL     1     -10.308  17.135  67.552  1.00  0.00    -0.341 A  
HETATM   10  C   UNL     1      -8.634  15.342  67.826  1.00  0.00    -0.158 A  
HETATM   11  O   UNL     1     -11.657  17.338  67.484  1.00  0.00     0.414 OA 
HETATM   12  C   UNL     1      -9.961  15.794  67.704  1.00  0.00    -0.239 A  
BRANCH   7  13
HETATM   13  C   UNL     1      -9.621  19.633  67.355  1.00  0.00    -0.455 C  
HETATM   14  C   UNL     1     -10.618  19.889  66.205  1.00  0.00    -0.534 C  
HETATM   15  C   UNL     1     -10.159  20.206  68.685  1.00  0.00    -0.372 C  
HETATM   16  C   UNL     1      -8.359  20.477  67.023  1.00  0.00    -0.313 C  
ENDBRANCH   7  13
BRANCH  10  17
HETATM   17  N   UNL     1      -8.415  13.945  67.973  1.00  0.00    -0.162 N  
HETATM   18  C   UNL     1      -8.914  12.920  67.167  1.00  0.00    -0.219 C  
HETATM   19  H   UNL     1      -7.827  13.659  68.757  1.00  0.00     0.000 HD 
HETATM   20  O   UNL     1      -9.668  13.029  66.204  1.00  0.00    -0.274 OA 
BRANCH  18  21
HETATM   21  C   UNL     1      -8.378  11.567  67.465  1.00  0.00    -0.143 C  
HETATM   22  C   UNL     1      -7.525  10.948  66.620  1.00  0.00    -0.139 C  
HETATM   23  N   UNL     1      -6.843   9.777  66.900  1.00  0.00    -0.082 NA 
HETATM   24  C   UNL     1      -6.711   9.391  68.247  1.00  0.00    -0.059 A  
HETATM   25  C   UNL     1      -5.766   8.466  68.678  1.00  0.00    -0.037 A  
HETATM   26  C   UNL     1      -5.646   8.168  70.042  1.00  0.00    -0.022 A  
HETATM   27  C   UNL     1      -6.485   8.767  70.985  1.00  0.00    -0.056 A  
HETATM   28  C   UNL     1      -7.475   9.642  70.565  1.00  0.00    -0.147 A  
HETATM   29  C   UNL     1      -7.584   9.930  69.204  1.00  0.00    -0.090 A  
HETATM   30  C   UNL     1      -8.616  10.865  68.740  1.00  0.00    -0.159 C  
HETATM   31  O   UNL     1      -9.615  11.071  69.417  1.00  0.00    -0.060 OA 
ENDBRANCH  18  21
ENDBRANCH  10  17
ENDBRANCH   2   5
TORSDOF 4
ENDMDL
MODEL      149
REMARK 921   NORMALIZED FREE ENERGY PREDICTED BY IDOCK:   -2.97 KCAL/MOL
REMARK 922        TOTAL FREE ENERGY PREDICTED BY IDOCK:   -4.84 KCAL/MOL
REMARK 923 INTER-LIGAND FREE ENERGY PREDICTED BY IDOCK:   -4.58 KCAL/MOL
REMARK 924 INTRA-LIGAND FREE ENERGY PREDICTED BY IDOCK:   -0.26 KCAL/MOL
REMARK 927      BINDING AFFINITY PREDICTED BY RF-SCORE:    0.00 PKD
ROOT
HETATM    1  C   UNL     1      -5.134  17.088  66.750  1.00  0.00    -0.168 C  
HETATM    2  C   UNL     1      -5.967  16.282  67.775  1.00  0.00    -0.157 C  
HETATM    3  C   UNL     1      -5.413  14.820  67.757  1.00  0.00    -0.050 C  
HETATM    4  C   UNL     1      -5.628  16.775  69.189  1.00  0.00    -0.144 C  
ENDROOT
BRANCH   2   5
HETATM    5  C   UNL     1      -7.460  16.418  67.330  1.00  0.00    -0.202 A  
HETATM    6  C   UNL     1      -7.976  17.750  67.339  1.00  0.00    -0.221 A  
HETATM    7  C   UNL     1      -9.320  18.129  67.121  1.00  0.00    -0.263 A  
HETATM    8  H   UNL     1     -12.131  16.474  66.471  1.00  0.00     0.000 HD 
HETATM    9  C   UNL     1     -10.191  17.079  66.863  1.00  0.00    -0.305 A  
HETATM   10  C   UNL     1      -8.398  15.392  67.039  1.00  0.00    -0.236 A  
HETATM   11  O   UNL     1     -11.535  17.192  66.647  1.00  0.00     0.653 OA 
HETATM   12  C   UNL     1      -9.737  15.762  66.819  1.00  0.00    -0.251 A  
BRANCH   7  13
HETATM   13  C   UNL     1      -9.732  19.611  67.215  1.00  0.00    -0.474 C  
HETATM   14  C   UNL     1     -11.029  19.760  68.037  1.00  0.00     0.051 C  
HETATM   15  C   UNL     1      -8.592  20.450  67.833  1.00  0.00    -0.149 C  
HETATM   16  C   UNL     1     -10.023  20.265  65.835  1.00  0.00    -0.327 C  
ENDBRANCH   7  13
BRANCH  10  17
HETATM   17  N   UNL     1      -8.063  14.013  66.962  1.00  0.00    -0.380 N  
HETATM   18  C   UNL     1      -8.574  12.973  67.742  1.00  0.00    -0.189 C  
HETATM   19  H   UNL     1      -7.373  13.753  66.257  1.00  0.00     0.000 HD 
HETATM   20  O   UNL     1      -9.376  13.060  68.669  1.00  0.00    -0.123 OA 
BRANCH  18  21
HETATM   21  C   UNL     1      -8.163  11.610  67.320  1.00  0.00    -0.159 C  
HETATM   22  C   UNL     1      -7.018  11.051  67.768  1.00  0.00    -0.080 C  
HETATM   23  N   UNL     1      -6.650   9.731  67.572  1.00  0.00    -0.069 NA 
HETATM   24  C   UNL     1      -7.654   8.806  67.228  1.00  0.00    -0.089 A  
HETATM   25  C   UNL     1      -7.491   7.432  67.360  1.00  0.00    -0.104 A  
HETATM   26  C   UNL     1      -8.550   6.566  67.056  1.00  0.00    -0.113 A  
HETATM   27  C   UNL     1      -9.771   7.060  66.591  1.00  0.00    -0.226 A  
HETATM   28  C   UNL     1      -9.929   8.423  66.392  1.00  0.00    -0.291 A  
HETATM   29  C   UNL     1      -8.867   9.274  66.699  1.00  0.00    -0.146 A  
HETATM   30  C   UNL     1      -9.018  10.722  66.509  1.00  0.00    -0.156 C  
HETATM   31  O   UNL     1      -9.853  11.161  65.730  1.00  0.00    -0.214 OA 
ENDBRANCH  18  21
ENDBRANCH  10  17
ENDBRANCH   2   5
TORSDOF 4
ENDMDL
MODEL      150
REMARK 921   NORMALIZED FREE ENERGY PREDICTED BY IDOCK:   -2.96 KCAL/MOL
REMARK 922        TOTAL FREE ENERGY PREDICTED BY IDOCK:   -4.82 KCAL/MOL
REMARK 923 INTER-LIGAND FREE ENERGY PREDICTED BY IDOCK:   -4.81 KCAL/MOL
REMARK 924 INTRA-LIGAND FREE ENERGY PREDICTED BY IDOCK:   -0.01 KCAL/MOL
REMARK 927      BINDING AFFINITY PREDICTED BY RF-SCORE:    0.00 PKD
ROOT
HETATM    1  C   UNL     1      -6.697   8.538  66.667  1.00  0.00    -0.068 C  
HETATM    2  C   UNL     1      -7.527   9.486  65.769  1.00  0.00    -0.100 C  
HETATM    3  C   UNL     1      -6.640  10.746  65.501  1.00  0.00     0.006 C  
HETATM    4  C   UNL     1      -7.674   8.852  64.378  1.00  0.00    -0.120 C  
ENDROOT
BRANCH   2   5
HETATM    5  C   UNL     1      -8.853   9.777  66.545  1.00  0.00    -0.154 A  
HETATM    6  C   UNL     1      -9.431  11.060  66.297  1.00  0.00    -0.219 A  
HETATM    7  C   UNL     1     -10.539  11.623  66.969  1.00  0.00    -0.272 A  
HETATM    8  H   UNL     1     -12.542  10.601  69.420  1.00  0.00     0.000 HD 
HETATM    9  C   UNL     1     -11.101  10.817  67.950  1.00  0.00    -0.308 A  
HETATM   10  C   UNL     1      -9.487   8.994  67.545  1.00  0.00    -0.137 A  
HETATM   11  O   UNL     1     -12.158  11.152  68.749  1.00  0.00    -0.522 OA 
HETATM   12  C   UNL     1     -10.592   9.547  68.218  1.00  0.00    -0.260 A  
BRANCH   7  13
HETATM   13  C   UNL     1     -11.015  13.047  66.621  1.00  0.00    -0.301 C  
HETATM   14  C   UNL     1     -12.283  12.993  65.743  1.00  0.00    -0.511 C  
HETATM   15  C   UNL     1     -11.273  13.859  67.908  1.00  0.00    -0.302 C  
HETATM   16  C   UNL     1      -9.972  13.871  65.815  1.00  0.00    -0.304 C  
ENDBRANCH   7  13
BRANCH  10  17
HETATM   17  N   UNL     1      -9.068   7.686  67.910  1.00  0.00    -0.134 N  
HETATM   18  C   UNL     1      -9.768   6.759  68.686  1.00  0.00    -0.131 C  
HETATM   19  H   UNL     1      -8.154   7.391  67.567  1.00  0.00     0.000 HD 
HETATM   20  O   UNL     1     -10.857   6.914  69.232  1.00  0.00    -0.233 OA 
BRANCH  18  21
HETATM   21  C   UNL     1      -9.153   5.409  68.760  1.00  0.00    -0.135 C  
HETATM   22  C   UNL     1      -9.858   4.299  68.455  1.00  0.00    -0.044 C  
HETATM   23  N   UNL     1      -9.321   3.029  68.324  1.00  0.00    -0.199 NA 
HETATM   24  C   UNL     1      -7.934   2.913  68.116  1.00  0.00    -0.061 A  
HETATM   25  C   UNL     1      -7.340   1.760  67.617  1.00  0.00    -0.054 A  
HETATM   26  C   UNL     1      -5.959   1.728  67.377  1.00  0.00    -0.020 A  
HETATM   27  C   UNL     1      -5.155   2.835  67.659  1.00  0.00    -0.008 A  
HETATM   28  C   UNL     1      -5.722   3.970  68.218  1.00  0.00    -0.021 A  
HETATM   29  C   UNL     1      -7.097   3.989  68.452  1.00  0.00    -0.055 A  
HETATM   30  C   UNL     1      -7.719   5.186  69.030  1.00  0.00    -0.081 C  
HETATM   31  O   UNL     1      -7.051   5.980  69.679  1.00  0.00    -0.064 OA 
ENDBRANCH  18  21
ENDBRANCH  10  17
ENDBRANCH   2   5
TORSDOF 4
ENDMDL
MODEL      151
REMARK 921   NORMALIZED FREE ENERGY PREDICTED BY IDOCK:   -2.92 KCAL/MOL
REMARK 922        TOTAL FREE ENERGY PREDICTED BY IDOCK:   -4.78 KCAL/MOL
REMARK 923 INTER-LIGAND FREE ENERGY PREDICTED BY IDOCK:   -3.78 KCAL/MOL
REMARK 924 INTRA-LIGAND FREE ENERGY PREDICTED BY IDOCK:   -1.00 KCAL/MOL
REMARK 927      BINDING AFFINITY PREDICTED BY RF-SCORE:    0.00 PKD
ROOT
HETATM    1  C   UNL     1     -11.559  10.653  67.631  1.00  0.00     0.020 C  
HETATM    2  C   UNL     1     -10.648  10.514  68.873  1.00  0.00    -0.243 C  
HETATM    3  C   UNL     1     -11.337  11.305  70.031  1.00  0.00    -0.292 C  
HETATM    4  C   UNL     1     -10.691   9.058  69.360  1.00  0.00    -0.202 C  
ENDROOT
BRANCH   2   5
HETATM    5  C   UNL     1      -9.246  11.064  68.452  1.00  0.00    -0.175 A  
HETATM    6  C   UNL     1      -9.042  12.456  68.703  1.00  0.00     0.022 A  
HETATM    7  C   UNL     1      -7.930  13.227  68.293  1.00  0.00    -0.144 A  
HETATM    8  H   UNL     1      -5.145  12.577  66.595  1.00  0.00     0.000 HD 
HETATM    9  C   UNL     1      -6.957  12.526  67.593  1.00  0.00    -0.139 A  
HETATM   10  C   UNL     1      -8.205  10.402  67.751  1.00  0.00    -0.110 A  
HETATM   11  O   UNL     1      -5.810  13.056  67.073  1.00  0.00    -0.281 OA 
HETATM   12  C   UNL     1      -7.094  11.162  67.341  1.00  0.00    -0.102 A  
BRANCH   7  13
HETATM   13  C   UNL     1      -7.880  14.737  68.597  1.00  0.00    -0.140 C  
HETATM   14  C   UNL     1      -6.780  15.043  69.634  1.00  0.00    -0.177 C  
HETATM   15  C   UNL     1      -7.648  15.540  67.298  1.00  0.00    -0.252 C  
HETATM   16  C   UNL     1      -9.201  15.295  69.197  1.00  0.00    -0.234 C  
ENDBRANCH   7  13
BRANCH  10  17
HETATM   17  N   UNL     1      -8.221   9.016  67.434  1.00  0.00    -0.108 N  
HETATM   18  C   UNL     1      -8.844   8.404  66.344  1.00  0.00    -0.153 C  
HETATM   19  H   UNL     1      -7.720   8.400  68.074  1.00  0.00     0.000 HD 
HETATM   20  O   UNL     1      -9.529   8.942  65.478  1.00  0.00    -0.202 OA 
BRANCH  18  21
HETATM   21  C   UNL     1      -8.547   6.959  66.180  1.00  0.00    -0.147 C  
HETATM   22  C   UNL     1      -9.526   6.030  66.226  1.00  0.00    -0.127 C  
HETATM   23  N   UNL     1      -9.367   4.693  65.907  1.00  0.00    -0.145 NA 
HETATM   24  C   UNL     1      -8.250   4.323  65.134  1.00  0.00    -0.102 A  
HETATM   25  C   UNL     1      -8.170   3.113  64.455  1.00  0.00    -0.090 A  
HETATM   26  C   UNL     1      -7.056   2.828  63.654  1.00  0.00    -0.041 A  
HETATM   27  C   UNL     1      -5.998   3.735  63.547  1.00  0.00    -0.014 A  
HETATM   28  C   UNL     1      -6.033   4.918  64.269  1.00  0.00    -0.021 A  
HETATM   29  C   UNL     1      -7.148   5.189  65.062  1.00  0.00    -0.062 A  
HETATM   30  C   UNL     1      -7.211   6.442  65.823  1.00  0.00    -0.078 C  
HETATM   31  O   UNL     1      -6.185   7.045  66.112  1.00  0.00    -0.037 OA 
ENDBRANCH  18  21
ENDBRANCH  10  17
ENDBRANCH   2   5
TORSDOF 4
ENDMDL
MODEL      152
REMARK 921   NORMALIZED FREE ENERGY PREDICTED BY IDOCK:   -2.88 KCAL/MOL
REMARK 922        TOTAL FREE ENERGY PREDICTED BY IDOCK:   -4.72 KCAL/MOL
REMARK 923 INTER-LIGAND FREE ENERGY PREDICTED BY IDOCK:   -4.30 KCAL/MOL
REMARK 924 INTRA-LIGAND FREE ENERGY PREDICTED BY IDOCK:   -0.42 KCAL/MOL
REMARK 927      BINDING AFFINITY PREDICTED BY RF-SCORE:    0.00 PKD
ROOT
HETATM    1  C   UNL     1      -7.660  10.172  70.086  1.00  0.00    -0.119 C  
HETATM    2  C   UNL     1      -6.517   9.749  69.134  1.00  0.00    -0.044 C  
HETATM    3  C   UNL     1      -5.447  10.889  69.179  1.00  0.00    -0.040 C  
HETATM    4  C   UNL     1      -5.781   8.547  69.744  1.00  0.00    -0.029 C  
ENDROOT
BRANCH   2   5
HETATM    5  C   UNL     1      -7.172   9.526  67.732  1.00  0.00    -0.082 A  
HETATM    6  C   UNL     1      -7.456   8.165  67.406  1.00  0.00    -0.093 A  
HETATM    7  C   UNL     1      -7.912   7.680  66.159  1.00  0.00    -0.110 A  
HETATM    8  H   UNL     1      -8.642   9.091  63.237  1.00  0.00     0.000 HD 
HETATM    9  C   UNL     1      -8.103   8.652  65.186  1.00  0.00    -0.143 A  
HETATM   10  C   UNL     1      -7.409  10.473  66.701  1.00  0.00    -0.120 A  
HETATM   11  O   UNL     1      -8.511   8.426  63.902  1.00  0.00    -0.107 OA 
HETATM   12  C   UNL     1      -7.864   9.998  65.457  1.00  0.00    -0.134 A  
BRANCH   7  13
HETATM   13  C   UNL     1      -8.124   6.168  65.946  1.00  0.00    -0.121 C  
HETATM   14  C   UNL     1      -7.370   5.360  67.023  1.00  0.00    -0.083 C  
HETATM   15  C   UNL     1      -9.630   5.828  65.959  1.00  0.00    -0.079 C  
HETATM   16  C   UNL     1      -7.596   5.653  64.578  1.00  0.00    -0.082 C  
ENDBRANCH   7  13
BRANCH  10  17
HETATM   17  N   UNL     1      -7.208  11.872  66.850  1.00  0.00    -0.310 N  
HETATM   18  C   UNL     1      -8.004  12.771  67.563  1.00  0.00    -0.177 C  
HETATM   19  H   UNL     1      -6.389  12.264  66.383  1.00  0.00     0.000 HD 
HETATM   20  O   UNL     1      -9.048  12.529  68.162  1.00  0.00    -0.196 OA 
BRANCH  18  21
HETATM   21  C   UNL     1      -7.451  14.144  67.681  1.00  0.00    -0.192 C  
HETATM   22  C   UNL     1      -6.120  14.368  67.685  1.00  0.00    -0.051 C  
HETATM   23  N   UNL     1      -5.525  15.616  67.611  1.00  0.00    -0.254 NA 
HETATM   24  C   UNL     1      -6.294  16.690  67.126  1.00  0.00    -0.184 A  
HETATM   25  C   UNL     1      -5.731  17.875  66.668  1.00  0.00    -0.198 A  
HETATM   26  C   UNL     1      -6.548  18.885  66.143  1.00  0.00    -0.248 A  
HETATM   27  C   UNL     1      -7.936  18.735  66.097  1.00  0.00    -0.241 A  
HETATM   28  C   UNL     1      -8.519  17.586  66.610  1.00  0.00    -0.288 A  
HETATM   29  C   UNL     1      -7.694  16.588  67.129  1.00  0.00    -0.214 A  
HETATM   30  C   UNL     1      -8.290  15.358  67.664  1.00  0.00    -0.161 C  
HETATM   31  O   UNL     1      -9.454  15.347  68.043  1.00  0.00    -0.199 OA 
ENDBRANCH  18  21
ENDBRANCH  10  17
ENDBRANCH   2   5
TORSDOF 4
ENDMDL
MODEL      153
REMARK 921   NORMALIZED FREE ENERGY PREDICTED BY IDOCK:   -2.67 KCAL/MOL
REMARK 922        TOTAL FREE ENERGY PREDICTED BY IDOCK:   -4.46 KCAL/MOL
REMARK 923 INTER-LIGAND FREE ENERGY PREDICTED BY IDOCK:   -4.04 KCAL/MOL
REMARK 924 INTRA-LIGAND FREE ENERGY PREDICTED BY IDOCK:   -0.42 KCAL/MOL
REMARK 927      BINDING AFFINITY PREDICTED BY RF-SCORE:    0.00 PKD
ROOT
HETATM    1  C   UNL     1     -10.831   8.669  71.633  1.00  0.00    -0.374 C  
HETATM    2  C   UNL     1      -9.522   7.954  72.046  1.00  0.00    -0.230 C  
HETATM    3  C   UNL     1      -8.342   8.864  71.571  1.00  0.00    -0.163 C  
HETATM    4  C   UNL     1      -9.401   7.983  73.576  1.00  0.00    -0.285 C  
ENDROOT
BRANCH   2   5
HETATM    5  C   UNL     1      -9.564   6.541  71.378  1.00  0.00    -0.174 A  
HETATM    6  C   UNL     1      -9.458   5.440  72.282  1.00  0.00    -0.165 A  
HETATM    7  C   UNL     1      -9.328   4.077  71.931  1.00  0.00    -0.192 A  
HETATM    8  H   UNL     1      -9.173   2.419  69.051  1.00  0.00     0.000 HD 
HETATM    9  C   UNL     1      -9.319   3.822  70.566  1.00  0.00    -0.158 A  
HETATM   10  C   UNL     1      -9.571   6.211  69.997  1.00  0.00    -0.160 A  
HETATM   11  O   UNL     1      -9.179   2.594  69.985  1.00  0.00    -0.110 OA 
HETATM   12  C   UNL     1      -9.444   4.856  69.639  1.00  0.00    -0.216 A  
BRANCH   7  13
HETATM   13  C   UNL     1      -9.172   3.006  73.027  1.00  0.00    -0.115 C  
HETATM   14  C   UNL     1      -9.743   1.655  72.549  1.00  0.00    -0.152 C  
HETATM   15  C   UNL     1      -7.688   2.862  73.432  1.00  0.00    -0.052 C  
HETATM   16  C   UNL     1      -9.926   3.348  74.343  1.00  0.00    -0.185 C  
ENDBRANCH   7  13
BRANCH  10  17
HETATM   17  N   UNL     1      -9.693   7.169  68.954  1.00  0.00    -0.145 N  
HETATM   18  C   UNL     1      -8.664   7.868  68.322  1.00  0.00    -0.130 C  
HETATM   19  H   UNL     1     -10.641   7.368  68.632  1.00  0.00     0.000 HD 
HETATM   20  O   UNL     1      -7.463   7.817  68.574  1.00  0.00    -0.098 OA 
BRANCH  18  21
HETATM   21  C   UNL     1      -9.081   8.680  67.150  1.00  0.00    -0.156 C  
HETATM   22  C   UNL     1      -9.269  10.013  67.250  1.00  0.00    -0.141 C  
HETATM   23  N   UNL     1      -9.481  10.867  66.181  1.00  0.00    -0.193 NA 
HETATM   24  C   UNL     1      -9.113  10.426  64.896  1.00  0.00    -0.208 A  
HETATM   25  C   UNL     1      -8.935  11.292  63.824  1.00  0.00     0.064 A  
HETATM   26  C   UNL     1      -8.511  10.796  62.583  1.00  0.00    -0.240 A  
HETATM   27  C   UNL     1      -8.289   9.430  62.393  1.00  0.00    -0.169 A  
HETATM   28  C   UNL     1      -8.524   8.545  63.435  1.00  0.00    -0.042 A  
HETATM   29  C   UNL     1      -8.946   9.052  64.664  1.00  0.00    -0.112 A  
HETATM   30  C   UNL     1      -9.188   8.134  65.783  1.00  0.00    -0.034 C  
HETATM   31  O   UNL     1      -9.430   6.952  65.575  1.00  0.00     0.291 OA 
ENDBRANCH  18  21
ENDBRANCH  10  17
ENDBRANCH   2   5
TORSDOF 4
ENDMDL
MODEL      154
REMARK 921   NORMALIZED FREE ENERGY PREDICTED BY IDOCK:   -2.48 KCAL/MOL
REMARK 922        TOTAL FREE ENERGY PREDICTED BY IDOCK:   -4.23 KCAL/MOL
REMARK 923 INTER-LIGAND FREE ENERGY PREDICTED BY IDOCK:   -4.29 KCAL/MOL
REMARK 924 INTRA-LIGAND FREE ENERGY PREDICTED BY IDOCK:    0.06 KCAL/MOL
REMARK 927      BINDING AFFINITY PREDICTED BY RF-SCORE:    0.00 PKD
ROOT
HETATM    1  C   UNL     1      -8.570  12.775  68.879  1.00  0.00     0.316 C  
HETATM    2  C   UNL     1      -8.283  11.432  68.168  1.00  0.00    -0.143 C  
HETATM    3  C   UNL     1      -6.733  11.341  67.981  1.00  0.00    -0.062 C  
HETATM    4  C   UNL     1      -8.592  10.281  69.137  1.00  0.00    -0.167 C  
ENDROOT
BRANCH   2   5
HETATM    5  C   UNL     1      -9.100  11.457  66.835  1.00  0.00    -0.178 A  
HETATM    6  C   UNL     1      -9.746  12.698  66.544  1.00  0.00    -0.256 A  
HETATM    7  C   UNL     1     -10.652  12.942  65.488  1.00  0.00    -0.298 A  
HETATM    8  H   UNL     1     -11.932  11.089  63.040  1.00  0.00     0.000 HD 
HETATM    9  C   UNL     1     -10.904  11.851  64.667  1.00  0.00    -0.311 A  
HETATM   10  C   UNL     1      -9.383  10.387  65.946  1.00  0.00    -0.182 A  
HETATM   11  O   UNL     1     -11.759  11.835  63.602  1.00  0.00    -0.449 OA 
HETATM   12  C   UNL     1     -10.283  10.623  64.890  1.00  0.00    -0.395 A  
BRANCH   7  13
HETATM   13  C   UNL     1     -11.309  14.328  65.336  1.00  0.00    -0.329 C  
HETATM   14  C   UNL     1     -12.069  14.422  63.996  1.00  0.00    -0.312 C  
HETATM   15  C   UNL     1     -12.255  14.610  66.524  1.00  0.00    -0.154 C  
HETATM   16  C   UNL     1     -10.290  15.502  65.333  1.00  0.00    -0.422 C  
ENDBRANCH   7  13
BRANCH  10  17
HETATM   17  N   UNL     1      -8.814   9.090  66.062  1.00  0.00    -0.163 N  
HETATM   18  C   UNL     1      -8.094   8.392  65.091  1.00  0.00    -0.147 C  
HETATM   19  H   UNL     1      -8.947   8.615  66.956  1.00  0.00     0.000 HD 
HETATM   20  O   UNL     1      -7.851   8.749  63.941  1.00  0.00    -0.125 OA 
BRANCH  18  21
HETATM   21  C   UNL     1      -7.477   7.123  65.556  1.00  0.00    -0.083 C  
HETATM   22  C   UNL     1      -8.084   6.343  66.476  1.00  0.00    -0.111 C  
HETATM   23  N   UNL     1      -7.673   5.070  66.831  1.00  0.00    -0.092 NA 
HETATM   24  C   UNL     1      -6.823   4.376  65.949  1.00  0.00    -0.058 A  
HETATM   25  C   UNL     1      -6.640   2.999  66.004  1.00  0.00    -0.039 A  
HETATM   26  C   UNL     1      -5.825   2.360  65.060  1.00  0.00    -0.018 A  
HETATM   27  C   UNL     1      -5.163   3.091  64.070  1.00  0.00    -0.008 A  
HETATM   28  C   UNL     1      -5.283   4.472  64.041  1.00  0.00    -0.012 A  
HETATM   29  C   UNL     1      -6.098   5.096  64.987  1.00  0.00    -0.026 A  
HETATM   30  C   UNL     1      -6.250   6.555  64.965  1.00  0.00    -0.038 C  
HETATM   31  O   UNL     1      -5.399   7.260  64.438  1.00  0.00    -0.028 OA 
ENDBRANCH  18  21
ENDBRANCH  10  17
ENDBRANCH   2   5
TORSDOF 4
ENDMDL
MODEL      155
REMARK 921   NORMALIZED FREE ENERGY PREDICTED BY IDOCK:   -2.20 KCAL/MOL
REMARK 922        TOTAL FREE ENERGY PREDICTED BY IDOCK:   -3.89 KCAL/MOL
REMARK 923 INTER-LIGAND FREE ENERGY PREDICTED BY IDOCK:   -3.03 KCAL/MOL
REMARK 924 INTRA-LIGAND FREE ENERGY PREDICTED BY IDOCK:   -0.85 KCAL/MOL
REMARK 927      BINDING AFFINITY PREDICTED BY RF-SCORE:    0.00 PKD
ROOT
HETATM    1  C   UNL     1      -5.524   9.476  67.432  1.00  0.00    -0.036 C  
HETATM    2  C   UNL     1      -6.225   9.012  68.730  1.00  0.00    -0.045 C  
HETATM    3  C   UNL     1      -6.286   7.451  68.678  1.00  0.00    -0.028 C  
HETATM    4  C   UNL     1      -5.299   9.293  69.923  1.00  0.00    -0.032 C  
ENDROOT
BRANCH   2   5
HETATM    5  C   UNL     1      -7.620   9.718  68.752  1.00  0.00    -0.076 A  
HETATM    6  C   UNL     1      -7.676  10.973  68.072  1.00  0.00    -0.106 A  
HETATM    7  C   UNL     1      -8.765  11.873  68.062  1.00  0.00    -0.173 A  
HETATM    8  H   UNL     1     -11.793  11.880  69.438  1.00  0.00     0.000 HD 
HETATM    9  C   UNL     1      -9.876  11.458  68.784  1.00  0.00    -0.164 A  
HETATM   10  C   UNL     1      -8.795   9.342  69.455  1.00  0.00    -0.149 A  
HETATM   11  O   UNL     1     -11.034  12.164  68.944  1.00  0.00    -0.220 OA 
HETATM   12  C   UNL     1      -9.885  10.231  69.448  1.00  0.00    -0.247 A  
BRANCH   7  13
HETATM   13  C   UNL     1      -8.651  13.219  67.319  1.00  0.00    -0.211 C  
HETATM   14  C   UNL     1      -7.180  13.516  66.961  1.00  0.00     0.397 C  
HETATM   15  C   UNL     1      -9.534  13.211  66.052  1.00  0.00    -0.103 C  
HETATM   16  C   UNL     1      -9.142  14.434  68.155  1.00  0.00    -0.194 C  
ENDBRANCH   7  13
BRANCH  10  17
HETATM   17  N   UNL     1      -8.934   8.120  70.168  1.00  0.00    -0.145 N  
HETATM   18  C   UNL     1      -9.654   6.989  69.778  1.00  0.00    -0.151 C  
HETATM   19  H   UNL     1      -8.453   8.063  71.066  1.00  0.00     0.000 HD 
HETATM   20  O   UNL     1     -10.336   6.852  68.765  1.00  0.00    -0.173 OA 
BRANCH  18  21
HETATM   21  C   UNL     1      -9.479   5.800  70.649  1.00  0.00    -0.198 C  
HETATM   22  C   UNL     1     -10.004   4.601  70.316  1.00  0.00    -0.239 C  
HETATM   23  N   UNL     1      -9.741   3.410  70.971  1.00  0.00    -0.173 NA 
HETATM   24  C   UNL     1      -8.592   3.338  71.781  1.00  0.00    -0.076 A  
HETATM   25  C   UNL     1      -8.029   2.133  72.186  1.00  0.00    -0.053 A  
HETATM   26  C   UNL     1      -6.850   2.128  72.944  1.00  0.00    -0.023 A  
HETATM   27  C   UNL     1      -6.238   3.323  73.329  1.00  0.00    -0.012 A  
HETATM   28  C   UNL     1      -6.822   4.533  72.988  1.00  0.00    -0.062 A  
HETATM   29  C   UNL     1      -7.995   4.525  72.234  1.00  0.00    -0.097 A  
HETATM   30  C   UNL     1      -8.622   5.795  71.850  1.00  0.00    -0.134 C  
HETATM   31  O   UNL     1      -8.401   6.814  72.493  1.00  0.00    -0.112 OA 
ENDBRANCH  18  21
ENDBRANCH  10  17
ENDBRANCH   2   5
TORSDOF 4
ENDMDL
MODEL      156
REMARK 921   NORMALIZED FREE ENERGY PREDICTED BY IDOCK:   -2.08 KCAL/MOL
REMARK 922        TOTAL FREE ENERGY PREDICTED BY IDOCK:   -3.74 KCAL/MOL
REMARK 923 INTER-LIGAND FREE ENERGY PREDICTED BY IDOCK:   -3.14 KCAL/MOL
REMARK 924 INTRA-LIGAND FREE ENERGY PREDICTED BY IDOCK:   -0.60 KCAL/MOL
REMARK 927      BINDING AFFINITY PREDICTED BY RF-SCORE:    0.00 PKD
ROOT
HETATM    1  C   UNL     1     -10.191   8.694  68.283  1.00  0.00    -0.237 C  
HETATM    2  C   UNL     1      -8.936   8.768  69.184  1.00  0.00    -0.137 C  
HETATM    3  C   UNL     1      -9.354   9.543  70.477  1.00  0.00    -0.296 C  
HETATM    4  C   UNL     1      -8.612   7.359  69.702  1.00  0.00    -0.137 C  
ENDROOT
BRANCH   2   5
HETATM    5  C   UNL     1      -7.826   9.469  68.335  1.00  0.00    -0.086 A  
HETATM    6  C   UNL     1      -7.402  10.743  68.825  1.00  0.00    -0.104 A  
HETATM    7  C   UNL     1      -6.525  11.640  68.175  1.00  0.00    -0.054 A  
HETATM    8  H   UNL     1      -4.870  11.602  65.290  1.00  0.00     0.000 HD 
HETATM    9  C   UNL     1      -6.039  11.202  66.950  1.00  0.00    -0.104 A  
HETATM   10  C   UNL     1      -7.277   9.071  67.088  1.00  0.00    -0.083 A  
HETATM   11  O   UNL     1      -5.202  11.901  66.128  1.00  0.00    -0.294 OA 
HETATM   12  C   UNL     1      -6.402   9.958  66.435  1.00  0.00    -0.071 A  
BRANCH   7  13
HETATM   13  C   UNL     1      -6.203  13.006  68.812  1.00  0.00    -0.079 C  
HETATM   14  C   UNL     1      -7.477  13.870  68.914  1.00  0.00    -0.080 C  
HETATM   15  C   UNL     1      -5.558  12.814  70.203  1.00  0.00    -0.140 C  
HETATM   16  C   UNL     1      -5.180  13.847  67.997  1.00  0.00    -0.101 C  
ENDBRANCH   7  13
BRANCH  10  17
HETATM   17  N   UNL     1      -7.563   7.830  66.457  1.00  0.00    -0.094 N  
HETATM   18  C   UNL     1      -8.257   7.628  65.262  1.00  0.00    -0.135 C  
HETATM   19  H   UNL     1      -7.224   6.992  66.930  1.00  0.00     0.000 HD 
HETATM   20  O   UNL     1      -8.785   8.480  64.552  1.00  0.00    -0.094 OA 
BRANCH  18  21
HETATM   21  C   UNL     1      -8.255   6.229  64.762  1.00  0.00    -0.100 C  
HETATM   22  C   UNL     1      -7.982   5.946  63.470  1.00  0.00    -0.113 C  
HETATM   23  N   UNL     1      -7.784   4.673  62.962  1.00  0.00    -0.061 NA 
HETATM   24  C   UNL     1      -7.466   3.640  63.865  1.00  0.00    -0.062 A  
HETATM   25  C   UNL     1      -6.899   2.437  63.464  1.00  0.00    -0.032 A  
HETATM   26  C   UNL     1      -6.552   1.471  64.419  1.00  0.00    -0.022 A  
HETATM   27  C   UNL     1      -6.795   1.685  65.778  1.00  0.00    -0.034 A  
HETATM   28  C   UNL     1      -7.420   2.853  66.187  1.00  0.00    -0.072 A  
HETATM   29  C   UNL     1      -7.759   3.806  65.227  1.00  0.00    -0.082 A  
HETATM   30  C   UNL     1      -8.409   5.055  65.641  1.00  0.00    -0.120 C  
HETATM   31  O   UNL     1      -9.021   5.114  66.700  1.00  0.00    -0.114 OA 
ENDBRANCH  18  21
ENDBRANCH  10  17
ENDBRANCH   2   5
TORSDOF 4
ENDMDL
MODEL      157
REMARK 921   NORMALIZED FREE ENERGY PREDICTED BY IDOCK:   -1.98 KCAL/MOL
REMARK 922        TOTAL FREE ENERGY PREDICTED BY IDOCK:   -3.61 KCAL/MOL
REMARK 923 INTER-LIGAND FREE ENERGY PREDICTED BY IDOCK:   -4.38 KCAL/MOL
REMARK 924 INTRA-LIGAND FREE ENERGY PREDICTED BY IDOCK:    0.77 KCAL/MOL
REMARK 927      BINDING AFFINITY PREDICTED BY RF-SCORE:    0.00 PKD
ROOT
HETATM    1  C   UNL     1      -6.670   8.857  71.307  1.00  0.00    -0.083 C  
HETATM    2  C   UNL     1      -6.459   9.654  69.998  1.00  0.00    -0.067 C  
HETATM    3  C   UNL     1      -6.040  11.102  70.413  1.00  0.00    -0.126 C  
HETATM    4  C   UNL     1      -5.213   9.113  69.282  1.00  0.00    -0.036 C  
ENDROOT
BRANCH   2   5
HETATM    5  C   UNL     1      -7.807   9.567  69.210  1.00  0.00    -0.088 A  
HETATM    6  C   UNL     1      -8.251   8.241  68.913  1.00  0.00    -0.116 A  
HETATM    7  C   UNL     1      -9.350   7.889  68.098  1.00  0.00    -0.146 A  
HETATM    8  H   UNL     1     -11.606   9.608  66.360  1.00  0.00     0.000 HD 
HETATM    9  C   UNL     1     -10.050   8.962  67.562  1.00  0.00    -0.227 A  
HETATM   10  C   UNL     1      -8.578  10.618  68.649  1.00  0.00    -0.144 A  
HETATM   11  O   UNL     1     -11.128   8.875  66.727  1.00  0.00     0.168 OA 
HETATM   12  C   UNL     1      -9.675  10.276  67.838  1.00  0.00    -0.165 A  
BRANCH   7  13
HETATM   13  C   UNL     1      -9.673   6.406  67.830  1.00  0.00    -0.124 C  
HETATM   14  C   UNL     1     -11.121   6.083  68.252  1.00  0.00    -0.259 C  
HETATM   15  C   UNL     1      -9.447   6.066  66.341  1.00  0.00    -0.174 C  
HETATM   16  C   UNL     1      -8.767   5.420  68.620  1.00  0.00    -0.097 C  
ENDBRANCH   7  13
BRANCH  10  17
HETATM   17  N   UNL     1      -8.303  11.998  68.855  1.00  0.00    -0.365 N  
HETATM   18  C   UNL     1      -7.190  12.715  68.411  1.00  0.00    -0.111 C  
HETATM   19  H   UNL     1      -8.998  12.523  69.387  1.00  0.00     0.000 HD 
HETATM   20  O   UNL     1      -6.220  12.281  67.795  1.00  0.00    -0.075 OA 
BRANCH  18  21
HETATM   21  C   UNL     1      -7.258  14.182  68.632  1.00  0.00    -0.116 C  
HETATM   22  C   UNL     1      -6.717  14.753  69.730  1.00  0.00    -0.173 C  
HETATM   23  N   UNL     1      -6.577  16.115  69.928  1.00  0.00    -0.134 NA 
HETATM   24  C   UNL     1      -6.638  16.960  68.803  1.00  0.00    -0.184 A  
HETATM   25  C   UNL     1      -6.161  18.265  68.813  1.00  0.00    -0.212 A  
HETATM   26  C   UNL     1      -6.198  19.035  67.643  1.00  0.00    -0.209 A  
HETATM   27  C   UNL     1      -6.736  18.521  66.461  1.00  0.00    -0.225 A  
HETATM   28  C   UNL     1      -7.275  17.244  66.451  1.00  0.00    -0.327 A  
HETATM   29  C   UNL     1      -7.233  16.488  67.623  1.00  0.00    -0.158 A  
HETATM   30  C   UNL     1      -7.785  15.128  67.630  1.00  0.00    -0.167 C  
HETATM   31  O   UNL     1      -8.625  14.796  66.804  1.00  0.00    -0.236 OA 
ENDBRANCH  18  21
ENDBRANCH  10  17
ENDBRANCH   2   5
TORSDOF 4
ENDMDL
MODEL      158
REMARK 921   NORMALIZED FREE ENERGY PREDICTED BY IDOCK:    7.94 KCAL/MOL
REMARK 922        TOTAL FREE ENERGY PREDICTED BY IDOCK:    8.63 KCAL/MOL
REMARK 923 INTER-LIGAND FREE ENERGY PREDICTED BY IDOCK:    8.08 KCAL/MOL
REMARK 924 INTRA-LIGAND FREE ENERGY PREDICTED BY IDOCK:    0.55 KCAL/MOL
REMARK 927      BINDING AFFINITY PREDICTED BY RF-SCORE:    0.00 PKD
ROOT
HETATM    1  C   UNL     1      -9.842  14.228  66.235  1.00  0.00    -0.323 C  
HETATM    2  C   UNL     1      -8.350  14.581  66.440  1.00  0.00     0.446 C  
HETATM    3  C   UNL     1      -7.612  13.244  66.777  1.00  0.00     0.571 C  
HETATM    4  C   UNL     1      -7.745  14.990  65.089  1.00  0.00     7.929 C  
ENDROOT
BRANCH   2   5
HETATM    5  C   UNL     1      -8.305  15.654  67.576  1.00  0.00    -0.186 A  
HETATM    6  C   UNL     1      -8.894  16.912  67.245  1.00  0.00    -0.206 A  
HETATM    7  C   UNL     1      -8.861  18.086  68.031  1.00  0.00    -0.278 A  
HETATM    8  H   UNL     1      -7.549  18.874  70.984  1.00  0.00     0.000 HD 
HETATM    9  C   UNL     1      -8.192  17.962  69.242  1.00  0.00     0.258 A  
HETATM   10  C   UNL     1      -7.655  15.587  68.836  1.00  0.00    -0.166 A  
HETATM   11  O   UNL     1      -8.006  18.959  70.156  1.00  0.00     1.010 OA 
HETATM   12  C   UNL     1      -7.619  16.751  69.627  1.00  0.00     0.390 A  
BRANCH   7  13
HETATM   13  C   UNL     1      -9.503  19.387  67.510  1.00  0.00    -0.395 C  
HETATM   14  C   UNL     1     -10.656  19.829  68.434  1.00  0.00    -0.247 C  
HETATM   15  C   UNL     1      -8.440  20.501  67.387  1.00  0.00    -0.354 C  
HETATM   16  C   UNL     1     -10.121  19.249  66.090  1.00  0.00    -0.517 C  
ENDBRANCH   7  13
BRANCH  10  17
HETATM   17  N   UNL     1      -7.034  14.414  69.346  1.00  0.00    -0.161 N  
HETATM   18  C   UNL     1      -6.330  14.281  70.544  1.00  0.00    -0.108 C  
HETATM   19  H   UNL     1      -7.113  13.574  68.771  1.00  0.00     0.000 HD 
HETATM   20  O   UNL     1      -6.079  15.161  71.363  1.00  0.00     0.276 OA 
BRANCH  18  21
HETATM   21  C   UNL     1      -5.939  12.892  70.893  1.00  0.00     0.141 C  
HETATM   22  C   UNL     1      -5.361  12.602  72.079  1.00  0.00     0.214 C  
HETATM   23  N   UNL     1      -5.130  11.323  72.557  1.00  0.00    -0.319 NA 
HETATM   24  C   UNL     1      -5.856  10.260  71.987  1.00  0.00     0.502 A  
HETATM   25  C   UNL     1      -5.988   9.021  72.603  1.00  0.00    -0.012 A  
HETATM   26  C   UNL     1      -6.773   8.022  72.012  1.00  0.00    -0.067 A  
HETATM   27  C   UNL     1      -7.410   8.240  70.788  1.00  0.00    -0.056 A  
HETATM   28  C   UNL     1      -7.236   9.447  70.129  1.00  0.00    -0.096 A  
HETATM   29  C   UNL     1      -6.452  10.433  70.728  1.00  0.00     0.039 A  
HETATM   30  C   UNL     1      -6.266  11.723  70.054  1.00  0.00    -0.136 C  
HETATM   31  O   UNL     1      -6.418  11.817  68.843  1.00  0.00    -0.064 OA 
ENDBRANCH  18  21
ENDBRANCH  10  17
ENDBRANCH   2   5
TORSDOF 4
ENDMDL
MODEL      159
REMARK 921   NORMALIZED FREE ENERGY PREDICTED BY IDOCK:    8.92 KCAL/MOL
REMARK 922        TOTAL FREE ENERGY PREDICTED BY IDOCK:    9.83 KCAL/MOL
REMARK 923 INTER-LIGAND FREE ENERGY PREDICTED BY IDOCK:    1.31 KCAL/MOL
REMARK 924 INTRA-LIGAND FREE ENERGY PREDICTED BY IDOCK:    8.52 KCAL/MOL
REMARK 927      BINDING AFFINITY PREDICTED BY RF-SCORE:    0.00 PKD
ROOT
HETATM    1  C   UNL     1     -11.435   5.700  69.542  1.00  0.00     0.680 C  
HETATM    2  C   UNL     1     -10.298   6.041  68.551  1.00  0.00    -0.254 C  
HETATM    3  C   UNL     1      -9.802   4.686  67.948  1.00  0.00    -0.177 C  
HETATM    4  C   UNL     1     -10.896   6.772  67.340  1.00  0.00    -0.417 C  
ENDROOT
BRANCH   2   5
HETATM    5  C   UNL     1      -9.219   6.822  69.371  1.00  0.00    -0.143 A  
HETATM    6  C   UNL     1      -8.622   6.087  70.440  1.00  0.00    -0.133 A  
HETATM    7  C   UNL     1      -7.734   6.597  71.414  1.00  0.00    -0.094 A  
HETATM    8  H   UNL     1      -6.403   9.586  72.014  1.00  0.00     0.000 HD 
HETATM    9  C   UNL     1      -7.425   7.944  71.277  1.00  0.00    -0.073 A  
HETATM   10  C   UNL     1      -8.847   8.188  69.274  1.00  0.00    -0.144 A  
HETATM   11  O   UNL     1      -6.614   8.665  72.107  1.00  0.00    -0.082 OA 
HETATM   12  C   UNL     1      -7.961   8.703  70.238  1.00  0.00    -0.106 A  
BRANCH   7  13
HETATM   13  C   UNL     1      -7.213   5.685  72.541  1.00  0.00    -0.090 C  
HETATM   14  C   UNL     1      -8.095   4.426  72.669  1.00  0.00    -0.098 C  
HETATM   15  C   UNL     1      -5.739   5.299  72.285  1.00  0.00    -0.017 C  
HETATM   16  C   UNL     1      -7.225   6.359  73.942  1.00  0.00    -0.085 C  
ENDBRANCH   7  13
BRANCH  10  17
HETATM   17  N   UNL     1      -9.319   9.068  68.262  1.00  0.00    -0.139 N  
HETATM   18  C   UNL     1     -10.450   8.906  67.460  1.00  0.00    -0.269 C  
HETATM   19  H   UNL     1      -8.769   9.913  68.104  1.00  0.00     0.000 HD 
HETATM   20  O   UNL     1     -11.227   7.955  67.450  1.00  0.00     0.114 OA 
BRANCH  18  21
HETATM   21  C   UNL     1     -10.788  10.072  66.605  1.00  0.00    -0.058 C  
HETATM   22  C   UNL     1     -12.070  10.404  66.344  1.00  0.00     3.775 C  
HETATM   23  N   UNL     1     -12.476  11.566  65.712  1.00  0.00     1.056 NA 
HETATM   24  C   UNL     1     -11.575  12.647  65.668  1.00  0.00    -0.377 A  
HETATM   25  C   UNL     1     -11.974  13.952  65.400  1.00  0.00    -0.393 A  
HETATM   26  C   UNL     1     -11.037  14.993  65.429  1.00  0.00    -0.377 A  
HETATM   27  C   UNL     1      -9.689  14.740  65.697  1.00  0.00    -0.313 A  
HETATM   28  C   UNL     1      -9.264  13.436  65.902  1.00  0.00     0.181 A  
HETATM   29  C   UNL     1     -10.207  12.409  65.870  1.00  0.00    -0.273 A  
HETATM   30  C   UNL     1      -9.780  11.023  66.099  1.00  0.00    -0.217 C  
HETATM   31  O   UNL     1      -8.616  10.694  65.907  1.00  0.00    -0.161 OA 
ENDBRANCH  18  21
ENDBRANCH  10  17
ENDBRANCH   2   5
TORSDOF 4
ENDMDL
MODEL      160
REMARK 921   NORMALIZED FREE ENERGY PREDICTED BY IDOCK:   16.92 KCAL/MOL
REMARK 922        TOTAL FREE ENERGY PREDICTED BY IDOCK:   19.70 KCAL/MOL
REMARK 923 INTER-LIGAND FREE ENERGY PREDICTED BY IDOCK:   19.27 KCAL/MOL
REMARK 924 INTRA-LIGAND FREE ENERGY PREDICTED BY IDOCK:    0.43 KCAL/MOL
REMARK 927      BINDING AFFINITY PREDICTED BY RF-SCORE:    0.00 PKD
ROOT
HETATM    1  C   UNL     1      -6.285   8.310  69.939  1.00  0.00    -0.032 C  
HETATM    2  C   UNL     1      -7.426   8.596  68.935  1.00  0.00    -0.090 C  
HETATM    3  C   UNL     1      -7.699  10.134  68.987  1.00  0.00    -0.100 C  
HETATM    4  C   UNL     1      -6.900   8.375  67.509  1.00  0.00    -0.070 C  
ENDROOT
BRANCH   2   5
HETATM    5  C   UNL     1      -8.632   7.704  69.377  1.00  0.00    -0.136 A  
HETATM    6  C   UNL     1      -8.414   6.296  69.276  1.00  0.00    -0.124 A  
HETATM    7  C   UNL     1      -9.379   5.283  69.474  1.00  0.00    -0.176 A  
HETATM    8  H   UNL     1     -12.613   5.266  70.255  1.00  0.00     0.000 HD 
HETATM    9  C   UNL     1     -10.647   5.738  69.810  1.00  0.00    -0.318 A  
HETATM   10  C   UNL     1      -9.944   8.104  69.744  1.00  0.00    -0.191 A  
HETATM   11  O   UNL     1     -11.745   4.955  70.025  1.00  0.00     2.899 OA 
HETATM   12  C   UNL     1     -10.910   7.101  69.945  1.00  0.00    -0.276 A  
BRANCH   7  13
HETATM   13  C   UNL     1      -8.999   3.802  69.278  1.00  0.00    -0.172 C  
HETATM   14  C   UNL     1      -7.532   3.561  69.690  1.00  0.00    -0.045 C  
HETATM   15  C   UNL     1      -9.952   2.890  70.082  1.00  0.00     0.388 C  
HETATM   16  C   UNL     1      -9.114   3.321  67.804  1.00  0.00    -0.214 C  
ENDBRANCH   7  13
BRANCH  10  17
HETATM   17  N   UNL     1     -10.340   9.458  69.917  1.00  0.00    -0.212 N  
HETATM   18  C   UNL     1     -11.325   9.948  70.777  1.00  0.00    -0.353 C  
HETATM   19  H   UNL     1      -9.850  10.149  69.348  1.00  0.00     0.000 HD 
HETATM   20  O   UNL     1     -12.061   9.300  71.516  1.00  0.00    -0.314 OA 
BRANCH  18  21
HETATM   21  C   UNL     1     -11.402  11.429  70.866  1.00  0.00     0.851 C  
HETATM   22  C   UNL     1     -10.326  12.169  71.211  1.00  0.00     7.641 C  
HETATM   23  N   UNL     1     -10.259  13.550  71.145  1.00  0.00     5.017 NA 
HETATM   24  C   UNL     1     -11.191  14.222  70.331  1.00  0.00     0.053 A  
HETATM   25  C   UNL     1     -11.010  15.530  69.898  1.00  0.00    -0.315 A  
HETATM   26  C   UNL     1     -11.947  16.123  69.041  1.00  0.00    -0.060 A  
HETATM   27  C   UNL     1     -13.087  15.427  68.631  1.00  0.00     2.029 A  
HETATM   28  C   UNL     1     -13.315  14.144  69.105  1.00  0.00     2.644 A  
HETATM   29  C   UNL     1     -12.374  13.566  69.958  1.00  0.00    -0.315 A  
HETATM   30  C   UNL     1     -12.590  12.204  70.460  1.00  0.00    -0.102 C  
HETATM   31  O   UNL     1     -13.718  11.728  70.498  1.00  0.00     1.364 OA 
ENDBRANCH  18  21
ENDBRANCH  10  17
ENDBRANCH   2   5
TORSDOF 4
ENDMDL
MODEL      161
REMARK 921   NORMALIZED FREE ENERGY PREDICTED BY IDOCK:   24.39 KCAL/MOL
REMARK 922        TOTAL FREE ENERGY PREDICTED BY IDOCK:   28.92 KCAL/MOL
REMARK 923 INTER-LIGAND FREE ENERGY PREDICTED BY IDOCK:   19.85 KCAL/MOL
REMARK 924 INTRA-LIGAND FREE ENERGY PREDICTED BY IDOCK:    9.07 KCAL/MOL
REMARK 927      BINDING AFFINITY PREDICTED BY RF-SCORE:    0.00 PKD
ROOT
HETATM    1  C   UNL     1     -11.336   7.516  66.464  1.00  0.00     1.841 C  
HETATM    2  C   UNL     1     -11.769   8.571  67.509  1.00  0.00     2.719 C  
HETATM    3  C   UNL     1     -12.971   9.355  66.889  1.00  0.00    14.347 C  
HETATM    4  C   UNL     1     -12.395   7.851  68.712  1.00  0.00     3.753 C  
ENDROOT
BRANCH   2   5
HETATM    5  C   UNL     1     -10.505   9.444  67.802  1.00  0.00    -0.310 A  
HETATM    6  C   UNL     1     -10.762  10.835  68.003  1.00  0.00    -0.270 A  
HETATM    7  C   UNL     1      -9.793  11.854  68.141  1.00  0.00    -0.192 A  
HETATM    8  H   UNL     1      -6.468  11.925  68.125  1.00  0.00     0.000 HD 
HETATM    9  C   UNL     1      -8.475  11.422  68.083  1.00  0.00    -0.152 A  
HETATM   10  C   UNL     1      -9.137   9.065  67.773  1.00  0.00    -0.134 A  
HETATM   11  O   UNL     1      -7.369  12.220  68.165  1.00  0.00    -0.088 OA 
HETATM   12  C   UNL     1      -8.166  10.073  67.912  1.00  0.00    -0.113 A  
BRANCH   7  13
HETATM   13  C   UNL     1     -10.232  13.323  68.302  1.00  0.00    -0.250 C  
HETATM   14  C   UNL     1     -10.554  13.632  69.779  1.00  0.00     0.475 C  
HETATM   15  C   UNL     1      -9.137  14.274  67.769  1.00  0.00    -0.195 C  
HETATM   16  C   UNL     1     -11.515  13.680  67.500  1.00  0.00    -0.360 C  
ENDBRANCH   7  13
BRANCH  10  17
HETATM   17  N   UNL     1      -8.690   7.725  67.607  1.00  0.00    -0.126 N  
HETATM   18  C   UNL     1      -9.394   6.662  67.038  1.00  0.00    -0.141 C  
HETATM   19  H   UNL     1      -7.749   7.517  67.942  1.00  0.00     0.000 HD 
HETATM   20  O   UNL     1     -10.546   6.674  66.611  1.00  0.00    -0.227 OA 
BRANCH  18  21
HETATM   21  C   UNL     1      -8.608   5.417  66.847  1.00  0.00    -0.109 C  
HETATM   22  C   UNL     1      -8.966   4.261  67.445  1.00  0.00    -0.120 C  
HETATM   23  N   UNL     1      -8.402   3.024  67.183  1.00  0.00    -0.087 NA 
HETATM   24  C   UNL     1      -7.690   2.861  65.980  1.00  0.00    -0.077 A  
HETATM   25  C   UNL     1      -7.398   1.614  65.439  1.00  0.00    -0.053 A  
HETATM   26  C   UNL     1      -6.736   1.520  64.208  1.00  0.00    -0.022 A  
HETATM   27  C   UNL     1      -6.333   2.666  63.519  1.00  0.00    -0.018 A  
HETATM   28  C   UNL     1      -6.558   3.916  64.076  1.00  0.00    -0.042 A  
HETATM   29  C   UNL     1      -7.218   3.996  65.302  1.00  0.00    -0.068 A  
HETATM   30  C   UNL     1      -7.479   5.309  65.902  1.00  0.00    -0.082 C  
HETATM   31  O   UNL     1      -6.800   6.279  65.591  1.00  0.00    -0.050 OA 
ENDBRANCH  18  21
ENDBRANCH  10  17
ENDBRANCH   2   5
TORSDOF 4
ENDMDL
MODEL      162
REMARK 921   NORMALIZED FREE ENERGY PREDICTED BY IDOCK:   26.01 KCAL/MOL
REMARK 922        TOTAL FREE ENERGY PREDICTED BY IDOCK:   30.92 KCAL/MOL
REMARK 923 INTER-LIGAND FREE ENERGY PREDICTED BY IDOCK:   30.86 KCAL/MOL
REMARK 924 INTRA-LIGAND FREE ENERGY PREDICTED BY IDOCK:    0.06 KCAL/MOL
REMARK 927      BINDING AFFINITY PREDICTED BY RF-SCORE:    0.00 PKD
ROOT
HETATM    1  C   UNL     1     -11.743   9.763  68.046  1.00  0.00     1.053 C  
HETATM    2  C   UNL     1     -10.512  10.692  68.165  1.00  0.00    -0.215 C  
HETATM    3  C   UNL     1     -10.397  11.465  66.810  1.00  0.00    -0.271 C  
HETATM    4  C   UNL     1     -10.822  11.801  69.182  1.00  0.00    -0.221 C  
ENDROOT
BRANCH   2   5
HETATM    5  C   UNL     1      -9.294   9.768  68.493  1.00  0.00    -0.142 A  
HETATM    6  C   UNL     1      -9.319   8.486  67.862  1.00  0.00    -0.148 A  
HETATM    7  C   UNL     1      -8.423   7.419  68.098  1.00  0.00    -0.124 A  
HETATM    8  H   UNL     1      -5.787   6.986  70.080  1.00  0.00     0.000 HD 
HETATM    9  C   UNL     1      -7.429   7.684  69.031  1.00  0.00    -0.095 A  
HETATM   10  C   UNL     1      -8.240   9.982  69.419  1.00  0.00    -0.155 A  
HETATM   11  O   UNL     1      -6.467   6.805  69.443  1.00  0.00    -0.040 OA 
HETATM   12  C   UNL     1      -7.343   8.925  69.659  1.00  0.00    -0.056 A  
BRANCH   7  13
HETATM   13  C   UNL     1      -8.614   6.073  67.373  1.00  0.00    -0.102 C  
HETATM   14  C   UNL     1      -9.634   5.193  68.125  1.00  0.00    -0.173 C  
HETATM   15  C   UNL     1      -9.061   6.305  65.913  1.00  0.00    -0.086 C  
HETATM   16  C   UNL     1      -7.312   5.229  67.276  1.00  0.00    -0.083 C  
ENDBRANCH   7  13
BRANCH  10  17
HETATM   17  N   UNL     1      -8.040  11.201  70.123  1.00  0.00     0.668 N  
HETATM   18  C   UNL     1      -7.002  12.118  69.951  1.00  0.00     0.466 C  
HETATM   19  H   UNL     1      -8.735  11.432  70.835  1.00  0.00     0.000 HD 
HETATM   20  O   UNL     1      -6.043  12.025  69.188  1.00  0.00    -0.067 OA 
BRANCH  18  21
HETATM   21  C   UNL     1      -7.147  13.385  70.712  1.00  0.00     2.193 C  
HETATM   22  C   UNL     1      -6.169  13.830  71.529  1.00  0.00     0.530 C  
HETATM   23  N   UNL     1      -6.144  15.076  72.131  1.00  0.00     0.733 NA 
HETATM   24  C   UNL     1      -6.960  16.089  71.594  1.00  0.00     4.088 A  
HETATM   25  C   UNL     1      -6.762  17.439  71.862  1.00  0.00     5.263 A  
HETATM   26  C   UNL     1      -7.573  18.404  71.249  1.00  0.00     5.735 A  
HETATM   27  C   UNL     1      -8.606  18.031  70.386  1.00  0.00     3.622 A  
HETATM   28  C   UNL     1      -8.858  16.686  70.159  1.00  0.00     1.836 A  
HETATM   29  C   UNL     1      -8.044  15.736  70.775  1.00  0.00     2.558 A  
HETATM   30  C   UNL     1      -8.285  14.308  70.536  1.00  0.00     2.353 C  
HETATM   31  O   UNL     1      -9.386  13.918  70.169  1.00  0.00     1.741 OA 
ENDBRANCH  18  21
ENDBRANCH  10  17
ENDBRANCH   2   5
TORSDOF 4
ENDMDL
MODEL      163
REMARK 921   NORMALIZED FREE ENERGY PREDICTED BY IDOCK:   26.39 KCAL/MOL
REMARK 922        TOTAL FREE ENERGY PREDICTED BY IDOCK:   31.39 KCAL/MOL
REMARK 923 INTER-LIGAND FREE ENERGY PREDICTED BY IDOCK:   24.24 KCAL/MOL
REMARK 924 INTRA-LIGAND FREE ENERGY PREDICTED BY IDOCK:    7.15 KCAL/MOL
REMARK 927      BINDING AFFINITY PREDICTED BY RF-SCORE:    0.00 PKD
ROOT
HETATM    1  C   UNL     1     -11.336   7.516  66.464  1.00  0.00     1.841 C  
HETATM    2  C   UNL     1     -11.772   8.581  67.498  1.00  0.00     2.719 C  
HETATM    3  C   UNL     1     -12.971   9.360  66.865  1.00  0.00    14.347 C  
HETATM    4  C   UNL     1     -12.404   7.873  68.705  1.00  0.00     4.032 C  
ENDROOT
BRANCH   2   5
HETATM    5  C   UNL     1     -10.509   9.455  67.787  1.00  0.00    -0.310 A  
HETATM    6  C   UNL     1     -10.204  10.430  66.788  1.00  0.00    -0.282 A  
HETATM    7  C   UNL     1      -9.050  11.244  66.736  1.00  0.00    -0.181 A  
HETATM    8  H   UNL     1      -6.348  11.579  68.647  1.00  0.00     0.000 HD 
HETATM    9  C   UNL     1      -8.154  11.058  67.781  1.00  0.00    -0.116 A  
HETATM   10  C   UNL     1      -9.563   9.329  68.838  1.00  0.00    -0.155 A  
HETATM   11  O   UNL     1      -6.961  11.705  67.933  1.00  0.00    -0.072 OA 
HETATM   12  C   UNL     1      -8.412  10.137  68.795  1.00  0.00    -0.131 A  
BRANCH   7  13
HETATM   13  C   UNL     1      -8.840  12.217  65.559  1.00  0.00     0.441 C  
HETATM   14  C   UNL     1      -9.584  13.544  65.816  1.00  0.00    -0.073 C  
HETATM   15  C   UNL     1      -7.334  12.468  65.330  1.00  0.00     4.656 C  
HETATM   16  C   UNL     1      -9.380  11.679  64.204  1.00  0.00     0.040 C  
ENDBRANCH   7  13
BRANCH  10  17
HETATM   17  N   UNL     1      -9.709   8.431  69.931  1.00  0.00    -0.178 N  
HETATM   18  C   UNL     1     -10.489   7.275  69.977  1.00  0.00    -0.224 C  
HETATM   19  H   UNL     1      -9.183   8.658  70.776  1.00  0.00     0.000 HD 
HETATM   20  O   UNL     1     -11.228   6.837  69.099  1.00  0.00    -0.236 OA 
BRANCH  18  21
HETATM   21  C   UNL     1     -10.311   6.444  71.196  1.00  0.00    -0.244 C  
HETATM   22  C   UNL     1     -11.344   6.188  72.028  1.00  0.00    -0.297 C  
HETATM   23  N   UNL     1     -11.311   5.286  73.078  1.00  0.00    -0.320 NA 
HETATM   24  C   UNL     1     -10.306   4.300  73.075  1.00  0.00    -0.173 A  
HETATM   25  C   UNL     1     -10.380   3.146  73.847  1.00  0.00    -0.227 A  
HETATM   26  C   UNL     1      -9.375   2.174  73.755  1.00  0.00    -0.088 A  
HETATM   27  C   UNL     1      -8.273   2.357  72.916  1.00  0.00    -0.059 A  
HETATM   28  C   UNL     1      -8.152   3.531  72.188  1.00  0.00    -0.071 A  
HETATM   29  C   UNL     1      -9.160   4.491  72.289  1.00  0.00    -0.149 A  
HETATM   30  C   UNL     1      -9.058   5.734  71.516  1.00  0.00    -0.140 C  
HETATM   31  O   UNL     1      -7.968   6.135  71.127  1.00  0.00    -0.112 OA 
ENDBRANCH  18  21
ENDBRANCH  10  17
ENDBRANCH   2   5
TORSDOF 4
ENDMDL
MODEL      164
REMARK 921   NORMALIZED FREE ENERGY PREDICTED BY IDOCK:   28.65 KCAL/MOL
REMARK 922        TOTAL FREE ENERGY PREDICTED BY IDOCK:   34.18 KCAL/MOL
REMARK 923 INTER-LIGAND FREE ENERGY PREDICTED BY IDOCK:   27.54 KCAL/MOL
REMARK 924 INTRA-LIGAND FREE ENERGY PREDICTED BY IDOCK:    6.64 KCAL/MOL
REMARK 927      BINDING AFFINITY PREDICTED BY RF-SCORE:    0.00 PKD
ROOT
HETATM    1  C   UNL     1      -6.936  16.842  69.951  1.00  0.00     0.444 C  
HETATM    2  C   UNL     1      -7.880  16.974  71.169  1.00  0.00     6.530 C  
HETATM    3  C   UNL     1      -7.487  15.839  72.169  1.00  0.00     6.737 C  
HETATM    4  C   UNL     1      -7.529  18.259  71.933  1.00  0.00     7.816 C  
ENDROOT
BRANCH   2   5
HETATM    5  C   UNL     1      -9.336  16.874  70.608  1.00  0.00     3.424 A  
HETATM    6  C   UNL     1     -10.192  15.966  71.305  1.00  0.00     1.397 A  
HETATM    7  C   UNL     1     -11.498  15.585  70.922  1.00  0.00    -0.410 A  
HETATM    8  H   UNL     1     -13.499  16.360  68.381  1.00  0.00     0.000 HD 
HETATM    9  C   UNL     1     -11.965  16.181  69.758  1.00  0.00    -0.052 A  
HETATM   10  C   UNL     1      -9.881  17.464  69.438  1.00  0.00     0.042 A  
HETATM   11  O   UNL     1     -13.180  15.953  69.177  1.00  0.00     0.940 OA 
HETATM   12  C   UNL     1     -11.181  17.092  69.051  1.00  0.00     0.295 A  
BRANCH   7  13
HETATM   13  C   UNL     1     -12.279  14.550  71.755  1.00  0.00    -0.385 C  
HETATM   14  C   UNL     1     -12.251  13.170  71.067  1.00  0.00    -0.257 C  
HETATM   15  C   UNL     1     -11.700  14.462  73.185  1.00  0.00     0.498 C  
HETATM   16  C   UNL     1     -13.781  14.906  71.940  1.00  0.00    -0.527 C  
ENDBRANCH   7  13
BRANCH  10  17
HETATM   17  N   UNL     1      -9.188  18.407  68.632  1.00  0.00    -0.323 N  
HETATM   18  C   UNL     1      -7.809  18.495  68.427  1.00  0.00    -0.310 C  
HETATM   19  H   UNL     1      -9.762  19.098  68.147  1.00  0.00     0.000 HD 
HETATM   20  O   UNL     1      -6.934  17.801  68.936  1.00  0.00    -0.237 OA 
BRANCH  18  21
HETATM   21  C   UNL     1      -7.388  19.478  67.397  1.00  0.00    -0.261 C  
HETATM   22  C   UNL     1      -6.389  20.356  67.631  1.00  0.00    -0.246 C  
HETATM   23  N   UNL     1      -5.815  21.179  66.677  1.00  0.00    -0.253 NA 
HETATM   24  C   UNL     1      -5.990  20.844  65.320  1.00  0.00    -0.245 A  
HETATM   25  C   UNL     1      -5.187  21.356  64.308  1.00  0.00    -0.139 A  
HETATM   26  C   UNL     1      -5.375  20.937  62.983  1.00  0.00    -0.242 A  
HETATM   27  C   UNL     1      -6.382  20.028  62.653  1.00  0.00     0.547 A  
HETATM   28  C   UNL     1      -7.233  19.558  63.641  1.00  0.00     3.611 A  
HETATM   29  C   UNL     1      -7.036  19.982  64.955  1.00  0.00    -0.165 A  
HETATM   30  C   UNL     1      -7.916  19.485  66.019  1.00  0.00    -0.303 C  
HETATM   31  O   UNL     1      -9.033  19.060  65.752  1.00  0.00    -0.388 OA 
ENDBRANCH  18  21
ENDBRANCH  10  17
ENDBRANCH   2   5
TORSDOF 4
ENDMDL
