MODEL        1
REMARK 921   NORMALIZED FREE ENERGY PREDICTED BY IDOCK:   -8.64 KCAL/MOL
REMARK 922        TOTAL FREE ENERGY PREDICTED BY IDOCK:  -13.63 KCAL/MOL
REMARK 923 INTER-LIGAND FREE ENERGY PREDICTED BY IDOCK:  -12.18 KCAL/MOL
REMARK 924 INTRA-LIGAND FREE ENERGY PREDICTED BY IDOCK:   -1.46 KCAL/MOL
REMARK 927      BINDING AFFINITY PREDICTED BY RF-SCORE:    0.00 PKD
ROOT
HETATM    1  C   UNL     1     -11.239  10.353  68.421  1.00  0.00    -0.258 C  
ENDROOT
BRANCH   1   2
HETATM    2  C   UNL     1     -12.121  11.120  69.528  1.00  0.00    -0.326 C  
HETATM    3  H   UNL     1     -11.244  12.965  69.279  1.00  0.00     0.000 HD 
HETATM    4  N   UNL     1     -11.973  12.474  69.795  1.00  0.00    -0.311 N  
HETATM    5  O   UNL     1     -12.892  10.473  70.235  1.00  0.00    -0.295 OA 
BRANCH   4   6
HETATM    6  C   UNL     1     -12.785  13.300  70.780  1.00  0.00    -0.209 C  
HETATM    7  C   UNL     1     -13.097  14.253  72.671  1.00  0.00    -0.478 C  
HETATM    8  F   UNL     1     -12.614  14.491  73.909  1.00  0.00    -0.575 F  
HETATM    9  C   UNL     1     -13.110  12.767  72.204  1.00  0.00    -0.454 C  
HETATM   10  F   UNL     1     -14.285  14.895  72.587  1.00  0.00    -0.504 F  
HETATM   11  C   UNL     1     -12.121  14.509  71.488  1.00  0.00    -0.400 C  
ENDBRANCH   4   6
ENDBRANCH   1   2
BRANCH   1  12
HETATM   12  N   UNL     1     -10.366  11.302  67.626  1.00  0.00    -0.180 N  
HETATM   13  O   UNL     1      -8.625  11.244  69.137  1.00  0.00    -0.039 OA 
HETATM   14  C   UNL     1      -9.074  11.657  68.065  1.00  0.00    -0.177 C  
BRANCH  12  15
HETATM   15  C   UNL     1     -10.905  11.783  66.409  1.00  0.00    -0.282 A  
HETATM   16  C   UNL     1     -10.599  11.190  65.183  1.00  0.00    -0.253 A  
HETATM   17  C   UNL     1     -12.439  13.200  65.237  1.00  0.00    -0.495 A  
HETATM   18  N   UNL     1     -11.183  11.545  64.015  1.00  0.00    -0.364 NA 
HETATM   19  F   UNL     1     -13.361  14.169  65.241  1.00  0.00    -0.430 F  
HETATM   20  C   UNL     1     -11.847  12.807  66.424  1.00  0.00    -0.472 A  
HETATM   21  C   UNL     1     -12.090  12.551  64.069  1.00  0.00    -0.473 A  
ENDBRANCH  12  15
BRANCH  14  22
HETATM   22  C   UNL     1      -8.178  12.536  67.117  1.00  0.00    -0.168 C  
HETATM   23  C   UNL     1      -5.976  12.523  68.067  1.00  0.00    -0.081 C  
HETATM   24  C   UNL     1      -6.809  11.873  66.976  1.00  0.00    -0.122 C  
HETATM   25  N   UNL     1      -7.826  13.881  67.572  1.00  0.00    -0.173 N  
HETATM   26  O   UNL     1      -5.926  14.840  68.650  1.00  0.00    -0.083 OA 
HETATM   27  C   UNL     1      -6.545  13.914  68.146  1.00  0.00    -0.127 C  
BRANCH  25  28
HETATM   28  C   UNL     1      -8.543  15.061  67.259  1.00  0.00    -0.206 A  
HETATM   29  N   UNL     1      -8.327  16.159  68.019  1.00  0.00    -0.161 NA 
HETATM   30  C   UNL     1      -8.937  17.326  67.730  1.00  0.00    -0.234 A  
HETATM   31  C   UNL     1      -9.800  17.479  66.671  1.00  0.00    -0.308 A  
HETATM   32  C   UNL     1     -10.036  16.359  65.884  1.00  0.00    -0.370 A  
HETATM   33  C   UNL     1      -9.404  15.139  66.173  1.00  0.00    -0.346 A  
HETATM   34  C   UNL     1     -10.928  16.455  64.767  1.00  0.00    -0.231 C  
HETATM   35  N   UNL     1     -11.650  16.519  63.861  1.00  0.00    -1.071 NA 
ENDBRANCH  25  28
ENDBRANCH  14  22
ENDBRANCH   1  12
BRANCH   1  36
HETATM   36  C   UNL     1     -10.538   8.979  68.586  1.00  0.00    -0.194 A  
HETATM   37  C   UNL     1      -9.697   6.990  67.365  1.00  0.00    -0.177 A  
HETATM   38  C   UNL     1      -9.439   6.331  68.550  1.00  0.00    -0.123 A  
HETATM   39 CL   UNL     1      -9.900   9.220  71.237  1.00  0.00    -0.351 Cl 
HETATM   40  C   UNL     1      -9.620   7.023  69.747  1.00  0.00    -0.151 A  
HETATM   41  C   UNL     1     -10.257   8.267  67.381  1.00  0.00    -0.326 A  
HETATM   42  C   UNL     1     -10.088   8.361  69.758  1.00  0.00    -0.197 A  
ENDBRANCH   1  36
TORSDOF 7
ENDMDL
MODEL        2
REMARK 921   NORMALIZED FREE ENERGY PREDICTED BY IDOCK:   -8.04 KCAL/MOL
REMARK 922        TOTAL FREE ENERGY PREDICTED BY IDOCK:  -12.79 KCAL/MOL
REMARK 923 INTER-LIGAND FREE ENERGY PREDICTED BY IDOCK:  -11.85 KCAL/MOL
REMARK 924 INTRA-LIGAND FREE ENERGY PREDICTED BY IDOCK:   -0.94 KCAL/MOL
REMARK 927      BINDING AFFINITY PREDICTED BY RF-SCORE:    0.00 PKD
ROOT
HETATM    1  C   UNL     1     -11.364  10.931  69.052  1.00  0.00    -0.281 C  
ENDROOT
BRANCH   1   2
HETATM    2  C   UNL     1     -12.220  11.830  70.077  1.00  0.00    -0.242 C  
HETATM    3  H   UNL     1     -11.339  13.626  69.594  1.00  0.00     0.000 HD 
HETATM    4  N   UNL     1     -12.060  13.204  70.179  1.00  0.00    -0.345 N  
HETATM    5  O   UNL     1     -12.980  11.277  70.870  1.00  0.00    -0.273 OA 
BRANCH   4   6
HETATM    6  C   UNL     1     -12.849  14.147  71.074  1.00  0.00    -0.351 C  
HETATM    7  C   UNL     1     -13.200  15.188  72.910  1.00  0.00    -0.499 C  
HETATM    8  F   UNL     1     -12.794  15.411  74.178  1.00  0.00    -0.595 F  
HETATM    9  C   UNL     1     -13.345  13.699  72.478  1.00  0.00    -0.638 C  
HETATM   10  F   UNL     1     -14.297  15.956  72.714  1.00  0.00    -0.663 F  
HETATM   11  C   UNL     1     -12.110  15.296  71.807  1.00  0.00    -0.439 C  
ENDBRANCH   4   6
ENDBRANCH   1   2
BRANCH   1  12
HETATM   12  N   UNL     1     -10.560  11.774  68.084  1.00  0.00    -0.195 N  
HETATM   13  O   UNL     1      -8.618  11.656  69.323  1.00  0.00     0.218 OA 
HETATM   14  C   UNL     1      -9.194  12.052  68.307  1.00  0.00    -0.192 C  
BRANCH  12  15
HETATM   15  C   UNL     1     -11.243  12.238  66.935  1.00  0.00    -0.312 A  
HETATM   16  C   UNL     1     -12.055  13.372  66.970  1.00  0.00    -0.339 A  
HETATM   17  C   UNL     1     -11.625  12.149  64.572  1.00  0.00    -0.336 A  
HETATM   18  N   UNL     1     -12.629  13.915  65.871  1.00  0.00    -0.479 NA 
HETATM   19  F   UNL     1     -11.411  11.580  63.381  1.00  0.00    -0.483 F  
HETATM   20  C   UNL     1     -11.029  11.624  65.705  1.00  0.00    -0.329 A  
HETATM   21  C   UNL     1     -12.405  13.283  64.693  1.00  0.00    -0.391 A  
ENDBRANCH  12  15
BRANCH  14  22
HETATM   22  C   UNL     1      -8.396  12.816  67.189  1.00  0.00    -0.164 C  
HETATM   23  C   UNL     1      -6.129  12.961  67.959  1.00  0.00    -0.107 C  
HETATM   24  C   UNL     1      -7.024  12.163  67.026  1.00  0.00    -0.068 C  
HETATM   25  N   UNL     1      -8.045  14.214  67.441  1.00  0.00    -0.185 N  
HETATM   26  O   UNL     1      -6.096  15.334  68.239  1.00  0.00    -0.102 OA 
HETATM   27  C   UNL     1      -6.727  14.341  67.905  1.00  0.00    -0.167 C  
BRANCH  25  28
HETATM   28  C   UNL     1      -8.815  15.333  67.039  1.00  0.00    -0.237 A  
HETATM   29  N   UNL     1      -9.442  15.278  65.842  1.00  0.00    -0.334 NA 
HETATM   30  C   UNL     1     -10.237  16.288  65.435  1.00  0.00    -0.229 A  
HETATM   31  C   UNL     1     -10.459  17.417  66.188  1.00  0.00    -0.284 A  
HETATM   32  C   UNL     1      -9.817  17.491  67.418  1.00  0.00    -0.297 A  
HETATM   33  C   UNL     1      -8.991  16.443  67.854  1.00  0.00    -0.196 A  
HETATM   34  C   UNL     1     -10.008  18.643  68.247  1.00  0.00    -0.384 C  
HETATM   35  N   UNL     1     -10.152  19.572  68.927  1.00  0.00    -0.441 NA 
ENDBRANCH  25  28
ENDBRANCH  14  22
ENDBRANCH   1  12
BRANCH   1  36
HETATM   36  C   UNL     1     -10.610   9.615  69.382  1.00  0.00    -0.243 A  
HETATM   37  C   UNL     1      -9.584   8.287  71.208  1.00  0.00    -0.219 A  
HETATM   38  C   UNL     1      -9.056   7.389  70.303  1.00  0.00    -0.151 A  
HETATM   39 CL   UNL     1     -10.872   8.431  66.927  1.00  0.00    -0.163 Cl 
HETATM   40  C   UNL     1      -9.390   7.530  68.957  1.00  0.00    -0.146 A  
HETATM   41  C   UNL     1     -10.317   9.386  70.759  1.00  0.00    -0.366 A  
HETATM   42  C   UNL     1     -10.225   8.587  68.514  1.00  0.00    -0.198 A  
ENDBRANCH   1  36
TORSDOF 7
ENDMDL
MODEL        3
REMARK 921   NORMALIZED FREE ENERGY PREDICTED BY IDOCK:   -7.84 KCAL/MOL
REMARK 922        TOTAL FREE ENERGY PREDICTED BY IDOCK:  -12.51 KCAL/MOL
REMARK 923 INTER-LIGAND FREE ENERGY PREDICTED BY IDOCK:  -10.97 KCAL/MOL
REMARK 924 INTRA-LIGAND FREE ENERGY PREDICTED BY IDOCK:   -1.54 KCAL/MOL
REMARK 927      BINDING AFFINITY PREDICTED BY RF-SCORE:    0.00 PKD
ROOT
HETATM    1  C   UNL     1      -9.296   9.132  67.181  1.00  0.00    -0.143 C  
ENDROOT
BRANCH   1   2
HETATM    2  C   UNL     1      -9.884  10.065  66.009  1.00  0.00    -0.257 C  
HETATM    3  H   UNL     1     -11.091  11.214  67.216  1.00  0.00     0.000 HD 
HETATM    4  N   UNL     1     -10.783  11.094  66.251  1.00  0.00    -0.261 N  
HETATM    5  O   UNL     1      -9.606   9.806  64.839  1.00  0.00    -0.290 OA 
BRANCH   4   6
HETATM    6  C   UNL     1     -11.357  12.060  65.227  1.00  0.00    -0.312 C  
HETATM    7  C   UNL     1     -11.847  14.017  64.515  1.00  0.00    -0.434 C  
HETATM    8  F   UNL     1     -11.849  15.343  64.768  1.00  0.00    -0.343 F  
HETATM    9  C   UNL     1     -12.445  13.098  65.620  1.00  0.00    -0.485 C  
HETATM   10  F   UNL     1     -12.376  13.857  63.280  1.00  0.00    -0.519 F  
HETATM   11  C   UNL     1     -10.506  13.270  64.763  1.00  0.00    -0.402 C  
ENDBRANCH   4   6
ENDBRANCH   1   2
BRANCH   1  12
HETATM   12  N   UNL     1      -9.506   9.736  68.554  1.00  0.00    -0.144 N  
HETATM   13  O   UNL     1     -11.649   8.913  68.780  1.00  0.00     0.624 OA 
HETATM   14  C   UNL     1     -10.708   9.543  69.268  1.00  0.00    -0.222 C  
BRANCH  12  15
HETATM   15  C   UNL     1      -8.424  10.475  69.090  1.00  0.00    -0.147 A  
HETATM   16  C   UNL     1      -7.587   9.944  70.072  1.00  0.00    -0.172 A  
HETATM   17  C   UNL     1      -6.988  12.390  69.027  1.00  0.00    -0.071 A  
HETATM   18  N   UNL     1      -6.475  10.570  70.524  1.00  0.00    -0.288 NA 
HETATM   19  F   UNL     1      -6.661  13.581  68.515  1.00  0.00    -0.069 F  
HETATM   20  C   UNL     1      -8.107  11.722  68.563  1.00  0.00    -0.140 A  
HETATM   21  C   UNL     1      -6.204  11.788  69.993  1.00  0.00    -0.136 A  
ENDBRANCH  12  15
BRANCH  14  22
HETATM   22  C   UNL     1     -10.796  10.086  70.742  1.00  0.00    -0.260 C  
HETATM   23  C   UNL     1     -11.901   8.385  72.021  1.00  0.00    -0.417 C  
HETATM   24  C   UNL     1     -10.521   8.936  71.709  1.00  0.00    -0.431 C  
HETATM   25  N   UNL     1     -12.093  10.578  71.206  1.00  0.00    -0.352 N  
HETATM   26  O   UNL     1     -13.882   9.642  72.476  1.00  0.00    -0.364 OA 
HETATM   27  C   UNL     1     -12.778   9.606  71.952  1.00  0.00    -0.411 C  
BRANCH  25  28
HETATM   28  C   UNL     1     -12.519  11.928  71.152  1.00  0.00    -0.261 A  
HETATM   29  N   UNL     1     -13.356  12.371  72.119  1.00  0.00    -0.498 NA 
HETATM   30  C   UNL     1     -13.745  13.661  72.152  1.00  0.00    -0.555 A  
HETATM   31  C   UNL     1     -13.333  14.593  71.229  1.00  0.00    -0.447 A  
HETATM   32  C   UNL     1     -12.477  14.152  70.227  1.00  0.00    -0.416 A  
HETATM   33  C   UNL     1     -12.062  12.812  70.185  1.00  0.00    -0.370 A  
HETATM   34  C   UNL     1     -12.015  15.075  69.235  1.00  0.00    -0.289 C  
HETATM   35  N   UNL     1     -11.635  15.813  68.424  1.00  0.00    -0.368 NA 
ENDBRANCH  25  28
ENDBRANCH  14  22
ENDBRANCH   1  12
BRANCH   1  36
HETATM   36  C   UNL     1      -9.364   7.583  67.254  1.00  0.00    -0.168 A  
HETATM   37  C   UNL     1     -10.778   5.605  66.762  1.00  0.00    -0.358 A  
HETATM   38  C   UNL     1      -9.892   4.770  67.412  1.00  0.00    -0.214 A  
HETATM   39 CL   UNL     1      -6.765   7.148  67.995  1.00  0.00    -0.059 Cl 
HETATM   40  C   UNL     1      -8.696   5.309  67.883  1.00  0.00    -0.102 A  
HETATM   41  C   UNL     1     -10.536   6.978  66.708  1.00  0.00    -0.297 A  
HETATM   42  C   UNL     1      -8.402   6.687  67.732  1.00  0.00    -0.122 A  
ENDBRANCH   1  36
TORSDOF 7
ENDMDL
MODEL        4
REMARK 921   NORMALIZED FREE ENERGY PREDICTED BY IDOCK:   -7.68 KCAL/MOL
REMARK 922        TOTAL FREE ENERGY PREDICTED BY IDOCK:  -12.28 KCAL/MOL
REMARK 923 INTER-LIGAND FREE ENERGY PREDICTED BY IDOCK:  -10.87 KCAL/MOL
REMARK 924 INTRA-LIGAND FREE ENERGY PREDICTED BY IDOCK:   -1.40 KCAL/MOL
REMARK 927      BINDING AFFINITY PREDICTED BY RF-SCORE:    0.00 PKD
ROOT
HETATM    1  C   UNL     1     -11.340   9.035  70.111  1.00  0.00    -0.121 C  
ENDROOT
BRANCH   1   2
HETATM    2  C   UNL     1     -12.049  10.474  69.977  1.00  0.00    -0.274 C  
HETATM    3  H   UNL     1     -12.196  10.843  71.997  1.00  0.00     0.000 HD 
HETATM    4  N   UNL     1     -12.387  11.247  71.080  1.00  0.00    -0.380 N  
HETATM    5  O   UNL     1     -12.396  10.871  68.866  1.00  0.00    -0.486 OA 
BRANCH   4   6
HETATM    6  C   UNL     1     -13.011  12.633  71.061  1.00  0.00    -0.071 C  
HETATM    7  C   UNL     1     -13.198  14.651  71.748  1.00  0.00    -0.350 C  
HETATM    8  F   UNL     1     -12.774  15.592  72.617  1.00  0.00    -0.380 F  
HETATM    9  C   UNL     1     -13.593  13.272  72.354  1.00  0.00    -0.694 C  
HETATM   10  F   UNL     1     -14.143  15.235  70.975  1.00  0.00    -0.482 F  
HETATM   11  C   UNL     1     -12.093  13.879  70.973  1.00  0.00    -0.357 C  
ENDBRANCH   4   6
ENDBRANCH   1   2
BRANCH   1  12
HETATM   12  N   UNL     1     -10.338   8.785  69.003  1.00  0.00    -0.211 N  
HETATM   13  O   UNL     1      -9.387  10.881  69.152  1.00  0.00    -0.170 OA 
HETATM   14  C   UNL     1      -9.397   9.766  68.625  1.00  0.00    -0.147 C  
BRANCH  12  15
HETATM   15  C   UNL     1     -10.378   7.508  68.393  1.00  0.00    -0.195 A  
HETATM   16  C   UNL     1     -10.927   7.316  67.125  1.00  0.00    -0.215 A  
HETATM   17  C   UNL     1      -9.726   5.204  68.361  1.00  0.00    -0.147 A  
HETATM   18  N   UNL     1     -10.878   6.138  66.461  1.00  0.00    -0.192 NA 
HETATM   19  F   UNL     1      -9.123   4.159  68.938  1.00  0.00    -0.124 F  
HETATM   20  C   UNL     1      -9.766   6.424  69.014  1.00  0.00    -0.145 A  
HETATM   21  C   UNL     1     -10.282   5.102  67.101  1.00  0.00    -0.208 A  
ENDBRANCH  12  15
BRANCH  14  22
HETATM   22  C   UNL     1      -8.303   9.381  67.562  1.00  0.00    -0.122 C  
HETATM   23  C   UNL     1      -6.259  10.393  68.304  1.00  0.00    -0.051 C  
HETATM   24  C   UNL     1      -6.997   9.066  68.290  1.00  0.00    -0.076 C  
HETATM   25  N   UNL     1      -7.887  10.414  66.613  1.00  0.00    -0.116 N  
HETATM   26  O   UNL     1      -6.065  11.950  66.501  1.00  0.00    -0.155 OA 
HETATM   27  C   UNL     1      -6.698  11.039  67.018  1.00  0.00    -0.108 C  
BRANCH  25  28
HETATM   28  C   UNL     1      -8.440  10.606  65.324  1.00  0.00    -0.150 A  
HETATM   29  N   UNL     1      -7.721  10.197  64.254  1.00  0.00    -0.144 NA 
HETATM   30  C   UNL     1      -8.224  10.299  63.007  1.00  0.00    -0.162 A  
HETATM   31  C   UNL     1      -9.470  10.815  62.742  1.00  0.00    -0.358 A  
HETATM   32  C   UNL     1     -10.219  11.246  63.830  1.00  0.00    -0.431 A  
HETATM   33  C   UNL     1      -9.708  11.140  65.133  1.00  0.00    -0.296 A  
HETATM   34  C   UNL     1     -11.525  11.795  63.617  1.00  0.00    -0.431 C  
HETATM   35  N   UNL     1     -12.583  12.244  63.457  1.00  0.00    -0.748 NA 
ENDBRANCH  25  28
ENDBRANCH  14  22
ENDBRANCH   1  12
BRANCH   1  36
HETATM   36  C   UNL     1     -10.880   8.348  71.424  1.00  0.00    -0.304 A  
HETATM   37  C   UNL     1      -9.079   8.266  73.129  1.00  0.00    -0.305 A  
HETATM   38  C   UNL     1      -9.650   7.161  73.726  1.00  0.00    -0.309 A  
HETATM   39 CL   UNL     1     -13.189   6.969  71.932  1.00  0.00    -0.318 Cl 
HETATM   40  C   UNL     1     -10.883   6.715  73.254  1.00  0.00    -0.290 A  
HETATM   41  C   UNL     1      -9.662   8.828  71.992  1.00  0.00    -0.370 A  
HETATM   42  C   UNL     1     -11.528   7.354  72.165  1.00  0.00    -0.282 A  
ENDBRANCH   1  36
TORSDOF 7
ENDMDL
MODEL        5
REMARK 921   NORMALIZED FREE ENERGY PREDICTED BY IDOCK:   -7.52 KCAL/MOL
REMARK 922        TOTAL FREE ENERGY PREDICTED BY IDOCK:  -12.05 KCAL/MOL
REMARK 923 INTER-LIGAND FREE ENERGY PREDICTED BY IDOCK:  -10.62 KCAL/MOL
REMARK 924 INTRA-LIGAND FREE ENERGY PREDICTED BY IDOCK:   -1.44 KCAL/MOL
REMARK 927      BINDING AFFINITY PREDICTED BY RF-SCORE:    0.00 PKD
ROOT
HETATM    1  C   UNL     1     -10.228  13.051  66.969  1.00  0.00    -0.245 C  
ENDROOT
BRANCH   1   2
HETATM    2  C   UNL     1     -10.919  13.999  68.070  1.00  0.00    -0.251 C  
HETATM    3  H   UNL     1     -11.899  12.498  69.080  1.00  0.00     0.000 HD 
HETATM    4  N   UNL     1     -11.728  13.503  69.083  1.00  0.00    -0.305 N  
HETATM    5  O   UNL     1     -10.810  15.220  67.965  1.00  0.00    -0.270 OA 
BRANCH   4   6
HETATM    6  C   UNL     1     -12.384  14.304  70.197  1.00  0.00    -0.353 C  
HETATM    7  C   UNL     1     -12.659  14.851  72.247  1.00  0.00    -0.334 C  
HETATM    8  F   UNL     1     -12.307  14.631  73.532  1.00  0.00    -0.468 F  
HETATM    9  C   UNL     1     -13.052  13.598  71.410  1.00  0.00    -0.396 C  
HETATM   10  F   UNL     1     -13.574  15.847  72.260  1.00  0.00    -0.513 F  
HETATM   11  C   UNL     1     -11.494  15.035  71.234  1.00  0.00    -0.359 C  
ENDBRANCH   4   6
ENDBRANCH   1   2
BRANCH   1  12
HETATM   12  N   UNL     1      -9.562  11.840  67.591  1.00  0.00    -0.180 N  
HETATM   13  O   UNL     1     -11.492  10.577  67.620  1.00  0.00    -0.444 OA 
HETATM   14  C   UNL     1     -10.282  10.655  67.849  1.00  0.00    -0.177 C  
BRANCH  12  15
HETATM   15  C   UNL     1      -8.179  11.955  67.868  1.00  0.00    -0.150 A  
HETATM   16  C   UNL     1      -7.226  11.992  66.850  1.00  0.00    -0.040 A  
HETATM   17  C   UNL     1      -6.402  12.352  69.424  1.00  0.00    -0.119 A  
HETATM   18  N   UNL     1      -5.909  12.218  67.067  1.00  0.00    -0.282 NA 
HETATM   19  F   UNL     1      -5.976  12.554  70.675  1.00  0.00    -0.171 F  
HETATM   20  C   UNL     1      -7.747  12.142  69.178  1.00  0.00     0.230 A  
HETATM   21  C   UNL     1      -5.525  12.387  68.357  1.00  0.00    -0.053 A  
ENDBRANCH  12  15
BRANCH  14  22
HETATM   22  C   UNL     1      -9.491   9.399  68.368  1.00  0.00    -0.141 C  
HETATM   23  C   UNL     1      -9.851   7.661  66.754  1.00  0.00    -0.307 C  
HETATM   24  C   UNL     1      -8.831   8.704  67.178  1.00  0.00    -0.138 C  
HETATM   25  N   UNL     1     -10.263   8.312  68.971  1.00  0.00    -0.214 N  
HETATM   26  O   UNL     1     -11.126   6.233  68.184  1.00  0.00    -0.329 OA 
HETATM   27  C   UNL     1     -10.505   7.279  68.054  1.00  0.00    -0.197 C  
BRANCH  25  28
HETATM   28  C   UNL     1     -10.524   8.170  70.356  1.00  0.00    -0.215 A  
HETATM   29  N   UNL     1     -11.795   7.916  70.742  1.00  0.00    -0.231 NA 
HETATM   30  C   UNL     1     -12.091   7.710  72.041  1.00  0.00    -0.299 A  
HETATM   31  C   UNL     1     -11.147   7.745  73.040  1.00  0.00    -0.419 A  
HETATM   32  C   UNL     1      -9.837   8.010  72.660  1.00  0.00    -0.347 A  
HETATM   33  C   UNL     1      -9.516   8.222  71.309  1.00  0.00    -0.219 A  
HETATM   34  C   UNL     1      -8.808   8.062  73.655  1.00  0.00    -0.260 C  
HETATM   35  N   UNL     1      -7.966   8.109  74.452  1.00  0.00    -0.245 NA 
ENDBRANCH  25  28
ENDBRANCH  14  22
ENDBRANCH   1  12
BRANCH   1  36
HETATM   36  C   UNL     1     -10.789  12.700  65.566  1.00  0.00    -0.310 A  
HETATM   37  C   UNL     1     -10.425  11.312  63.542  1.00  0.00    -0.457 A  
HETATM   38  C   UNL     1     -11.442  11.962  62.873  1.00  0.00     0.221 A  
HETATM   39 CL   UNL     1     -13.157  14.057  65.780  1.00  0.00    -0.346 Cl 
HETATM   40  C   UNL     1     -12.205  12.897  63.572  1.00  0.00    -0.595 A  
HETATM   41  C   UNL     1     -10.089  11.688  64.843  1.00  0.00    -0.303 A  
HETATM   42  C   UNL     1     -11.930  13.201  64.929  1.00  0.00    -0.388 A  
ENDBRANCH   1  36
TORSDOF 7
ENDMDL
MODEL        6
REMARK 921   NORMALIZED FREE ENERGY PREDICTED BY IDOCK:   -7.40 KCAL/MOL
REMARK 922        TOTAL FREE ENERGY PREDICTED BY IDOCK:  -11.89 KCAL/MOL
REMARK 923 INTER-LIGAND FREE ENERGY PREDICTED BY IDOCK:  -10.59 KCAL/MOL
REMARK 924 INTRA-LIGAND FREE ENERGY PREDICTED BY IDOCK:   -1.30 KCAL/MOL
REMARK 927      BINDING AFFINITY PREDICTED BY RF-SCORE:    0.00 PKD
ROOT
HETATM    1  C   UNL     1      -9.134  10.998  67.488  1.00  0.00    -0.137 C  
ENDROOT
BRANCH   1   2
HETATM    2  C   UNL     1      -9.869   9.657  66.986  1.00  0.00    -0.195 C  
HETATM    3  H   UNL     1      -8.290   8.386  67.341  1.00  0.00     0.000 HD 
HETATM    4  N   UNL     1      -9.256   8.412  67.016  1.00  0.00    -0.145 N  
HETATM    5  O   UNL     1     -10.981   9.741  66.466  1.00  0.00     0.044 OA 
BRANCH   4   6
HETATM    6  C   UNL     1      -9.877   7.084  66.613  1.00  0.00    -0.156 C  
HETATM    7  C   UNL     1     -10.221   4.986  66.858  1.00  0.00    -0.229 C  
HETATM    8  F   UNL     1      -9.945   3.871  67.567  1.00  0.00    -0.224 F  
HETATM    9  C   UNL     1      -8.999   5.823  66.376  1.00  0.00    -0.139 C  
HETATM   10  F   UNL     1     -11.090   4.622  65.887  1.00  0.00    -0.321 F  
HETATM   11  C   UNL     1     -10.629   6.243  67.677  1.00  0.00    -0.339 C  
ENDBRANCH   4   6
ENDBRANCH   1   2
BRANCH   1  12
HETATM   12  N   UNL     1     -10.078  12.181  67.549  1.00  0.00    -0.195 N  
HETATM   13  O   UNL     1      -9.563  12.922  65.426  1.00  0.00    -0.088 OA 
HETATM   14  C   UNL     1     -10.229  13.059  66.455  1.00  0.00    -0.268 C  
BRANCH  12  15
HETATM   15  C   UNL     1     -10.817  12.337  68.745  1.00  0.00    -0.229 A  
HETATM   16  C   UNL     1     -10.877  13.557  69.419  1.00  0.00     0.015 A  
HETATM   17  C   UNL     1     -12.391  11.484  70.336  1.00  0.00    -0.305 A  
HETATM   18  N   UNL     1     -11.665  13.778  70.498  1.00  0.00    -0.199 NA 
HETATM   19  F   UNL     1     -13.160  10.489  70.791  1.00  0.00    -0.406 F  
HETATM   20  C   UNL     1     -11.596  11.287  69.221  1.00  0.00    -0.390 A  
HETATM   21  C   UNL     1     -12.403  12.728  70.937  1.00  0.00    -0.265 A  
ENDBRANCH  12  15
BRANCH  14  22
HETATM   22  C   UNL     1     -11.328  14.181  66.545  1.00  0.00    -0.341 C  
HETATM   23  C   UNL     1     -12.273  14.376  64.350  1.00  0.00    -0.481 C  
HETATM   24  C   UNL     1     -12.536  13.757  65.712  1.00  0.00    -0.527 C  
HETATM   25  N   UNL     1     -11.006  15.492  65.980  1.00  0.00    -0.292 N  
HETATM   26  O   UNL     1     -11.454  16.576  63.903  1.00  0.00    -1.145 OA 
HETATM   27  C   UNL     1     -11.533  15.642  64.688  1.00  0.00    -0.303 C  
BRANCH  25  28
HETATM   28  C   UNL     1     -10.464  16.581  66.705  1.00  0.00    -0.266 A  
HETATM   29  N   UNL     1     -10.849  16.746  67.991  1.00  0.00    -0.358 NA 
HETATM   30  C   UNL     1     -10.319  17.729  68.747  1.00  0.00    -0.332 A  
HETATM   31  C   UNL     1      -9.376  18.611  68.276  1.00  0.00    -0.359 A  
HETATM   32  C   UNL     1      -8.974  18.458  66.955  1.00  0.00    -0.280 A  
HETATM   33  C   UNL     1      -9.516  17.436  66.159  1.00  0.00    -0.192 A  
HETATM   34  C   UNL     1      -7.996  19.348  66.405  1.00  0.00    -0.307 C  
HETATM   35  N   UNL     1      -7.206  20.065  65.948  1.00  0.00    -0.301 NA 
ENDBRANCH  25  28
ENDBRANCH  14  22
ENDBRANCH   1  12
BRANCH   1  36
HETATM   36  C   UNL     1      -8.060  11.103  68.603  1.00  0.00    -0.150 A  
HETATM   37  C   UNL     1      -6.076  12.379  69.373  1.00  0.00    -0.108 A  
HETATM   38  C   UNL     1      -5.836  11.463  70.377  1.00  0.00    -0.153 A  
HETATM   39 CL   UNL     1      -9.140   9.258  70.313  1.00  0.00    -0.244 Cl 
HETATM   40  C   UNL     1      -6.757  10.435  70.571  1.00  0.00    -0.039 A  
HETATM   41  C   UNL     1      -7.141  12.190  68.492  1.00  0.00    -0.099 A  
HETATM   42  C   UNL     1      -7.900  10.306  69.742  1.00  0.00    -0.139 A  
ENDBRANCH   1  36
TORSDOF 7
ENDMDL
MODEL        7
REMARK 921   NORMALIZED FREE ENERGY PREDICTED BY IDOCK:   -7.33 KCAL/MOL
REMARK 922        TOTAL FREE ENERGY PREDICTED BY IDOCK:  -11.79 KCAL/MOL
REMARK 923 INTER-LIGAND FREE ENERGY PREDICTED BY IDOCK:   -9.65 KCAL/MOL
REMARK 924 INTRA-LIGAND FREE ENERGY PREDICTED BY IDOCK:   -2.15 KCAL/MOL
REMARK 927      BINDING AFFINITY PREDICTED BY RF-SCORE:    0.00 PKD
ROOT
HETATM    1  C   UNL     1      -9.513   8.540  66.193  1.00  0.00    -0.217 C  
ENDROOT
BRANCH   1   2
HETATM    2  C   UNL     1     -10.470   8.213  67.445  1.00  0.00    -0.285 C  
HETATM    3  H   UNL     1      -9.626   9.575  68.737  1.00  0.00     0.000 HD 
HETATM    4  N   UNL     1     -10.369   8.881  68.658  1.00  0.00    -0.204 N  
HETATM    5  O   UNL     1     -11.261   7.274  67.368  1.00  0.00    -0.145 OA 
BRANCH   4   6
HETATM    6  C   UNL     1     -11.252   8.683  69.880  1.00  0.00    -0.041 C  
HETATM    7  C   UNL     1     -11.571   8.327  71.966  1.00  0.00    -0.340 C  
HETATM    8  F   UNL     1     -11.010   8.078  73.168  1.00  0.00    -0.422 F  
HETATM    9  C   UNL     1     -11.108   7.426  70.783  1.00  0.00    -0.285 C  
HETATM   10  F   UNL     1     -12.908   8.377  72.165  1.00  0.00    -0.325 F  
HETATM   11  C   UNL     1     -10.976   9.515  71.159  1.00  0.00    -0.438 C  
ENDBRANCH   4   6
ENDBRANCH   1   2
BRANCH   1  12
HETATM   12  N   UNL     1      -9.063   9.987  66.178  1.00  0.00    -0.152 N  
HETATM   13  O   UNL     1      -7.347   9.650  67.682  1.00  0.00    -0.089 OA 
HETATM   14  C   UNL     1      -7.959  10.423  66.940  1.00  0.00    -0.114 C  
BRANCH  12  15
HETATM   15  C   UNL     1      -9.789  10.864  65.337  1.00  0.00    -0.255 A  
HETATM   16  C   UNL     1      -9.437  11.061  64.001  1.00  0.00    -0.246 A  
HETATM   17  C   UNL     1     -11.702  12.249  64.944  1.00  0.00    -0.352 A  
HETATM   18  N   UNL     1     -10.173  11.797  63.136  1.00  0.00    -0.390 NA 
HETATM   19  F   UNL     1     -12.829  12.824  65.377  1.00  0.00    -0.535 F  
HETATM   20  C   UNL     1     -10.948  11.473  65.807  1.00  0.00    -0.305 A  
HETATM   21  C   UNL     1     -11.291  12.383  63.632  1.00  0.00    -0.482 A  
ENDBRANCH  12  15
BRANCH  14  22
HETATM   22  C   UNL     1      -7.470  11.907  66.764  1.00  0.00    -0.017 C  
HETATM   23  C   UNL     1      -5.706  12.229  68.356  1.00  0.00    -0.055 C  
HETATM   24  C   UNL     1      -5.947  11.944  66.884  1.00  0.00    -0.115 C  
HETATM   25  N   UNL     1      -7.884  12.881  67.774  1.00  0.00    -0.143 N  
HETATM   26  O   UNL     1      -6.870  13.803  69.726  1.00  0.00    -0.034 OA 
HETATM   27  C   UNL     1      -6.881  13.090  68.733  1.00  0.00    -0.102 C  
BRANCH  25  28
HETATM   28  C   UNL     1      -9.027  13.712  67.684  1.00  0.00    -0.202 A  
HETATM   29  N   UNL     1      -9.802  13.851  68.784  1.00  0.00    -0.167 NA 
HETATM   30  C   UNL     1     -10.868  14.677  68.774  1.00  0.00    -0.255 A  
HETATM   31  C   UNL     1     -11.234  15.416  67.675  1.00  0.00    -0.311 A  
HETATM   32  C   UNL     1     -10.451  15.280  66.535  1.00  0.00    -0.299 A  
HETATM   33  C   UNL     1      -9.336  14.426  66.535  1.00  0.00    -0.300 A  
HETATM   34  C   UNL     1     -10.783  16.022  65.356  1.00  0.00    -0.383 C  
HETATM   35  N   UNL     1     -11.043  16.616  64.394  1.00  0.00    -1.019 NA 
ENDBRANCH  25  28
ENDBRANCH  14  22
ENDBRANCH   1  12
BRANCH   1  36
HETATM   36  C   UNL     1      -8.408   7.622  65.607  1.00  0.00    -0.143 A  
HETATM   37  C   UNL     1      -7.019   7.173  63.602  1.00  0.00    -0.061 A  
HETATM   38  C   UNL     1      -6.529   6.010  64.161  1.00  0.00    -0.033 A  
HETATM   39 CL   UNL     1      -7.797   6.283  67.916  1.00  0.00    -0.102 Cl 
HETATM   40  C   UNL     1      -6.883   5.706  65.475  1.00  0.00    -0.056 A  
HETATM   41  C   UNL     1      -7.954   7.943  64.293  1.00  0.00    -0.130 A  
HETATM   42  C   UNL     1      -7.749   6.547  66.216  1.00  0.00    -0.095 A  
ENDBRANCH   1  36
TORSDOF 7
ENDMDL
MODEL        8
REMARK 921   NORMALIZED FREE ENERGY PREDICTED BY IDOCK:   -7.25 KCAL/MOL
REMARK 922        TOTAL FREE ENERGY PREDICTED BY IDOCK:  -11.68 KCAL/MOL
REMARK 923 INTER-LIGAND FREE ENERGY PREDICTED BY IDOCK:  -10.56 KCAL/MOL
REMARK 924 INTRA-LIGAND FREE ENERGY PREDICTED BY IDOCK:   -1.12 KCAL/MOL
REMARK 927      BINDING AFFINITY PREDICTED BY RF-SCORE:    0.00 PKD
ROOT
HETATM    1  C   UNL     1      -9.487  11.421  68.213  1.00  0.00    -0.187 C  
ENDROOT
BRANCH   1   2
HETATM    2  C   UNL     1     -10.387  10.169  68.674  1.00  0.00    -0.188 C  
HETATM    3  H   UNL     1      -9.790  10.173  70.644  1.00  0.00     0.000 HD 
HETATM    4  N   UNL     1     -10.407   9.703  69.982  1.00  0.00    -0.238 N  
HETATM    5  O   UNL     1     -11.011   9.533  67.826  1.00  0.00    -0.244 OA 
BRANCH   4   6
HETATM    6  C   UNL     1     -11.256   8.566  70.529  1.00  0.00    -0.242 C  
HETATM    7  C   UNL     1     -11.553   6.800  71.700  1.00  0.00    -0.295 C  
HETATM    8  F   UNL     1     -10.995   5.870  72.504  1.00  0.00    -0.241 F  
HETATM    9  C   UNL     1     -10.824   7.083  70.353  1.00  0.00    -0.283 C  
HETATM   10  F   UNL     1     -12.864   6.482  71.591  1.00  0.00    -0.378 F  
HETATM   11  C   UNL     1     -11.259   8.285  72.053  1.00  0.00    -0.389 C  
ENDBRANCH   4   6
ENDBRANCH   1   2
BRANCH   1  12
HETATM   12  N   UNL     1     -10.308  12.681  68.031  1.00  0.00    -0.221 N  
HETATM   13  O   UNL     1     -10.106  12.687  65.733  1.00  0.00    -0.265 OA 
HETATM   14  C   UNL     1     -10.573  13.208  66.749  1.00  0.00    -0.263 C  
BRANCH  12  15
HETATM   15  C   UNL     1     -10.817  13.278  69.209  1.00  0.00    -0.023 A  
HETATM   16  C   UNL     1     -10.317  14.485  69.696  1.00  0.00     0.066 A  
HETATM   17  C   UNL     1     -12.464  13.363  70.945  1.00  0.00    -0.359 A  
HETATM   18  N   UNL     1     -10.853  15.146  70.749  1.00  0.00    -0.218 NA 
HETATM   19  F   UNL     1     -13.532  12.844  71.560  1.00  0.00    -0.415 F  
HETATM   20  C   UNL     1     -11.915  12.715  69.852  1.00  0.00    -0.365 A  
HETATM   21  C   UNL     1     -11.916  14.562  71.356  1.00  0.00    -0.315 A  
ENDBRANCH  12  15
BRANCH  14  22
HETATM   22  C   UNL     1     -11.546  14.438  66.635  1.00  0.00    -0.384 C  
HETATM   23  C   UNL     1     -12.365  14.442  64.380  1.00  0.00    -0.428 C  
HETATM   24  C   UNL     1     -12.754  14.036  65.791  1.00  0.00    -0.487 C  
HETATM   25  N   UNL     1     -11.059  15.625  65.931  1.00  0.00    -0.221 N  
HETATM   26  O   UNL     1     -11.292  16.470  63.713  1.00  0.00    -0.966 OA 
HETATM   27  C   UNL     1     -11.508  15.659  64.602  1.00  0.00    -0.303 C  
BRANCH  25  28
HETATM   28  C   UNL     1     -10.434  16.737  66.546  1.00  0.00    -0.258 A  
HETATM   29  N   UNL     1     -11.036  17.292  67.623  1.00  0.00    -0.127 NA 
HETATM   30  C   UNL     1     -10.457  18.314  68.284  1.00  0.00    -0.301 A  
HETATM   31  C   UNL     1      -9.245  18.852  67.920  1.00  0.00    -0.339 A  
HETATM   32  C   UNL     1      -8.617  18.297  66.812  1.00  0.00    -0.271 A  
HETATM   33  C   UNL     1      -9.209  17.230  66.118  1.00  0.00    -0.193 A  
HETATM   34  C   UNL     1      -7.353  18.816  66.381  1.00  0.00    -0.244 C  
HETATM   35  N   UNL     1      -6.331  19.230  66.021  1.00  0.00    -0.187 NA 
ENDBRANCH  25  28
ENDBRANCH  14  22
ENDBRANCH   1  12
BRANCH   1  36
HETATM   36  C   UNL     1      -8.061  11.770  68.714  1.00  0.00    -0.047 A  
HETATM   37  C   UNL     1      -6.143  10.951  70.058  1.00  0.00    -0.121 A  
HETATM   38  C   UNL     1      -5.508  12.172  69.956  1.00  0.00    -0.111 A  
HETATM   39 CL   UNL     1      -7.706  14.038  67.223  1.00  0.00    -0.171 Cl 
HETATM   40  C   UNL     1      -6.083  13.153  69.150  1.00  0.00    -0.095 A  
HETATM   41  C   UNL     1      -7.397  10.763  69.477  1.00  0.00    -0.125 A  
HETATM   42  C   UNL     1      -7.306  12.923  68.472  1.00  0.00    -0.115 A  
ENDBRANCH   1  36
TORSDOF 7
ENDMDL
MODEL        9
REMARK 921   NORMALIZED FREE ENERGY PREDICTED BY IDOCK:   -7.24 KCAL/MOL
REMARK 922        TOTAL FREE ENERGY PREDICTED BY IDOCK:  -11.67 KCAL/MOL
REMARK 923 INTER-LIGAND FREE ENERGY PREDICTED BY IDOCK:   -9.92 KCAL/MOL
REMARK 924 INTRA-LIGAND FREE ENERGY PREDICTED BY IDOCK:   -1.75 KCAL/MOL
REMARK 927      BINDING AFFINITY PREDICTED BY RF-SCORE:    0.00 PKD
ROOT
HETATM    1  C   UNL     1      -9.803   8.791  67.253  1.00  0.00    -0.201 C  
ENDROOT
BRANCH   1   2
HETATM    2  C   UNL     1     -10.295   8.654  68.780  1.00  0.00    -0.208 C  
HETATM    3  H   UNL     1      -9.571   6.752  69.082  1.00  0.00     0.000 HD 
HETATM    4  N   UNL     1     -10.051   7.523  69.545  1.00  0.00    -0.185 N  
HETATM    5  O   UNL     1     -10.996   9.540  69.267  1.00  0.00    -0.219 OA 
BRANCH   4   6
HETATM    6  C   UNL     1     -10.427   7.314  71.004  1.00  0.00    -0.215 C  
HETATM    7  C   UNL     1     -11.199   6.155  72.629  1.00  0.00    -0.274 C  
HETATM    8  F   UNL     1     -11.756   4.989  73.021  1.00  0.00    -0.359 F  
HETATM    9  C   UNL     1     -11.859   6.866  71.411  1.00  0.00    -0.373 C  
HETATM   10  F   UNL     1     -11.068   6.915  73.740  1.00  0.00    -0.266 F  
HETATM   11  C   UNL     1      -9.924   6.048  71.745  1.00  0.00    -0.199 C  
ENDBRANCH   4   6
ENDBRANCH   1   2
BRANCH   1  12
HETATM   12  N   UNL     1      -9.325  10.191  66.928  1.00  0.00    -0.156 N  
HETATM   13  O   UNL     1      -7.661  10.180  68.526  1.00  0.00    -0.084 OA 
HETATM   14  C   UNL     1      -8.235  10.773  67.609  1.00  0.00    -0.115 C  
BRANCH  12  15
HETATM   15  C   UNL     1     -10.008  10.865  65.888  1.00  0.00    -0.243 A  
HETATM   16  C   UNL     1      -9.662  10.692  64.548  1.00  0.00    -0.309 A  
HETATM   17  C   UNL     1     -11.842  12.215  65.147  1.00  0.00    -0.298 A  
HETATM   18  N   UNL     1     -10.363  11.225  63.520  1.00  0.00    -0.380 NA 
HETATM   19  F   UNL     1     -12.928  12.948  65.414  1.00  0.00    -0.526 F  
HETATM   20  C   UNL     1     -11.124  11.643  66.182  1.00  0.00    -0.335 A  
HETATM   21  C   UNL     1     -11.439  11.984  63.846  1.00  0.00    -0.435 A  
ENDBRANCH  12  15
BRANCH  14  22
HETATM   22  C   UNL     1      -7.711  12.173  67.120  1.00  0.00    -0.151 C  
HETATM   23  C   UNL     1      -5.813  12.698  68.489  1.00  0.00    -0.060 C  
HETATM   24  C   UNL     1      -6.184  12.157  67.119  1.00  0.00    -0.143 C  
HETATM   25  N   UNL     1      -8.008  13.337  67.956  1.00  0.00    -0.139 N  
HETATM   26  O   UNL     1      -6.807  14.555  69.619  1.00  0.00    -0.146 OA 
HETATM   27  C   UNL     1      -6.924  13.671  68.782  1.00  0.00    -0.106 C  
BRANCH  25  28
HETATM   28  C   UNL     1      -9.126  14.192  67.796  1.00  0.00    -0.190 A  
HETATM   29  N   UNL     1      -9.849  14.508  68.894  1.00  0.00    -0.217 NA 
HETATM   30  C   UNL     1     -10.886  15.365  68.811  1.00  0.00    -0.252 A  
HETATM   31  C   UNL     1     -11.273  15.962  67.634  1.00  0.00    -0.219 A  
HETATM   32  C   UNL     1     -10.543  15.643  66.496  1.00  0.00    -0.307 A  
HETATM   33  C   UNL     1      -9.459  14.755  66.571  1.00  0.00    -0.316 A  
HETATM   34  C   UNL     1     -10.900  16.231  65.239  1.00  0.00    -0.297 C  
HETATM   35  N   UNL     1     -11.180  16.699  64.215  1.00  0.00    -1.080 NA 
ENDBRANCH  25  28
ENDBRANCH  14  22
ENDBRANCH   1  12
BRANCH   1  36
HETATM   36  C   UNL     1      -9.000   7.740  66.442  1.00  0.00    -0.196 A  
HETATM   37  C   UNL     1      -6.824   7.281  65.342  1.00  0.00    -0.052 A  
HETATM   38  C   UNL     1      -7.314   6.117  64.786  1.00  0.00    -0.075 A  
HETATM   39 CL   UNL     1     -10.779   5.672  66.678  1.00  0.00    -0.364 Cl 
HETATM   40  C   UNL     1      -8.597   5.702  65.139  1.00  0.00    -0.130 A  
HETATM   41  C   UNL     1      -7.652   8.086  66.125  1.00  0.00    -0.086 A  
HETATM   42  C   UNL     1      -9.400   6.466  66.022  1.00  0.00    -0.017 A  
ENDBRANCH   1  36
TORSDOF 7
ENDMDL
MODEL       10
REMARK 921   NORMALIZED FREE ENERGY PREDICTED BY IDOCK:   -7.23 KCAL/MOL
REMARK 922        TOTAL FREE ENERGY PREDICTED BY IDOCK:  -11.64 KCAL/MOL
REMARK 923 INTER-LIGAND FREE ENERGY PREDICTED BY IDOCK:  -10.30 KCAL/MOL
REMARK 924 INTRA-LIGAND FREE ENERGY PREDICTED BY IDOCK:   -1.34 KCAL/MOL
REMARK 927      BINDING AFFINITY PREDICTED BY RF-SCORE:    0.00 PKD
ROOT
HETATM    1  C   UNL     1     -10.848  11.881  70.038  1.00  0.00     0.655 C  
ENDROOT
BRANCH   1   2
HETATM    2  C   UNL     1     -10.747  10.278  70.140  1.00  0.00    -0.278 C  
HETATM    3  H   UNL     1     -10.888   9.913  68.120  1.00  0.00     0.000 HD 
HETATM    4  N   UNL     1     -10.767   9.455  69.023  1.00  0.00    -0.214 N  
HETATM    5  O   UNL     1     -10.746   9.746  71.249  1.00  0.00    -0.304 OA 
BRANCH   4   6
HETATM    6  C   UNL     1     -10.629   7.941  69.007  1.00  0.00    -0.162 C  
HETATM    7  C   UNL     1      -9.740   6.113  68.338  1.00  0.00    -0.122 C  
HETATM    8  F   UNL     1      -8.835   5.528  67.525  1.00  0.00    -0.110 F  
HETATM    9  C   UNL     1     -10.707   7.139  67.677  1.00  0.00    -0.314 C  
HETATM   10  F   UNL     1     -10.339   5.117  69.031  1.00  0.00    -0.265 F  
HETATM   11  C   UNL     1      -9.228   7.304  69.198  1.00  0.00    -0.139 C  
ENDBRANCH   4   6
ENDBRANCH   1   2
BRANCH   1  12
HETATM   12  N   UNL     1     -10.494  12.392  68.657  1.00  0.00    -0.225 N  
HETATM   13  O   UNL     1     -12.531  11.826  67.735  1.00  0.00    -0.043 OA 
HETATM   14  C   UNL     1     -11.417  12.335  67.591  1.00  0.00    -0.336 C  
BRANCH  12  15
HETATM   15  C   UNL     1      -9.204  12.953  68.504  1.00  0.00    -0.062 A  
HETATM   16  C   UNL     1      -8.089  12.165  68.217  1.00  0.00    -0.166 A  
HETATM   17  C   UNL     1      -7.791  14.874  68.282  1.00  0.00    -0.122 A  
HETATM   18  N   UNL     1      -6.863  12.674  67.948  1.00  0.00    -0.097 NA 
HETATM   19  F   UNL     1      -7.625  16.200  68.286  1.00  0.00    -0.134 F  
HETATM   20  C   UNL     1      -9.041  14.334  68.532  1.00  0.00    -0.191 A  
HETATM   21  C   UNL     1      -6.742  14.023  67.993  1.00  0.00    -0.144 A  
ENDBRANCH  12  15
BRANCH  14  22
HETATM   22  C   UNL     1     -11.024  13.009  66.226  1.00  0.00    -0.284 C  
HETATM   23  C   UNL     1     -13.076  13.726  65.212  1.00  0.00    -0.193 C  
HETATM   24  C   UNL     1     -11.896  14.246  66.016  1.00  0.00    -0.399 C  
HETATM   25  N   UNL     1     -11.265  12.248  65.000  1.00  0.00    -0.313 N  
HETATM   26  O   UNL     1     -13.003  12.211  63.367  1.00  0.00    -0.776 OA 
HETATM   27  C   UNL     1     -12.465  12.631  64.381  1.00  0.00    -0.428 C  
BRANCH  25  28
HETATM   28  C   UNL     1     -10.316  11.417  64.357  1.00  0.00    -0.320 A  
HETATM   29  N   UNL     1      -9.934  11.739  63.100  1.00  0.00    -0.400 NA 
HETATM   30  C   UNL     1      -8.989  11.018  62.463  1.00  0.00    -0.326 A  
HETATM   31  C   UNL     1      -8.364   9.933  63.029  1.00  0.00    -0.163 A  
HETATM   32  C   UNL     1      -8.749   9.586  64.319  1.00  0.00    -0.232 A  
HETATM   33  C   UNL     1      -9.729  10.331  64.994  1.00  0.00    -0.370 A  
HETATM   34  C   UNL     1      -8.136   8.463  64.962  1.00  0.00    -0.147 C  
HETATM   35  N   UNL     1      -7.649   7.554  65.493  1.00  0.00    -0.088 NA 
ENDBRANCH  25  28
ENDBRANCH  14  22
ENDBRANCH   1  12
BRANCH   1  36
HETATM   36  C   UNL     1     -11.929  12.784  70.690  1.00  0.00    -0.199 A  
HETATM   37  C   UNL     1     -12.814  15.099  70.806  1.00  0.00    -0.473 A  
HETATM   38  C   UNL     1     -13.661  14.758  71.841  1.00  0.00    -0.492 A  
HETATM   39 CL   UNL     1     -13.378  10.795  71.889  1.00  0.00    -0.506 Cl 
HETATM   40  C   UNL     1     -13.730  13.420  72.229  1.00  0.00    -0.705 A  
HETATM   41  C   UNL     1     -11.951  14.146  70.263  1.00  0.00    -0.404 A  
HETATM   42  C   UNL     1     -12.930  12.432  71.602  1.00  0.00    -0.305 A  
ENDBRANCH   1  36
TORSDOF 7
ENDMDL
MODEL       11
REMARK 921   NORMALIZED FREE ENERGY PREDICTED BY IDOCK:   -7.17 KCAL/MOL
REMARK 922        TOTAL FREE ENERGY PREDICTED BY IDOCK:  -11.56 KCAL/MOL
REMARK 923 INTER-LIGAND FREE ENERGY PREDICTED BY IDOCK:  -10.08 KCAL/MOL
REMARK 924 INTRA-LIGAND FREE ENERGY PREDICTED BY IDOCK:   -1.49 KCAL/MOL
REMARK 927      BINDING AFFINITY PREDICTED BY RF-SCORE:    0.00 PKD
ROOT
HETATM    1  C   UNL     1     -11.120  12.888  68.032  1.00  0.00    -0.253 C  
ENDROOT
BRANCH   1   2
HETATM    2  C   UNL     1     -10.259  11.845  68.904  1.00  0.00    -0.075 C  
HETATM    3  H   UNL     1     -11.864  10.803  69.662  1.00  0.00     0.000 HD 
HETATM    4  N   UNL     1     -10.845  10.835  69.656  1.00  0.00    -0.250 N  
HETATM    5  O   UNL     1      -9.042  11.996  68.991  1.00  0.00     0.123 OA 
BRANCH   4   6
HETATM    6  C   UNL     1     -10.124   9.773  70.470  1.00  0.00    -0.224 C  
HETATM    7  C   UNL     1      -9.916   7.803  71.279  1.00  0.00    -0.175 C  
HETATM    8  F   UNL     1     -10.453   6.572  71.406  1.00  0.00    -0.221 F  
HETATM    9  C   UNL     1     -10.847   9.006  71.613  1.00  0.00    -0.437 C  
HETATM   10  F   UNL     1      -8.737   7.782  71.943  1.00  0.00    -0.114 F  
HETATM   11  C   UNL     1      -9.853   8.384  69.838  1.00  0.00    -0.186 C  
ENDBRANCH   4   6
ENDBRANCH   1   2
BRANCH   1  12
HETATM   12  N   UNL     1     -10.879  14.323  68.452  1.00  0.00    -0.246 N  
HETATM   13  O   UNL     1      -9.286  14.712  66.830  1.00  0.00    -0.238 OA 
HETATM   14  C   UNL     1      -9.960  15.146  67.767  1.00  0.00    -0.225 C  
BRANCH  12  15
HETATM   15  C   UNL     1     -11.644  14.798  69.544  1.00  0.00    -0.304 A  
HETATM   16  C   UNL     1     -13.010  15.060  69.425  1.00  0.00     0.592 A  
HETATM   17  C   UNL     1     -11.846  15.283  71.880  1.00  0.00    -0.420 A  
HETATM   18  N   UNL     1     -13.798  15.401  70.471  1.00  0.00    -0.119 NA 
HETATM   19  F   UNL     1     -11.303  15.378  73.098  1.00  0.00    -0.512 F  
HETATM   20  C   UNL     1     -11.062  14.913  70.802  1.00  0.00    -0.157 A  
HETATM   21  C   UNL     1     -13.193  15.512  71.679  1.00  0.00    -0.492 A  
ENDBRANCH  12  15
BRANCH  14  22
HETATM   22  C   UNL     1      -9.866  16.662  68.176  1.00  0.00    -0.250 C  
HETATM   23  C   UNL     1     -10.315  17.925  66.188  1.00  0.00    -0.352 C  
HETATM   24  C   UNL     1     -10.976  17.435  67.465  1.00  0.00    -0.089 C  
HETATM   25  N   UNL     1      -8.668  17.400  67.776  1.00  0.00    -0.228 N  
HETATM   26  O   UNL     1      -8.126  18.858  65.967  1.00  0.00    -0.431 OA 
HETATM   27  C   UNL     1      -8.887  18.145  66.607  1.00  0.00    -0.275 C  
BRANCH  25  28
HETATM   28  C   UNL     1      -7.511  17.569  68.573  1.00  0.00    -0.264 A  
HETATM   29  N   UNL     1      -6.673  16.516  68.713  1.00  0.00    -0.159 NA 
HETATM   30  C   UNL     1      -5.526  16.638  69.411  1.00  0.00    -0.145 A  
HETATM   31  C   UNL     1      -5.136  17.809  70.014  1.00  0.00    -0.205 A  
HETATM   32  C   UNL     1      -5.988  18.899  69.885  1.00  0.00    -0.266 A  
HETATM   33  C   UNL     1      -7.184  18.785  69.157  1.00  0.00    -0.253 A  
HETATM   34  C   UNL     1      -5.639  20.147  70.494  1.00  0.00    -0.298 C  
HETATM   35  N   UNL     1      -5.367  21.163  70.984  1.00  0.00    -0.511 NA 
ENDBRANCH  25  28
ENDBRANCH  14  22
ENDBRANCH   1  12
BRANCH   1  36
HETATM   36  C   UNL     1     -11.404  12.809  66.509  1.00  0.00    -0.369 A  
HETATM   37  C   UNL     1     -12.822  13.697  64.677  1.00  0.00    -0.090 A  
HETATM   38  C   UNL     1     -12.310  12.774  63.789  1.00  0.00    -0.533 A  
HETATM   39 CL   UNL     1      -9.265  11.243  65.829  1.00  0.00    -0.231 Cl 
HETATM   40  C   UNL     1     -11.273  11.946  64.217  1.00  0.00    -0.424 A  
HETATM   41  C   UNL     1     -12.403  13.697  66.008  1.00  0.00    -0.493 A  
HETATM   42  C   UNL     1     -10.772  12.020  65.541  1.00  0.00    -0.276 A  
ENDBRANCH   1  36
TORSDOF 7
ENDMDL
MODEL       12
REMARK 921   NORMALIZED FREE ENERGY PREDICTED BY IDOCK:   -7.09 KCAL/MOL
REMARK 922        TOTAL FREE ENERGY PREDICTED BY IDOCK:  -11.45 KCAL/MOL
REMARK 923 INTER-LIGAND FREE ENERGY PREDICTED BY IDOCK:  -10.29 KCAL/MOL
REMARK 924 INTRA-LIGAND FREE ENERGY PREDICTED BY IDOCK:   -1.16 KCAL/MOL
REMARK 927      BINDING AFFINITY PREDICTED BY RF-SCORE:    0.00 PKD
ROOT
HETATM    1  C   UNL     1     -10.009   9.171  68.620  1.00  0.00    -0.170 C  
ENDROOT
BRANCH   1   2
HETATM    2  C   UNL     1     -10.059   7.913  67.617  1.00  0.00    -0.203 C  
HETATM    3  H   UNL     1      -8.021   7.673  67.454  1.00  0.00     0.000 HD 
HETATM    4  N   UNL     1      -8.913   7.279  67.155  1.00  0.00    -0.124 N  
HETATM    5  O   UNL     1     -11.142   7.551  67.161  1.00  0.00    -0.216 OA 
BRANCH   4   6
HETATM    6  C   UNL     1      -8.852   6.059  66.250  1.00  0.00    -0.141 C  
HETATM    7  C   UNL     1      -8.214   4.076  65.761  1.00  0.00    -0.105 C  
HETATM    8  F   UNL     1      -7.486   3.001  66.129  1.00  0.00    -0.067 F  
HETATM    9  C   UNL     1      -7.491   5.454  65.805  1.00  0.00    -0.081 C  
HETATM   10  F   UNL     1      -8.795   3.765  64.579  1.00  0.00    -0.111 F  
HETATM   11  C   UNL     1      -9.174   4.660  66.836  1.00  0.00    -0.133 C  
ENDBRANCH   4   6
ENDBRANCH   1   2
BRANCH   1  12
HETATM   12  N   UNL     1      -9.528  10.433  67.934  1.00  0.00    -0.138 N  
HETATM   13  O   UNL     1      -7.735  10.729  69.353  1.00  0.00    -0.142 OA 
HETATM   14  C   UNL     1      -8.371  11.113  68.369  1.00  0.00    -0.149 C  
BRANCH  12  15
HETATM   15  C   UNL     1     -10.283  10.871  66.819  1.00  0.00    -0.231 A  
HETATM   16  C   UNL     1     -11.338  11.773  66.955  1.00  0.00    -0.321 A  
HETATM   17  C   UNL     1     -10.596  11.001  64.449  1.00  0.00    -0.325 A  
HETATM   18  N   UNL     1     -12.006  12.306  65.905  1.00  0.00    -0.597 NA 
HETATM   19  F   UNL     1     -10.236  10.654  63.208  1.00  0.00    -0.368 F  
HETATM   20  C   UNL     1      -9.911  10.486  65.535  1.00  0.00    -0.342 A  
HETATM   21  C   UNL     1     -11.621  11.899  64.670  1.00  0.00    -0.250 A  
ENDBRANCH  12  15
BRANCH  14  22
HETATM   22  C   UNL     1      -7.860  12.335  67.521  1.00  0.00    -0.166 C  
HETATM   23  C   UNL     1      -5.808  13.048  68.536  1.00  0.00    -0.075 C  
HETATM   24  C   UNL     1      -6.343  12.233  67.372  1.00  0.00    -0.152 C  
HETATM   25  N   UNL     1      -8.027  13.672  68.090  1.00  0.00    -0.137 N  
HETATM   26  O   UNL     1      -6.613  15.165  69.300  1.00  0.00    -0.119 OA 
HETATM   27  C   UNL     1      -6.848  14.122  68.705  1.00  0.00    -0.101 C  
BRANCH  25  28
HETATM   28  C   UNL     1      -9.127  14.529  67.848  1.00  0.00    -0.191 A  
HETATM   29  N   UNL     1      -9.738  15.098  68.913  1.00  0.00    -0.216 NA 
HETATM   30  C   UNL     1     -10.752  15.970  68.739  1.00  0.00    -0.282 A  
HETATM   31  C   UNL     1     -11.225  16.333  67.500  1.00  0.00    -0.054 A  
HETATM   32  C   UNL     1     -10.611  15.753  66.396  1.00  0.00    -0.307 A  
HETATM   33  C   UNL     1      -9.552  14.847  66.565  1.00  0.00    -0.297 A  
HETATM   34  C   UNL     1     -11.060  16.089  65.079  1.00  0.00    -0.336 C  
HETATM   35  N   UNL     1     -11.417  16.351  64.006  1.00  0.00    -1.073 NA 
ENDBRANCH  25  28
ENDBRANCH  14  22
ENDBRANCH   1  12
BRANCH   1  36
HETATM   36  C   UNL     1     -11.042   9.514  69.726  1.00  0.00    -0.216 A  
HETATM   37  C   UNL     1     -12.334  11.357  70.771  1.00  0.00    -0.483 A  
HETATM   38  C   UNL     1     -12.779  10.519  71.773  1.00  0.00    -0.508 A  
HETATM   39 CL   UNL     1     -11.660   6.946  70.446  1.00  0.00    -0.385 Cl 
HETATM   40  C   UNL     1     -12.456   9.165  71.699  1.00  0.00    -0.434 A  
HETATM   41  C   UNL     1     -11.466  10.875  69.790  1.00  0.00    -0.390 A  
HETATM   42  C   UNL     1     -11.662   8.656  70.641  1.00  0.00    -0.155 A  
ENDBRANCH   1  36
TORSDOF 7
ENDMDL
MODEL       13
REMARK 921   NORMALIZED FREE ENERGY PREDICTED BY IDOCK:   -7.07 KCAL/MOL
REMARK 922        TOTAL FREE ENERGY PREDICTED BY IDOCK:  -11.42 KCAL/MOL
REMARK 923 INTER-LIGAND FREE ENERGY PREDICTED BY IDOCK:   -9.56 KCAL/MOL
REMARK 924 INTRA-LIGAND FREE ENERGY PREDICTED BY IDOCK:   -1.86 KCAL/MOL
REMARK 927      BINDING AFFINITY PREDICTED BY RF-SCORE:    0.00 PKD
ROOT
HETATM    1  C   UNL     1      -9.312  14.998  68.323  1.00  0.00    -0.192 C  
ENDROOT
BRANCH   1   2
HETATM    2  C   UNL     1     -10.557  15.524  69.197  1.00  0.00    -0.234 C  
HETATM    3  H   UNL     1     -10.628  13.916  70.480  1.00  0.00     0.000 HD 
HETATM    4  N   UNL     1     -11.062  14.817  70.279  1.00  0.00    -0.191 N  
HETATM    5  O   UNL     1     -11.151  16.541  68.845  1.00  0.00    -0.329 OA 
BRANCH   4   6
HETATM    6  C   UNL     1     -12.197  15.247  71.196  1.00  0.00    -0.350 C  
HETATM    7  C   UNL     1     -13.047  15.658  73.117  1.00  0.00    -0.558 C  
HETATM    8  F   UNL     1     -12.866  15.665  74.454  1.00  0.00    -0.599 F  
HETATM    9  C   UNL     1     -12.670  14.344  72.371  1.00  0.00    -0.400 C  
HETATM   10  F   UNL     1     -14.302  16.109  72.893  1.00  0.00    -0.656 F  
HETATM   11  C   UNL     1     -11.937  16.339  72.266  1.00  0.00    -0.605 C  
ENDBRANCH   4   6
ENDBRANCH   1   2
BRANCH   1  12
HETATM   12  N   UNL     1      -9.631  13.713  67.586  1.00  0.00    -0.215 N  
HETATM   13  O   UNL     1      -8.385  12.387  69.002  1.00  0.00     0.166 OA 
HETATM   14  C   UNL     1      -9.135  12.469  68.026  1.00  0.00    -0.200 C  
BRANCH  12  15
HETATM   15  C   UNL     1     -10.475  13.828  66.455  1.00  0.00    -0.282 A  
HETATM   16  C   UNL     1     -10.007  13.595  65.162  1.00  0.00    -0.191 A  
HETATM   17  C   UNL     1     -12.664  14.086  65.520  1.00  0.00    -0.486 A  
HETATM   18  N   UNL     1     -10.806  13.579  64.069  1.00  0.00    -0.219 NA 
HETATM   19  F   UNL     1     -13.975  14.303  65.672  1.00  0.00     0.245 F  
HETATM   20  C   UNL     1     -11.833  14.076  66.626  1.00  0.00    -0.443 A  
HETATM   21  C   UNL     1     -12.122  13.833  64.275  1.00  0.00    -0.440 A  
ENDBRANCH  12  15
BRANCH  14  22
HETATM   22  C   UNL     1      -9.622  11.167  67.290  1.00  0.00    -0.165 C  
HETATM   23  C   UNL     1     -10.161   9.582  69.007  1.00  0.00    -0.211 C  
HETATM   24  C   UNL     1     -10.804  10.578  68.057  1.00  0.00    -0.312 C  
HETATM   25  N   UNL     1      -8.697  10.036  67.229  1.00  0.00    -0.125 N  
HETATM   26  O   UNL     1      -8.408   8.038  68.501  1.00  0.00    -0.125 OA 
HETATM   27  C   UNL     1      -8.972   9.089  68.228  1.00  0.00    -0.133 C  
BRANCH  25  28
HETATM   28  C   UNL     1      -7.800   9.772  66.165  1.00  0.00    -0.107 A  
HETATM   29  N   UNL     1      -6.625  10.441  66.141  1.00  0.00    -0.104 NA 
HETATM   30  C   UNL     1      -5.708  10.185  65.186  1.00  0.00    -0.107 A  
HETATM   31  C   UNL     1      -5.898   9.253  64.194  1.00  0.00    -0.071 A  
HETATM   32  C   UNL     1      -7.103   8.561  64.202  1.00  0.00    -0.086 A  
HETATM   33  C   UNL     1      -8.064   8.815  65.194  1.00  0.00    -0.133 A  
HETATM   34  C   UNL     1      -7.361   7.578  63.193  1.00  0.00    -0.090 C  
HETATM   35  N   UNL     1      -7.583   6.781  62.380  1.00  0.00    -0.083 NA 
ENDBRANCH  25  28
ENDBRANCH  14  22
ENDBRANCH   1  12
BRANCH   1  36
HETATM   36  C   UNL     1      -8.328  15.868  67.497  1.00  0.00    -0.180 A  
HETATM   37  C   UNL     1      -5.930  16.305  67.035  1.00  0.00    -0.043 A  
HETATM   38  C   UNL     1      -6.245  17.413  66.276  1.00  0.00    -0.241 A  
HETATM   39 CL   UNL     1     -10.184  17.079  65.890  1.00  0.00    -0.337 Cl 
HETATM   40  C   UNL     1      -7.589  17.689  66.031  1.00  0.00    -0.256 A  
HETATM   41  C   UNL     1      -6.941  15.568  67.653  1.00  0.00    -0.203 A  
HETATM   42  C   UNL     1      -8.616  16.876  66.570  1.00  0.00    -0.270 A  
ENDBRANCH   1  36
TORSDOF 7
ENDMDL
MODEL       14
REMARK 921   NORMALIZED FREE ENERGY PREDICTED BY IDOCK:   -7.07 KCAL/MOL
REMARK 922        TOTAL FREE ENERGY PREDICTED BY IDOCK:  -11.41 KCAL/MOL
REMARK 923 INTER-LIGAND FREE ENERGY PREDICTED BY IDOCK:  -10.63 KCAL/MOL
REMARK 924 INTRA-LIGAND FREE ENERGY PREDICTED BY IDOCK:   -0.78 KCAL/MOL
REMARK 927      BINDING AFFINITY PREDICTED BY RF-SCORE:    0.00 PKD
ROOT
HETATM    1  C   UNL     1     -10.951  12.199  69.722  1.00  0.00     0.244 C  
ENDROOT
BRANCH   1   2
HETATM    2  C   UNL     1     -11.275  10.631  69.890  1.00  0.00    -0.308 C  
HETATM    3  H   UNL     1     -10.868  10.529  71.904  1.00  0.00     0.000 HD 
HETATM    4  N   UNL     1     -11.187   9.976  71.110  1.00  0.00    -0.329 N  
HETATM    5  O   UNL     1     -11.519   9.958  68.889  1.00  0.00    -0.080 OA 
BRANCH   4   6
HETATM    6  C   UNL     1     -11.518   8.517  71.384  1.00  0.00    -0.287 C  
HETATM    7  C   UNL     1     -11.006   6.518  71.950  1.00  0.00    -0.250 C  
HETATM    8  F   UNL     1     -10.027   5.662  72.311  1.00  0.00    -0.181 F  
HETATM    9  C   UNL     1     -10.748   7.369  70.671  1.00  0.00    -0.242 C  
HETATM   10  F   UNL     1     -12.159   5.811  71.951  1.00  0.00    -0.282 F  
HETATM   11  C   UNL     1     -11.058   7.870  72.716  1.00  0.00    -0.462 C  
ENDBRANCH   4   6
ENDBRANCH   1   2
BRANCH   1  12
HETATM   12  N   UNL     1     -10.435  12.533  68.337  1.00  0.00    -0.235 N  
HETATM   13  O   UNL     1     -12.529  12.975  67.475  1.00  0.00    -0.126 OA 
HETATM   14  C   UNL     1     -11.308  12.930  67.302  1.00  0.00    -0.310 C  
BRANCH  12  15
HETATM   15  C   UNL     1      -9.035  12.454  68.150  1.00  0.00    -0.196 A  
HETATM   16  C   UNL     1      -8.257  13.592  67.933  1.00  0.00    -0.171 A  
HETATM   17  C   UNL     1      -7.004  11.186  68.199  1.00  0.00    -0.069 A  
HETATM   18  N   UNL     1      -6.905  13.572  67.866  1.00  0.00    -0.132 NA 
HETATM   19  F   UNL     1      -6.364  10.022  68.349  1.00  0.00    -0.049 F  
HETATM   20  C   UNL     1      -8.384  11.232  68.286  1.00  0.00    -0.150 A  
HETATM   21  C   UNL     1      -6.308  12.362  67.996  1.00  0.00    -0.082 A  
ENDBRANCH  12  15
BRANCH  14  22
HETATM   22  C   UNL     1     -10.684  13.392  65.935  1.00  0.00    -0.279 C  
HETATM   23  C   UNL     1     -12.457  14.434  64.702  1.00  0.00    -0.364 C  
HETATM   24  C   UNL     1     -11.253  14.761  65.569  1.00  0.00    -0.346 C  
HETATM   25  N   UNL     1     -10.994  12.599  64.745  1.00  0.00    -0.289 N  
HETATM   26  O   UNL     1     -12.580  12.789  62.973  1.00  0.00    -0.507 OA 
HETATM   27  C   UNL     1     -12.037  13.171  64.001  1.00  0.00    -0.446 C  
BRANCH  25  28
HETATM   28  C   UNL     1     -10.202  11.538  64.243  1.00  0.00    -0.311 A  
HETATM   29  N   UNL     1      -9.770  11.614  62.964  1.00  0.00    -0.383 NA 
HETATM   30  C   UNL     1      -8.964  10.663  62.452  1.00  0.00    -0.293 A  
HETATM   31  C   UNL     1      -8.535   9.575  63.175  1.00  0.00    -0.199 A  
HETATM   32  C   UNL     1      -8.974   9.479  64.490  1.00  0.00    -0.256 A  
HETATM   33  C   UNL     1      -9.812  10.466  65.035  1.00  0.00    -0.384 A  
HETATM   34  C   UNL     1      -8.564   8.367  65.294  1.00  0.00    -0.150 C  
HETATM   35  N   UNL     1      -8.240   7.470  65.954  1.00  0.00    -0.126 NA 
ENDBRANCH  25  28
ENDBRANCH  14  22
ENDBRANCH   1  12
BRANCH   1  36
HETATM   36  C   UNL     1     -11.776  13.381  70.294  1.00  0.00    -0.231 A  
HETATM   37  C   UNL     1     -13.763  13.976  71.655  1.00  0.00    -0.419 A  
HETATM   38  C   UNL     1     -13.620  15.312  71.339  1.00  0.00    -0.598 A  
HETATM   39 CL   UNL     1     -10.047  15.388  69.603  1.00  0.00    -0.270 Cl 
HETATM   40  C   UNL     1     -12.504  15.703  70.601  1.00  0.00    -0.463 A  
HETATM   41  C   UNL     1     -12.883  13.033  71.124  1.00  0.00    -0.331 A  
HETATM   42  C   UNL     1     -11.550  14.755  70.153  1.00  0.00    -0.290 A  
ENDBRANCH   1  36
TORSDOF 7
ENDMDL
MODEL       15
REMARK 921   NORMALIZED FREE ENERGY PREDICTED BY IDOCK:   -7.06 KCAL/MOL
REMARK 922        TOTAL FREE ENERGY PREDICTED BY IDOCK:  -11.41 KCAL/MOL
REMARK 923 INTER-LIGAND FREE ENERGY PREDICTED BY IDOCK:  -10.54 KCAL/MOL
REMARK 924 INTRA-LIGAND FREE ENERGY PREDICTED BY IDOCK:   -0.87 KCAL/MOL
REMARK 927      BINDING AFFINITY PREDICTED BY RF-SCORE:    0.00 PKD
ROOT
HETATM    1  C   UNL     1     -11.755  12.662  68.346  1.00  0.00    -0.333 C  
ENDROOT
BRANCH   1   2
HETATM    2  C   UNL     1     -11.294  11.460  69.312  1.00  0.00    -0.289 C  
HETATM    3  H   UNL     1     -13.152  11.088  70.114  1.00  0.00     0.000 HD 
HETATM    4  N   UNL     1     -12.182  10.772  70.125  1.00  0.00    -0.327 N  
HETATM    5  O   UNL     1     -10.096  11.195  69.412  1.00  0.00    -0.111 OA 
BRANCH   4   6
HETATM    6  C   UNL     1     -11.860   9.595  71.033  1.00  0.00    -0.347 C  
HETATM    7  C   UNL     1     -12.044   7.554  71.649  1.00  0.00    -0.311 C  
HETATM    8  F   UNL     1     -12.635   6.359  71.438  1.00  0.00    -0.353 F  
HETATM    9  C   UNL     1     -12.987   8.790  71.740  1.00  0.00    -0.404 C  
HETATM   10  F   UNL     1     -11.203   7.391  72.696  1.00  0.00    -0.275 F  
HETATM   11  C   UNL     1     -11.423   8.247  70.403  1.00  0.00    -0.122 C  
ENDBRANCH   4   6
ENDBRANCH   1   2
BRANCH   1  12
HETATM   12  N   UNL     1     -11.247  14.008  68.823  1.00  0.00    -0.256 N  
HETATM   13  O   UNL     1      -9.547  14.113  67.267  1.00  0.00    -0.222 OA 
HETATM   14  C   UNL     1     -10.156  14.647  68.197  1.00  0.00    -0.224 C  
BRANCH  12  15
HETATM   15  C   UNL     1     -11.943  14.597  69.905  1.00  0.00    -0.329 A  
HETATM   16  C   UNL     1     -13.308  14.880  69.834  1.00  0.00     0.690 A  
HETATM   17  C   UNL     1     -12.010  15.294  72.195  1.00  0.00    -0.420 A  
HETATM   18  N   UNL     1     -14.032  15.333  70.884  1.00  0.00    -0.350 NA 
HETATM   19  F   UNL     1     -11.400  15.484  73.370  1.00  0.00    -0.406 F  
HETATM   20  C   UNL     1     -11.292  14.810  71.115  1.00  0.00    -0.185 A  
HETATM   21  C   UNL     1     -13.361  15.536  72.044  1.00  0.00    -0.472 A  
ENDBRANCH  12  15
BRANCH  14  22
HETATM   22  C   UNL     1      -9.778  16.102  68.660  1.00  0.00    -0.227 C  
HETATM   23  C   UNL     1      -9.869  17.479  66.699  1.00  0.00    -0.308 C  
HETATM   24  C   UNL     1     -10.673  17.102  67.931  1.00  0.00    -0.355 C  
HETATM   25  N   UNL     1      -8.438  16.590  68.334  1.00  0.00    -0.199 N  
HETATM   26  O   UNL     1      -7.528  17.952  66.599  1.00  0.00    -0.199 OA 
HETATM   27  C   UNL     1      -8.446  17.393  67.183  1.00  0.00    -0.211 C  
BRANCH  25  28
HETATM   28  C   UNL     1      -7.308  16.500  69.183  1.00  0.00    -0.220 A  
HETATM   29  N   UNL     1      -6.590  17.624  69.410  1.00  0.00    -0.239 NA 
HETATM   30  C   UNL     1      -5.541  17.610  70.257  1.00  0.00    -0.235 A  
HETATM   31  C   UNL     1      -5.137  16.482  70.931  1.00  0.00    -0.191 A  
HETATM   32  C   UNL     1      -5.861  15.318  70.704  1.00  0.00    -0.041 A  
HETATM   33  C   UNL     1      -6.957  15.321  69.827  1.00  0.00    -0.168 A  
HETATM   34  C   UNL     1      -5.486  14.110  71.375  1.00  0.00    -0.211 C  
HETATM   35  N   UNL     1      -5.191  13.124  71.911  1.00  0.00    -0.328 NA 
ENDBRANCH  25  28
ENDBRANCH  14  22
ENDBRANCH   1  12
BRANCH   1  36
HETATM   36  C   UNL     1     -11.830  12.628  66.797  1.00  0.00    -0.440 A  
HETATM   37  C   UNL     1     -12.875  13.683  64.809  1.00  0.00    -0.176 A  
HETATM   38  C   UNL     1     -12.344  12.718  63.978  1.00  0.00    -0.492 A  
HETATM   39 CL   UNL     1      -9.795  10.845  66.381  1.00  0.00    -0.239 Cl 
HETATM   40  C   UNL     1     -11.472  11.778  64.524  1.00  0.00    -0.322 A  
HETATM   41  C   UNL     1     -12.648  13.625  66.185  1.00  0.00    -0.391 A  
HETATM   42  C   UNL     1     -11.156  11.785  65.906  1.00  0.00    -0.302 A  
ENDBRANCH   1  36
TORSDOF 7
ENDMDL
MODEL       16
REMARK 921   NORMALIZED FREE ENERGY PREDICTED BY IDOCK:   -7.01 KCAL/MOL
REMARK 922        TOTAL FREE ENERGY PREDICTED BY IDOCK:  -11.33 KCAL/MOL
REMARK 923 INTER-LIGAND FREE ENERGY PREDICTED BY IDOCK:  -10.00 KCAL/MOL
REMARK 924 INTRA-LIGAND FREE ENERGY PREDICTED BY IDOCK:   -1.33 KCAL/MOL
REMARK 927      BINDING AFFINITY PREDICTED BY RF-SCORE:    0.00 PKD
ROOT
HETATM    1  C   UNL     1     -10.388  10.503  66.945  1.00  0.00    -0.239 C  
ENDROOT
BRANCH   1   2
HETATM    2  C   UNL     1     -11.145  10.121  68.313  1.00  0.00    -0.227 C  
HETATM    3  H   UNL     1      -9.667   8.895  69.056  1.00  0.00     0.000 HD 
HETATM    4  N   UNL     1     -10.582   9.290  69.273  1.00  0.00    -0.224 N  
HETATM    5  O   UNL     1     -12.304  10.496  68.484  1.00  0.00    -0.180 OA 
BRANCH   4   6
HETATM    6  C   UNL     1     -11.189   8.909  70.614  1.00  0.00    -0.266 C  
HETATM    7  C   UNL     1     -11.214   7.822  72.456  1.00  0.00    -0.363 C  
HETATM    8  F   UNL     1     -10.610   6.896  73.230  1.00  0.00    -0.237 F  
HETATM    9  C   UNL     1     -11.478   7.424  70.974  1.00  0.00    -0.307 C  
HETATM   10  F   UNL     1     -12.300   8.250  73.141  1.00  0.00    -0.292 F  
HETATM   11  C   UNL     1     -10.304   8.946  71.886  1.00  0.00    -0.407 C  
ENDBRANCH   4   6
ENDBRANCH   1   2
BRANCH   1  12
HETATM   12  N   UNL     1      -9.715  11.858  67.022  1.00  0.00    -0.192 N  
HETATM   13  O   UNL     1      -7.928  11.094  68.263  1.00  0.00    -0.114 OA 
HETATM   14  C   UNL     1      -8.481  12.031  67.683  1.00  0.00    -0.160 C  
BRANCH  12  15
HETATM   15  C   UNL     1     -10.375  12.927  66.369  1.00  0.00    -0.268 A  
HETATM   16  C   UNL     1      -9.679  13.863  65.604  1.00  0.00    -0.128 A  
HETATM   17  C   UNL     1     -12.401  13.995  65.669  1.00  0.00    -0.479 A  
HETATM   18  N   UNL     1     -10.283  14.828  64.872  1.00  0.00    -0.356 NA 
HETATM   19  F   UNL     1     -13.736  14.067  65.667  1.00  0.00    -0.209 F  
HETATM   20  C   UNL     1     -11.764  13.003  66.393  1.00  0.00    -0.444 A  
HETATM   21  C   UNL     1     -11.637  14.875  64.927  1.00  0.00    -0.395 A  
ENDBRANCH  12  15
BRANCH  14  22
HETATM   22  C   UNL     1      -7.781  13.437  67.600  1.00  0.00    -0.177 C  
HETATM   23  C   UNL     1      -5.776  13.269  68.905  1.00  0.00    -0.074 C  
HETATM   24  C   UNL     1      -6.273  13.231  67.470  1.00  0.00    -0.114 C  
HETATM   25  N   UNL     1      -7.875  14.311  68.770  1.00  0.00    -0.138 N  
HETATM   26  O   UNL     1      -6.448  14.792  70.620  1.00  0.00    -0.123 OA 
HETATM   27  C   UNL     1      -6.723  14.234  69.567  1.00  0.00    -0.130 C  
BRANCH  25  28
HETATM   28  C   UNL     1      -8.863  15.306  68.966  1.00  0.00    -0.226 A  
HETATM   29  N   UNL     1      -8.624  16.547  68.482  1.00  0.00    -0.213 NA 
HETATM   30  C   UNL     1      -9.555  17.517  68.587  1.00  0.00    -0.303 A  
HETATM   31  C   UNL     1     -10.779  17.320  69.179  1.00  0.00    -0.118 A  
HETATM   32  C   UNL     1     -11.038  16.053  69.686  1.00  0.00    -0.331 A  
HETATM   33  C   UNL     1     -10.078  15.034  69.579  1.00  0.00    -0.176 A  
HETATM   34  C   UNL     1     -12.296  15.786  70.317  1.00  0.00    -0.310 C  
HETATM   35  N   UNL     1     -13.310  15.559  70.832  1.00  0.00    -0.522 NA 
ENDBRANCH  25  28
ENDBRANCH  14  22
ENDBRANCH   1  12
BRANCH   1  36
HETATM   36  C   UNL     1      -9.574   9.543  66.038  1.00  0.00    -0.316 A  
HETATM   37  C   UNL     1      -8.349   7.386  65.978  1.00  0.00    -0.143 A  
HETATM   38  C   UNL     1      -7.885   7.649  64.705  1.00  0.00    -0.126 A  
HETATM   39 CL   UNL     1     -10.032  10.824  63.663  1.00  0.00    -0.393 Cl 
HETATM   40  C   UNL     1      -8.346   8.791  64.053  1.00  0.00    -0.146 A  
HETATM   41  C   UNL     1      -9.149   8.320  66.638  1.00  0.00    -0.204 A  
HETATM   42  C   UNL     1      -9.245   9.686  64.686  1.00  0.00    -0.234 A  
ENDBRANCH   1  36
TORSDOF 7
ENDMDL
MODEL       17
REMARK 921   NORMALIZED FREE ENERGY PREDICTED BY IDOCK:   -6.99 KCAL/MOL
REMARK 922        TOTAL FREE ENERGY PREDICTED BY IDOCK:  -11.31 KCAL/MOL
REMARK 923 INTER-LIGAND FREE ENERGY PREDICTED BY IDOCK:  -10.60 KCAL/MOL
REMARK 924 INTRA-LIGAND FREE ENERGY PREDICTED BY IDOCK:   -0.71 KCAL/MOL
REMARK 927      BINDING AFFINITY PREDICTED BY RF-SCORE:    0.00 PKD
ROOT
HETATM    1  C   UNL     1     -11.729  14.530  68.798  1.00  0.00    -0.327 C  
ENDROOT
BRANCH   1   2
HETATM    2  C   UNL     1     -11.273  16.041  69.115  1.00  0.00    -0.342 C  
HETATM    3  H   UNL     1     -11.310  16.703  67.167  1.00  0.00     0.000 HD 
HETATM    4  N   UNL     1     -11.140  17.005  68.126  1.00  0.00    -0.266 N  
HETATM    5  O   UNL     1     -10.937  16.339  70.260  1.00  0.00    -0.347 OA 
BRANCH   4   6
HETATM    6  C   UNL     1     -10.765  18.466  68.324  1.00  0.00    -0.093 C  
HETATM    7  C   UNL     1      -9.697  20.248  67.813  1.00  0.00    -0.382 C  
HETATM    8  F   UNL     1      -8.786  20.826  67.002  1.00  0.00    -0.394 F  
HETATM    9  C   UNL     1      -9.281  18.903  68.479  1.00  0.00    -0.404 C  
HETATM   10  F   UNL     1     -10.120  21.208  68.667  1.00  0.00     0.049 F  
HETATM   11  C   UNL     1     -10.826  19.436  67.117  1.00  0.00    -0.561 C  
ENDBRANCH   4   6
ENDBRANCH   1   2
BRANCH   1  12
HETATM   12  N   UNL     1     -10.988  13.944  67.614  1.00  0.00    -0.261 N  
HETATM   13  O   UNL     1     -12.880  13.735  66.311  1.00  0.00    -0.297 OA 
HETATM   14  C   UNL     1     -11.658  13.607  66.419  1.00  0.00    -0.350 C  
BRANCH  12  15
HETATM   15  C   UNL     1      -9.590  13.784  67.762  1.00  0.00    -0.219 A  
HETATM   16  C   UNL     1      -9.025  12.563  68.135  1.00  0.00    -0.199 A  
HETATM   17  C   UNL     1      -7.365  14.625  67.485  1.00  0.00    -0.197 A  
HETATM   18  N   UNL     1      -7.691  12.338  68.174  1.00  0.00    -0.128 NA 
HETATM   19  F   UNL     1      -6.530  15.615  67.150  1.00  0.00    -0.196 F  
HETATM   20  C   UNL     1      -8.733  14.828  67.431  1.00  0.00    -0.210 A  
HETATM   21  C   UNL     1      -6.888  13.382  67.852  1.00  0.00    -0.144 A  
ENDBRANCH  12  15
BRANCH  14  22
HETATM   22  C   UNL     1     -10.799  13.134  65.190  1.00  0.00    -0.304 C  
HETATM   23  C   UNL     1     -12.216  13.323  63.264  1.00  0.00    -0.387 C  
HETATM   24  C   UNL     1     -11.098  14.042  63.998  1.00  0.00     0.115 C  
HETATM   25  N   UNL     1     -11.073  11.805  64.642  1.00  0.00    -0.312 N  
HETATM   26  O   UNL     1     -12.369  10.980  62.817  1.00  0.00     0.692 OA 
HETATM   27  C   UNL     1     -11.910  11.871  63.518  1.00  0.00    -0.460 C  
BRANCH  25  28
HETATM   28  C   UNL     1     -10.397  10.616  65.011  1.00  0.00    -0.271 A  
HETATM   29  N   UNL     1      -9.432  10.149  64.185  1.00  0.00    -0.289 NA 
HETATM   30  C   UNL     1      -8.715   9.056  64.515  1.00  0.00    -0.120 A  
HETATM   31  C   UNL     1      -8.908   8.357  65.682  1.00  0.00    -0.196 A  
HETATM   32  C   UNL     1      -9.899   8.821  66.539  1.00  0.00    -0.349 A  
HETATM   33  C   UNL     1     -10.650   9.960  66.207  1.00  0.00    -0.089 A  
HETATM   34  C   UNL     1     -10.150   8.132  67.769  1.00  0.00    -0.204 C  
HETATM   35  N   UNL     1     -10.364   7.582  68.768  1.00  0.00    -0.198 NA 
ENDBRANCH  25  28
ENDBRANCH  14  22
ENDBRANCH   1  12
BRANCH   1  36
HETATM   36  C   UNL     1     -12.055  13.424  69.836  1.00  0.00    -0.389 A  
HETATM   37  C   UNL     1     -11.913  10.990  70.295  1.00  0.00    -0.452 A  
HETATM   38  C   UNL     1     -12.678  11.128  71.435  1.00  0.00    -0.524 A  
HETATM   39 CL   UNL     1     -12.821  15.072  71.884  1.00  0.00    -0.384 Cl 
HETATM   40  C   UNL     1     -13.038  12.411  71.842  1.00  0.00    -0.471 A  
HETATM   41  C   UNL     1     -11.633  12.103  69.501  1.00  0.00    -0.382 A  
HETATM   42  C   UNL     1     -12.660  13.553  71.091  1.00  0.00    -0.355 A  
ENDBRANCH   1  36
TORSDOF 7
ENDMDL
MODEL       18
REMARK 921   NORMALIZED FREE ENERGY PREDICTED BY IDOCK:   -6.97 KCAL/MOL
REMARK 922        TOTAL FREE ENERGY PREDICTED BY IDOCK:  -11.28 KCAL/MOL
REMARK 923 INTER-LIGAND FREE ENERGY PREDICTED BY IDOCK:  -10.05 KCAL/MOL
REMARK 924 INTRA-LIGAND FREE ENERGY PREDICTED BY IDOCK:   -1.22 KCAL/MOL
REMARK 927      BINDING AFFINITY PREDICTED BY RF-SCORE:    0.00 PKD
ROOT
HETATM    1  C   UNL     1      -8.342  14.535  68.435  1.00  0.00    -0.153 C  
ENDROOT
BRANCH   1   2
HETATM    2  C   UNL     1      -8.319  15.884  67.559  1.00  0.00    -0.163 C  
HETATM    3  H   UNL     1     -10.220  16.505  68.047  1.00  0.00     0.000 HD 
HETATM    4  N   UNL     1      -9.389  16.768  67.517  1.00  0.00    -0.229 N  
HETATM    5  O   UNL     1      -7.361  16.104  66.819  1.00  0.00    -0.222 OA 
BRANCH   4   6
HETATM    6  C   UNL     1      -9.449  18.088  66.764  1.00  0.00    -0.293 C  
HETATM    7  C   UNL     1      -9.646  20.216  66.656  1.00  0.00    -0.418 C  
HETATM    8  F   UNL     1      -9.849  21.367  67.331  1.00  0.00    -0.581 F  
HETATM    9  C   UNL     1     -10.651  19.059  66.937  1.00  0.00    -0.518 C  
HETATM   10  F   UNL     1      -9.500  20.550  65.354  1.00  0.00    -0.190 F  
HETATM   11  C   UNL     1      -8.553  19.267  67.223  1.00  0.00    -0.319 C  
ENDBRANCH   4   6
ENDBRANCH   1   2
BRANCH   1  12
HETATM   12  N   UNL     1      -9.741  13.971  68.583  1.00  0.00    -0.211 N  
HETATM   13  O   UNL     1     -10.134  15.011  70.604  1.00  0.00     0.155 OA 
HETATM   14  C   UNL     1     -10.552  14.294  69.691  1.00  0.00     0.064 C  
BRANCH  12  15
HETATM   15  C   UNL     1     -10.196  13.132  67.538  1.00  0.00    -0.225 A  
HETATM   16  C   UNL     1     -10.536  13.640  66.283  1.00  0.00    -0.289 A  
HETATM   17  C   UNL     1     -10.562  10.939  66.649  1.00  0.00    -0.249 A  
HETATM   18  N   UNL     1     -10.862  12.861  65.225  1.00  0.00    -0.287 NA 
HETATM   19  F   UNL     1     -10.561   9.610  66.798  1.00  0.00    -0.299 F  
HETATM   20  C   UNL     1     -10.210  11.752  67.712  1.00  0.00    -0.205 A  
HETATM   21  C   UNL     1     -10.873  11.522  65.436  1.00  0.00    -0.259 A  
ENDBRANCH  12  15
BRANCH  14  22
HETATM   22  C   UNL     1     -12.038  13.779  69.703  1.00  0.00    -0.336 C  
HETATM   23  C   UNL     1     -13.268  15.305  71.087  1.00  0.00    -0.567 C  
HETATM   24  C   UNL     1     -12.978  14.982  69.631  1.00  0.00     0.303 C  
HETATM   25  N   UNL     1     -12.508  13.091  70.906  1.00  0.00    -0.357 N  
HETATM   26  O   UNL     1     -13.743  13.749  72.837  1.00  0.00    -0.684 OA 
HETATM   27  C   UNL     1     -13.224  13.954  71.749  1.00  0.00    -0.376 C  
BRANCH  25  28
HETATM   28  C   UNL     1     -12.486  11.689  71.103  1.00  0.00    -0.307 A  
HETATM   29  N   UNL     1     -13.415  11.146  71.922  1.00  0.00    -0.288 NA 
HETATM   30  C   UNL     1     -13.479   9.811  72.099  1.00  0.00    -0.399 A  
HETATM   31  C   UNL     1     -12.627   8.930  71.477  1.00  0.00    -0.385 A  
HETATM   32  C   UNL     1     -11.663   9.473  70.637  1.00  0.00    -0.330 A  
HETATM   33  C   UNL     1     -11.589  10.861  70.442  1.00  0.00    -0.418 A  
HETATM   34  C   UNL     1     -10.744   8.606  69.962  1.00  0.00    -0.228 C  
HETATM   35  N   UNL     1      -9.992   7.915  69.411  1.00  0.00    -0.185 NA 
ENDBRANCH  25  28
ENDBRANCH  14  22
ENDBRANCH   1  12
BRANCH   1  36
HETATM   36  C   UNL     1      -7.296  13.390  68.400  1.00  0.00    -0.112 A  
HETATM   37  C   UNL     1      -6.276  11.639  66.969  1.00  0.00    -0.144 A  
HETATM   38  C   UNL     1      -5.597  11.108  68.046  1.00  0.00    -0.042 A  
HETATM   39 CL   UNL     1      -6.155  13.875  70.841  1.00  0.00    -0.153 Cl 
HETATM   40  C   UNL     1      -5.672  11.771  69.270  1.00  0.00    -0.062 A  
HETATM   41  C   UNL     1      -7.125  12.732  67.145  1.00  0.00    -0.004 A  
HETATM   42  C   UNL     1      -6.449  12.946  69.422  1.00  0.00    -0.091 A  
ENDBRANCH   1  36
TORSDOF 7
ENDMDL
MODEL       19
REMARK 921   NORMALIZED FREE ENERGY PREDICTED BY IDOCK:   -6.92 KCAL/MOL
REMARK 922        TOTAL FREE ENERGY PREDICTED BY IDOCK:  -11.21 KCAL/MOL
REMARK 923 INTER-LIGAND FREE ENERGY PREDICTED BY IDOCK:  -10.72 KCAL/MOL
REMARK 924 INTRA-LIGAND FREE ENERGY PREDICTED BY IDOCK:   -0.49 KCAL/MOL
REMARK 927      BINDING AFFINITY PREDICTED BY RF-SCORE:    0.00 PKD
ROOT
HETATM    1  C   UNL     1     -10.413  13.397  67.310  1.00  0.00    -0.248 C  
ENDROOT
BRANCH   1   2
HETATM    2  C   UNL     1     -11.159  14.259  68.445  1.00  0.00    -0.256 C  
HETATM    3  H   UNL     1     -12.041  12.663  69.400  1.00  0.00     0.000 HD 
HETATM    4  N   UNL     1     -11.933  13.676  69.439  1.00  0.00    -0.334 N  
HETATM    5  O   UNL     1     -11.128  15.487  68.384  1.00  0.00    -0.283 OA 
BRANCH   4   6
HETATM    6  C   UNL     1     -12.636  14.393  70.582  1.00  0.00    -0.357 C  
HETATM    7  C   UNL     1     -12.919  14.872  72.648  1.00  0.00    -0.412 C  
HETATM    8  F   UNL     1     -12.525  14.659  73.921  1.00  0.00    -0.586 F  
HETATM    9  C   UNL     1     -13.216  13.606  71.791  1.00  0.00    -0.477 C  
HETATM   10  F   UNL     1     -13.918  15.783  72.698  1.00  0.00    -0.579 F  
HETATM   11  C   UNL     1     -11.794  15.179  71.619  1.00  0.00    -0.449 C  
ENDBRANCH   4   6
ENDBRANCH   1   2
BRANCH   1  12
HETATM   12  N   UNL     1      -9.741  12.162  67.877  1.00  0.00    -0.194 N  
HETATM   13  O   UNL     1     -11.571  10.799  67.538  1.00  0.00    -0.510 OA 
HETATM   14  C   UNL     1     -10.404  10.917  67.919  1.00  0.00    -0.187 C  
BRANCH  12  15
HETATM   15  C   UNL     1      -8.410  12.320  68.330  1.00  0.00    -0.174 A  
HETATM   16  C   UNL     1      -7.863  11.490  69.308  1.00  0.00     0.162 A  
HETATM   17  C   UNL     1      -6.250  13.329  68.106  1.00  0.00    -0.111 A  
HETATM   18  N   UNL     1      -6.562  11.532  69.683  1.00  0.00    -0.126 NA 
HETATM   19  F   UNL     1      -5.433  14.209  67.516  1.00  0.00    -0.088 F  
HETATM   20  C   UNL     1      -7.577  13.254  67.722  1.00  0.00    -0.161 A  
HETATM   21  C   UNL     1      -5.784  12.461  69.074  1.00  0.00    -0.067 A  
ENDBRANCH  12  15
BRANCH  14  22
HETATM   22  C   UNL     1      -9.593   9.656  68.394  1.00  0.00    -0.144 C  
HETATM   23  C   UNL     1      -9.745   8.050  66.619  1.00  0.00    -0.313 C  
HETATM   24  C   UNL     1      -8.812   9.095  67.206  1.00  0.00    -0.132 C  
HETATM   25  N   UNL     1     -10.355   8.490  68.842  1.00  0.00    -0.211 N  
HETATM   26  O   UNL     1     -11.053   6.451  67.820  1.00  0.00    -0.328 OA 
HETATM   27  C   UNL     1     -10.476   7.530  67.826  1.00  0.00    -0.223 C  
BRANCH  25  28
HETATM   28  C   UNL     1     -10.712   8.218  70.185  1.00  0.00    -0.239 A  
HETATM   29  N   UNL     1      -9.832   7.538  70.954  1.00  0.00    -0.177 NA 
HETATM   30  C   UNL     1     -10.093   7.304  72.256  1.00  0.00    -0.189 A  
HETATM   31  C   UNL     1     -11.244   7.727  72.878  1.00  0.00    -0.434 A  
HETATM   32  C   UNL     1     -12.162   8.422  72.099  1.00  0.00    -0.434 A  
HETATM   33  C   UNL     1     -11.898   8.676  70.744  1.00  0.00    -0.197 A  
HETATM   34  C   UNL     1     -13.381   8.887  72.690  1.00  0.00    -0.318 C  
HETATM   35  N   UNL     1     -14.373   9.267  73.155  1.00  0.00    -0.081 NA 
ENDBRANCH  25  28
ENDBRANCH  14  22
ENDBRANCH   1  12
BRANCH   1  36
HETATM   36  C   UNL     1     -10.920  13.125  65.869  1.00  0.00    -0.288 A  
HETATM   37  C   UNL     1     -12.688  13.682  64.221  1.00  0.00    -0.049 A  
HETATM   38  C   UNL     1     -12.229  12.713  63.352  1.00  0.00    -0.610 A  
HETATM   39 CL   UNL     1      -8.764  11.681  64.998  1.00  0.00     0.322 Cl 
HETATM   40  C   UNL     1     -11.060  12.028  63.680  1.00  0.00    -0.525 A  
HETATM   41  C   UNL     1     -12.069  13.865  65.457  1.00  0.00    -0.425 A  
HETATM   42  C   UNL     1     -10.370  12.291  64.890  1.00  0.00    -0.290 A  
ENDBRANCH   1  36
TORSDOF 7
ENDMDL
MODEL       20
REMARK 921   NORMALIZED FREE ENERGY PREDICTED BY IDOCK:   -6.86 KCAL/MOL
REMARK 922        TOTAL FREE ENERGY PREDICTED BY IDOCK:  -11.12 KCAL/MOL
REMARK 923 INTER-LIGAND FREE ENERGY PREDICTED BY IDOCK:  -10.35 KCAL/MOL
REMARK 924 INTRA-LIGAND FREE ENERGY PREDICTED BY IDOCK:   -0.77 KCAL/MOL
REMARK 927      BINDING AFFINITY PREDICTED BY RF-SCORE:    0.00 PKD
ROOT
HETATM    1  C   UNL     1     -11.342  14.664  68.520  1.00  0.00    -0.284 C  
ENDROOT
BRANCH   1   2
HETATM    2  C   UNL     1     -11.008  16.234  68.635  1.00  0.00    -0.340 C  
HETATM    3  H   UNL     1     -10.953  16.604  66.612  1.00  0.00     0.000 HD 
HETATM    4  N   UNL     1     -10.869  17.053  67.523  1.00  0.00    -0.263 N  
HETATM    5  O   UNL     1     -10.771  16.718  69.741  1.00  0.00    -0.322 OA 
BRANCH   4   6
HETATM    6  C   UNL     1     -10.604  18.551  67.524  1.00  0.00    -0.423 C  
HETATM    7  C   UNL     1      -9.463  20.287  67.012  1.00  0.00    -0.412 C  
HETATM    8  F   UNL     1      -8.355  20.775  66.417  1.00  0.00    -0.133 F  
HETATM    9  C   UNL     1      -9.253  19.129  68.031  1.00  0.00    -0.364 C  
HETATM   10  F   UNL     1     -10.152  21.352  67.482  1.00  0.00    -0.434 F  
HETATM   11  C   UNL     1     -10.300  19.270  66.185  1.00  0.00    -0.578 C  
ENDBRANCH   4   6
ENDBRANCH   1   2
BRANCH   1  12
HETATM   12  N   UNL     1     -10.314  13.918  67.694  1.00  0.00    -0.240 N  
HETATM   13  O   UNL     1     -11.882  12.666  66.556  1.00  0.00    -0.396 OA 
HETATM   14  C   UNL     1     -10.697  12.962  66.730  1.00  0.00    -0.261 C  
BRANCH  12  15
HETATM   15  C   UNL     1      -8.958  14.255  67.921  1.00  0.00    -0.186 A  
HETATM   16  C   UNL     1      -8.295  15.200  67.139  1.00  0.00    -0.219 A  
HETATM   17  C   UNL     1      -6.991  14.132  69.281  1.00  0.00    -0.103 A  
HETATM   18  N   UNL     1      -7.038  15.634  67.397  1.00  0.00    -0.192 NA 
HETATM   19  F   UNL     1      -6.339  13.638  70.339  1.00  0.00    -0.145 F  
HETATM   20  C   UNL     1      -8.284  13.718  69.013  1.00  0.00     0.199 A  
HETATM   21  C   UNL     1      -6.411  15.082  68.464  1.00  0.00    -0.094 A  
ENDBRANCH  12  15
BRANCH  14  22
HETATM   22  C   UNL     1      -9.580  12.333  65.818  1.00  0.00    -0.176 C  
HETATM   23  C   UNL     1     -10.654  10.629  64.516  1.00  0.00    -0.145 C  
HETATM   24  C   UNL     1     -10.165  12.065  64.433  1.00  0.00    -0.332 C  
HETATM   25  N   UNL     1      -9.060  11.018  66.195  1.00  0.00    -0.186 N  
HETATM   26  O   UNL     1      -9.517   8.778  65.513  1.00  0.00    -0.169 OA 
HETATM   27  C   UNL     1      -9.673   9.990  65.461  1.00  0.00    -0.289 C  
BRANCH  25  28
HETATM   28  C   UNL     1      -7.914  10.794  66.996  1.00  0.00    -0.124 A  
HETATM   29  N   UNL     1      -6.698  11.012  66.445  1.00  0.00    -0.133 NA 
HETATM   30  C   UNL     1      -5.576  10.873  67.179  1.00  0.00    -0.048 A  
HETATM   31  C   UNL     1      -5.587  10.508  68.504  1.00  0.00    -0.040 A  
HETATM   32  C   UNL     1      -6.829  10.275  69.084  1.00  0.00    -0.062 A  
HETATM   33  C   UNL     1      -8.004  10.420  68.330  1.00  0.00    -0.110 A  
HETATM   34  C   UNL     1      -6.905   9.890  70.461  1.00  0.00    -0.118 C  
HETATM   35  N   UNL     1      -6.981   9.575  71.575  1.00  0.00    -0.313 NA 
ENDBRANCH  25  28
ENDBRANCH  14  22
ENDBRANCH   1  12
BRANCH   1  36
HETATM   36  C   UNL     1     -11.902  13.752  69.642  1.00  0.00    -0.393 A  
HETATM   37  C   UNL     1     -12.020  11.414  70.465  1.00  0.00    -0.451 A  
HETATM   38  C   UNL     1     -12.931  11.768  71.438  1.00  0.00    -0.408 A  
HETATM   39 CL   UNL     1     -12.830  15.736  71.284  1.00  0.00    -0.530 Cl 
HETATM   40  C   UNL     1     -13.246  13.117  71.593  1.00  0.00    -0.435 A  
HETATM   41  C   UNL     1     -11.539  12.373  69.573  1.00  0.00    -0.353 A  
HETATM   42  C   UNL     1     -12.674  14.106  70.755  1.00  0.00    -0.344 A  
ENDBRANCH   1  36
TORSDOF 7
ENDMDL
MODEL       21
REMARK 921   NORMALIZED FREE ENERGY PREDICTED BY IDOCK:   -6.81 KCAL/MOL
REMARK 922        TOTAL FREE ENERGY PREDICTED BY IDOCK:  -11.06 KCAL/MOL
REMARK 923 INTER-LIGAND FREE ENERGY PREDICTED BY IDOCK:   -8.56 KCAL/MOL
REMARK 924 INTRA-LIGAND FREE ENERGY PREDICTED BY IDOCK:   -2.50 KCAL/MOL
REMARK 927      BINDING AFFINITY PREDICTED BY RF-SCORE:    0.00 PKD
ROOT
HETATM    1  C   UNL     1      -9.631   8.559  66.491  1.00  0.00    -0.236 C  
ENDROOT
BRANCH   1   2
HETATM    2  C   UNL     1     -10.552   8.329  67.790  1.00  0.00    -0.168 C  
HETATM    3  H   UNL     1     -10.234  10.184  68.624  1.00  0.00     0.000 HD 
HETATM    4  N   UNL     1     -10.741   9.309  68.756  1.00  0.00    -0.194 N  
HETATM    5  O   UNL     1     -11.035   7.217  67.995  1.00  0.00    -0.154 OA 
BRANCH   4   6
HETATM    6  C   UNL     1     -11.625   9.211  69.989  1.00  0.00     0.060 C  
HETATM    7  C   UNL     1     -12.701  10.050  71.637  1.00  0.00    -0.435 C  
HETATM    8  F   UNL     1     -13.027  11.167  72.322  1.00  0.00    -0.540 F  
HETATM    9  C   UNL     1     -11.187   9.831  71.346  1.00  0.00    -0.368 C  
HETATM   10  F   UNL     1     -13.326   9.021  72.253  1.00  0.00    -0.371 F  
HETATM   11  C   UNL     1     -12.885  10.109  70.094  1.00  0.00     0.037 C  
ENDBRANCH   4   6
ENDBRANCH   1   2
BRANCH   1  12
HETATM   12  N   UNL     1      -9.146   9.990  66.377  1.00  0.00    -0.147 N  
HETATM   13  O   UNL     1      -7.391   9.696  67.844  1.00  0.00    -0.081 OA 
HETATM   14  C   UNL     1      -8.007  10.440  67.077  1.00  0.00    -0.116 C  
BRANCH  12  15
HETATM   15  C   UNL     1      -9.878  10.836  65.510  1.00  0.00    -0.255 A  
HETATM   16  C   UNL     1      -9.589  10.919  64.147  1.00  0.00    -0.277 A  
HETATM   17  C   UNL     1     -11.750  12.275  65.109  1.00  0.00    -0.361 A  
HETATM   18  N   UNL     1     -10.338  11.624  63.266  1.00  0.00    -0.402 NA 
HETATM   19  F   UNL     1     -12.827  12.931  65.552  1.00  0.00    -0.521 F  
HETATM   20  C   UNL     1     -10.984  11.531  65.989  1.00  0.00    -0.316 A  
HETATM   21  C   UNL     1     -11.402  12.294  63.772  1.00  0.00    -0.459 A  
ENDBRANCH  12  15
BRANCH  14  22
HETATM   22  C   UNL     1      -7.489  11.899  66.800  1.00  0.00    -0.017 C  
HETATM   23  C   UNL     1      -5.631  12.246  68.277  1.00  0.00    -0.054 C  
HETATM   24  C   UNL     1      -5.961  11.896  66.836  1.00  0.00    -0.115 C  
HETATM   25  N   UNL     1      -7.820  12.934  67.780  1.00  0.00    -0.143 N  
HETATM   26  O   UNL     1      -6.674  13.920  69.625  1.00  0.00    -0.110 OA 
HETATM   27  C   UNL     1      -6.760  13.159  68.672  1.00  0.00    -0.096 C  
BRANCH  25  28
HETATM   28  C   UNL     1      -8.943  13.793  67.710  1.00  0.00    -0.194 A  
HETATM   29  N   UNL     1      -9.117  14.525  66.585  1.00  0.00    -0.263 NA 
HETATM   30  C   UNL     1     -10.200  15.314  66.439  1.00  0.00    -0.277 A  
HETATM   31  C   UNL     1     -11.179  15.429  67.397  1.00  0.00    -0.287 A  
HETATM   32  C   UNL     1     -11.012  14.688  68.561  1.00  0.00    -0.261 A  
HETATM   33  C   UNL     1      -9.889  13.860  68.723  1.00  0.00    -0.117 A  
HETATM   34  C   UNL     1     -11.996  14.768  69.598  1.00  0.00    -0.316 C  
HETATM   35  N   UNL     1     -12.786  14.826  70.446  1.00  0.00    -0.339 NA 
ENDBRANCH  25  28
ENDBRANCH  14  22
ENDBRANCH   1  12
BRANCH   1  36
HETATM   36  C   UNL     1      -8.569   7.580  65.923  1.00  0.00    -0.165 A  
HETATM   37  C   UNL     1      -7.263   6.979  63.901  1.00  0.00    -0.070 A  
HETATM   38  C   UNL     1      -6.781   5.839  64.512  1.00  0.00    -0.046 A  
HETATM   39 CL   UNL     1      -7.908   6.364  68.285  1.00  0.00    -0.104 Cl 
HETATM   40  C   UNL     1      -7.095   5.622  65.852  1.00  0.00    -0.067 A  
HETATM   41  C   UNL     1      -8.155   7.812  64.577  1.00  0.00    -0.108 A  
HETATM   42  C   UNL     1      -7.914   6.527  66.572  1.00  0.00    -0.109 A  
ENDBRANCH   1  36
TORSDOF 7
ENDMDL
MODEL       22
REMARK 921   NORMALIZED FREE ENERGY PREDICTED BY IDOCK:   -6.79 KCAL/MOL
REMARK 922        TOTAL FREE ENERGY PREDICTED BY IDOCK:  -11.03 KCAL/MOL
REMARK 923 INTER-LIGAND FREE ENERGY PREDICTED BY IDOCK:  -10.35 KCAL/MOL
REMARK 924 INTRA-LIGAND FREE ENERGY PREDICTED BY IDOCK:   -0.68 KCAL/MOL
REMARK 927      BINDING AFFINITY PREDICTED BY RF-SCORE:    0.00 PKD
ROOT
HETATM    1  C   UNL     1      -9.429  11.410  67.851  1.00  0.00    -0.174 C  
ENDROOT
BRANCH   1   2
HETATM    2  C   UNL     1     -10.132  10.313  68.795  1.00  0.00    -0.187 C  
HETATM    3  H   UNL     1      -8.749  10.402  70.316  1.00  0.00     0.000 HD 
HETATM    4  N   UNL     1      -9.623   9.958  70.037  1.00  0.00    -0.236 N  
HETATM    5  O   UNL     1     -11.104   9.690  68.371  1.00  0.00    -0.156 OA 
BRANCH   4   6
HETATM    6  C   UNL     1     -10.234   8.975  71.023  1.00  0.00    -0.277 C  
HETATM    7  C   UNL     1     -11.797   7.686  71.712  1.00  0.00    -0.290 C  
HETATM    8  F   UNL     1     -13.041   7.207  71.501  1.00  0.00    -0.374 F  
HETATM    9  C   UNL     1     -11.630   9.233  71.658  1.00  0.00    -0.463 C  
HETATM   10  F   UNL     1     -11.339   7.094  72.839  1.00  0.00    -0.294 F  
HETATM   11  C   UNL     1     -10.825   7.641  70.499  1.00  0.00    -0.249 C  
ENDBRANCH   4   6
ENDBRANCH   1   2
BRANCH   1  12
HETATM   12  N   UNL     1     -10.254  12.674  67.728  1.00  0.00    -0.217 N  
HETATM   13  O   UNL     1      -9.937  12.868  65.452  1.00  0.00    -0.266 OA 
HETATM   14  C   UNL     1     -10.460  13.301  66.481  1.00  0.00    -0.281 C  
BRANCH  12  15
HETATM   15  C   UNL     1     -10.829  13.170  68.923  1.00  0.00    -0.204 A  
HETATM   16  C   UNL     1     -10.444  14.394  69.470  1.00  0.00    -0.007 A  
HETATM   17  C   UNL     1     -12.498  13.032  70.634  1.00  0.00    -0.268 A  
HETATM   18  N   UNL     1     -11.050  14.957  70.542  1.00  0.00    -0.204 NA 
HETATM   19  F   UNL     1     -13.522  12.393  71.209  1.00  0.00    -0.275 F  
HETATM   20  C   UNL     1     -11.880  12.485  69.523  1.00  0.00    -0.375 A  
HETATM   21  C   UNL     1     -12.064  14.255  71.106  1.00  0.00    -0.336 A  
ENDBRANCH  12  15
BRANCH  14  22
HETATM   22  C   UNL     1     -11.441  14.529  66.416  1.00  0.00    -0.360 C  
HETATM   23  C   UNL     1     -12.381  14.525  64.210  1.00  0.00    -0.396 C  
HETATM   24  C   UNL     1     -12.692  14.122  65.641  1.00  0.00    -0.469 C  
HETATM   25  N   UNL     1     -10.995  15.715  65.684  1.00  0.00    -0.304 N  
HETATM   26  O   UNL     1     -11.350  16.553  63.479  1.00  0.00    -0.413 OA 
HETATM   27  C   UNL     1     -11.516  15.744  64.381  1.00  0.00    -0.263 C  
BRANCH  25  28
HETATM   28  C   UNL     1     -10.340  16.830  66.260  1.00  0.00    -0.310 A  
HETATM   29  N   UNL     1     -10.772  18.067  65.923  1.00  0.00    -0.350 NA 
HETATM   30  C   UNL     1     -10.226  19.163  66.487  1.00  0.00    -0.429 A  
HETATM   31  C   UNL     1      -9.217  19.103  67.419  1.00  0.00    -0.344 A  
HETATM   32  C   UNL     1      -8.758  17.840  67.771  1.00  0.00    -0.241 A  
HETATM   33  C   UNL     1      -9.322  16.691  67.193  1.00  0.00    -0.236 A  
HETATM   34  C   UNL     1      -7.706  17.713  68.734  1.00  0.00    -0.246 C  
HETATM   35  N   UNL     1      -6.853  17.597  69.512  1.00  0.00    -0.130 NA 
ENDBRANCH  25  28
ENDBRANCH  14  22
ENDBRANCH   1  12
BRANCH   1  36
HETATM   36  C   UNL     1      -7.914  11.741  67.786  1.00  0.00    -0.141 A  
HETATM   37  C   UNL     1      -6.092  13.042  68.854  1.00  0.00    -0.083 A  
HETATM   38  C   UNL     1      -5.216  12.710  67.840  1.00  0.00    -0.096 A  
HETATM   39 CL   UNL     1      -7.229   9.904  65.876  1.00  0.00    -0.103 Cl 
HETATM   40  C   UNL     1      -5.643  11.811  66.863  1.00  0.00    -0.128 A  
HETATM   41  C   UNL     1      -7.412  12.594  68.814  1.00  0.00    -0.044 A  
HETATM   42  C   UNL     1      -6.953  11.271  66.884  1.00  0.00    -0.137 A  
ENDBRANCH   1  36
TORSDOF 7
ENDMDL
MODEL       23
REMARK 921   NORMALIZED FREE ENERGY PREDICTED BY IDOCK:   -6.79 KCAL/MOL
REMARK 922        TOTAL FREE ENERGY PREDICTED BY IDOCK:  -11.03 KCAL/MOL
REMARK 923 INTER-LIGAND FREE ENERGY PREDICTED BY IDOCK:  -10.36 KCAL/MOL
REMARK 924 INTRA-LIGAND FREE ENERGY PREDICTED BY IDOCK:   -0.66 KCAL/MOL
REMARK 927      BINDING AFFINITY PREDICTED BY RF-SCORE:    0.00 PKD
ROOT
HETATM    1  C   UNL     1     -10.194  12.865  67.368  1.00  0.00    -0.230 C  
ENDROOT
BRANCH   1   2
HETATM    2  C   UNL     1     -10.747  13.811  68.547  1.00  0.00    -0.262 C  
HETATM    3  H   UNL     1     -12.439  12.709  68.947  1.00  0.00     0.000 HD 
HETATM    4  N   UNL     1     -11.916  13.533  69.242  1.00  0.00    -0.331 N  
HETATM    5  O   UNL     1     -10.173  14.872  68.785  1.00  0.00    -0.228 OA 
BRANCH   4   6
HETATM    6  C   UNL     1     -12.496  14.330  70.400  1.00  0.00    -0.362 C  
HETATM    7  C   UNL     1     -12.748  14.768  72.479  1.00  0.00    -0.368 C  
HETATM    8  F   UNL     1     -12.453  14.423  73.750  1.00  0.00    -0.519 F  
HETATM    9  C   UNL     1     -13.270  13.630  71.553  1.00  0.00    -0.409 C  
HETATM   10  F   UNL     1     -13.538  15.864  72.549  1.00  0.00    -0.522 F  
HETATM   11  C   UNL     1     -11.548  14.878  71.497  1.00  0.00    -0.361 C  
ENDBRANCH   4   6
ENDBRANCH   1   2
BRANCH   1  12
HETATM   12  N   UNL     1      -9.561  11.596  67.901  1.00  0.00    -0.175 N  
HETATM   13  O   UNL     1     -11.491  10.347  67.711  1.00  0.00    -0.406 OA 
HETATM   14  C   UNL     1     -10.294  10.395  68.006  1.00  0.00    -0.179 C  
BRANCH  12  15
HETATM   15  C   UNL     1      -8.193  11.675  68.256  1.00  0.00    -0.156 A  
HETATM   16  C   UNL     1      -7.655  10.903  69.286  1.00  0.00    -0.113 A  
HETATM   17  C   UNL     1      -5.973  12.447  67.797  1.00  0.00    -0.111 A  
HETATM   18  N   UNL     1      -6.334  10.863  69.578  1.00  0.00    -0.069 NA 
HETATM   19  F   UNL     1      -5.125  13.178  67.066  1.00  0.00     0.079 F  
HETATM   20  C   UNL     1      -7.325  12.457  67.501  1.00  0.00    -0.146 A  
HETATM   21  C   UNL     1      -5.521  11.645  68.826  1.00  0.00    -0.049 A  
ENDBRANCH  12  15
BRANCH  14  22
HETATM   22  C   UNL     1      -9.530   9.090  68.438  1.00  0.00    -0.146 C  
HETATM   23  C   UNL     1      -9.984   7.453  66.745  1.00  0.00    -0.300 C  
HETATM   24  C   UNL     1      -8.921   8.440  67.196  1.00  0.00    -0.153 C  
HETATM   25  N   UNL     1     -10.322   7.997  69.003  1.00  0.00    -0.217 N  
HETATM   26  O   UNL     1     -11.268   5.989  68.129  1.00  0.00    -0.263 OA 
HETATM   27  C   UNL     1     -10.618   7.021  68.039  1.00  0.00    -0.207 C  
BRANCH  25  28
HETATM   28  C   UNL     1     -10.554   7.788  70.384  1.00  0.00    -0.227 A  
HETATM   29  N   UNL     1     -11.709   8.252  70.914  1.00  0.00    -0.269 NA 
HETATM   30  C   UNL     1     -12.010   8.029  72.209  1.00  0.00    -0.358 A  
HETATM   31  C   UNL     1     -11.186   7.334  73.061  1.00  0.00    -0.309 A  
HETATM   32  C   UNL     1      -9.993   6.855  72.534  1.00  0.00    -0.187 A  
HETATM   33  C   UNL     1      -9.670   7.078  71.186  1.00  0.00    -0.173 A  
HETATM   34  C   UNL     1      -9.091   6.125  73.373  1.00  0.00    -0.131 C  
HETATM   35  N   UNL     1      -8.351   5.534  74.043  1.00  0.00    -0.113 NA 
ENDBRANCH  25  28
ENDBRANCH  14  22
ENDBRANCH   1  12
BRANCH   1  36
HETATM   36  C   UNL     1     -10.872  12.599  65.998  1.00  0.00    -0.306 A  
HETATM   37  C   UNL     1     -12.859  13.111  64.604  1.00  0.00    -0.235 A  
HETATM   38  C   UNL     1     -12.478  12.178  63.661  1.00  0.00    -0.658 A  
HETATM   39 CL   UNL     1      -8.792  11.263  64.824  1.00  0.00     0.040 Cl 
HETATM   40  C   UNL     1     -11.250  11.538  63.820  1.00  0.00    -0.456 A  
HETATM   41  C   UNL     1     -12.094  13.297  65.755  1.00  0.00    -0.491 A  
HETATM   42  C   UNL     1     -10.421  11.807  64.937  1.00  0.00    -0.287 A  
ENDBRANCH   1  36
TORSDOF 7
ENDMDL
MODEL       24
REMARK 921   NORMALIZED FREE ENERGY PREDICTED BY IDOCK:   -6.79 KCAL/MOL
REMARK 922        TOTAL FREE ENERGY PREDICTED BY IDOCK:  -11.02 KCAL/MOL
REMARK 923 INTER-LIGAND FREE ENERGY PREDICTED BY IDOCK:   -9.67 KCAL/MOL
REMARK 924 INTRA-LIGAND FREE ENERGY PREDICTED BY IDOCK:   -1.35 KCAL/MOL
REMARK 927      BINDING AFFINITY PREDICTED BY RF-SCORE:    0.00 PKD
ROOT
HETATM    1  C   UNL     1      -9.694  11.834  66.658  1.00  0.00    -0.202 C  
ENDROOT
BRANCH   1   2
HETATM    2  C   UNL     1     -10.920  12.589  67.377  1.00  0.00    -0.259 C  
HETATM    3  H   UNL     1      -9.832  13.337  68.955  1.00  0.00     0.000 HD 
HETATM    4  N   UNL     1     -10.765  13.325  68.544  1.00  0.00    -0.257 N  
HETATM    5  O   UNL     1     -12.059  12.439  66.938  1.00  0.00    -0.564 OA 
BRANCH   4   6
HETATM    6  C   UNL     1     -11.842  14.113  69.272  1.00  0.00    -0.338 C  
HETATM    7  C   UNL     1     -12.543  15.383  70.845  1.00  0.00    -0.438 C  
HETATM    8  F   UNL     1     -12.240  16.048  71.980  1.00  0.00    -0.424 F  
HETATM    9  C   UNL     1     -12.124  13.884  70.784  1.00  0.00    -0.404 C  
HETATM   10  F   UNL     1     -13.848  15.629  70.588  1.00  0.00    -0.402 F  
HETATM   11  C   UNL     1     -11.580  15.595  69.642  1.00  0.00    -0.364 C  
ENDBRANCH   4   6
ENDBRANCH   1   2
BRANCH   1  12
HETATM   12  N   UNL     1      -9.049  10.802  67.560  1.00  0.00    -0.139 N  
HETATM   13  O   UNL     1     -10.857   9.371  67.508  1.00  0.00    -0.269 OA 
HETATM   14  C   UNL     1      -9.710   9.602  67.898  1.00  0.00    -0.146 C  
BRANCH  12  15
HETATM   15  C   UNL     1      -7.741  11.093  68.016  1.00  0.00    -0.107 A  
HETATM   16  C   UNL     1      -6.633  11.009  67.172  1.00  0.00    -0.089 A  
HETATM   17  C   UNL     1      -6.277  11.952  69.705  1.00  0.00    -0.137 A  
HETATM   18  N   UNL     1      -5.386  11.391  67.536  1.00  0.00    -0.046 NA 
HETATM   19  F   UNL     1      -6.081  12.438  70.935  1.00  0.00    -0.137 F  
HETATM   20  C   UNL     1      -7.548  11.577  69.306  1.00  0.00     0.075 A  
HETATM   21  C   UNL     1      -5.236  11.850  68.803  1.00  0.00    -0.050 A  
ENDBRANCH  12  15
BRANCH  14  22
HETATM   22  C   UNL     1      -8.921   8.522  68.725  1.00  0.00    -0.139 C  
HETATM   23  C   UNL     1      -8.740   6.592  67.313  1.00  0.00    -0.110 C  
HETATM   24  C   UNL     1      -7.951   7.798  67.793  1.00  0.00    -0.124 C  
HETATM   25  N   UNL     1      -9.686   7.414  69.298  1.00  0.00    -0.164 N  
HETATM   26  O   UNL     1     -10.135   5.168  68.631  1.00  0.00    -0.172 OA 
HETATM   27  C   UNL     1      -9.615   6.266  68.493  1.00  0.00    -0.126 C  
BRANCH  25  28
HETATM   28  C   UNL     1     -10.222   7.386  70.608  1.00  0.00    -0.199 A  
HETATM   29  N   UNL     1      -9.465   6.855  71.595  1.00  0.00    -0.158 NA 
HETATM   30  C   UNL     1      -9.900   6.857  72.871  1.00  0.00    -0.172 A  
HETATM   31  C   UNL     1     -11.112   7.383  73.250  1.00  0.00    -0.303 A  
HETATM   32  C   UNL     1     -11.904   7.927  72.246  1.00  0.00    -0.404 A  
HETATM   33  C   UNL     1     -11.460   7.935  70.914  1.00  0.00    -0.294 A  
HETATM   34  C   UNL     1     -13.179   8.489  72.577  1.00  0.00    -0.223 C  
HETATM   35  N   UNL     1     -14.215   8.944  72.833  1.00  0.00    -0.435 NA 
ENDBRANCH  25  28
ENDBRANCH  14  22
ENDBRANCH   1  12
BRANCH   1  36
HETATM   36  C   UNL     1      -9.629  11.377  65.177  1.00  0.00    -0.258 A  
HETATM   37  C   UNL     1      -8.928   9.537  63.667  1.00  0.00    -0.207 A  
HETATM   38  C   UNL     1      -9.186  10.309  62.553  1.00  0.00    -0.321 A  
HETATM   39 CL   UNL     1     -11.109  13.418  64.109  1.00  0.00    -0.384 Cl 
HETATM   40  C   UNL     1      -9.766  11.564  62.735  1.00  0.00    -0.184 A  
HETATM   41  C   UNL     1      -9.117  10.065  64.945  1.00  0.00    -0.265 A  
HETATM   42  C   UNL     1     -10.058  12.057  64.031  1.00  0.00    -0.335 A  
ENDBRANCH   1  36
TORSDOF 7
ENDMDL
MODEL       25
REMARK 921   NORMALIZED FREE ENERGY PREDICTED BY IDOCK:   -6.75 KCAL/MOL
REMARK 922        TOTAL FREE ENERGY PREDICTED BY IDOCK:  -10.97 KCAL/MOL
REMARK 923 INTER-LIGAND FREE ENERGY PREDICTED BY IDOCK:   -9.79 KCAL/MOL
REMARK 924 INTRA-LIGAND FREE ENERGY PREDICTED BY IDOCK:   -1.18 KCAL/MOL
REMARK 927      BINDING AFFINITY PREDICTED BY RF-SCORE:    0.00 PKD
ROOT
HETATM    1  C   UNL     1     -11.479   9.248  70.020  1.00  0.00    -0.049 C  
ENDROOT
BRANCH   1   2
HETATM    2  C   UNL     1     -12.432  10.456  70.495  1.00  0.00    -0.317 C  
HETATM    3  H   UNL     1     -11.013  11.938  70.341  1.00  0.00     0.000 HD 
HETATM    4  N   UNL     1     -11.992  11.770  70.569  1.00  0.00    -0.343 N  
HETATM    5  O   UNL     1     -13.565  10.203  70.900  1.00  0.00    -0.274 OA 
BRANCH   4   6
HETATM    6  C   UNL     1     -12.821  12.985  70.955  1.00  0.00    -0.198 C  
HETATM    7  C   UNL     1     -13.191  14.759  72.094  1.00  0.00    -0.361 C  
HETATM    8  F   UNL     1     -12.763  15.581  73.075  1.00  0.00    -0.382 F  
HETATM    9  C   UNL     1     -13.238  13.239  72.431  1.00  0.00    -0.539 C  
HETATM   10  F   UNL     1     -14.347  15.283  71.625  1.00  0.00    -0.494 F  
HETATM   11  C   UNL     1     -12.146  14.380  71.006  1.00  0.00    -0.417 C  
ENDBRANCH   4   6
ENDBRANCH   1   2
BRANCH   1  12
HETATM   12  N   UNL     1     -10.252   9.742  69.281  1.00  0.00    -0.192 N  
HETATM   13  O   UNL     1      -8.893   9.681  71.144  1.00  0.00    -0.172 OA 
HETATM   14  C   UNL     1      -9.012   9.898  69.935  1.00  0.00    -0.202 C  
BRANCH  12  15
HETATM   15  C   UNL     1     -10.412  10.007  67.900  1.00  0.00    -0.231 A  
HETATM   16  C   UNL     1     -11.092  11.136  67.442  1.00  0.00    -0.307 A  
HETATM   17  C   UNL     1      -9.874   9.517  65.619  1.00  0.00    -0.272 A  
HETATM   18  N   UNL     1     -11.164  11.486  66.137  1.00  0.00    -0.254 NA 
HETATM   19  F   UNL     1      -9.265   8.751  64.707  1.00  0.00    -0.177 F  
HETATM   20  C   UNL     1      -9.792   9.190  66.961  1.00  0.00    -0.267 A  
HETATM   21  C   UNL     1     -10.556  10.660  65.251  1.00  0.00    -0.121 A  
ENDBRANCH  12  15
BRANCH  14  22
HETATM   22  C   UNL     1      -7.755  10.282  69.071  1.00  0.00    -0.110 C  
HETATM   23  C   UNL     1      -5.839   9.901  70.462  1.00  0.00    -0.071 C  
HETATM   24  C   UNL     1      -6.643   9.270  69.338  1.00  0.00    -0.044 C  
HETATM   25  N   UNL     1      -7.094  11.554  69.365  1.00  0.00    -0.080 N  
HETATM   26  O   UNL     1      -5.192  12.194  70.655  1.00  0.00    -0.110 OA 
HETATM   27  C   UNL     1      -5.971  11.375  70.187  1.00  0.00    -0.152 C  
BRANCH  25  28
HETATM   28  C   UNL     1      -7.366  12.783  68.716  1.00  0.00    -0.067 A  
HETATM   29  N   UNL     1      -6.321  13.581  68.397  1.00  0.00    -0.084 NA 
HETATM   30  C   UNL     1      -6.517  14.733  67.725  1.00  0.00    -0.164 A  
HETATM   31  C   UNL     1      -7.759  15.169  67.329  1.00  0.00    -0.241 A  
HETATM   32  C   UNL     1      -8.843  14.363  67.654  1.00  0.00    -0.193 A  
HETATM   33  C   UNL     1      -8.651  13.159  68.350  1.00  0.00    -0.124 A  
HETATM   34  C   UNL     1     -10.163  14.765  67.271  1.00  0.00    -0.241 C  
HETATM   35  N   UNL     1     -11.238  15.081  66.968  1.00  0.00    -0.336 NA 
ENDBRANCH  25  28
ENDBRANCH  14  22
ENDBRANCH   1  12
BRANCH   1  36
HETATM   36  C   UNL     1     -11.150   7.960  70.819  1.00  0.00    -0.264 A  
HETATM   37  C   UNL     1     -10.913   7.011  73.099  1.00  0.00    -0.315 A  
HETATM   38  C   UNL     1     -10.413   5.830  72.591  1.00  0.00    -0.243 A  
HETATM   39 CL   UNL     1     -11.103   6.229  68.699  1.00  0.00    -0.424 Cl 
HETATM   40  C   UNL     1     -10.383   5.663  71.207  1.00  0.00    -0.289 A  
HETATM   41  C   UNL     1     -11.246   8.059  72.239  1.00  0.00    -0.402 A  
HETATM   42  C   UNL     1     -10.824   6.689  70.334  1.00  0.00    -0.266 A  
ENDBRANCH   1  36
TORSDOF 7
ENDMDL
MODEL       26
REMARK 921   NORMALIZED FREE ENERGY PREDICTED BY IDOCK:   -6.74 KCAL/MOL
REMARK 922        TOTAL FREE ENERGY PREDICTED BY IDOCK:  -10.95 KCAL/MOL
REMARK 923 INTER-LIGAND FREE ENERGY PREDICTED BY IDOCK:  -10.03 KCAL/MOL
REMARK 924 INTRA-LIGAND FREE ENERGY PREDICTED BY IDOCK:   -0.92 KCAL/MOL
REMARK 927      BINDING AFFINITY PREDICTED BY RF-SCORE:    0.00 PKD
ROOT
HETATM    1  C   UNL     1      -9.042  10.808  67.106  1.00  0.00    -0.144 C  
ENDROOT
BRANCH   1   2
HETATM    2  C   UNL     1      -9.682   9.381  67.482  1.00  0.00    -0.157 C  
HETATM    3  H   UNL     1      -8.564   9.072  69.182  1.00  0.00     0.000 HD 
HETATM    4  N   UNL     1      -9.304   8.666  68.610  1.00  0.00    -0.142 N  
HETATM    5  O   UNL     1     -10.469   8.850  66.700  1.00  0.00    -0.249 OA 
BRANCH   4   6
HETATM    6  C   UNL     1      -9.879   7.339  69.081  1.00  0.00    -0.166 C  
HETATM    7  C   UNL     1     -10.614   6.003  70.582  1.00  0.00    -0.260 C  
HETATM    8  F   UNL     1     -10.856   5.801  71.894  1.00  0.00    -0.263 F  
HETATM    9  C   UNL     1      -9.193   6.518  70.208  1.00  0.00    -0.156 C  
HETATM   10  F   UNL     1     -11.009   4.880  69.938  1.00  0.00    -0.158 F  
HETATM   11  C   UNL     1     -11.144   7.334  69.978  1.00  0.00    -0.262 C  
ENDBRANCH   4   6
ENDBRANCH   1   2
BRANCH   1  12
HETATM   12  N   UNL     1     -10.054  11.932  67.196  1.00  0.00    -0.203 N  
HETATM   13  O   UNL     1      -9.747  12.617  65.015  1.00  0.00    -0.120 OA 
HETATM   14  C   UNL     1     -10.343  12.755  66.086  1.00  0.00    -0.269 C  
BRANCH  12  15
HETATM   15  C   UNL     1     -10.712  12.090  68.439  1.00  0.00    -0.229 A  
HETATM   16  C   UNL     1     -10.588  13.257  69.194  1.00  0.00     0.025 A  
HETATM   17  C   UNL     1     -12.305  11.323  70.054  1.00  0.00    -0.257 A  
HETATM   18  N   UNL     1     -11.291  13.493  70.326  1.00  0.00     0.071 NA 
HETATM   19  F   UNL     1     -13.170  10.398  70.484  1.00  0.00    -0.418 F  
HETATM   20  C   UNL     1     -11.593  11.111  68.886  1.00  0.00    -0.385 A  
HETATM   21  C   UNL     1     -12.133  12.512  70.735  1.00  0.00    -0.146 A  
ENDBRANCH  12  15
BRANCH  14  22
HETATM   22  C   UNL     1     -11.502  13.808  66.219  1.00  0.00    -0.335 C  
HETATM   23  C   UNL     1     -12.306  14.211  63.996  1.00  0.00    -0.315 C  
HETATM   24  C   UNL     1     -12.627  13.430  65.258  1.00  0.00    -0.518 C  
HETATM   25  N   UNL     1     -11.213  15.188  65.829  1.00  0.00    -0.321 N  
HETATM   26  O   UNL     1     -11.575  16.482  63.858  1.00  0.00    -1.175 OA 
HETATM   27  C   UNL     1     -11.658  15.462  64.526  1.00  0.00    -0.296 C  
BRANCH  25  28
HETATM   28  C   UNL     1     -10.779  16.210  66.708  1.00  0.00    -0.235 A  
HETATM   29  N   UNL     1     -11.163  16.143  68.003  1.00  0.00    -0.329 NA 
HETATM   30  C   UNL     1     -10.731  17.054  68.897  1.00  0.00    -0.300 A  
HETATM   31  C   UNL     1      -9.891  18.090  68.565  1.00  0.00    -0.383 A  
HETATM   32  C   UNL     1      -9.491  18.177  67.237  1.00  0.00    -0.260 A  
HETATM   33  C   UNL     1      -9.932  17.231  66.298  1.00  0.00    -0.311 A  
HETATM   34  C   UNL     1      -8.618  19.236  66.829  1.00  0.00    -0.307 C  
HETATM   35  N   UNL     1      -7.914  20.091  66.485  1.00  0.00    -0.312 NA 
ENDBRANCH  25  28
ENDBRANCH  14  22
ENDBRANCH   1  12
BRANCH   1  36
HETATM   36  C   UNL     1      -7.628  11.319  67.489  1.00  0.00    -0.110 A  
HETATM   37  C   UNL     1      -6.280  12.337  69.306  1.00  0.00    -0.098 A  
HETATM   38  C   UNL     1      -5.207  12.513  68.456  1.00  0.00    -0.053 A  
HETATM   39 CL   UNL     1      -6.310  10.420  65.264  1.00  0.00    -0.124 Cl 
HETATM   40  C   UNL     1      -5.294  11.999  67.163  1.00  0.00    -0.114 A  
HETATM   41  C   UNL     1      -7.468  11.782  68.829  1.00  0.00    -0.109 A  
HETATM   42  C   UNL     1      -6.464  11.337  66.712  1.00  0.00    -0.136 A  
ENDBRANCH   1  36
TORSDOF 7
ENDMDL
MODEL       27
REMARK 921   NORMALIZED FREE ENERGY PREDICTED BY IDOCK:   -6.72 KCAL/MOL
REMARK 922        TOTAL FREE ENERGY PREDICTED BY IDOCK:  -10.93 KCAL/MOL
REMARK 923 INTER-LIGAND FREE ENERGY PREDICTED BY IDOCK:   -9.41 KCAL/MOL
REMARK 924 INTRA-LIGAND FREE ENERGY PREDICTED BY IDOCK:   -1.52 KCAL/MOL
REMARK 927      BINDING AFFINITY PREDICTED BY RF-SCORE:    0.00 PKD
ROOT
HETATM    1  C   UNL     1     -10.958  13.964  67.156  1.00  0.00    -0.291 C  
ENDROOT
BRANCH   1   2
HETATM    2  C   UNL     1     -10.761  15.372  66.402  1.00  0.00    -0.311 C  
HETATM    3  H   UNL     1     -10.753  16.538  68.097  1.00  0.00     0.000 HD 
HETATM    4  N   UNL     1     -10.659  16.577  67.082  1.00  0.00    -0.301 N  
HETATM    5  O   UNL     1     -10.795  15.405  65.172  1.00  0.00    -0.378 OA 
BRANCH   4   6
HETATM    6  C   UNL     1     -10.423  17.949  66.471  1.00  0.00    -0.313 C  
HETATM    7  C   UNL     1      -9.653  19.945  66.502  1.00  0.00    -0.423 C  
HETATM    8  F   UNL     1      -9.002  20.894  67.208  1.00  0.00    -0.450 F  
HETATM    9  C   UNL     1     -10.848  19.247  67.215  1.00  0.00    -0.554 C  
HETATM   10  F   UNL     1      -9.937  20.486  65.295  1.00  0.00    -0.348 F  
HETATM   11  C   UNL     1      -8.990  18.540  66.459  1.00  0.00    -0.300 C  
ENDBRANCH   4   6
ENDBRANCH   1   2
BRANCH   1  12
HETATM   12  N   UNL     1      -9.790  13.025  66.932  1.00  0.00    -0.235 N  
HETATM   13  O   UNL     1     -10.996  11.558  65.623  1.00  0.00    -0.288 OA 
HETATM   14  C   UNL     1      -9.917  11.870  66.132  1.00  0.00    -0.228 C  
BRANCH  12  15
HETATM   15  C   UNL     1      -8.565  13.386  67.541  1.00  0.00    -0.200 A  
HETATM   16  C   UNL     1      -7.851  14.516  67.141  1.00  0.00    -0.101 A  
HETATM   17  C   UNL     1      -6.950  13.093  69.285  1.00  0.00     0.027 A  
HETATM   18  N   UNL     1      -6.739  14.960  67.775  1.00  0.00    -0.159 NA 
HETATM   19  F   UNL     1      -6.501  12.424  70.352  1.00  0.00    -0.084 F  
HETATM   20  C   UNL     1      -8.097  12.669  68.637  1.00  0.00    -0.010 A  
HETATM   21  C   UNL     1      -6.310  14.230  68.833  1.00  0.00    -0.089 A  
ENDBRANCH  12  15
BRANCH  14  22
HETATM   22  C   UNL     1      -8.626  11.022  65.836  1.00  0.00    -0.165 C  
HETATM   23  C   UNL     1      -9.271   9.344  64.248  1.00  0.00    -0.073 C  
HETATM   24  C   UNL     1      -8.581  10.694  64.344  1.00  0.00    -0.110 C  
HETATM   25  N   UNL     1      -8.531   9.696  66.447  1.00  0.00    -0.122 N  
HETATM   26  O   UNL     1      -8.982   7.474  65.706  1.00  0.00    -0.135 OA 
HETATM   27  C   UNL     1      -8.912   8.685  65.551  1.00  0.00    -0.158 C  
BRANCH  25  28
HETATM   28  C   UNL     1      -7.899   9.411  67.682  1.00  0.00    -0.095 A  
HETATM   29  N   UNL     1      -6.548   9.344  67.707  1.00  0.00    -0.062 NA 
HETATM   30  C   UNL     1      -5.892   9.137  68.866  1.00  0.00    -0.040 A  
HETATM   31  C   UNL     1      -6.531   8.982  70.073  1.00  0.00    -0.042 A  
HETATM   32  C   UNL     1      -7.919   9.043  70.063  1.00  0.00    -0.113 A  
HETATM   33  C   UNL     1      -8.614   9.262  68.863  1.00  0.00    -0.130 A  
HETATM   34  C   UNL     1      -8.642   8.886  71.289  1.00  0.00    -0.198 C  
HETATM   35  N   UNL     1      -9.240   8.758  72.276  1.00  0.00    -0.380 NA 
ENDBRANCH  25  28
ENDBRANCH  14  22
ENDBRANCH   1  12
BRANCH   1  36
HETATM   36  C   UNL     1     -11.566  13.746  68.566  1.00  0.00    -0.373 A  
HETATM   37  C   UNL     1     -12.492  14.899  70.558  1.00  0.00    -0.419 A  
HETATM   38  C   UNL     1     -12.542  13.713  71.262  1.00  0.00    -0.435 A  
HETATM   39 CL   UNL     1     -11.814  11.023  68.431  1.00  0.00    -0.327 Cl 
HETATM   40  C   UNL     1     -12.216  12.532  70.596  1.00  0.00    -0.365 A  
HETATM   41  C   UNL     1     -11.992  14.921  69.256  1.00  0.00    -0.326 A  
HETATM   42  C   UNL     1     -11.810  12.543  69.238  1.00  0.00    -0.304 A  
ENDBRANCH   1  36
TORSDOF 7
ENDMDL
MODEL       28
REMARK 921   NORMALIZED FREE ENERGY PREDICTED BY IDOCK:   -6.69 KCAL/MOL
REMARK 922        TOTAL FREE ENERGY PREDICTED BY IDOCK:  -10.88 KCAL/MOL
REMARK 923 INTER-LIGAND FREE ENERGY PREDICTED BY IDOCK:   -9.91 KCAL/MOL
REMARK 924 INTRA-LIGAND FREE ENERGY PREDICTED BY IDOCK:   -0.98 KCAL/MOL
REMARK 927      BINDING AFFINITY PREDICTED BY RF-SCORE:    0.00 PKD
ROOT
HETATM    1  C   UNL     1     -11.391   9.624  69.986  1.00  0.00    -0.195 C  
ENDROOT
BRANCH   1   2
HETATM    2  C   UNL     1     -12.314  10.780  70.618  1.00  0.00    -0.372 C  
HETATM    3  H   UNL     1     -11.076  12.350  70.132  1.00  0.00     0.000 HD 
HETATM    4  N   UNL     1     -11.971  12.124  70.564  1.00  0.00    -0.298 N  
HETATM    5  O   UNL     1     -13.317  10.466  71.258  1.00  0.00    -0.343 OA 
BRANCH   4   6
HETATM    6  C   UNL     1     -12.793  13.293  71.084  1.00  0.00    -0.280 C  
HETATM    7  C   UNL     1     -13.254  14.813  72.518  1.00  0.00    -0.416 C  
HETATM    8  F   UNL     1     -12.948  15.376  73.706  1.00  0.00    -0.544 F  
HETATM    9  C   UNL     1     -13.424  13.266  72.505  1.00  0.00    -0.620 C  
HETATM   10  F   UNL     1     -14.297  15.514  72.014  1.00  0.00    -0.550 F  
HETATM   11  C   UNL     1     -12.071  14.589  71.534  1.00  0.00    -0.400 C  
ENDBRANCH   4   6
ENDBRANCH   1   2
BRANCH   1  12
HETATM   12  N   UNL     1     -10.453  10.156  68.921  1.00  0.00    -0.198 N  
HETATM   13  O   UNL     1     -12.139  11.099  67.661  1.00  0.00    -0.537 OA 
HETATM   14  C   UNL     1     -10.933  10.897  67.821  1.00  0.00    -0.283 C  
BRANCH  12  15
HETATM   15  C   UNL     1      -9.074   9.897  69.109  1.00  0.00    -0.173 A  
HETATM   16  C   UNL     1      -8.278  10.706  69.920  1.00  0.00     0.343 A  
HETATM   17  C   UNL     1      -7.180   8.457  68.839  1.00  0.00    -0.078 A  
HETATM   18  N   UNL     1      -6.987  10.425  70.218  1.00  0.00    -0.247 NA 
HETATM   19  F   UNL     1      -6.625   7.348  68.338  1.00  0.00    -0.040 F  
HETATM   20  C   UNL     1      -8.504   8.751  68.565  1.00  0.00    -0.130 A  
HETATM   21  C   UNL     1      -6.465   9.305  69.662  1.00  0.00    -0.040 A  
ENDBRANCH  12  15
BRANCH  14  22
HETATM   22  C   UNL     1      -9.885  11.532  66.835  1.00  0.00    -0.197 C  
HETATM   23  C   UNL     1     -11.151  12.701  65.167  1.00  0.00    -0.329 C  
HETATM   24  C   UNL     1     -10.359  12.930  66.442  1.00  0.00    -0.277 C  
HETATM   25  N   UNL     1      -9.703  10.890  65.533  1.00  0.00    -0.219 N  
HETATM   26  O   UNL     1     -10.553  11.281  63.339  1.00  0.00    -0.375 OA 
HETATM   27  C   UNL     1     -10.438  11.539  64.529  1.00  0.00    -0.314 C  
BRANCH  25  28
HETATM   28  C   UNL     1      -8.726   9.908  65.238  1.00  0.00    -0.160 A  
HETATM   29  N   UNL     1      -7.465  10.321  64.976  1.00  0.00    -0.139 NA 
HETATM   30  C   UNL     1      -6.482   9.427  64.749  1.00  0.00    -0.079 A  
HETATM   31  C   UNL     1      -6.686   8.068  64.765  1.00  0.00    -0.059 A  
HETATM   32  C   UNL     1      -7.977   7.627  65.028  1.00  0.00    -0.131 A  
HETATM   33  C   UNL     1      -9.008   8.549  65.270  1.00  0.00    -0.102 A  
HETATM   34  C   UNL     1      -8.253   6.222  65.057  1.00  0.00    -0.132 C  
HETATM   35  N   UNL     1      -8.490   5.087  65.080  1.00  0.00    -0.137 NA 
ENDBRANCH  25  28
ENDBRANCH  14  22
ENDBRANCH   1  12
BRANCH   1  36
HETATM   36  C   UNL     1     -10.732   8.444  70.748  1.00  0.00    -0.244 A  
HETATM   37  C   UNL     1      -9.644   7.781  72.877  1.00  0.00    -0.302 A  
HETATM   38  C   UNL     1      -9.302   6.549  72.356  1.00  0.00    -0.137 A  
HETATM   39 CL   UNL     1     -11.366   6.468  68.963  1.00  0.00    -0.344 Cl 
HETATM   40  C   UNL     1      -9.765   6.215  71.084  1.00  0.00    -0.199 A  
HETATM   41  C   UNL     1     -10.315   8.714  72.086  1.00  0.00    -0.403 A  
HETATM   42  C   UNL     1     -10.540   7.125  70.322  1.00  0.00    -0.227 A  
ENDBRANCH   1  36
TORSDOF 7
ENDMDL
MODEL       29
REMARK 921   NORMALIZED FREE ENERGY PREDICTED BY IDOCK:   -6.65 KCAL/MOL
REMARK 922        TOTAL FREE ENERGY PREDICTED BY IDOCK:  -10.83 KCAL/MOL
REMARK 923 INTER-LIGAND FREE ENERGY PREDICTED BY IDOCK:   -8.97 KCAL/MOL
REMARK 924 INTRA-LIGAND FREE ENERGY PREDICTED BY IDOCK:   -1.85 KCAL/MOL
REMARK 927      BINDING AFFINITY PREDICTED BY RF-SCORE:    0.00 PKD
ROOT
HETATM    1  C   UNL     1     -10.382   9.860  66.499  1.00  0.00    -0.188 C  
ENDROOT
BRANCH   1   2
HETATM    2  C   UNL     1     -10.414   8.427  67.229  1.00  0.00    -0.303 C  
HETATM    3  H   UNL     1     -10.416   9.152  69.154  1.00  0.00     0.000 HD 
HETATM    4  N   UNL     1     -10.448   8.291  68.610  1.00  0.00    -0.198 N  
HETATM    5  O   UNL     1     -10.308   7.405  66.551  1.00  0.00    -0.191 OA 
BRANCH   4   6
HETATM    6  C   UNL     1     -10.529   6.990  69.394  1.00  0.00    -0.214 C  
HETATM    7  C   UNL     1     -10.844   5.856  71.181  1.00  0.00    -0.269 C  
HETATM    8  F   UNL     1     -11.107   5.883  72.504  1.00  0.00    -0.257 F  
HETATM    9  C   UNL     1      -9.688   6.773  70.683  1.00  0.00    -0.180 C  
HETATM   10  F   UNL     1     -10.738   4.553  70.833  1.00  0.00    -0.134 F  
HETATM   11  C   UNL     1     -11.775   6.710  70.273  1.00  0.00    -0.432 C  
ENDBRANCH   4   6
ENDBRANCH   1   2
BRANCH   1  12
HETATM   12  N   UNL     1     -10.032  10.983  67.454  1.00  0.00    -0.180 N  
HETATM   13  O   UNL     1     -12.203  11.741  67.633  1.00  0.00    -0.534 OA 
HETATM   14  C   UNL     1     -11.022  11.843  67.974  1.00  0.00    -0.224 C  
BRANCH  12  15
HETATM   15  C   UNL     1      -8.669  11.099  67.817  1.00  0.00    -0.132 A  
HETATM   16  C   UNL     1      -8.039  10.149  68.621  1.00  0.00    -0.109 A  
HETATM   17  C   UNL     1      -6.540  12.167  67.568  1.00  0.00    -0.132 A  
HETATM   18  N   UNL     1      -6.713  10.161  68.894  1.00  0.00    -0.052 NA 
HETATM   19  F   UNL     1      -5.780  13.135  67.045  1.00  0.00    -0.020 F  
HETATM   20  C   UNL     1      -7.894  12.123  67.283  1.00  0.00    -0.176 A  
HETATM   21  C   UNL     1      -5.992  11.179  68.363  1.00  0.00    -0.045 A  
ENDBRANCH  12  15
BRANCH  14  22
HETATM   22  C   UNL     1     -10.599  12.894  69.064  1.00  0.00    -0.043 C  
HETATM   23  C   UNL     1     -12.630  13.875  69.878  1.00  0.00    -0.172 C  
HETATM   24  C   UNL     1     -11.588  12.826  70.226  1.00  0.00    -0.047 C  
HETATM   25  N   UNL     1     -10.649  14.310  68.697  1.00  0.00    -0.245 N  
HETATM   26  O   UNL     1     -12.232  16.067  69.012  1.00  0.00    -0.205 OA 
HETATM   27  C   UNL     1     -11.830  14.919  69.147  1.00  0.00    -0.307 C  
BRANCH  25  28
HETATM   28  C   UNL     1      -9.561  15.058  68.187  1.00  0.00    -0.207 A  
HETATM   29  N   UNL     1      -9.487  15.246  66.849  1.00  0.00    -0.224 NA 
HETATM   30  C   UNL     1      -8.507  16.001  66.314  1.00  0.00    -0.302 A  
HETATM   31  C   UNL     1      -7.537  16.617  67.069  1.00  0.00    -0.237 A  
HETATM   32  C   UNL     1      -7.595  16.429  68.445  1.00  0.00    -0.178 A  
HETATM   33  C   UNL     1      -8.614  15.648  69.014  1.00  0.00    -0.232 A  
HETATM   34  C   UNL     1      -6.611  17.042  69.285  1.00  0.00    -0.233 C  
HETATM   35  N   UNL     1      -5.818  17.532  69.975  1.00  0.00    -0.253 NA 
ENDBRANCH  25  28
ENDBRANCH  14  22
ENDBRANCH   1  12
BRANCH   1  36
HETATM   36  C   UNL     1      -9.834  10.165  65.079  1.00  0.00    -0.392 A  
HETATM   37  C   UNL     1      -8.119   9.526  63.405  1.00  0.00    -0.149 A  
HETATM   38  C   UNL     1      -8.464  10.591  62.597  1.00  0.00    -0.216 A  
HETATM   39 CL   UNL     1     -11.816  11.882  64.294  1.00  0.00    -0.391 Cl 
HETATM   40  C   UNL     1      -9.557  11.374  62.964  1.00  0.00    -0.397 A  
HETATM   41  C   UNL     1      -8.766   9.334  64.625  1.00  0.00    -0.223 A  
HETATM   42  C   UNL     1     -10.283  11.112  64.152  1.00  0.00    -0.347 A  
ENDBRANCH   1  36
TORSDOF 7
ENDMDL
MODEL       30
REMARK 921   NORMALIZED FREE ENERGY PREDICTED BY IDOCK:   -6.63 KCAL/MOL
REMARK 922        TOTAL FREE ENERGY PREDICTED BY IDOCK:  -10.80 KCAL/MOL
REMARK 923 INTER-LIGAND FREE ENERGY PREDICTED BY IDOCK:   -8.29 KCAL/MOL
REMARK 924 INTRA-LIGAND FREE ENERGY PREDICTED BY IDOCK:   -2.51 KCAL/MOL
REMARK 927      BINDING AFFINITY PREDICTED BY RF-SCORE:    0.00 PKD
ROOT
HETATM    1  C   UNL     1     -10.690  10.084  67.210  1.00  0.00    -0.244 C  
ENDROOT
BRANCH   1   2
HETATM    2  C   UNL     1     -10.530   8.637  67.895  1.00  0.00    -0.209 C  
HETATM    3  H   UNL     1     -11.108   9.214  69.784  1.00  0.00     0.000 HD 
HETATM    4  N   UNL     1     -10.819   8.406  69.233  1.00  0.00    -0.122 N  
HETATM    5  O   UNL     1     -10.044   7.714  67.242  1.00  0.00    -0.188 OA 
BRANCH   4   6
HETATM    6  C   UNL     1     -10.750   7.073  69.961  1.00  0.00    -0.242 C  
HETATM    7  C   UNL     1     -10.667   5.864  71.724  1.00  0.00    -0.245 C  
HETATM    8  F   UNL     1     -10.612   5.835  73.073  1.00  0.00    -0.210 F  
HETATM    9  C   UNL     1      -9.636   6.783  71.006  1.00  0.00    -0.175 C  
HETATM   10  F   UNL     1     -10.681   4.576  71.309  1.00  0.00    -0.145 F  
HETATM   11  C   UNL     1     -11.761   6.774  71.097  1.00  0.00    -0.394 C  
ENDBRANCH   4   6
ENDBRANCH   1   2
BRANCH   1  12
HETATM   12  N   UNL     1     -10.451  11.213  68.193  1.00  0.00    -0.181 N  
HETATM   13  O   UNL     1     -12.692  11.535  68.634  1.00  0.00     0.066 OA 
HETATM   14  C   UNL     1     -11.520  11.846  68.861  1.00  0.00    -0.301 C  
BRANCH  12  15
HETATM   15  C   UNL     1      -9.102  11.572  68.425  1.00  0.00    -0.185 A  
HETATM   16  C   UNL     1      -8.296  10.865  69.318  1.00  0.00    -0.012 A  
HETATM   17  C   UNL     1      -7.170  12.862  67.842  1.00  0.00    -0.125 A  
HETATM   18  N   UNL     1      -6.973  11.103  69.479  1.00  0.00    -0.126 NA 
HETATM   19  F   UNL     1      -6.591  13.822  67.113  1.00  0.00    -0.153 F  
HETATM   20  C   UNL     1      -8.517  12.588  67.675  1.00  0.00    -0.171 A  
HETATM   21  C   UNL     1      -6.440  12.106  68.738  1.00  0.00    -0.078 A  
ENDBRANCH  12  15
BRANCH  14  22
HETATM   22  C   UNL     1     -11.183  12.913  69.966  1.00  0.00     0.290 C  
HETATM   23  C   UNL     1     -13.270  13.507  70.989  1.00  0.00    -0.146 C  
HETATM   24  C   UNL     1     -12.043  12.637  71.199  1.00  0.00     0.125 C  
HETATM   25  N   UNL     1     -11.497  14.312  69.676  1.00  0.00    -0.274 N  
HETATM   26  O   UNL     1     -13.314  15.764  70.205  1.00  0.00    -0.214 OA 
HETATM   27  C   UNL     1     -12.720  14.697  70.249  1.00  0.00    -0.273 C  
BRANCH  25  28
HETATM   28  C   UNL     1     -10.596  15.251  69.120  1.00  0.00    -0.250 A  
HETATM   29  N   UNL     1      -9.344  15.313  69.629  1.00  0.00    -0.209 NA 
HETATM   30  C   UNL     1      -8.427  16.146  69.098  1.00  0.00    -0.239 A  
HETATM   31  C   UNL     1      -8.690  16.970  68.030  1.00  0.00    -0.218 A  
HETATM   32  C   UNL     1      -9.974  16.922  67.499  1.00  0.00    -0.268 A  
HETATM   33  C   UNL     1     -10.937  16.056  68.041  1.00  0.00    -0.341 A  
HETATM   34  C   UNL     1     -10.310  17.759  66.386  1.00  0.00    -0.351 C  
HETATM   35  N   UNL     1     -10.596  18.434  65.487  1.00  0.00    -0.567 NA 
ENDBRANCH  25  28
ENDBRANCH  14  22
ENDBRANCH   1  12
BRANCH   1  36
HETATM   36  C   UNL     1     -10.220  10.494  65.790  1.00  0.00    -0.310 A  
HETATM   37  C   UNL     1     -10.829  11.792  63.765  1.00  0.00    -0.490 A  
HETATM   38  C   UNL     1      -9.748  11.283  63.074  1.00  0.00    -0.389 A  
HETATM   39 CL   UNL     1      -7.680   9.486  65.950  1.00  0.00    -0.099 Cl 
HETATM   40  C   UNL     1      -8.843  10.474  63.760  1.00  0.00    -0.208 A  
HETATM   41  C   UNL     1     -11.075  11.388  65.077  1.00  0.00    -0.215 A  
HETATM   42  C   UNL     1      -9.037  10.150  65.126  1.00  0.00    -0.201 A  
ENDBRANCH   1  36
TORSDOF 7
ENDMDL
MODEL       31
REMARK 921   NORMALIZED FREE ENERGY PREDICTED BY IDOCK:   -6.60 KCAL/MOL
REMARK 922        TOTAL FREE ENERGY PREDICTED BY IDOCK:  -10.76 KCAL/MOL
REMARK 923 INTER-LIGAND FREE ENERGY PREDICTED BY IDOCK:   -8.52 KCAL/MOL
REMARK 924 INTRA-LIGAND FREE ENERGY PREDICTED BY IDOCK:   -2.24 KCAL/MOL
REMARK 927      BINDING AFFINITY PREDICTED BY RF-SCORE:    0.00 PKD
ROOT
HETATM    1  C   UNL     1     -10.627   9.836  66.784  1.00  0.00    -0.138 C  
ENDROOT
BRANCH   1   2
HETATM    2  C   UNL     1     -10.356   8.373  67.396  1.00  0.00    -0.285 C  
HETATM    3  H   UNL     1     -10.068   7.423  65.593  1.00  0.00     0.000 HD 
HETATM    4  N   UNL     1     -10.067   7.272  66.602  1.00  0.00    -0.201 N  
HETATM    5  O   UNL     1     -10.502   8.190  68.604  1.00  0.00    -0.207 OA 
BRANCH   4   6
HETATM    6  C   UNL     1      -9.748   5.864  67.081  1.00  0.00    -0.132 C  
HETATM    7  C   UNL     1      -8.978   3.886  66.812  1.00  0.00    -0.136 C  
HETATM    8  F   UNL     1      -8.416   2.998  65.965  1.00  0.00    -0.097 F  
HETATM    9  C   UNL     1     -10.257   4.616  66.307  1.00  0.00    -0.306 C  
HETATM   10  F   UNL     1      -9.103   3.259  68.004  1.00  0.00    -0.130 F  
HETATM   11  C   UNL     1      -8.321   5.295  66.870  1.00  0.00    -0.107 C  
ENDBRANCH   4   6
ENDBRANCH   1   2
BRANCH   1  12
HETATM   12  N   UNL     1     -10.426  10.933  67.810  1.00  0.00    -0.192 N  
HETATM   13  O   UNL     1     -12.621  10.912  68.518  1.00  0.00    -0.137 OA 
HETATM   14  C   UNL     1     -11.483  11.373  68.635  1.00  0.00    -0.296 C  
BRANCH  12  15
HETATM   15  C   UNL     1      -9.119  11.466  67.915  1.00  0.00    -0.164 A  
HETATM   16  C   UNL     1      -8.048  10.701  68.379  1.00  0.00    -0.123 A  
HETATM   17  C   UNL     1      -7.554  13.222  67.469  1.00  0.00    -0.164 A  
HETATM   18  N   UNL     1      -6.766  11.135  68.384  1.00  0.00    -0.058 NA 
HETATM   19  F   UNL     1      -7.283  14.448  67.007  1.00  0.00    -0.172 F  
HETATM   20  C   UNL     1      -8.855  12.750  67.451  1.00  0.00    -0.190 A  
HETATM   21  C   UNL     1      -6.549  12.395  67.932  1.00  0.00    -0.097 A  
ENDBRANCH  12  15
BRANCH  14  22
HETATM   22  C   UNL     1     -11.162  12.416  69.767  1.00  0.00     0.046 C  
HETATM   23  C   UNL     1     -13.160  12.626  71.076  1.00  0.00    -0.041 C  
HETATM   24  C   UNL     1     -11.803  11.943  71.071  1.00  0.00     0.330 C  
HETATM   25  N   UNL     1     -11.711  13.764  69.622  1.00  0.00    -0.302 N  
HETATM   26  O   UNL     1     -13.634  14.889  70.474  1.00  0.00    -0.153 OA 
HETATM   27  C   UNL     1     -12.890  13.925  70.366  1.00  0.00    -0.137 C  
BRANCH  25  28
HETATM   28  C   UNL     1     -11.036  14.860  69.032  1.00  0.00    -0.250 A  
HETATM   29  N   UNL     1     -10.075  15.481  69.753  1.00  0.00    -0.284 NA 
HETATM   30  C   UNL     1      -9.359  16.490  69.219  1.00  0.00    -0.135 A  
HETATM   31  C   UNL     1      -9.550  16.949  67.937  1.00  0.00    -0.244 A  
HETATM   32  C   UNL     1     -10.537  16.325  67.185  1.00  0.00    -0.291 A  
HETATM   33  C   UNL     1     -11.287  15.270  67.729  1.00  0.00    -0.331 A  
HETATM   34  C   UNL     1     -10.785  16.760  65.843  1.00  0.00    -0.163 C  
HETATM   35  N   UNL     1     -10.997  17.105  64.756  1.00  0.00    -0.924 NA 
ENDBRANCH  25  28
ENDBRANCH  14  22
ENDBRANCH   1  12
BRANCH   1  36
HETATM   36  C   UNL     1     -10.230  10.337  65.370  1.00  0.00    -0.312 A  
HETATM   37  C   UNL     1      -8.784   9.881  63.406  1.00  0.00    -0.230 A  
HETATM   38  C   UNL     1      -9.136  11.083  62.827  1.00  0.00    -0.361 A  
HETATM   39 CL   UNL     1     -12.146  12.276  65.128  1.00  0.00    -0.429 Cl 
HETATM   40  C   UNL     1     -10.111  11.859  63.451  1.00  0.00    -0.464 A  
HETATM   41  C   UNL     1      -9.294   9.530  64.657  1.00  0.00    -0.201 A  
HETATM   42  C   UNL     1     -10.709  11.449  64.669  1.00  0.00    -0.314 A  
ENDBRANCH   1  36
TORSDOF 7
ENDMDL
MODEL       32
REMARK 921   NORMALIZED FREE ENERGY PREDICTED BY IDOCK:   -6.60 KCAL/MOL
REMARK 922        TOTAL FREE ENERGY PREDICTED BY IDOCK:  -10.75 KCAL/MOL
REMARK 923 INTER-LIGAND FREE ENERGY PREDICTED BY IDOCK:   -8.95 KCAL/MOL
REMARK 924 INTRA-LIGAND FREE ENERGY PREDICTED BY IDOCK:   -1.80 KCAL/MOL
REMARK 927      BINDING AFFINITY PREDICTED BY RF-SCORE:    0.00 PKD
ROOT
HETATM    1  C   UNL     1      -9.483  10.366  68.413  1.00  0.00    -0.149 C  
ENDROOT
BRANCH   1   2
HETATM    2  C   UNL     1     -10.401  10.922  67.215  1.00  0.00    -0.216 C  
HETATM    3  H   UNL     1      -8.970  12.145  66.382  1.00  0.00     0.000 HD 
HETATM    4  N   UNL     1      -9.929  11.819  66.266  1.00  0.00    -0.213 N  
HETATM    5  O   UNL     1     -11.593  10.623  67.182  1.00  0.00    -0.321 OA 
BRANCH   4   6
HETATM    6  C   UNL     1     -10.695  12.365  65.071  1.00  0.00    -0.294 C  
HETATM    7  C   UNL     1     -12.245  12.282  63.598  1.00  0.00    -0.567 C  
HETATM    8  F   UNL     1     -13.276  11.581  63.082  1.00  0.00    -0.524 F  
HETATM    9  C   UNL     1     -10.906  11.510  63.790  1.00  0.00    -0.486 C  
HETATM   10  F   UNL     1     -12.155  13.425  62.879  1.00  0.00    -0.556 F  
HETATM   11  C   UNL     1     -12.241  12.468  65.142  1.00  0.00    -0.509 C  
ENDBRANCH   4   6
ENDBRANCH   1   2
BRANCH   1  12
HETATM   12  N   UNL     1      -9.986   9.043  68.954  1.00  0.00    -0.183 N  
HETATM   13  O   UNL     1     -10.967   9.980  70.819  1.00  0.00    -0.313 OA 
HETATM   14  C   UNL     1     -10.734   8.972  70.148  1.00  0.00    -0.233 C  
BRANCH  12  15
HETATM   15  C   UNL     1      -9.691   7.893  68.182  1.00  0.00    -0.159 A  
HETATM   16  C   UNL     1     -10.637   7.313  67.338  1.00  0.00    -0.300 A  
HETATM   17  C   UNL     1      -8.100   6.315  67.338  1.00  0.00    -0.109 A  
HETATM   18  N   UNL     1     -10.360   6.287  66.498  1.00  0.00    -0.142 NA 
HETATM   19  F   UNL     1      -6.857   5.823  67.303  1.00  0.00    -0.055 F  
HETATM   20  C   UNL     1      -8.399   7.378  68.173  1.00  0.00    -0.124 A  
HETATM   21  C   UNL     1      -9.093   5.806  66.523  1.00  0.00    -0.141 A  
ENDBRANCH  12  15
BRANCH  14  22
HETATM   22  C   UNL     1     -11.337   7.582  70.569  1.00  0.00    -0.260 C  
HETATM   23  C   UNL     1     -12.207   7.868  72.785  1.00  0.00    -0.081 C  
HETATM   24  C   UNL     1     -12.640   7.818  71.330  1.00  0.00    -0.339 C  
HETATM   25  N   UNL     1     -10.570   6.768  71.513  1.00  0.00    -0.218 N  
HETATM   26  O   UNL     1     -10.646   6.422  73.872  1.00  0.00    -0.295 OA 
HETATM   27  C   UNL     1     -11.042   6.917  72.826  1.00  0.00    -0.269 C  
BRANCH  25  28
HETATM   28  C   UNL     1      -9.642   5.761  71.154  1.00  0.00    -0.167 A  
HETATM   29  N   UNL     1      -8.477   5.694  71.838  1.00  0.00    -0.126 NA 
HETATM   30  C   UNL     1      -7.584   4.718  71.580  1.00  0.00    -0.091 A  
HETATM   31  C   UNL     1      -7.787   3.747  70.628  1.00  0.00    -0.054 A  
HETATM   32  C   UNL     1      -8.977   3.806  69.913  1.00  0.00    -0.166 A  
HETATM   33  C   UNL     1      -9.917   4.815  70.175  1.00  0.00    -0.321 A  
HETATM   34  C   UNL     1      -9.246   2.824  68.905  1.00  0.00    -0.161 C  
HETATM   35  N   UNL     1      -9.474   2.035  68.085  1.00  0.00    -0.200 NA 
ENDBRANCH  25  28
ENDBRANCH  14  22
ENDBRANCH   1  12
BRANCH   1  36
HETATM   36  C   UNL     1      -7.935  10.436  68.504  1.00  0.00    -0.114 A  
HETATM   37  C   UNL     1      -6.019  10.654  70.065  1.00  0.00    -0.087 A  
HETATM   38  C   UNL     1      -5.135  10.783  69.013  1.00  0.00    -0.041 A  
HETATM   39 CL   UNL     1      -7.397   9.825  65.891  1.00  0.00    -0.099 Cl 
HETATM   40  C   UNL     1      -5.621  10.628  67.715  1.00  0.00    -0.043 A  
HETATM   41  C   UNL     1      -7.385  10.513  69.819  1.00  0.00    -0.139 A  
HETATM   42  C   UNL     1      -6.994  10.377  67.470  1.00  0.00    -0.084 A  
ENDBRANCH   1  36
TORSDOF 7
ENDMDL
MODEL       33
REMARK 921   NORMALIZED FREE ENERGY PREDICTED BY IDOCK:   -6.58 KCAL/MOL
REMARK 922        TOTAL FREE ENERGY PREDICTED BY IDOCK:  -10.74 KCAL/MOL
REMARK 923 INTER-LIGAND FREE ENERGY PREDICTED BY IDOCK:   -9.18 KCAL/MOL
REMARK 924 INTRA-LIGAND FREE ENERGY PREDICTED BY IDOCK:   -1.55 KCAL/MOL
REMARK 927      BINDING AFFINITY PREDICTED BY RF-SCORE:    0.00 PKD
ROOT
HETATM    1  C   UNL     1      -8.372   8.713  66.557  1.00  0.00    -0.108 C  
ENDROOT
BRANCH   1   2
HETATM    2  C   UNL     1      -9.266   9.519  65.488  1.00  0.00    -0.234 C  
HETATM    3  H   UNL     1     -10.254  10.693  66.859  1.00  0.00     0.000 HD 
HETATM    4  N   UNL     1     -10.159  10.514  65.860  1.00  0.00    -0.253 N  
HETATM    5  O   UNL     1      -9.236   9.184  64.305  1.00  0.00    -0.059 OA 
BRANCH   4   6
HETATM    6  C   UNL     1     -11.010  11.366  64.930  1.00  0.00    -0.216 C  
HETATM    7  C   UNL     1     -11.671  13.235  64.126  1.00  0.00    -0.420 C  
HETATM    8  F   UNL     1     -11.578  14.581  64.171  1.00  0.00    -0.350 F  
HETATM    9  C   UNL     1     -11.909  12.508  65.482  1.00  0.00    -0.491 C  
HETATM   10  F   UNL     1     -12.559  12.941  63.148  1.00  0.00    -0.515 F  
HETATM   11  C   UNL     1     -10.329  12.452  64.058  1.00  0.00    -0.435 C  
ENDBRANCH   4   6
ENDBRANCH   1   2
BRANCH   1  12
HETATM   12  N   UNL     1      -8.765   9.027  67.986  1.00  0.00    -0.129 N  
HETATM   13  O   UNL     1     -10.586   7.611  67.980  1.00  0.00    -0.205 OA 
HETATM   14  C   UNL     1      -9.871   8.402  68.600  1.00  0.00    -0.170 C  
BRANCH  12  15
HETATM   15  C   UNL     1      -7.947   9.953  68.675  1.00  0.00    -0.087 A  
HETATM   16  C   UNL     1      -7.029   9.544  69.643  1.00  0.00    -0.066 A  
HETATM   17  C   UNL     1      -7.092  12.175  68.932  1.00  0.00    -0.098 A  
HETATM   18  N   UNL     1      -6.148  10.382  70.239  1.00  0.00    -0.092 NA 
HETATM   19  F   UNL     1      -7.089  13.466  68.585  1.00  0.00    -0.085 F  
HETATM   20  C   UNL     1      -7.969  11.297  68.319  1.00  0.00    -0.134 A  
HETATM   21  C   UNL     1      -6.205  11.686  69.872  1.00  0.00    -0.144 A  
ENDBRANCH  12  15
BRANCH  14  22
HETATM   22  C   UNL     1     -10.130   8.677  70.127  1.00  0.00    -0.185 C  
HETATM   23  C   UNL     1     -11.328   6.773  70.960  1.00  0.00    -0.356 C  
HETATM   24  C   UNL     1      -9.935   7.376  70.904  1.00  0.00    -0.184 C  
HETATM   25  N   UNL     1     -11.481   9.074  70.524  1.00  0.00    -0.245 N  
HETATM   26  O   UNL     1     -13.375   7.923  71.405  1.00  0.00    -0.307 OA 
HETATM   27  C   UNL     1     -12.220   7.984  71.008  1.00  0.00    -0.185 C  
BRANCH  25  28
HETATM   28  C   UNL     1     -11.931  10.410  70.659  1.00  0.00    -0.351 A  
HETATM   29  N   UNL     1     -12.696  10.720  71.730  1.00  0.00    -0.403 NA 
HETATM   30  C   UNL     1     -13.101  11.988  71.942  1.00  0.00    -0.370 A  
HETATM   31  C   UNL     1     -12.776  13.029  71.106  1.00  0.00    -0.372 A  
HETATM   32  C   UNL     1     -11.994  12.726  69.997  1.00  0.00    -0.371 A  
HETATM   33  C   UNL     1     -11.563  11.410  69.769  1.00  0.00    -0.407 A  
HETATM   34  C   UNL     1     -11.624  13.768  69.087  1.00  0.00    -0.317 C  
HETATM   35  N   UNL     1     -11.319  14.603  68.341  1.00  0.00    -0.278 NA 
ENDBRANCH  25  28
ENDBRANCH  14  22
ENDBRANCH   1  12
BRANCH   1  36
HETATM   36  C   UNL     1      -7.887   7.244  66.437  1.00  0.00    -0.106 A  
HETATM   37  C   UNL     1      -8.585   4.935  65.858  1.00  0.00    -0.121 A  
HETATM   38  C   UNL     1      -7.378   4.426  66.292  1.00  0.00    -0.081 A  
HETATM   39 CL   UNL     1      -5.218   7.718  66.820  1.00  0.00    -0.026 Cl 
HETATM   40  C   UNL     1      -6.386   5.321  66.691  1.00  0.00    -0.036 A  
HETATM   41  C   UNL     1      -8.845   6.302  65.954  1.00  0.00    -0.148 A  
HETATM   42  C   UNL     1      -6.614   6.720  66.686  1.00  0.00    -0.044 A  
ENDBRANCH   1  36
TORSDOF 7
ENDMDL
MODEL       34
REMARK 921   NORMALIZED FREE ENERGY PREDICTED BY IDOCK:   -6.51 KCAL/MOL
REMARK 922        TOTAL FREE ENERGY PREDICTED BY IDOCK:  -10.64 KCAL/MOL
REMARK 923 INTER-LIGAND FREE ENERGY PREDICTED BY IDOCK:   -8.99 KCAL/MOL
REMARK 924 INTRA-LIGAND FREE ENERGY PREDICTED BY IDOCK:   -1.65 KCAL/MOL
REMARK 927      BINDING AFFINITY PREDICTED BY RF-SCORE:    0.00 PKD
ROOT
HETATM    1  C   UNL     1     -10.673  13.171  66.997  1.00  0.00    -0.262 C  
ENDROOT
BRANCH   1   2
HETATM    2  C   UNL     1     -10.485  14.638  66.363  1.00  0.00    -0.295 C  
HETATM    3  H   UNL     1     -10.777  15.681  68.113  1.00  0.00     0.000 HD 
HETATM    4  N   UNL     1     -10.559  15.797  67.123  1.00  0.00    -0.310 N  
HETATM    5  O   UNL     1     -10.364  14.755  65.144  1.00  0.00    -0.384 OA 
BRANCH   4   6
HETATM    6  C   UNL     1     -10.347  17.221  66.633  1.00  0.00    -0.305 C  
HETATM    7  C   UNL     1      -9.502  19.182  66.774  1.00  0.00    -0.330 C  
HETATM    8  F   UNL     1      -8.731  20.031  67.485  1.00  0.00    -0.344 F  
HETATM    9  C   UNL     1     -10.625  18.440  67.557  1.00  0.00    -0.447 C  
HETATM   10  F   UNL     1      -9.912  19.857  65.676  1.00  0.00    -0.455 F  
HETATM   11  C   UNL     1      -8.904  17.772  66.499  1.00  0.00    -0.283 C  
ENDBRANCH   4   6
ENDBRANCH   1   2
BRANCH   1  12
HETATM   12  N   UNL     1      -9.464  12.287  66.766  1.00  0.00    -0.216 N  
HETATM   13  O   UNL     1     -10.471  11.049  65.100  1.00  0.00    -0.281 OA 
HETATM   14  C   UNL     1      -9.467  11.279  65.780  1.00  0.00    -0.227 C  
BRANCH  12  15
HETATM   15  C   UNL     1      -8.329  12.549  67.570  1.00  0.00    -0.175 A  
HETATM   16  C   UNL     1      -7.917  11.668  68.570  1.00  0.00    -0.144 A  
HETATM   17  C   UNL     1      -6.369  13.846  68.030  1.00  0.00    -0.142 A  
HETATM   18  N   UNL     1      -6.774  11.824  69.279  1.00  0.00    -0.111 NA 
HETATM   19  F   UNL     1      -5.582  14.895  67.769  1.00  0.00    -0.130 F  
HETATM   20  C   UNL     1      -7.530  13.656  67.302  1.00  0.00    -0.052 A  
HETATM   21  C   UNL     1      -6.027  12.918  68.995  1.00  0.00    -0.084 A  
ENDBRANCH  12  15
BRANCH  14  22
HETATM   22  C   UNL     1      -8.130  10.497  65.508  1.00  0.00    -0.155 C  
HETATM   23  C   UNL     1      -8.529   9.129  63.579  1.00  0.00    -0.193 C  
HETATM   24  C   UNL     1      -7.888  10.440  64.001  1.00  0.00    -0.055 C  
HETATM   25  N   UNL     1      -8.083   9.083  65.884  1.00  0.00    -0.106 N  
HETATM   26  O   UNL     1      -8.385   7.028  64.710  1.00  0.00    -0.089 OA 
HETATM   27  C   UNL     1      -8.323   8.248  64.782  1.00  0.00    -0.119 C  
BRANCH  25  28
HETATM   28  C   UNL     1      -7.607   8.584  67.120  1.00  0.00    -0.096 A  
HETATM   29  N   UNL     1      -6.278   8.646  67.365  1.00  0.00    -0.055 NA 
HETATM   30  C   UNL     1      -5.777   8.241  68.549  1.00  0.00    -0.037 A  
HETATM   31  C   UNL     1      -6.560   7.748  69.565  1.00  0.00    -0.039 A  
HETATM   32  C   UNL     1      -7.927   7.672  69.328  1.00  0.00    -0.126 A  
HETATM   33  C   UNL     1      -8.461   8.094  68.100  1.00  0.00    -0.126 A  
HETATM   34  C   UNL     1      -8.796   7.164  70.347  1.00  0.00    -0.151 C  
HETATM   35  N   UNL     1      -9.509   6.752  71.164  1.00  0.00    -0.163 NA 
ENDBRANCH  25  28
ENDBRANCH  14  22
ENDBRANCH   1  12
BRANCH   1  36
HETATM   36  C   UNL     1     -11.346  12.828  68.352  1.00  0.00    -0.331 A  
HETATM   37  C   UNL     1     -12.469  13.792  70.343  1.00  0.00    -0.384 A  
HETATM   38  C   UNL     1     -12.474  12.565  70.975  1.00  0.00    -0.353 A  
HETATM   39 CL   UNL     1     -11.387  10.107  68.050  1.00  0.00    -0.259 Cl 
HETATM   40  C   UNL     1     -12.024  11.452  70.266  1.00  0.00    -0.460 A  
HETATM   41  C   UNL     1     -11.896  13.927  69.078  1.00  0.00    -0.397 A  
HETATM   42  C   UNL     1     -11.541  11.572  68.939  1.00  0.00    -0.320 A  
ENDBRANCH   1  36
TORSDOF 7
ENDMDL
MODEL       35
REMARK 921   NORMALIZED FREE ENERGY PREDICTED BY IDOCK:   -6.51 KCAL/MOL
REMARK 922        TOTAL FREE ENERGY PREDICTED BY IDOCK:  -10.63 KCAL/MOL
REMARK 923 INTER-LIGAND FREE ENERGY PREDICTED BY IDOCK:   -9.45 KCAL/MOL
REMARK 924 INTRA-LIGAND FREE ENERGY PREDICTED BY IDOCK:   -1.18 KCAL/MOL
REMARK 927      BINDING AFFINITY PREDICTED BY RF-SCORE:    0.00 PKD
ROOT
HETATM    1  C   UNL     1      -8.786   9.280  66.439  1.00  0.00    -0.132 C  
ENDROOT
BRANCH   1   2
HETATM    2  C   UNL     1      -9.279  10.472  65.477  1.00  0.00    -0.188 C  
HETATM    3  H   UNL     1     -11.293  10.207  65.801  1.00  0.00     0.000 HD 
HETATM    4  N   UNL     1     -10.619  10.792  65.309  1.00  0.00    -0.212 N  
HETATM    5  O   UNL     1      -8.452  11.068  64.787  1.00  0.00    -0.028 OA 
BRANCH   4   6
HETATM    6  C   UNL     1     -11.184  11.925  64.467  1.00  0.00    -0.319 C  
HETATM    7  C   UNL     1     -12.025  13.876  64.210  1.00  0.00    -0.444 C  
HETATM    8  F   UNL     1     -12.461  15.006  64.807  1.00  0.00    -0.355 F  
HETATM    9  C   UNL     1     -12.582  12.534  64.770  1.00  0.00    -0.493 C  
HETATM   10  F   UNL     1     -12.181  14.056  62.878  1.00  0.00    -0.214 F  
HETATM   11  C   UNL     1     -10.625  13.360  64.649  1.00  0.00    -0.431 C  
ENDBRANCH   4   6
ENDBRANCH   1   2
BRANCH   1  12
HETATM   12  N   UNL     1      -8.710   9.709  67.890  1.00  0.00    -0.119 N  
HETATM   13  O   UNL     1      -6.894   8.370  68.372  1.00  0.00    -0.063 OA 
HETATM   14  C   UNL     1      -7.713   9.209  68.755  1.00  0.00    -0.087 C  
BRANCH  12  15
HETATM   15  C   UNL     1      -9.670  10.656  68.319  1.00  0.00    -0.161 A  
HETATM   16  C   UNL     1      -9.486  12.026  68.132  1.00  0.00    -0.200 A  
HETATM   17  C   UNL     1     -11.852  11.157  69.170  1.00  0.00    -0.350 A  
HETATM   18  N   UNL     1     -10.430  12.953  68.420  1.00  0.00    -0.247 NA 
HETATM   19  F   UNL     1     -13.029  10.754  69.659  1.00  0.00    -0.264 F  
HETATM   20  C   UNL     1     -10.883  10.223  68.847  1.00  0.00    -0.263 A  
HETATM   21  C   UNL     1     -11.594  12.494  68.941  1.00  0.00    -0.318 A  
ENDBRANCH  12  15
BRANCH  14  22
HETATM   22  C   UNL     1      -7.617   9.806  70.207  1.00  0.00    -0.172 C  
HETATM   23  C   UNL     1      -5.311   9.653  70.847  1.00  0.00    -0.050 C  
HETATM   24  C   UNL     1      -6.339  10.636  70.317  1.00  0.00    -0.141 C  
HETATM   25  N   UNL     1      -7.471   8.865  71.318  1.00  0.00    -0.115 N  
HETATM   26  O   UNL     1      -5.624   8.040  72.582  1.00  0.00    -0.039 OA 
HETATM   27  C   UNL     1      -6.131   8.738  71.716  1.00  0.00    -0.070 C  
BRANCH  25  28
HETATM   28  C   UNL     1      -8.539   8.335  72.082  1.00  0.00    -0.188 A  
HETATM   29  N   UNL     1      -8.245   7.440  73.053  1.00  0.00    -0.108 NA 
HETATM   30  C   UNL     1      -9.214   6.949  73.851  1.00  0.00    -0.199 A  
HETATM   31  C   UNL     1     -10.535   7.311  73.737  1.00  0.00    -0.335 A  
HETATM   32  C   UNL     1     -10.854   8.225  72.740  1.00  0.00    -0.308 A  
HETATM   33  C   UNL     1      -9.853   8.747  71.906  1.00  0.00    -0.395 A  
HETATM   34  C   UNL     1     -12.214   8.640  72.570  1.00  0.00    -0.303 C  
HETATM   35  N   UNL     1     -13.313   8.982  72.421  1.00  0.00    -0.452 NA 
ENDBRANCH  25  28
ENDBRANCH  14  22
ENDBRANCH   1  12
BRANCH   1  36
HETATM   36  C   UNL     1      -9.180   7.783  66.335  1.00  0.00    -0.229 A  
HETATM   37  C   UNL     1     -10.880   6.100  66.992  1.00  0.00    -0.435 A  
HETATM   38  C   UNL     1     -10.100   5.073  66.499  1.00  0.00    -0.278 A  
HETATM   39 CL   UNL     1      -7.273   7.038  64.517  1.00  0.00    -0.068 Cl 
HETATM   40  C   UNL     1      -8.923   5.398  65.827  1.00  0.00    -0.161 A  
HETATM   41  C   UNL     1     -10.420   7.416  66.938  1.00  0.00    -0.379 A  
HETATM   42  C   UNL     1      -8.510   6.745  65.678  1.00  0.00    -0.138 A  
ENDBRANCH   1  36
TORSDOF 7
ENDMDL
MODEL       36
REMARK 921   NORMALIZED FREE ENERGY PREDICTED BY IDOCK:   -6.49 KCAL/MOL
REMARK 922        TOTAL FREE ENERGY PREDICTED BY IDOCK:  -10.60 KCAL/MOL
REMARK 923 INTER-LIGAND FREE ENERGY PREDICTED BY IDOCK:   -9.86 KCAL/MOL
REMARK 924 INTRA-LIGAND FREE ENERGY PREDICTED BY IDOCK:   -0.74 KCAL/MOL
REMARK 927      BINDING AFFINITY PREDICTED BY RF-SCORE:    0.00 PKD
ROOT
HETATM    1  C   UNL     1      -8.918   8.794  66.296  1.00  0.00    -0.173 C  
ENDROOT
BRANCH   1   2
HETATM    2  C   UNL     1      -9.339   9.967  65.278  1.00  0.00    -0.251 C  
HETATM    3  H   UNL     1     -11.350   9.932  65.712  1.00  0.00     0.000 HD 
HETATM    4  N   UNL     1     -10.647  10.412  65.150  1.00  0.00    -0.096 N  
HETATM    5  O   UNL     1      -8.495  10.428  64.511  1.00  0.00    -0.174 OA 
BRANCH   4   6
HETATM    6  C   UNL     1     -11.140  11.541  64.258  1.00  0.00    -0.315 C  
HETATM    7  C   UNL     1     -12.018  13.463  63.924  1.00  0.00    -0.465 C  
HETATM    8  F   UNL     1     -12.577  14.562  64.474  1.00  0.00    -0.449 F  
HETATM    9  C   UNL     1     -12.590  12.089  64.380  1.00  0.00    -0.292 C  
HETATM   10  F   UNL     1     -12.001  13.666  62.586  1.00  0.00    -0.111 F  
HETATM   11  C   UNL     1     -10.670  12.991  64.539  1.00  0.00    -0.404 C  
ENDBRANCH   4   6
ENDBRANCH   1   2
BRANCH   1  12
HETATM   12  N   UNL     1      -9.131   9.188  67.744  1.00  0.00    -0.127 N  
HETATM   13  O   UNL     1      -7.751   7.539  68.577  1.00  0.00    -0.114 OA 
HETATM   14  C   UNL     1      -8.481   8.508  68.796  1.00  0.00    -0.123 C  
BRANCH  12  15
HETATM   15  C   UNL     1      -9.990  10.288  67.978  1.00  0.00    -0.153 A  
HETATM   16  C   UNL     1     -11.375  10.136  68.055  1.00  0.00    -0.078 A  
HETATM   17  C   UNL     1     -10.300  12.588  68.569  1.00  0.00    -0.222 A  
HETATM   18  N   UNL     1     -12.219  11.140  68.393  1.00  0.00    -0.550 NA 
HETATM   19  F   UNL     1      -9.794  13.794  68.847  1.00  0.00    -0.207 F  
HETATM   20  C   UNL     1      -9.452  11.543  68.244  1.00  0.00    -0.189 A  
HETATM   21  C   UNL     1     -11.658  12.350  68.637  1.00  0.00    -0.319 A  
ENDBRANCH  12  15
BRANCH  14  22
HETATM   22  C   UNL     1      -8.647   9.063  70.258  1.00  0.00    -0.178 C  
HETATM   23  C   UNL     1      -7.391   7.597  71.681  1.00  0.00    -0.068 C  
HETATM   24  C   UNL     1      -7.309   8.945  70.986  1.00  0.00    -0.114 C  
HETATM   25  N   UNL     1      -9.553   8.347  71.156  1.00  0.00    -0.166 N  
HETATM   26  O   UNL     1      -9.268   6.697  72.855  1.00  0.00    -0.136 OA 
HETATM   27  C   UNL     1      -8.856   7.469  72.000  1.00  0.00    -0.117 C  
BRANCH  25  28
HETATM   28  C   UNL     1     -10.919   8.660  71.355  1.00  0.00    -0.271 A  
HETATM   29  N   UNL     1     -11.803   7.639  71.436  1.00  0.00    -0.285 NA 
HETATM   30  C   UNL     1     -13.106   7.875  71.685  1.00  0.00    -0.332 A  
HETATM   31  C   UNL     1     -13.618   9.138  71.868  1.00  0.00    -0.493 A  
HETATM   32  C   UNL     1     -12.724  10.198  71.782  1.00  0.00    -0.534 A  
HETATM   33  C   UNL     1     -11.364   9.964  71.527  1.00  0.00    -0.246 A  
HETATM   34  C   UNL     1     -13.198  11.538  71.961  1.00  0.00    -0.337 C  
HETATM   35  N   UNL     1     -13.569  12.628  72.102  1.00  0.00    -0.497 NA 
ENDBRANCH  25  28
ENDBRANCH  14  22
ENDBRANCH   1  12
BRANCH   1  36
HETATM   36  C   UNL     1      -9.156   7.273  66.107  1.00  0.00    -0.160 A  
HETATM   37  C   UNL     1     -10.689   5.395  66.634  1.00  0.00    -0.309 A  
HETATM   38  C   UNL     1      -9.800   4.479  66.109  1.00  0.00    -0.243 A  
HETATM   39 CL   UNL     1      -7.147   6.820  64.303  1.00  0.00    -0.058 Cl 
HETATM   40  C   UNL     1      -8.648   4.955  65.486  1.00  0.00    -0.135 A  
HETATM   41  C   UNL     1     -10.365   6.752  66.658  1.00  0.00    -0.219 A  
HETATM   42  C   UNL     1      -8.371   6.343  65.415  1.00  0.00    -0.141 A  
ENDBRANCH   1  36
TORSDOF 7
ENDMDL
MODEL       37
REMARK 921   NORMALIZED FREE ENERGY PREDICTED BY IDOCK:   -6.45 KCAL/MOL
REMARK 922        TOTAL FREE ENERGY PREDICTED BY IDOCK:  -10.55 KCAL/MOL
REMARK 923 INTER-LIGAND FREE ENERGY PREDICTED BY IDOCK:   -8.93 KCAL/MOL
REMARK 924 INTRA-LIGAND FREE ENERGY PREDICTED BY IDOCK:   -1.62 KCAL/MOL
REMARK 927      BINDING AFFINITY PREDICTED BY RF-SCORE:    0.00 PKD
ROOT
HETATM    1  C   UNL     1      -9.991  10.576  68.529  1.00  0.00    -0.170 C  
ENDROOT
BRANCH   1   2
HETATM    2  C   UNL     1     -11.262  11.455  68.980  1.00  0.00    -0.256 C  
HETATM    3  H   UNL     1     -10.251  12.643  70.323  1.00  0.00     0.000 HD 
HETATM    4  N   UNL     1     -11.168  12.485  69.906  1.00  0.00     0.045 N  
HETATM    5  O   UNL     1     -12.380  11.149  68.568  1.00  0.00    -0.561 OA 
BRANCH   4   6
HETATM    6  C   UNL     1     -12.292  13.403  70.361  1.00  0.00    -0.312 C  
HETATM    7  C   UNL     1     -13.261  14.670  71.786  1.00  0.00    -0.350 C  
HETATM    8  F   UNL     1     -13.241  15.193  73.031  1.00  0.00    -0.437 F  
HETATM    9  C   UNL     1     -13.073  13.129  71.677  1.00  0.00    -0.444 C  
HETATM   10  F   UNL     1     -14.364  15.163  71.177  1.00  0.00    -0.495 F  
HETATM   11  C   UNL     1     -11.944  14.787  70.967  1.00  0.00    -0.389 C  
ENDBRANCH   4   6
ENDBRANCH   1   2
BRANCH   1  12
HETATM   12  N   UNL     1      -9.596   9.558  69.579  1.00  0.00    -0.177 N  
HETATM   13  O   UNL     1      -7.355  10.101  69.512  1.00  0.00    -0.092 OA 
HETATM   14  C   UNL     1      -8.259   9.425  70.009  1.00  0.00    -0.162 C  
BRANCH  12  15
HETATM   15  C   UNL     1     -10.642   8.775  70.124  1.00  0.00    -0.221 A  
HETATM   16  C   UNL     1     -10.994   7.539  69.581  1.00  0.00    -0.153 A  
HETATM   17  C   UNL     1     -12.228   8.359  71.869  1.00  0.00    -0.343 A  
HETATM   18  N   UNL     1     -11.906   6.710  70.141  1.00  0.00    -0.358 NA 
HETATM   19  F   UNL     1     -12.831   8.729  73.004  1.00  0.00    -0.413 F  
HETATM   20  C   UNL     1     -11.276   9.183  71.293  1.00  0.00    -0.407 A  
HETATM   21  C   UNL     1     -12.509   7.145  71.274  1.00  0.00    -0.386 A  
ENDBRANCH  12  15
BRANCH  14  22
HETATM   22  C   UNL     1      -7.952   8.443  71.199  1.00  0.00    -0.112 C  
HETATM   23  C   UNL     1      -5.574   8.485  71.511  1.00  0.00    -0.038 C  
HETATM   24  C   UNL     1      -6.862   9.057  72.077  1.00  0.00     0.084 C  
HETATM   25  N   UNL     1      -7.384   7.135  70.870  1.00  0.00    -0.074 N  
HETATM   26  O   UNL     1      -5.178   6.229  70.831  1.00  0.00    -0.017 OA 
HETATM   27  C   UNL     1      -5.990   7.122  71.029  1.00  0.00    -0.036 C  
BRANCH  25  28
HETATM   28  C   UNL     1      -8.132   5.951  70.666  1.00  0.00    -0.118 A  
HETATM   29  N   UNL     1      -8.933   5.521  71.669  1.00  0.00    -0.136 NA 
HETATM   30  C   UNL     1      -9.713   4.434  71.508  1.00  0.00    -0.174 A  
HETATM   31  C   UNL     1      -9.749   3.702  70.345  1.00  0.00    -0.201 A  
HETATM   32  C   UNL     1      -8.929   4.127  69.307  1.00  0.00    -0.164 A  
HETATM   33  C   UNL     1      -8.115   5.260  69.462  1.00  0.00    -0.094 A  
HETATM   34  C   UNL     1      -8.920   3.404  68.071  1.00  0.00    -0.139 C  
HETATM   35  N   UNL     1      -8.903   2.826  67.065  1.00  0.00    -0.130 NA 
ENDBRANCH  25  28
ENDBRANCH  14  22
ENDBRANCH   1  12
BRANCH   1  36
HETATM   36  C   UNL     1      -9.702  10.028  67.107  1.00  0.00    -0.217 A  
HETATM   37  C   UNL     1      -8.966   8.033  65.830  1.00  0.00    -0.148 A  
HETATM   38  C   UNL     1      -8.906   8.763  64.660  1.00  0.00    -0.054 A  
HETATM   39 CL   UNL     1     -10.680  12.162  65.698  1.00  0.00    -0.300 Cl 
HETATM   40  C   UNL     1      -9.346  10.086  64.681  1.00  0.00    -0.338 A  
HETATM   41  C   UNL     1      -9.326   8.654  67.026  1.00  0.00    -0.202 A  
HETATM   42  C   UNL     1      -9.815  10.685  65.876  1.00  0.00    -0.243 A  
ENDBRANCH   1  36
TORSDOF 7
ENDMDL
MODEL       38
REMARK 921   NORMALIZED FREE ENERGY PREDICTED BY IDOCK:   -6.43 KCAL/MOL
REMARK 922        TOTAL FREE ENERGY PREDICTED BY IDOCK:  -10.52 KCAL/MOL
REMARK 923 INTER-LIGAND FREE ENERGY PREDICTED BY IDOCK:   -8.89 KCAL/MOL
REMARK 924 INTRA-LIGAND FREE ENERGY PREDICTED BY IDOCK:   -1.63 KCAL/MOL
REMARK 927      BINDING AFFINITY PREDICTED BY RF-SCORE:    0.00 PKD
ROOT
HETATM    1  C   UNL     1      -9.942  10.037  66.449  1.00  0.00    -0.237 C  
ENDROOT
BRANCH   1   2
HETATM    2  C   UNL     1     -10.315   9.301  67.831  1.00  0.00    -0.227 C  
HETATM    3  H   UNL     1     -10.229  10.982  69.015  1.00  0.00     0.000 HD 
HETATM    4  N   UNL     1     -10.430   9.983  69.035  1.00  0.00    -0.202 N  
HETATM    5  O   UNL     1     -10.411   8.075  67.851  1.00  0.00    -0.219 OA 
BRANCH   4   6
HETATM    6  C   UNL     1     -10.823   9.393  70.380  1.00  0.00    -0.269 C  
HETATM    7  C   UNL     1     -10.832   7.842  71.854  1.00  0.00    -0.243 C  
HETATM    8  F   UNL     1     -10.446   6.591  72.180  1.00  0.00    -0.208 F  
HETATM    9  C   UNL     1     -11.538   8.015  70.477  1.00  0.00    -0.141 C  
HETATM   10  F   UNL     1     -11.514   8.326  72.918  1.00  0.00    -0.443 F  
HETATM   11  C   UNL     1      -9.729   8.782  71.292  1.00  0.00    -0.335 C  
ENDBRANCH   4   6
ENDBRANCH   1   2
BRANCH   1  12
HETATM   12  N   UNL     1      -9.491  11.467  66.665  1.00  0.00    -0.188 N  
HETATM   13  O   UNL     1      -7.427  10.873  67.507  1.00  0.00    -0.093 OA 
HETATM   14  C   UNL     1      -8.210  11.767  67.175  1.00  0.00    -0.169 C  
BRANCH  12  15
HETATM   15  C   UNL     1     -10.410  12.480  66.300  1.00  0.00    -0.250 A  
HETATM   16  C   UNL     1     -11.652  12.606  66.923  1.00  0.00    -0.373 A  
HETATM   17  C   UNL     1     -10.911  14.489  65.097  1.00  0.00    -0.379 A  
HETATM   18  N   UNL     1     -12.507  13.628  66.686  1.00  0.00    -0.318 NA 
HETATM   19  F   UNL     1     -10.561  15.438  64.222  1.00  0.00    -0.217 F  
HETATM   20  C   UNL     1     -10.042  13.448  65.371  1.00  0.00    -0.270 A  
HETATM   21  C   UNL     1     -12.117  14.547  65.769  1.00  0.00    -0.279 A  
ENDBRANCH  12  15
BRANCH  14  22
HETATM   22  C   UNL     1      -7.766  13.274  67.240  1.00  0.00    -0.088 C  
HETATM   23  C   UNL     1      -5.854  13.351  68.685  1.00  0.00    -0.084 C  
HETATM   24  C   UNL     1      -6.240  13.341  67.216  1.00  0.00     0.173 C  
HETATM   25  N   UNL     1      -8.091  14.024  68.454  1.00  0.00    -0.144 N  
HETATM   26  O   UNL     1      -6.897  14.596  70.438  1.00  0.00    -0.100 OA 
HETATM   27  C   UNL     1      -6.998  14.083  69.333  1.00  0.00    -0.050 C  
BRANCH  25  28
HETATM   28  C   UNL     1      -9.250  14.816  68.637  1.00  0.00    -0.194 A  
HETATM   29  N   UNL     1     -10.222  14.345  69.451  1.00  0.00    -0.058 NA 
HETATM   30  C   UNL     1     -11.320  15.083  69.710  1.00  0.00    -0.283 A  
HETATM   31  C   UNL     1     -11.526  16.333  69.178  1.00  0.00    -0.257 A  
HETATM   32  C   UNL     1     -10.539  16.829  68.334  1.00  0.00    -0.354 A  
HETATM   33  C   UNL     1      -9.389  16.071  68.061  1.00  0.00    -0.202 A  
HETATM   34  C   UNL     1     -10.697  18.126  67.746  1.00  0.00    -0.335 C  
HETATM   35  N   UNL     1     -10.815  19.173  67.262  1.00  0.00    -0.480 NA 
ENDBRANCH  25  28
ENDBRANCH  14  22
ENDBRANCH   1  12
BRANCH   1  36
HETATM   36  C   UNL     1      -9.203   9.412  65.237  1.00  0.00    -0.299 A  
HETATM   37  C   UNL     1      -8.970   9.481  62.768  1.00  0.00    -0.243 A  
HETATM   38  C   UNL     1      -8.167   8.359  62.780  1.00  0.00    -0.166 A  
HETATM   39 CL   UNL     1      -7.405   7.909  66.653  1.00  0.00    -0.087 Cl 
HETATM   40  C   UNL     1      -7.788   7.828  64.012  1.00  0.00    -0.127 A  
HETATM   41  C   UNL     1      -9.497   9.978  63.960  1.00  0.00    -0.299 A  
HETATM   42  C   UNL     1      -8.237   8.399  65.228  1.00  0.00    -0.151 A  
ENDBRANCH   1  36
TORSDOF 7
ENDMDL
MODEL       39
REMARK 921   NORMALIZED FREE ENERGY PREDICTED BY IDOCK:   -6.39 KCAL/MOL
REMARK 922        TOTAL FREE ENERGY PREDICTED BY IDOCK:  -10.46 KCAL/MOL
REMARK 923 INTER-LIGAND FREE ENERGY PREDICTED BY IDOCK:   -8.53 KCAL/MOL
REMARK 924 INTRA-LIGAND FREE ENERGY PREDICTED BY IDOCK:   -1.93 KCAL/MOL
REMARK 927      BINDING AFFINITY PREDICTED BY RF-SCORE:    0.00 PKD
ROOT
HETATM    1  C   UNL     1      -7.783   8.726  68.538  1.00  0.00    -0.099 C  
ENDROOT
BRANCH   1   2
HETATM    2  C   UNL     1      -7.476   7.533  67.502  1.00  0.00    -0.104 C  
HETATM    3  H   UNL     1      -9.389   6.775  67.454  1.00  0.00     0.000 HD 
HETATM    4  N   UNL     1      -8.455   6.655  67.061  1.00  0.00    -0.113 N  
HETATM    5  O   UNL     1      -6.314   7.323  67.156  1.00  0.00    -0.047 OA 
BRANCH   4   6
HETATM    6  C   UNL     1      -8.281   5.531  66.051  1.00  0.00    -0.114 C  
HETATM    7  C   UNL     1      -8.809   4.464  64.273  1.00  0.00    -0.149 C  
HETATM    8  F   UNL     1      -9.652   4.364  63.224  1.00  0.00    -0.147 F  
HETATM    9  C   UNL     1      -9.462   4.590  65.681  1.00  0.00    -0.174 C  
HETATM   10  F   UNL     1      -7.907   3.464  64.141  1.00  0.00    -0.076 F  
HETATM   11  C   UNL     1      -8.203   5.871  64.540  1.00  0.00    -0.110 C  
ENDBRANCH   4   6
ENDBRANCH   1   2
BRANCH   1  12
HETATM   12  N   UNL     1      -7.857  10.075  67.852  1.00  0.00    -0.090 N  
HETATM   13  O   UNL     1      -7.017  11.234  69.661  1.00  0.00    -0.122 OA 
HETATM   14  C   UNL     1      -7.427  11.253  68.498  1.00  0.00    -0.115 C  
BRANCH  12  15
HETATM   15  C   UNL     1      -8.350  10.082  66.526  1.00  0.00    -0.126 A  
HETATM   16  C   UNL     1      -9.713  10.192  66.249  1.00  0.00    -0.218 A  
HETATM   17  C   UNL     1      -7.954  10.193  64.167  1.00  0.00    -0.154 A  
HETATM   18  N   UNL     1     -10.214  10.321  64.997  1.00  0.00    -0.284 NA 
HETATM   19  F   UNL     1      -7.109  10.217  63.130  1.00  0.00    -0.130 F  
HETATM   20  C   UNL     1      -7.462  10.085  65.456  1.00  0.00    -0.137 A  
HETATM   21  C   UNL     1      -9.317  10.311  63.980  1.00  0.00    -0.289 A  
ENDBRANCH  12  15
BRANCH  14  22
HETATM   22  C   UNL     1      -7.407  12.592  67.672  1.00  0.00    -0.134 C  
HETATM   23  C   UNL     1      -6.393  14.241  69.086  1.00  0.00    -0.104 C  
HETATM   24  C   UNL     1      -6.083  13.310  67.927  1.00  0.00    -0.143 C  
HETATM   25  N   UNL     1      -8.389  13.618  68.021  1.00  0.00    -0.158 N  
HETATM   26  O   UNL     1      -8.348  15.586  69.369  1.00  0.00    -0.242 OA 
HETATM   27  C   UNL     1      -7.837  14.599  68.859  1.00  0.00    -0.148 C  
BRANCH  25  28
HETATM   28  C   UNL     1      -9.656  13.776  67.409  1.00  0.00    -0.229 A  
HETATM   29  N   UNL     1     -10.706  13.101  67.933  1.00  0.00    -0.231 NA 
HETATM   30  C   UNL     1     -11.946  13.260  67.428  1.00  0.00    -0.335 A  
HETATM   31  C   UNL     1     -12.225  14.096  66.373  1.00  0.00    -0.473 A  
HETATM   32  C   UNL     1     -11.157  14.792  65.821  1.00  0.00    -0.338 A  
HETATM   33  C   UNL     1      -9.862  14.637  66.340  1.00  0.00    -0.302 A  
HETATM   34  C   UNL     1     -11.384  15.676  64.717  1.00  0.00    -0.343 C  
HETATM   35  N   UNL     1     -11.555  16.394  63.822  1.00  0.00    -0.928 NA 
ENDBRANCH  25  28
ENDBRANCH  14  22
ENDBRANCH   1  12
BRANCH   1  36
HETATM   36  C   UNL     1      -8.757   8.676  69.745  1.00  0.00    -0.132 A  
HETATM   37  C   UNL     1     -11.131   8.909  70.427  1.00  0.00    -0.270 A  
HETATM   38  C   UNL     1     -10.787   8.843  71.762  1.00  0.00    -0.436 A  
HETATM   39 CL   UNL     1      -6.977   7.730  71.598  1.00  0.00    -0.060 Cl 
HETATM   40  C   UNL     1      -9.458   8.583  72.093  1.00  0.00    -0.375 A  
HETATM   41  C   UNL     1     -10.140   8.855  69.445  1.00  0.00    -0.202 A  
HETATM   42  C   UNL     1      -8.469   8.422  71.091  1.00  0.00    -0.149 A  
ENDBRANCH   1  36
TORSDOF 7
ENDMDL
MODEL       40
REMARK 921   NORMALIZED FREE ENERGY PREDICTED BY IDOCK:   -6.38 KCAL/MOL
REMARK 922        TOTAL FREE ENERGY PREDICTED BY IDOCK:  -10.45 KCAL/MOL
REMARK 923 INTER-LIGAND FREE ENERGY PREDICTED BY IDOCK:   -8.47 KCAL/MOL
REMARK 924 INTRA-LIGAND FREE ENERGY PREDICTED BY IDOCK:   -1.98 KCAL/MOL
REMARK 927      BINDING AFFINITY PREDICTED BY RF-SCORE:    0.00 PKD
ROOT
HETATM    1  C   UNL     1      -9.180  12.024  66.634  1.00  0.00    -0.211 C  
ENDROOT
BRANCH   1   2
HETATM    2  C   UNL     1      -8.460  13.183  67.488  1.00  0.00    -0.198 C  
HETATM    3  H   UNL     1      -9.131  14.757  66.345  1.00  0.00     0.000 HD 
HETATM    4  N   UNL     1      -8.584  14.529  67.175  1.00  0.00    -0.213 N  
HETATM    5  O   UNL     1      -7.692  12.870  68.397  1.00  0.00    -0.126 OA 
BRANCH   4   6
HETATM    6  C   UNL     1      -7.989  15.699  67.942  1.00  0.00    -0.142 C  
HETATM    7  C   UNL     1      -7.899  17.760  68.512  1.00  0.00    -0.290 C  
HETATM    8  F   UNL     1      -8.410  18.999  68.353  1.00  0.00    -0.321 F  
HETATM    9  C   UNL     1      -7.525  16.990  67.210  1.00  0.00    -0.190 C  
HETATM   10  F   UNL     1      -6.907  17.864  69.426  1.00  0.00    -0.253 F  
HETATM   11  C   UNL     1      -8.922  16.618  68.771  1.00  0.00    -0.253 C  
ENDBRANCH   4   6
ENDBRANCH   1   2
BRANCH   1  12
HETATM   12  N   UNL     1      -9.235  10.709  67.384  1.00  0.00    -0.143 N  
HETATM   13  O   UNL     1     -10.581  11.526  69.069  1.00  0.00    -0.210 OA 
HETATM   14  C   UNL     1      -9.982  10.569  68.572  1.00  0.00    -0.170 C  
BRANCH  12  15
HETATM   15  C   UNL     1      -8.524   9.627  66.812  1.00  0.00    -0.127 A  
HETATM   16  C   UNL     1      -7.131   9.625  66.727  1.00  0.00    -0.086 A  
HETATM   17  C   UNL     1      -8.489   7.393  65.949  1.00  0.00    -0.150 A  
HETATM   18  N   UNL     1      -6.410   8.564  66.296  1.00  0.00    -0.056 NA 
HETATM   19  F   UNL     1      -9.131   6.279  65.583  1.00  0.00    -0.161 F  
HETATM   20  C   UNL     1      -9.206   8.482  66.415  1.00  0.00    -0.251 A  
HETATM   21  C   UNL     1      -7.111   7.469  65.909  1.00  0.00    -0.065 A  
ENDBRANCH  12  15
BRANCH  14  22
HETATM   22  C   UNL     1     -10.100   9.139  69.216  1.00  0.00    -0.194 C  
HETATM   23  C   UNL     1     -10.946   9.467  71.436  1.00  0.00    -0.443 C  
HETATM   24  C   UNL     1     -11.387   9.072  70.037  1.00  0.00    -0.072 C  
HETATM   25  N   UNL     1      -9.086   8.750  70.196  1.00  0.00    -0.159 N  
HETATM   26  O   UNL     1      -8.974   8.750  72.579  1.00  0.00    -0.386 OA 
HETATM   27  C   UNL     1      -9.539   8.938  71.511  1.00  0.00    -0.292 C  
BRANCH  25  28
HETATM   28  C   UNL     1      -7.900   8.036  69.902  1.00  0.00    -0.102 A  
HETATM   29  N   UNL     1      -6.716   8.674  70.058  1.00  0.00    -0.038 NA 
HETATM   30  C   UNL     1      -5.553   8.024  69.851  1.00  0.00    -0.023 A  
HETATM   31  C   UNL     1      -5.488   6.704  69.474  1.00  0.00    -0.014 A  
HETATM   32  C   UNL     1      -6.695   6.037  69.303  1.00  0.00    -0.060 A  
HETATM   33  C   UNL     1      -7.913   6.702  69.520  1.00  0.00    -0.117 A  
HETATM   34  C   UNL     1      -6.693   4.660  68.909  1.00  0.00    -0.049 C  
HETATM   35  N   UNL     1      -6.704   3.546  68.587  1.00  0.00    -0.044 NA 
ENDBRANCH  25  28
ENDBRANCH  14  22
ENDBRANCH   1  12
BRANCH   1  36
HETATM   36  C   UNL     1     -10.427  12.183  65.725  1.00  0.00    -0.287 A  
HETATM   37  C   UNL     1     -11.425  11.540  63.546  1.00  0.00    -0.334 A  
HETATM   38  C   UNL     1     -12.477  12.413  63.734  1.00  0.00    -0.593 A  
HETATM   39 CL   UNL     1     -12.025  13.473  67.536  1.00  0.00    -0.398 Cl 
HETATM   40  C   UNL     1     -12.573  13.085  64.951  1.00  0.00    -0.490 A  
HETATM   41  C   UNL     1     -10.412  11.448  64.502  1.00  0.00    -0.381 A  
HETATM   42  C   UNL     1     -11.599  12.908  65.967  1.00  0.00    -0.375 A  
ENDBRANCH   1  36
TORSDOF 7
ENDMDL
MODEL       41
REMARK 921   NORMALIZED FREE ENERGY PREDICTED BY IDOCK:   -6.37 KCAL/MOL
REMARK 922        TOTAL FREE ENERGY PREDICTED BY IDOCK:  -10.43 KCAL/MOL
REMARK 923 INTER-LIGAND FREE ENERGY PREDICTED BY IDOCK:   -9.10 KCAL/MOL
REMARK 924 INTRA-LIGAND FREE ENERGY PREDICTED BY IDOCK:   -1.33 KCAL/MOL
REMARK 927      BINDING AFFINITY PREDICTED BY RF-SCORE:    0.00 PKD
ROOT
HETATM    1  C   UNL     1      -9.703   9.044  67.726  1.00  0.00    -0.156 C  
ENDROOT
BRANCH   1   2
HETATM    2  C   UNL     1     -10.802  10.195  67.487  1.00  0.00    -0.290 C  
HETATM    3  H   UNL     1      -9.686  11.301  66.157  1.00  0.00     0.000 HD 
HETATM    4  N   UNL     1     -10.594  11.258  66.619  1.00  0.00    -0.252 N  
HETATM    5  O   UNL     1     -11.829  10.195  68.164  1.00  0.00    -0.113 OA 
BRANCH   4   6
HETATM    6  C   UNL     1     -11.582  12.365  66.285  1.00  0.00    -0.393 C  
HETATM    7  C   UNL     1     -12.277  14.011  65.108  1.00  0.00    -0.436 C  
HETATM    8  F   UNL     1     -12.042  14.831  64.062  1.00  0.00    -0.454 F  
HETATM    9  C   UNL     1     -11.116  13.841  66.132  1.00  0.00    -0.296 C  
HETATM   10  F   UNL     1     -13.463  14.389  65.637  1.00  0.00    -0.431 F  
HETATM   11  C   UNL     1     -12.127  12.487  64.839  1.00  0.00    -0.499 C  
ENDBRANCH   4   6
ENDBRANCH   1   2
BRANCH   1  12
HETATM   12  N   UNL     1      -9.327   8.905  69.187  1.00  0.00    -0.148 N  
HETATM   13  O   UNL     1      -7.055   8.935  68.784  1.00  0.00    -0.065 OA 
HETATM   14  C   UNL     1      -7.978   8.886  69.602  1.00  0.00    -0.092 C  
BRANCH  12  15
HETATM   15  C   UNL     1     -10.397   8.828  70.109  1.00  0.00    -0.208 A  
HETATM   16  C   UNL     1     -10.844   9.947  70.813  1.00  0.00    -0.317 A  
HETATM   17  C   UNL     1     -12.210   7.604  71.084  1.00  0.00    -0.285 A  
HETATM   18  N   UNL     1     -11.936   9.940  71.613  1.00  0.00    -0.388 NA 
HETATM   19  F   UNL     1     -12.910   6.472  71.216  1.00  0.00    -0.333 F  
HETATM   20  C   UNL     1     -11.103   7.638  70.254  1.00  0.00    -0.256 A  
HETATM   21  C   UNL     1     -12.593   8.760  71.735  1.00  0.00    -0.356 A  
ENDBRANCH  12  15
BRANCH  14  22
HETATM   22  C   UNL     1      -7.672   8.879  71.144  1.00  0.00    -0.129 C  
HETATM   23  C   UNL     1      -5.328   8.416  71.363  1.00  0.00    -0.033 C  
HETATM   24  C   UNL     1      -6.326   9.561  71.384  1.00  0.00     0.022 C  
HETATM   25  N   UNL     1      -7.480   7.580  71.791  1.00  0.00    -0.078 N  
HETATM   26  O   UNL     1      -5.577   6.274  72.392  1.00  0.00    -0.034 OA 
HETATM   27  C   UNL     1      -6.119   7.267  71.928  1.00  0.00    -0.037 C  
BRANCH  25  28
HETATM   28  C   UNL     1      -8.495   6.834  72.437  1.00  0.00    -0.119 A  
HETATM   29  N   UNL     1      -9.250   7.458  73.370  1.00  0.00    -0.179 NA 
HETATM   30  C   UNL     1     -10.269   6.814  73.973  1.00  0.00    -0.369 A  
HETATM   31  C   UNL     1     -10.605   5.511  73.691  1.00  0.00    -0.316 A  
HETATM   32  C   UNL     1      -9.835   4.854  72.738  1.00  0.00    -0.192 A  
HETATM   33  C   UNL     1      -8.774   5.516  72.101  1.00  0.00    -0.130 A  
HETATM   34  C   UNL     1     -10.134   3.494  72.403  1.00  0.00    -0.162 C  
HETATM   35  N   UNL     1     -10.364   2.391  72.125  1.00  0.00    -0.106 NA 
ENDBRANCH  25  28
ENDBRANCH  14  22
ENDBRANCH   1  12
BRANCH   1  36
HETATM   36  C   UNL     1      -9.635   7.666  67.015  1.00  0.00    -0.228 A  
HETATM   37  C   UNL     1     -10.882   5.569  66.568  1.00  0.00    -0.237 A  
HETATM   38  C   UNL     1      -9.770   4.993  65.988  1.00  0.00    -0.194 A  
HETATM   39 CL   UNL     1      -7.301   8.086  65.648  1.00  0.00    -0.077 Cl 
HETATM   40  C   UNL     1      -8.630   5.777  65.817  1.00  0.00    -0.149 A  
HETATM   41  C   UNL     1     -10.809   6.859  67.093  1.00  0.00    -0.447 A  
HETATM   42  C   UNL     1      -8.593   7.125  66.254  1.00  0.00    -0.139 A  
ENDBRANCH   1  36
TORSDOF 7
ENDMDL
MODEL       42
REMARK 921   NORMALIZED FREE ENERGY PREDICTED BY IDOCK:   -6.32 KCAL/MOL
REMARK 922        TOTAL FREE ENERGY PREDICTED BY IDOCK:  -10.36 KCAL/MOL
REMARK 923 INTER-LIGAND FREE ENERGY PREDICTED BY IDOCK:   -8.94 KCAL/MOL
REMARK 924 INTRA-LIGAND FREE ENERGY PREDICTED BY IDOCK:   -1.42 KCAL/MOL
REMARK 927      BINDING AFFINITY PREDICTED BY RF-SCORE:    0.00 PKD
ROOT
HETATM    1  C   UNL     1      -9.456  11.363  67.932  1.00  0.00    -0.174 C  
ENDROOT
BRANCH   1   2
HETATM    2  C   UNL     1      -8.898  10.673  66.590  1.00  0.00    -0.141 C  
HETATM    3  H   UNL     1     -10.115   9.015  66.663  1.00  0.00     0.000 HD 
HETATM    4  N   UNL     1      -9.394   9.471  66.105  1.00  0.00    -0.181 N  
HETATM    5  O   UNL     1      -7.931  11.171  66.015  1.00  0.00    -0.134 OA 
BRANCH   4   6
HETATM    6  C   UNL     1      -8.973   8.763  64.826  1.00  0.00     0.037 C  
HETATM    7  C   UNL     1      -7.740   8.527  63.093  1.00  0.00    -0.133 C  
HETATM    8  F   UNL     1      -6.722   9.018  62.356  1.00  0.00    -0.096 F  
HETATM    9  C   UNL     1      -8.867   9.530  63.478  1.00  0.00    -0.235 C  
HETATM   10  F   UNL     1      -8.158   7.398  62.475  1.00  0.00    -0.123 F  
HETATM   11  C   UNL     1      -7.483   8.388  64.621  1.00  0.00    -0.098 C  
ENDBRANCH   4   6
ENDBRANCH   1   2
BRANCH   1  12
HETATM   12  N   UNL     1     -10.073  12.720  67.665  1.00  0.00    -0.216 N  
HETATM   13  O   UNL     1     -11.386  11.974  65.921  1.00  0.00    -0.330 OA 
HETATM   14  C   UNL     1     -11.041  12.904  66.655  1.00  0.00    -0.284 C  
BRANCH  12  15
HETATM   15  C   UNL     1      -9.649  13.781  68.501  1.00  0.00    -0.176 A  
HETATM   16  C   UNL     1      -8.328  14.229  68.507  1.00  0.00    -0.156 A  
HETATM   17  C   UNL     1     -10.170  15.573  70.002  1.00  0.00    -0.273 A  
HETATM   18  N   UNL     1      -7.910  15.313  69.203  1.00  0.00    -0.188 NA 
HETATM   19  F   UNL     1     -11.059  16.261  70.726  1.00  0.00    -0.339 F  
HETATM   20  C   UNL     1     -10.581  14.475  69.266  1.00  0.00    -0.224 A  
HETATM   21  C   UNL     1      -8.845  15.958  69.943  1.00  0.00     0.364 A  
ENDBRANCH  12  15
BRANCH  14  22
HETATM   22  C   UNL     1     -11.733  14.311  66.531  1.00  0.00    -0.394 C  
HETATM   23  C   UNL     1     -12.734  14.380  64.353  1.00  0.00    -0.016 C  
HETATM   24  C   UNL     1     -13.071  14.142  65.814  1.00  0.00    -0.053 C  
HETATM   25  N   UNL     1     -11.068  15.324  65.711  1.00  0.00    -0.328 N  
HETATM   26  O   UNL     1     -11.316  16.086  63.464  1.00  0.00    -0.152 OA 
HETATM   27  C   UNL     1     -11.619  15.388  64.422  1.00  0.00    -0.264 C  
BRANCH  25  28
HETATM   28  C   UNL     1     -10.166  16.301  66.196  1.00  0.00    -0.346 A  
HETATM   29  N   UNL     1      -8.871  16.221  65.812  1.00  0.00    -0.391 NA 
HETATM   30  C   UNL     1      -7.981  17.158  66.195  1.00  0.00    -0.262 A  
HETATM   31  C   UNL     1      -8.317  18.234  66.982  1.00  0.00    -0.256 A  
HETATM   32  C   UNL     1      -9.642  18.328  67.389  1.00  0.00    -0.284 A  
HETATM   33  C   UNL     1     -10.579  17.360  66.994  1.00  0.00    -0.238 A  
HETATM   34  C   UNL     1     -10.053  19.426  68.212  1.00  0.00    -0.433 C  
HETATM   35  N   UNL     1     -10.397  20.309  68.882  1.00  0.00    -0.183 NA 
ENDBRANCH  25  28
ENDBRANCH  14  22
ENDBRANCH   1  12
BRANCH   1  36
HETATM   36  C   UNL     1     -10.189  10.654  69.102  1.00  0.00    -0.238 A  
HETATM   37  C   UNL     1     -12.338  10.502  70.332  1.00  0.00    -0.409 A  
HETATM   38  C   UNL     1     -11.771   9.683  71.287  1.00  0.00    -0.458 A  
HETATM   39 CL   UNL     1      -8.261   8.791  69.654  1.00  0.00    -0.110 Cl 
HETATM   40  C   UNL     1     -10.456   9.257  71.100  1.00  0.00    -0.401 A  
HETATM   41  C   UNL     1     -11.563  10.997  69.283  1.00  0.00    -0.384 A  
HETATM   42  C   UNL     1      -9.702   9.675  69.975  1.00  0.00    -0.241 A  
ENDBRANCH   1  36
TORSDOF 7
ENDMDL
MODEL       43
REMARK 921   NORMALIZED FREE ENERGY PREDICTED BY IDOCK:   -6.30 KCAL/MOL
REMARK 922        TOTAL FREE ENERGY PREDICTED BY IDOCK:  -10.34 KCAL/MOL
REMARK 923 INTER-LIGAND FREE ENERGY PREDICTED BY IDOCK:   -8.48 KCAL/MOL
REMARK 924 INTRA-LIGAND FREE ENERGY PREDICTED BY IDOCK:   -1.86 KCAL/MOL
REMARK 927      BINDING AFFINITY PREDICTED BY RF-SCORE:    0.00 PKD
ROOT
HETATM    1  C   UNL     1      -7.273  12.269  68.796  1.00  0.00    -0.098 C  
ENDROOT
BRANCH   1   2
HETATM    2  C   UNL     1      -6.680  13.597  68.106  1.00  0.00    -0.122 C  
HETATM    3  H   UNL     1      -8.481  14.569  67.897  1.00  0.00     0.000 HD 
HETATM    4  N   UNL     1      -7.479  14.671  67.741  1.00  0.00    -0.149 N  
HETATM    5  O   UNL     1      -5.489  13.633  67.800  1.00  0.00    -0.202 OA 
BRANCH   4   6
HETATM    6  C   UNL     1      -7.013  15.985  67.132  1.00  0.00    -0.207 C  
HETATM    7  C   UNL     1      -6.933  18.121  67.037  1.00  0.00    -0.194 C  
HETATM    8  F   UNL     1      -7.359  19.292  67.555  1.00  0.00    -0.235 F  
HETATM    9  C   UNL     1      -8.032  17.073  66.690  1.00  0.00    -0.302 C  
HETATM   10  F   UNL     1      -6.090  18.429  66.025  1.00  0.00    -0.175 F  
HETATM   11  C   UNL     1      -6.396  17.071  68.050  1.00  0.00    -0.147 C  
ENDBRANCH   4   6
ENDBRANCH   1   2
BRANCH   1  12
HETATM   12  N   UNL     1      -8.405  11.663  67.992  1.00  0.00    -0.141 N  
HETATM   13  O   UNL     1      -7.092  11.223  66.147  1.00  0.00    -0.060 OA 
HETATM   14  C   UNL     1      -8.196  11.152  66.693  1.00  0.00    -0.158 C  
BRANCH  12  15
HETATM   15  C   UNL     1      -9.670  11.610  68.625  1.00  0.00    -0.143 A  
HETATM   16  C   UNL     1     -10.085  10.488  69.344  1.00  0.00    -0.209 A  
HETATM   17  C   UNL     1     -11.679  12.700  69.338  1.00  0.00    -0.325 A  
HETATM   18  N   UNL     1     -11.234  10.443  70.060  1.00  0.00    -0.295 NA 
HETATM   19  F   UNL     1     -12.467  13.780  69.368  1.00  0.00    -0.362 F  
HETATM   20  C   UNL     1     -10.490  12.733  68.631  1.00  0.00    -0.230 A  
HETATM   21  C   UNL     1     -12.011  11.554  70.034  1.00  0.00    -0.357 A  
ENDBRANCH  12  15
BRANCH  14  22
HETATM   22  C   UNL     1      -9.388  10.416  65.980  1.00  0.00    -0.178 C  
HETATM   23  C   UNL     1      -8.398   8.832  64.475  1.00  0.00    -0.171 C  
HETATM   24  C   UNL     1      -9.044   8.933  65.846  1.00  0.00    -0.271 C  
HETATM   25  N   UNL     1      -9.686  10.791  64.597  1.00  0.00    -0.262 N  
HETATM   26  O   UNL     1      -9.126   9.891  62.460  1.00  0.00    -0.250 OA 
HETATM   27  C   UNL     1      -9.114   9.893  63.683  1.00  0.00    -0.259 C  
BRANCH  25  28
HETATM   28  C   UNL     1     -10.633  11.767  64.204  1.00  0.00    -0.353 A  
HETATM   29  N   UNL     1     -11.801  11.344  63.668  1.00  0.00    -0.122 NA 
HETATM   30  C   UNL     1     -12.763  12.226  63.332  1.00  0.00    -0.336 A  
HETATM   31  C   UNL     1     -12.629  13.584  63.504  1.00  0.00    -0.063 A  
HETATM   32  C   UNL     1     -11.433  14.035  64.048  1.00  0.00    -0.119 A  
HETATM   33  C   UNL     1     -10.425  13.125  64.406  1.00  0.00    -0.427 A  
HETATM   34  C   UNL     1     -11.233  15.439  64.250  1.00  0.00    -0.056 C  
HETATM   35  N   UNL     1     -11.058  16.574  64.416  1.00  0.00    -0.933 NA 
ENDBRANCH  25  28
ENDBRANCH  14  22
ENDBRANCH   1  12
BRANCH   1  36
HETATM   36  C   UNL     1      -6.464  11.159  69.516  1.00  0.00    -0.117 A  
HETATM   37  C   UNL     1      -5.852   8.755  69.458  1.00  0.00    -0.033 A  
HETATM   38  C   UNL     1      -5.241   8.847  70.692  1.00  0.00    -0.020 A  
HETATM   39 CL   UNL     1      -5.152  12.772  71.296  1.00  0.00    -0.154 Cl 
HETATM   40  C   UNL     1      -5.139  10.102  71.289  1.00  0.00    -0.073 A  
HETATM   41  C   UNL     1      -6.471   9.872  68.897  1.00  0.00    -0.045 A  
HETATM   42  C   UNL     1      -5.674  11.258  70.667  1.00  0.00    -0.123 A  
ENDBRANCH   1  36
TORSDOF 7
ENDMDL
MODEL       44
REMARK 921   NORMALIZED FREE ENERGY PREDICTED BY IDOCK:   -6.30 KCAL/MOL
REMARK 922        TOTAL FREE ENERGY PREDICTED BY IDOCK:  -10.33 KCAL/MOL
REMARK 923 INTER-LIGAND FREE ENERGY PREDICTED BY IDOCK:   -8.14 KCAL/MOL
REMARK 924 INTRA-LIGAND FREE ENERGY PREDICTED BY IDOCK:   -2.19 KCAL/MOL
REMARK 927      BINDING AFFINITY PREDICTED BY RF-SCORE:    0.00 PKD
ROOT
HETATM    1  C   UNL     1     -10.270  11.794  67.748  1.00  0.00    -0.191 C  
ENDROOT
BRANCH   1   2
HETATM    2  C   UNL     1     -11.192  10.863  68.682  1.00  0.00    -0.267 C  
HETATM    3  H   UNL     1      -9.688   9.601  69.300  1.00  0.00     0.000 HD 
HETATM    4  N   UNL     1     -10.683   9.797  69.411  1.00  0.00    -0.220 N  
HETATM    5  O   UNL     1     -12.410  11.033  68.684  1.00  0.00    -0.539 OA 
BRANCH   4   6
HETATM    6  C   UNL     1     -11.455   8.890  70.356  1.00  0.00    -0.157 C  
HETATM    7  C   UNL     1     -11.593   7.357  71.843  1.00  0.00    -0.272 C  
HETATM    8  F   UNL     1     -10.933   6.457  72.602  1.00  0.00    -0.231 F  
HETATM    9  C   UNL     1     -11.276   7.347  70.318  1.00  0.00    -0.268 C  
HETATM   10  F   UNL     1     -12.903   7.247  72.161  1.00  0.00    -0.301 F  
HETATM   11  C   UNL     1     -11.031   8.807  71.845  1.00  0.00    -0.435 C  
ENDBRANCH   4   6
ENDBRANCH   1   2
BRANCH   1  12
HETATM   12  N   UNL     1      -9.023  11.075  67.274  1.00  0.00    -0.138 N  
HETATM   13  O   UNL     1     -10.182   9.528  66.017  1.00  0.00    -0.272 OA 
HETATM   14  C   UNL     1      -9.097   9.974  66.395  1.00  0.00    -0.149 C  
BRANCH  12  15
HETATM   15  C   UNL     1      -7.786  11.587  67.736  1.00  0.00    -0.126 A  
HETATM   16  C   UNL     1      -7.022  12.466  66.967  1.00  0.00    -0.001 A  
HETATM   17  C   UNL     1      -6.196  11.889  69.500  1.00  0.00    -0.117 A  
HETATM   18  N   UNL     1      -5.896  13.067  67.418  1.00  0.00    -0.325 NA 
HETATM   19  F   UNL     1      -5.782  11.639  70.747  1.00  0.00    -0.134 F  
HETATM   20  C   UNL     1      -7.357  11.302  69.027  1.00  0.00    -0.115 A  
HETATM   21  C   UNL     1      -5.504  12.758  68.679  1.00  0.00    -0.063 A  
ENDBRANCH  12  15
BRANCH  14  22
HETATM   22  C   UNL     1      -7.754   9.370  65.841  1.00  0.00    -0.099 C  
HETATM   23  C   UNL     1      -8.177   8.770  63.558  1.00  0.00    -0.164 C  
HETATM   24  C   UNL     1      -7.546   9.859  64.409  1.00  0.00    -0.143 C  
HETATM   25  N   UNL     1      -7.678   7.917  65.687  1.00  0.00    -0.091 N  
HETATM   26  O   UNL     1      -7.976   6.409  63.864  1.00  0.00    -0.114 OA 
HETATM   27  C   UNL     1      -7.931   7.524  64.364  1.00  0.00    -0.117 C  
BRANCH  25  28
HETATM   28  C   UNL     1      -7.166   7.021  66.657  1.00  0.00    -0.083 A  
HETATM   29  N   UNL     1      -6.046   6.326  66.355  1.00  0.00    -0.032 NA 
HETATM   30  C   UNL     1      -5.481   5.504  67.262  1.00  0.00    -0.012 A  
HETATM   31  C   UNL     1      -5.991   5.318  68.525  1.00  0.00    -0.021 A  
HETATM   32  C   UNL     1      -7.145   6.021  68.849  1.00  0.00    -0.081 A  
HETATM   33  C   UNL     1      -7.740   6.883  67.914  1.00  0.00    -0.112 A  
HETATM   34  C   UNL     1      -7.725   5.867  70.149  1.00  0.00    -0.095 C  
HETATM   35  N   UNL     1      -8.206   5.750  71.199  1.00  0.00    -0.120 NA 
ENDBRANCH  25  28
ENDBRANCH  14  22
ENDBRANCH   1  12
BRANCH   1  36
HETATM   36  C   UNL     1     -10.758  12.800  66.672  1.00  0.00    -0.279 A  
HETATM   37  C   UNL     1     -12.370  13.135  64.816  1.00  0.00    -0.477 A  
HETATM   38  C   UNL     1     -11.771  14.329  64.469  1.00  0.00    -0.431 A  
HETATM   39 CL   UNL     1      -9.324  14.967  67.533  1.00  0.00    -0.190 Cl 
HETATM   40  C   UNL     1     -10.746  14.817  65.278  1.00  0.00    -0.406 A  
HETATM   41  C   UNL     1     -11.861  12.377  65.871  1.00  0.00    -0.467 A  
HETATM   42  C   UNL     1     -10.301  14.097  66.414  1.00  0.00    -0.287 A  
ENDBRANCH   1  36
TORSDOF 7
ENDMDL
MODEL       45
REMARK 921   NORMALIZED FREE ENERGY PREDICTED BY IDOCK:   -6.28 KCAL/MOL
REMARK 922        TOTAL FREE ENERGY PREDICTED BY IDOCK:  -10.31 KCAL/MOL
REMARK 923 INTER-LIGAND FREE ENERGY PREDICTED BY IDOCK:   -8.28 KCAL/MOL
REMARK 924 INTRA-LIGAND FREE ENERGY PREDICTED BY IDOCK:   -2.03 KCAL/MOL
REMARK 927      BINDING AFFINITY PREDICTED BY RF-SCORE:    0.00 PKD
ROOT
HETATM    1  C   UNL     1     -10.797   9.308  69.460  1.00  0.00    -0.195 C  
ENDROOT
BRANCH   1   2
HETATM    2  C   UNL     1     -11.256  10.841  69.625  1.00  0.00    -0.291 C  
HETATM    3  H   UNL     1     -10.289  11.549  67.952  1.00  0.00     0.000 HD 
HETATM    4  N   UNL     1     -10.898  11.831  68.720  1.00  0.00    -0.219 N  
HETATM    5  O   UNL     1     -11.869  11.179  70.636  1.00  0.00    -0.335 OA 
BRANCH   4   6
HETATM    6  C   UNL     1     -11.318  13.292  68.757  1.00  0.00    -0.290 C  
HETATM    7  C   UNL     1     -11.353  15.288  67.986  1.00  0.00    -0.338 C  
HETATM    8  F   UNL     1     -10.920  16.137  67.031  1.00  0.00    -0.320 F  
HETATM    9  C   UNL     1     -10.265  14.435  68.703  1.00  0.00    -0.245 C  
HETATM   10  F   UNL     1     -12.159  16.003  68.805  1.00  0.00    -0.390 F  
HETATM   11  C   UNL     1     -11.942  13.936  67.493  1.00  0.00    -0.421 C  
ENDBRANCH   4   6
ENDBRANCH   1   2
BRANCH   1  12
HETATM   12  N   UNL     1      -9.554   9.171  68.603  1.00  0.00    -0.150 N  
HETATM   13  O   UNL     1     -10.727   8.986  66.626  1.00  0.00    -0.159 OA 
HETATM   14  C   UNL     1      -9.637   9.040  67.201  1.00  0.00    -0.167 C  
BRANCH  12  15
HETATM   15  C   UNL     1      -8.313   9.212  69.282  1.00  0.00    -0.123 A  
HETATM   16  C   UNL     1      -7.788  10.405  69.781  1.00  0.00    -0.095 A  
HETATM   17  C   UNL     1      -6.474   8.076  70.313  1.00  0.00    -0.037 A  
HETATM   18  N   UNL     1      -6.665  10.469  70.535  1.00  0.00    -0.325 NA 
HETATM   19  F   UNL     1      -5.824   6.945  70.605  1.00  0.00    -0.025 F  
HETATM   20  C   UNL     1      -7.636   8.030  69.562  1.00  0.00    -0.101 A  
HETATM   21  C   UNL     1      -6.028   9.297  70.779  1.00  0.00    -0.054 A  
ENDBRANCH  12  15
BRANCH  14  22
HETATM   22  C   UNL     1      -8.301   9.041  66.371  1.00  0.00    -0.115 C  
HETATM   23  C   UNL     1      -8.707  10.407  64.443  1.00  0.00    -0.209 C  
HETATM   24  C   UNL     1      -8.064  10.445  65.818  1.00  0.00    -0.155 C  
HETATM   25  N   UNL     1      -8.254   8.219  65.162  1.00  0.00    -0.148 N  
HETATM   26  O   UNL     1      -8.561   8.646  62.835  1.00  0.00    -0.166 OA 
HETATM   27  C   UNL     1      -8.498   8.982  64.009  1.00  0.00    -0.163 C  
BRANCH  25  28
HETATM   28  C   UNL     1      -7.775   6.888  65.099  1.00  0.00    -0.109 A  
HETATM   29  N   UNL     1      -6.584   6.667  64.497  1.00  0.00    -0.041 NA 
HETATM   30  C   UNL     1      -6.051   5.429  64.462  1.00  0.00    -0.022 A  
HETATM   31  C   UNL     1      -6.664   4.332  65.018  1.00  0.00    -0.048 A  
HETATM   32  C   UNL     1      -7.892   4.542  65.636  1.00  0.00    -0.094 A  
HETATM   33  C   UNL     1      -8.454   5.828  65.682  1.00  0.00    -0.149 A  
HETATM   34  C   UNL     1      -8.581   3.438  66.232  1.00  0.00    -0.119 C  
HETATM   35  N   UNL     1      -9.151   2.551  66.717  1.00  0.00    -0.138 NA 
ENDBRANCH  25  28
ENDBRANCH  14  22
ENDBRANCH   1  12
BRANCH   1  36
HETATM   36  C   UNL     1     -10.825   8.210  70.556  1.00  0.00    -0.247 A  
HETATM   37  C   UNL     1     -10.849   7.810  73.004  1.00  0.00    -0.451 A  
HETATM   38  C   UNL     1     -10.686   6.453  72.817  1.00  0.00    -0.267 A  
HETATM   39 CL   UNL     1     -11.248   6.069  68.903  1.00  0.00    -0.362 Cl 
HETATM   40  C   UNL     1     -10.704   5.956  71.515  1.00  0.00    -0.313 A  
HETATM   41  C   UNL     1     -10.889   8.669  71.905  1.00  0.00    -0.419 A  
HETATM   42  C   UNL     1     -10.853   6.819  70.401  1.00  0.00    -0.262 A  
ENDBRANCH   1  36
TORSDOF 7
ENDMDL
MODEL       46
REMARK 921   NORMALIZED FREE ENERGY PREDICTED BY IDOCK:   -6.27 KCAL/MOL
REMARK 922        TOTAL FREE ENERGY PREDICTED BY IDOCK:  -10.29 KCAL/MOL
REMARK 923 INTER-LIGAND FREE ENERGY PREDICTED BY IDOCK:   -9.32 KCAL/MOL
REMARK 924 INTRA-LIGAND FREE ENERGY PREDICTED BY IDOCK:   -0.97 KCAL/MOL
REMARK 927      BINDING AFFINITY PREDICTED BY RF-SCORE:    0.00 PKD
ROOT
HETATM    1  C   UNL     1     -11.407   7.737  71.351  1.00  0.00    -0.251 C  
ENDROOT
BRANCH   1   2
HETATM    2  C   UNL     1     -12.166   9.131  71.614  1.00  0.00    -0.361 C  
HETATM    3  H   UNL     1     -11.586  10.039  69.861  1.00  0.00     0.000 HD 
HETATM    4  N   UNL     1     -12.144  10.178  70.703  1.00  0.00    -0.304 N  
HETATM    5  O   UNL     1     -12.712   9.323  72.699  1.00  0.00    -0.303 OA 
BRANCH   4   6
HETATM    6  C   UNL     1     -12.866  11.511  70.831  1.00  0.00    -0.201 C  
HETATM    7  C   UNL     1     -12.943  13.605  71.264  1.00  0.00    -0.322 C  
HETATM    8  F   UNL     1     -12.269  14.698  71.678  1.00  0.00    -0.342 F  
HETATM    9  C   UNL     1     -12.813  12.331  72.151  1.00  0.00    -0.152 C  
HETATM   10  F   UNL     1     -14.210  14.004  71.009  1.00  0.00    -0.209 F  
HETATM   11  C   UNL     1     -12.273  12.765  70.139  1.00  0.00    -0.320 C  
ENDBRANCH   4   6
ENDBRANCH   1   2
BRANCH   1  12
HETATM   12  N   UNL     1     -10.344   7.856  70.278  1.00  0.00    -0.208 N  
HETATM   13  O   UNL     1      -9.187   9.529  71.364  1.00  0.00    -0.224 OA 
HETATM   14  C   UNL     1      -9.272   8.765  70.400  1.00  0.00    -0.180 C  
BRANCH  12  15
HETATM   15  C   UNL     1     -10.470   6.987  69.167  1.00  0.00    -0.207 A  
HETATM   16  C   UNL     1     -10.996   7.422  67.950  1.00  0.00     0.005 A  
HETATM   17  C   UNL     1     -10.005   4.888  68.114  1.00  0.00    -0.108 A  
HETATM   18  N   UNL     1     -11.025   6.657  66.833  1.00  0.00    -0.381 NA 
HETATM   19  F   UNL     1      -9.505   3.649  68.164  1.00  0.00    -0.191 F  
HETATM   20  C   UNL     1      -9.965   5.693  69.239  1.00  0.00    -0.251 A  
HETATM   21  C   UNL     1     -10.532   5.399  66.944  1.00  0.00    -0.277 A  
ENDBRANCH  12  15
BRANCH  14  22
HETATM   22  C   UNL     1      -8.138   8.732  69.311  1.00  0.00    -0.110 C  
HETATM   23  C   UNL     1      -6.378  10.142  70.128  1.00  0.00    -0.107 C  
HETATM   24  C   UNL     1      -6.781   8.682  70.012  1.00  0.00    -0.039 C  
HETATM   25  N   UNL     1      -7.996   9.902  68.444  1.00  0.00    -0.095 N  
HETATM   26  O   UNL     1      -6.592  11.831  68.450  1.00  0.00    -0.051 OA 
HETATM   27  C   UNL     1      -6.981  10.760  68.895  1.00  0.00    -0.077 C  
BRANCH  25  28
HETATM   28  C   UNL     1      -8.602  10.053  67.173  1.00  0.00    -0.128 A  
HETATM   29  N   UNL     1      -8.133   9.303  66.150  1.00  0.00    -0.109 NA 
HETATM   30  C   UNL     1      -8.712   9.361  64.933  1.00  0.00    -0.190 A  
HETATM   31  C   UNL     1      -9.790  10.166  64.653  1.00  0.00    -0.361 A  
HETATM   32  C   UNL     1     -10.280  10.947  65.693  1.00  0.00    -0.323 A  
HETATM   33  C   UNL     1      -9.688  10.892  66.965  1.00  0.00    -0.203 A  
HETATM   34  C   UNL     1     -11.401  11.809  65.463  1.00  0.00    -0.223 C  
HETATM   35  N   UNL     1     -12.306  12.512  65.288  1.00  0.00    -0.612 NA 
ENDBRANCH  25  28
ENDBRANCH  14  22
ENDBRANCH   1  12
BRANCH   1  36
HETATM   36  C   UNL     1     -10.981   6.699  72.423  1.00  0.00    -0.277 A  
HETATM   37  C   UNL     1     -11.248   4.345  73.162  1.00  0.00    -0.309 A  
HETATM   38  C   UNL     1     -10.553   4.598  74.327  1.00  0.00    -0.328 A  
HETATM   39 CL   UNL     1      -9.062   8.217  73.649  1.00  0.00    -0.241 Cl 
HETATM   40  C   UNL     1      -9.977   5.856  74.496  1.00  0.00    -0.301 A  
HETATM   41  C   UNL     1     -11.481   5.373  72.248  1.00  0.00    -0.157 A  
HETATM   42  C   UNL     1     -10.123   6.869  73.515  1.00  0.00    -0.292 A  
ENDBRANCH   1  36
TORSDOF 7
ENDMDL
MODEL       47
REMARK 921   NORMALIZED FREE ENERGY PREDICTED BY IDOCK:   -6.22 KCAL/MOL
REMARK 922        TOTAL FREE ENERGY PREDICTED BY IDOCK:  -10.23 KCAL/MOL
REMARK 923 INTER-LIGAND FREE ENERGY PREDICTED BY IDOCK:   -8.34 KCAL/MOL
REMARK 924 INTRA-LIGAND FREE ENERGY PREDICTED BY IDOCK:   -1.89 KCAL/MOL
REMARK 927      BINDING AFFINITY PREDICTED BY RF-SCORE:    0.00 PKD
ROOT
HETATM    1  C   UNL     1      -9.246   9.727  67.883  1.00  0.00    -0.124 C  
ENDROOT
BRANCH   1   2
HETATM    2  C   UNL     1     -10.370  10.628  67.165  1.00  0.00    -0.228 C  
HETATM    3  H   UNL     1      -9.066  11.841  66.135  1.00  0.00     0.000 HD 
HETATM    4  N   UNL     1     -10.057  11.653  66.284  1.00  0.00    -0.215 N  
HETATM    5  O   UNL     1     -11.551  10.473  67.473  1.00  0.00    -0.421 OA 
BRANCH   4   6
HETATM    6  C   UNL     1     -11.039  12.526  65.518  1.00  0.00    -0.301 C  
HETATM    7  C   UNL     1     -11.677  14.379  64.660  1.00  0.00    -0.430 C  
HETATM    8  F   UNL     1     -11.409  15.688  64.470  1.00  0.00    -0.408 F  
HETATM    9  C   UNL     1     -11.577  13.853  66.122  1.00  0.00    -0.371 C  
HETATM   10  F   UNL     1     -12.851  14.130  64.035  1.00  0.00    -0.236 F  
HETATM   11  C   UNL     1     -10.529  13.384  64.332  1.00  0.00    -0.403 C  
ENDBRANCH   4   6
ENDBRANCH   1   2
BRANCH   1  12
HETATM   12  N   UNL     1      -9.845   8.560  68.642  1.00  0.00    -0.165 N  
HETATM   13  O   UNL     1     -10.362   9.813  70.508  1.00  0.00    -0.278 OA 
HETATM   14  C   UNL     1     -10.392   8.723  69.932  1.00  0.00    -0.206 C  
BRANCH  12  15
HETATM   15  C   UNL     1      -9.852   7.312  67.975  1.00  0.00    -0.145 A  
HETATM   16  C   UNL     1     -10.917   6.917  67.165  1.00  0.00    -0.357 A  
HETATM   17  C   UNL     1      -8.714   5.318  67.294  1.00  0.00    -0.107 A  
HETATM   18  N   UNL     1     -10.911   5.788  66.419  1.00  0.00    -0.169 NA 
HETATM   19  F   UNL     1      -7.635   4.528  67.324  1.00  0.00    -0.080 F  
HETATM   20  C   UNL     1      -8.732   6.489  68.032  1.00  0.00    -0.116 A  
HETATM   21  C   UNL     1      -9.805   5.007  66.507  1.00  0.00    -0.199 A  
ENDBRANCH  12  15
BRANCH  14  22
HETATM   22  C   UNL     1     -11.117   7.496  70.596  1.00  0.00    -0.265 C  
HETATM   23  C   UNL     1     -11.958   8.269  72.704  1.00  0.00    -0.360 C  
HETATM   24  C   UNL     1     -12.394   7.985  71.277  1.00  0.00    -0.290 C  
HETATM   25  N   UNL     1     -10.426   6.809  71.687  1.00  0.00    -0.208 N  
HETATM   26  O   UNL     1     -10.532   6.920  74.068  1.00  0.00    -0.374 OA 
HETATM   27  C   UNL     1     -10.883   7.243  72.942  1.00  0.00    -0.337 C  
BRANCH  25  28
HETATM   28  C   UNL     1      -9.593   5.674  71.539  1.00  0.00    -0.152 A  
HETATM   29  N   UNL     1      -8.502   5.575  72.333  1.00  0.00    -0.118 NA 
HETATM   30  C   UNL     1      -7.708   4.488  72.277  1.00  0.00    -0.091 A  
HETATM   31  C   UNL     1      -7.942   3.431  71.430  1.00  0.00    -0.060 A  
HETATM   32  C   UNL     1      -9.055   3.520  70.604  1.00  0.00    -0.186 A  
HETATM   33  C   UNL     1      -9.892   4.646  70.656  1.00  0.00    -0.296 A  
HETATM   34  C   UNL     1      -9.351   2.451  69.697  1.00  0.00    -0.097 C  
HETATM   35  N   UNL     1      -9.599   1.593  68.957  1.00  0.00    -0.103 NA 
ENDBRANCH  25  28
ENDBRANCH  14  22
ENDBRANCH   1  12
BRANCH   1  36
HETATM   36  C   UNL     1      -7.858   9.344  67.306  1.00  0.00    -0.099 A  
HETATM   37  C   UNL     1      -6.637   8.747  65.230  1.00  0.00    -0.067 A  
HETATM   38  C   UNL     1      -5.501   8.438  65.949  1.00  0.00    -0.031 A  
HETATM   39 CL   UNL     1      -6.388   9.824  69.565  1.00  0.00    -0.044 Cl 
HETATM   40  C   UNL     1      -5.496   8.683  67.321  1.00  0.00    -0.038 A  
HETATM   41  C   UNL     1      -7.794   9.162  65.892  1.00  0.00    -0.105 A  
HETATM   42  C   UNL     1      -6.638   9.208  67.977  1.00  0.00    -0.060 A  
ENDBRANCH   1  36
TORSDOF 7
ENDMDL
MODEL       48
REMARK 921   NORMALIZED FREE ENERGY PREDICTED BY IDOCK:   -6.21 KCAL/MOL
REMARK 922        TOTAL FREE ENERGY PREDICTED BY IDOCK:  -10.21 KCAL/MOL
REMARK 923 INTER-LIGAND FREE ENERGY PREDICTED BY IDOCK:   -8.64 KCAL/MOL
REMARK 924 INTRA-LIGAND FREE ENERGY PREDICTED BY IDOCK:   -1.58 KCAL/MOL
REMARK 927      BINDING AFFINITY PREDICTED BY RF-SCORE:    0.00 PKD
ROOT
HETATM    1  C   UNL     1      -8.892  11.793  68.286  1.00  0.00    -0.172 C  
ENDROOT
BRANCH   1   2
HETATM    2  C   UNL     1      -9.960  12.076  67.116  1.00  0.00    -0.195 C  
HETATM    3  H   UNL     1      -8.802  13.418  66.071  1.00  0.00     0.000 HD 
HETATM    4  N   UNL     1      -9.700  12.936  66.058  1.00  0.00    -0.254 N  
HETATM    5  O   UNL     1     -11.088  11.592  67.202  1.00  0.00    -0.266 OA 
BRANCH   4   6
HETATM    6  C   UNL     1     -10.617  13.232  64.881  1.00  0.00    -0.366 C  
HETATM    7  C   UNL     1     -12.182  12.737  63.509  1.00  0.00    -0.525 C  
HETATM    8  F   UNL     1     -13.070  11.808  63.096  1.00  0.00    -0.670 F  
HETATM    9  C   UNL     1     -10.706  12.266  63.666  1.00  0.00    -0.513 C  
HETATM   10  F   UNL     1     -12.362  13.822  62.722  1.00  0.00    -0.351 F  
HETATM   11  C   UNL     1     -12.145  13.026  65.037  1.00  0.00    -0.470 C  
ENDBRANCH   4   6
ENDBRANCH   1   2
BRANCH   1  12
HETATM   12  N   UNL     1      -8.541  10.324  68.399  1.00  0.00    -0.121 N  
HETATM   13  O   UNL     1      -7.883  10.133  66.196  1.00  0.00    -0.107 OA 
HETATM   14  C   UNL     1      -8.025   9.604  67.301  1.00  0.00    -0.106 C  
BRANCH  12  15
HETATM   15  C   UNL     1      -8.730   9.726  69.668  1.00  0.00    -0.199 A  
HETATM   16  C   UNL     1      -7.653   9.355  70.474  1.00  0.00    -0.150 A  
HETATM   17  C   UNL     1     -10.177   9.099  71.470  1.00  0.00    -0.333 A  
HETATM   18  N   UNL     1      -7.791   8.891  71.738  1.00  0.00    -0.335 NA 
HETATM   19  F   UNL     1     -11.404   8.986  71.989  1.00  0.00    -0.392 F  
HETATM   20  C   UNL     1     -10.014   9.593  70.188  1.00  0.00    -0.309 A  
HETATM   21  C   UNL     1      -9.057   8.768  72.206  1.00  0.00    -0.093 A  
ENDBRANCH  12  15
BRANCH  14  22
HETATM   22  C   UNL     1      -7.556   8.121  67.536  1.00  0.00    -0.101 C  
HETATM   23  C   UNL     1      -7.468   7.092  65.371  1.00  0.00    -0.088 C  
HETATM   24  C   UNL     1      -6.581   7.729  66.427  1.00  0.00    -0.050 C  
HETATM   25  N   UNL     1      -8.568   7.068  67.445  1.00  0.00    -0.121 N  
HETATM   26  O   UNL     1      -9.260   5.553  65.737  1.00  0.00    -0.159 OA 
HETATM   27  C   UNL     1      -8.557   6.447  66.186  1.00  0.00    -0.144 C  
BRANCH  25  28
HETATM   28  C   UNL     1      -9.299   6.544  68.538  1.00  0.00    -0.123 A  
HETATM   29  N   UNL     1     -10.647   6.659  68.518  1.00  0.00    -0.212 NA 
HETATM   30  C   UNL     1     -11.398   6.125  69.503  1.00  0.00    -0.356 A  
HETATM   31  C   UNL     1     -10.861   5.445  70.570  1.00  0.00    -0.200 A  
HETATM   32  C   UNL     1      -9.477   5.322  70.608  1.00  0.00    -0.222 A  
HETATM   33  C   UNL     1      -8.686   5.871  69.586  1.00  0.00    -0.128 A  
HETATM   34  C   UNL     1      -8.859   4.626  71.696  1.00  0.00    -0.125 C  
HETATM   35  N   UNL     1      -8.346   4.067  72.573  1.00  0.00    -0.097 NA 
ENDBRANCH  25  28
ENDBRANCH  14  22
ENDBRANCH   1  12
BRANCH   1  36
HETATM   36  C   UNL     1      -7.670  12.674  68.656  1.00  0.00    -0.066 A  
HETATM   37  C   UNL     1      -5.191  12.737  68.754  1.00  0.00    -0.063 A  
HETATM   38  C   UNL     1      -5.216  13.949  69.413  1.00  0.00    -0.082 A  
HETATM   39 CL   UNL     1      -9.029  15.011  69.081  1.00  0.00    -0.204 Cl 
HETATM   40  C   UNL     1      -6.445  14.579  69.597  1.00  0.00    -0.148 A  
HETATM   41  C   UNL     1      -6.385  12.102  68.410  1.00  0.00    -0.054 A  
HETATM   42  C   UNL     1      -7.651  13.983  69.150  1.00  0.00     0.030 A  
ENDBRANCH   1  36
TORSDOF 7
ENDMDL
MODEL       49
REMARK 921   NORMALIZED FREE ENERGY PREDICTED BY IDOCK:   -6.21 KCAL/MOL
REMARK 922        TOTAL FREE ENERGY PREDICTED BY IDOCK:  -10.21 KCAL/MOL
REMARK 923 INTER-LIGAND FREE ENERGY PREDICTED BY IDOCK:   -8.19 KCAL/MOL
REMARK 924 INTRA-LIGAND FREE ENERGY PREDICTED BY IDOCK:   -2.02 KCAL/MOL
REMARK 927      BINDING AFFINITY PREDICTED BY RF-SCORE:    0.00 PKD
ROOT
HETATM    1  C   UNL     1      -8.776   7.854  67.886  1.00  0.00    -0.124 C  
ENDROOT
BRANCH   1   2
HETATM    2  C   UNL     1      -7.941   6.556  68.342  1.00  0.00    -0.110 C  
HETATM    3  H   UNL     1      -8.488   6.619  70.325  1.00  0.00     0.000 HD 
HETATM    4  N   UNL     1      -7.950   6.081  69.646  1.00  0.00    -0.104 N  
HETATM    5  O   UNL     1      -7.189   6.012  67.535  1.00  0.00    -0.073 OA 
BRANCH   4   6
HETATM    6  C   UNL     1      -7.239   4.842  70.167  1.00  0.00    -0.050 C  
HETATM    7  C   UNL     1      -6.766   3.410  71.684  1.00  0.00    -0.026 C  
HETATM    8  F   UNL     1      -6.934   3.026  72.968  1.00  0.00    -0.032 F  
HETATM    9  C   UNL     1      -6.362   4.895  71.450  1.00  0.00    -0.026 C  
HETATM   10  F   UNL     1      -5.954   2.493  71.109  1.00  0.00    -0.012 F  
HETATM   11  C   UNL     1      -8.059   3.742  70.888  1.00  0.00    -0.069 C  
ENDBRANCH   4   6
ENDBRANCH   1   2
BRANCH   1  12
HETATM   12  N   UNL     1      -9.166   8.727  69.061  1.00  0.00    -0.141 N  
HETATM   13  O   UNL     1     -11.124   7.584  69.484  1.00  0.00    -0.174 OA 
HETATM   14  C   UNL     1     -10.344   8.487  69.799  1.00  0.00    -0.212 C  
BRANCH  12  15
HETATM   15  C   UNL     1      -8.271   9.771  69.394  1.00  0.00    -0.135 A  
HETATM   16  C   UNL     1      -7.206   9.574  70.274  1.00  0.00    -0.118 A  
HETATM   17  C   UNL     1      -7.434  11.984  69.020  1.00  0.00     0.017 A  
HETATM   18  N   UNL     1      -6.262  10.511  70.527  1.00  0.00    -0.206 NA 
HETATM   19  F   UNL     1      -7.512  13.166  68.400  1.00  0.00    -0.097 F  
HETATM   20  C   UNL     1      -8.376  11.004  68.759  1.00  0.00    -0.144 A  
HETATM   21  C   UNL     1      -6.403  11.702  69.895  1.00  0.00    -0.124 A  
ENDBRANCH  12  15
BRANCH  14  22
HETATM   22  C   UNL     1     -10.608   9.350  71.087  1.00  0.00    -0.333 C  
HETATM   23  C   UNL     1     -12.069   8.054  72.479  1.00  0.00    -0.338 C  
HETATM   24  C   UNL     1     -10.608   8.430  72.307  1.00  0.00    -0.412 C  
HETATM   25  N   UNL     1     -11.905  10.017  71.202  1.00  0.00    -0.369 N  
HETATM   26  O   UNL     1     -13.958   9.508  72.304  1.00  0.00    -0.371 OA 
HETATM   27  C   UNL     1     -12.794   9.283  72.002  1.00  0.00    -0.415 C  
BRANCH  25  28
HETATM   28  C   UNL     1     -12.177  11.345  70.792  1.00  0.00    -0.376 A  
HETATM   29  N   UNL     1     -12.795  12.169  71.670  1.00  0.00    -0.336 NA 
HETATM   30  C   UNL     1     -13.025  13.460  71.356  1.00  0.00    -0.328 A  
HETATM   31  C   UNL     1     -12.659  14.016  70.153  1.00  0.00    -0.310 A  
HETATM   32  C   UNL     1     -12.028  13.181  69.239  1.00  0.00    -0.344 A  
HETATM   33  C   UNL     1     -11.780  11.836  69.556  1.00  0.00    -0.408 A  
HETATM   34  C   UNL     1     -11.624  13.701  67.967  1.00  0.00    -0.333 C  
HETATM   35  N   UNL     1     -11.295  14.111  66.933  1.00  0.00    -0.317 NA 
ENDBRANCH  25  28
ENDBRANCH  14  22
ENDBRANCH   1  12
BRANCH   1  36
HETATM   36  C   UNL     1      -8.524   8.722  66.625  1.00  0.00    -0.111 A  
HETATM   37  C   UNL     1      -9.626   9.943  64.768  1.00  0.00    -0.339 A  
HETATM   38  C   UNL     1      -8.411  10.179  64.158  1.00  0.00    -0.182 A  
HETATM   39 CL   UNL     1      -5.830   9.070  66.967  1.00  0.00    -0.045 Cl 
HETATM   40  C   UNL     1      -7.249   9.792  64.824  1.00  0.00    -0.130 A  
HETATM   41  C   UNL     1      -9.685   9.211  65.954  1.00  0.00    -0.336 A  
HETATM   42  C   UNL     1      -7.304   9.143  66.082  1.00  0.00    -0.095 A  
ENDBRANCH   1  36
TORSDOF 7
ENDMDL
MODEL       50
REMARK 921   NORMALIZED FREE ENERGY PREDICTED BY IDOCK:   -6.20 KCAL/MOL
REMARK 922        TOTAL FREE ENERGY PREDICTED BY IDOCK:  -10.20 KCAL/MOL
REMARK 923 INTER-LIGAND FREE ENERGY PREDICTED BY IDOCK:   -8.39 KCAL/MOL
REMARK 924 INTRA-LIGAND FREE ENERGY PREDICTED BY IDOCK:   -1.81 KCAL/MOL
REMARK 927      BINDING AFFINITY PREDICTED BY RF-SCORE:    0.00 PKD
ROOT
HETATM    1  C   UNL     1      -8.990   8.556  66.447  1.00  0.00    -0.165 C  
ENDROOT
BRANCH   1   2
HETATM    2  C   UNL     1      -8.184   7.219  66.838  1.00  0.00    -0.117 C  
HETATM    3  H   UNL     1      -9.509   5.897  65.981  1.00  0.00     0.000 HD 
HETATM    4  N   UNL     1      -8.621   5.951  66.480  1.00  0.00    -0.120 N  
HETATM    5  O   UNL     1      -7.193   7.305  67.561  1.00  0.00    -0.085 OA 
BRANCH   4   6
HETATM    6  C   UNL     1      -7.912   4.634  66.755  1.00  0.00    -0.103 C  
HETATM    7  C   UNL     1      -7.257   2.670  66.214  1.00  0.00    -0.065 C  
HETATM    8  F   UNL     1      -7.251   1.699  65.277  1.00  0.00    -0.046 F  
HETATM    9  C   UNL     1      -8.644   3.273  66.582  1.00  0.00    -0.117 C  
HETATM   10  F   UNL     1      -6.534   2.204  67.259  1.00  0.00    -0.029 F  
HETATM   11  C   UNL     1      -6.878   4.099  65.732  1.00  0.00    -0.057 C  
ENDBRANCH   4   6
ENDBRANCH   1   2
BRANCH   1  12
HETATM   12  N   UNL     1      -9.234   9.449  67.645  1.00  0.00    -0.128 N  
HETATM   13  O   UNL     1     -10.855   8.082  68.553  1.00  0.00    -0.068 OA 
HETATM   14  C   UNL     1     -10.169   9.103  68.644  1.00  0.00    -0.204 C  
BRANCH  12  15
HETATM   15  C   UNL     1      -8.454  10.628  67.722  1.00  0.00    -0.116 A  
HETATM   16  C   UNL     1      -7.136  10.608  68.178  1.00  0.00    -0.081 A  
HETATM   17  C   UNL     1      -8.153  12.951  67.227  1.00  0.00    -0.163 A  
HETATM   18  N   UNL     1      -6.321  11.689  68.156  1.00  0.00    -0.049 NA 
HETATM   19  F   UNL     1      -8.622  14.107  66.744  1.00  0.00    -0.229 F  
HETATM   20  C   UNL     1      -8.962  11.829  67.237  1.00  0.00    -0.172 A  
HETATM   21  C   UNL     1      -6.854  12.843  67.685  1.00  0.00    -0.149 A  
ENDBRANCH  12  15
BRANCH  14  22
HETATM   22  C   UNL     1     -10.265  10.013  69.924  1.00  0.00    -0.260 C  
HETATM   23  C   UNL     1     -11.589   8.800  71.514  1.00  0.00    -0.374 C  
HETATM   24  C   UNL     1     -10.148   9.131  71.166  1.00  0.00    -0.384 C  
HETATM   25  N   UNL     1     -11.525  10.718  70.161  1.00  0.00    -0.312 N  
HETATM   26  O   UNL     1     -13.451  10.297  71.504  1.00  0.00    -0.329 OA 
HETATM   27  C   UNL     1     -12.335  10.033  71.080  1.00  0.00    -0.377 C  
BRANCH  25  28
HETATM   28  C   UNL     1     -11.811  12.039  69.741  1.00  0.00    -0.331 A  
HETATM   29  N   UNL     1     -11.984  12.987  70.690  1.00  0.00    -0.241 NA 
HETATM   30  C   UNL     1     -12.198  14.273  70.346  1.00  0.00    -0.342 A  
HETATM   31  C   UNL     1     -12.257  14.701  69.041  1.00  0.00    -0.199 A  
HETATM   32  C   UNL     1     -12.088  13.737  68.054  1.00  0.00    -0.315 A  
HETATM   33  C   UNL     1     -11.860  12.396  68.400  1.00  0.00    -0.361 A  
HETATM   34  C   UNL     1     -12.141  14.121  66.675  1.00  0.00    -0.451 C  
HETATM   35  N   UNL     1     -12.184  14.419  65.555  1.00  0.00    -0.372 NA 
ENDBRANCH  25  28
ENDBRANCH  14  22
ENDBRANCH   1  12
BRANCH   1  36
HETATM   36  C   UNL     1      -8.803   9.408  65.164  1.00  0.00    -0.233 A  
HETATM   37  C   UNL     1      -9.983  10.798  63.481  1.00  0.00    -0.403 A  
HETATM   38  C   UNL     1      -8.844  10.885  62.707  1.00  0.00    -0.304 A  
HETATM   39 CL   UNL     1      -6.066   9.397  65.125  1.00  0.00    -0.067 Cl 
HETATM   40  C   UNL     1      -7.662  10.338  63.202  1.00  0.00    -0.140 A  
HETATM   41  C   UNL     1      -9.972  10.056  64.663  1.00  0.00    -0.206 A  
HETATM   42  C   UNL     1      -7.627   9.677  64.456  1.00  0.00    -0.127 A  
ENDBRANCH   1  36
TORSDOF 7
ENDMDL
MODEL       51
REMARK 921   NORMALIZED FREE ENERGY PREDICTED BY IDOCK:   -6.14 KCAL/MOL
REMARK 922        TOTAL FREE ENERGY PREDICTED BY IDOCK:  -10.12 KCAL/MOL
REMARK 923 INTER-LIGAND FREE ENERGY PREDICTED BY IDOCK:   -8.48 KCAL/MOL
REMARK 924 INTRA-LIGAND FREE ENERGY PREDICTED BY IDOCK:   -1.63 KCAL/MOL
REMARK 927      BINDING AFFINITY PREDICTED BY RF-SCORE:    0.00 PKD
ROOT
HETATM    1  C   UNL     1      -8.869  10.638  68.474  1.00  0.00    -0.148 C  
ENDROOT
BRANCH   1   2
HETATM    2  C   UNL     1     -10.089  10.746  67.430  1.00  0.00    -0.193 C  
HETATM    3  H   UNL     1      -9.138  11.992  66.096  1.00  0.00     0.000 HD 
HETATM    4  N   UNL     1     -10.006  11.482  66.256  1.00  0.00    -0.213 N  
HETATM    5  O   UNL     1     -11.172  10.238  67.718  1.00  0.00    -0.306 OA 
BRANCH   4   6
HETATM    6  C   UNL     1     -11.078  11.607  65.184  1.00  0.00    -0.237 C  
HETATM    7  C   UNL     1     -12.120  12.663  63.642  1.00  0.00    -0.547 C  
HETATM    8  F   UNL     1     -12.248  13.814  62.949  1.00  0.00    -0.428 F  
HETATM    9  C   UNL     1     -12.093  12.785  65.194  1.00  0.00    -0.498 C  
HETATM   10  F   UNL     1     -13.042  11.807  63.145  1.00  0.00    -0.670 F  
HETATM   11  C   UNL     1     -10.680  12.087  63.765  1.00  0.00    -0.478 C  
ENDBRANCH   4   6
ENDBRANCH   1   2
BRANCH   1  12
HETATM   12  N   UNL     1      -8.661   9.222  68.969  1.00  0.00    -0.132 N  
HETATM   13  O   UNL     1      -8.210   8.370  66.874  1.00  0.00    -0.101 OA 
HETATM   14  C   UNL     1      -8.313   8.177  68.088  1.00  0.00    -0.129 C  
BRANCH  12  15
HETATM   15  C   UNL     1      -8.805   9.013  70.362  1.00  0.00    -0.200 A  
HETATM   16  C   UNL     1     -10.011   9.257  71.021  1.00  0.00    -0.293 A  
HETATM   17  C   UNL     1      -7.950   8.163  72.431  1.00  0.00    -0.138 A  
HETATM   18  N   UNL     1     -10.223   8.960  72.324  1.00  0.00    -0.245 NA 
HETATM   19  F   UNL     1      -6.962   7.605  73.138  1.00  0.00    -0.063 F  
HETATM   20  C   UNL     1      -7.761   8.453  71.091  1.00  0.00    -0.107 A  
HETATM   21  C   UNL     1      -9.180   8.423  73.004  1.00  0.00    -0.186 A  
ENDBRANCH  12  15
BRANCH  14  22
HETATM   22  C   UNL     1      -7.980   6.765  68.698  1.00  0.00    -0.119 C  
HETATM   23  C   UNL     1      -7.975   5.222  66.862  1.00  0.00    -0.101 C  
HETATM   24  C   UNL     1      -7.039   6.026  67.748  1.00  0.00    -0.074 C  
HETATM   25  N   UNL     1      -9.082   5.814  68.845  1.00  0.00    -0.115 N  
HETATM   26  O   UNL     1      -9.899   3.984  67.551  1.00  0.00    -0.163 OA 
HETATM   27  C   UNL     1      -9.120   4.899  67.782  1.00  0.00    -0.116 C  
BRANCH  25  28
HETATM   28  C   UNL     1      -9.863   5.646  70.014  1.00  0.00    -0.186 A  
HETATM   29  N   UNL     1      -9.346   4.912  71.026  1.00  0.00    -0.146 NA 
HETATM   30  C   UNL     1     -10.019   4.769  72.186  1.00  0.00    -0.179 A  
HETATM   31  C   UNL     1     -11.246   5.343  72.416  1.00  0.00    -0.272 A  
HETATM   32  C   UNL     1     -11.793   6.096  71.384  1.00  0.00    -0.165 A  
HETATM   33  C   UNL     1     -11.100   6.255  70.174  1.00  0.00    -0.443 A  
HETATM   34  C   UNL     1     -13.071   6.717  71.562  1.00  0.00    -0.182 C  
HETATM   35  N   UNL     1     -14.107   7.224  71.694  1.00  0.00    -0.415 NA 
ENDBRANCH  25  28
ENDBRANCH  14  22
ENDBRANCH   1  12
BRANCH   1  36
HETATM   36  C   UNL     1      -7.514  11.390  68.395  1.00  0.00    -0.111 A  
HETATM   37  C   UNL     1      -5.805  12.603  69.723  1.00  0.00    -0.121 A  
HETATM   38  C   UNL     1      -5.138  12.984  68.577  1.00  0.00    -0.065 A  
HETATM   39 CL   UNL     1      -6.921  10.782  65.792  1.00  0.00    -0.093 Cl 
HETATM   40  C   UNL     1      -5.582  12.485  67.353  1.00  0.00    -0.112 A  
HETATM   41  C   UNL     1      -6.976  11.850  69.634  1.00  0.00     0.132 A  
HETATM   42  C   UNL     1      -6.711  11.631  67.274  1.00  0.00    -0.124 A  
ENDBRANCH   1  36
TORSDOF 7
ENDMDL
MODEL       52
REMARK 921   NORMALIZED FREE ENERGY PREDICTED BY IDOCK:   -6.12 KCAL/MOL
REMARK 922        TOTAL FREE ENERGY PREDICTED BY IDOCK:  -10.08 KCAL/MOL
REMARK 923 INTER-LIGAND FREE ENERGY PREDICTED BY IDOCK:   -9.13 KCAL/MOL
REMARK 924 INTRA-LIGAND FREE ENERGY PREDICTED BY IDOCK:   -0.95 KCAL/MOL
REMARK 927      BINDING AFFINITY PREDICTED BY RF-SCORE:    0.00 PKD
ROOT
HETATM    1  C   UNL     1      -9.351  10.927  67.151  1.00  0.00    -0.159 C  
ENDROOT
BRANCH   1   2
HETATM    2  C   UNL     1      -9.300  10.332  68.646  1.00  0.00    -0.162 C  
HETATM    3  H   UNL     1     -11.327  10.030  68.839  1.00  0.00     0.000 HD 
HETATM    4  N   UNL     1     -10.437   9.911  69.322  1.00  0.00    -0.208 N  
HETATM    5  O   UNL     1      -8.232  10.333  69.257  1.00  0.00    -0.138 OA 
BRANCH   4   6
HETATM    6  C   UNL     1     -10.492   9.291  70.710  1.00  0.00    -0.276 C  
HETATM    7  C   UNL     1     -11.339   8.000  72.191  1.00  0.00    -0.328 C  
HETATM    8  F   UNL     1     -12.321   7.127  72.500  1.00  0.00    -0.210 F  
HETATM    9  C   UNL     1     -11.785   9.357  71.571  1.00  0.00    -0.465 C  
HETATM   10  F   UNL     1     -10.547   8.096  73.284  1.00  0.00    -0.393 F  
HETATM   11  C   UNL     1     -10.590   7.751  70.851  1.00  0.00    -0.220 C  
ENDBRANCH   4   6
ENDBRANCH   1   2
BRANCH   1  12
HETATM   12  N   UNL     1      -9.953  12.316  67.108  1.00  0.00    -0.204 N  
HETATM   13  O   UNL     1     -11.410  11.819  65.390  1.00  0.00    -0.299 OA 
HETATM   14  C   UNL     1     -10.988  12.642  66.207  1.00  0.00    -0.283 C  
BRANCH  12  15
HETATM   15  C   UNL     1      -9.443  13.254  68.037  1.00  0.00    -0.219 A  
HETATM   16  C   UNL     1      -8.103  13.645  68.026  1.00  0.00    -0.161 A  
HETATM   17  C   UNL     1      -9.810  14.879  69.757  1.00  0.00     0.075 A  
HETATM   18  N   UNL     1      -7.604  14.623  68.818  1.00  0.00    -0.131 NA 
HETATM   19  F   UNL     1     -10.632  15.514  70.599  1.00  0.00    -0.320 F  
HETATM   20  C   UNL     1     -10.305  13.892  68.922  1.00  0.00    -0.163 A  
HETATM   21  C   UNL     1      -8.472  15.215  69.674  1.00  0.00    -0.064 A  
ENDBRANCH  12  15
BRANCH  14  22
HETATM   22  C   UNL     1     -11.654  14.063  66.316  1.00  0.00    -0.369 C  
HETATM   23  C   UNL     1     -12.780  14.442  64.233  1.00  0.00     0.051 C  
HETATM   24  C   UNL     1     -13.036  14.013  65.668  1.00  0.00    -0.189 C  
HETATM   25  N   UNL     1     -11.016  15.168  65.601  1.00  0.00    -0.345 N  
HETATM   26  O   UNL     1     -11.378  16.231  63.497  1.00  0.00    -0.443 OA 
HETATM   27  C   UNL     1     -11.640  15.415  64.368  1.00  0.00    -0.264 C  
BRANCH  25  28
HETATM   28  C   UNL     1     -10.064  16.057  66.156  1.00  0.00    -0.327 A  
HETATM   29  N   UNL     1      -8.790  15.989  65.708  1.00  0.00    -0.291 NA 
HETATM   30  C   UNL     1      -7.855  16.851  66.157  1.00  0.00    -0.242 A  
HETATM   31  C   UNL     1      -8.124  17.833  67.080  1.00  0.00    -0.239 A  
HETATM   32  C   UNL     1      -9.427  17.913  67.555  1.00  0.00    -0.258 A  
HETATM   33  C   UNL     1     -10.409  17.023  67.091  1.00  0.00    -0.305 A  
HETATM   34  C   UNL     1      -9.769  18.915  68.520  1.00  0.00    -0.387 C  
HETATM   35  N   UNL     1     -10.057  19.720  69.303  1.00  0.00    -0.349 NA 
ENDBRANCH  25  28
ENDBRANCH  14  22
ENDBRANCH   1  12
BRANCH   1  36
HETATM   36  C   UNL     1      -8.263  10.772  66.056  1.00  0.00    -0.164 A  
HETATM   37  C   UNL     1      -7.885  10.334  63.643  1.00  0.00    -0.125 A  
HETATM   38  C   UNL     1      -6.522  10.246  63.839  1.00  0.00    -0.086 A  
HETATM   39 CL   UNL     1      -6.121  11.560  67.567  1.00  0.00    -0.062 Cl 
HETATM   40  C   UNL     1      -6.015  10.527  65.107  1.00  0.00    -0.113 A  
HETATM   41  C   UNL     1      -8.736  10.563  64.725  1.00  0.00    -0.196 A  
HETATM   42  C   UNL     1      -6.873  10.865  66.183  1.00  0.00    -0.100 A  
ENDBRANCH   1  36
TORSDOF 7
ENDMDL
MODEL       53
REMARK 921   NORMALIZED FREE ENERGY PREDICTED BY IDOCK:   -6.10 KCAL/MOL
REMARK 922        TOTAL FREE ENERGY PREDICTED BY IDOCK:  -10.06 KCAL/MOL
REMARK 923 INTER-LIGAND FREE ENERGY PREDICTED BY IDOCK:   -9.69 KCAL/MOL
REMARK 924 INTRA-LIGAND FREE ENERGY PREDICTED BY IDOCK:   -0.37 KCAL/MOL
REMARK 927      BINDING AFFINITY PREDICTED BY RF-SCORE:    0.00 PKD
ROOT
HETATM    1  C   UNL     1     -11.031  15.025  67.215  1.00  0.00    -0.326 C  
ENDROOT
BRANCH   1   2
HETATM    2  C   UNL     1     -10.191  16.065  66.320  1.00  0.00    -0.316 C  
HETATM    3  H   UNL     1      -9.474  17.188  67.888  1.00  0.00     0.000 HD 
HETATM    4  N   UNL     1      -9.441  17.094  66.874  1.00  0.00    -0.250 N  
HETATM    5  O   UNL     1     -10.284  16.015  65.094  1.00  0.00    -0.511 OA 
BRANCH   4   6
HETATM    6  C   UNL     1      -8.576  18.095  66.123  1.00  0.00    -0.097 C  
HETATM    7  C   UNL     1      -6.990  19.525  65.991  1.00  0.00    -0.265 C  
HETATM    8  F   UNL     1      -6.021  20.201  66.644  1.00  0.00    -0.173 F  
HETATM    9  C   UNL     1      -8.410  19.555  66.629  1.00  0.00    -0.340 C  
HETATM   10  F   UNL     1      -6.930  19.914  64.697  1.00  0.00    -0.231 F  
HETATM   11  C   UNL     1      -7.033  17.987  66.218  1.00  0.00    -0.299 C  
ENDBRANCH   4   6
ENDBRANCH   1   2
BRANCH   1  12
HETATM   12  N   UNL     1     -10.675  13.585  66.908  1.00  0.00    -0.273 N  
HETATM   13  O   UNL     1      -9.373  13.323  68.794  1.00  0.00    -0.050 OA 
HETATM   14  C   UNL     1      -9.861  12.827  67.776  1.00  0.00    -0.220 C  
BRANCH  12  15
HETATM   15  C   UNL     1     -11.226  13.038  65.725  1.00  0.00    -0.289 A  
HETATM   16  C   UNL     1     -12.604  12.969  65.520  1.00  0.00    -0.362 A  
HETATM   17  C   UNL     1     -10.943  12.212  63.495  1.00  0.00    -0.453 A  
HETATM   18  N   UNL     1     -13.167  12.563  64.357  1.00  0.00    -0.719 NA 
HETATM   19  F   UNL     1     -10.149  11.856  62.480  1.00  0.00    -0.155 F  
HETATM   20  C   UNL     1     -10.387  12.652  64.684  1.00  0.00    -0.354 A  
HETATM   21  C   UNL     1     -12.318  12.186  63.369  1.00  0.00    -0.538 A  
ENDBRANCH  12  15
BRANCH  14  22
HETATM   22  C   UNL     1      -9.651  11.301  67.458  1.00  0.00    -0.170 C  
HETATM   23  C   UNL     1      -9.523  10.182  69.575  1.00  0.00    -0.235 C  
HETATM   24  C   UNL     1     -10.483  10.472  68.435  1.00  0.00    -0.212 C  
HETATM   25  N   UNL     1      -8.309  10.748  67.647  1.00  0.00    -0.118 N  
HETATM   26  O   UNL     1      -7.229   9.536  69.395  1.00  0.00    -0.058 OA 
HETATM   27  C   UNL     1      -8.190  10.093  68.883  1.00  0.00    -0.124 C  
BRANCH  25  28
HETATM   28  C   UNL     1      -7.321  10.642  66.638  1.00  0.00    -0.129 A  
HETATM   29  N   UNL     1      -6.188  11.367  66.777  1.00  0.00    -0.132 NA 
HETATM   30  C   UNL     1      -5.188  11.259  65.879  1.00  0.00    -0.046 A  
HETATM   31  C   UNL     1      -5.249  10.428  64.786  1.00  0.00    -0.134 A  
HETATM   32  C   UNL     1      -6.409   9.681  64.626  1.00  0.00    -0.091 A  
HETATM   33  C   UNL     1      -7.455   9.782  65.557  1.00  0.00    -0.115 A  
HETATM   34  C   UNL     1      -6.534   8.798  63.505  1.00  0.00    -0.089 C  
HETATM   35  N   UNL     1      -6.647   8.082  62.599  1.00  0.00    -0.085 NA 
ENDBRANCH  25  28
ENDBRANCH  14  22
ENDBRANCH   1  12
BRANCH   1  36
HETATM   36  C   UNL     1     -11.405  15.184  68.713  1.00  0.00    -0.313 A  
HETATM   37  C   UNL     1     -13.027  14.510  70.464  1.00  0.00    -0.303 A  
HETATM   38  C   UNL     1     -12.479  15.403  71.362  1.00  0.00    -0.457 A  
HETATM   39 CL   UNL     1      -9.160  16.539  69.499  1.00  0.00     0.035 Cl 
HETATM   40  C   UNL     1     -11.334  16.103  70.986  1.00  0.00    -0.381 A  
HETATM   41  C   UNL     1     -12.523  14.422  69.166  1.00  0.00    -0.010 A  
HETATM   42  C   UNL     1     -10.758  15.933  69.702  1.00  0.00    -0.304 A  
ENDBRANCH   1  36
TORSDOF 7
ENDMDL
MODEL       54
REMARK 921   NORMALIZED FREE ENERGY PREDICTED BY IDOCK:   -6.10 KCAL/MOL
REMARK 922        TOTAL FREE ENERGY PREDICTED BY IDOCK:  -10.05 KCAL/MOL
REMARK 923 INTER-LIGAND FREE ENERGY PREDICTED BY IDOCK:   -8.40 KCAL/MOL
REMARK 924 INTRA-LIGAND FREE ENERGY PREDICTED BY IDOCK:   -1.66 KCAL/MOL
REMARK 927      BINDING AFFINITY PREDICTED BY RF-SCORE:    0.00 PKD
ROOT
HETATM    1  C   UNL     1      -7.902   7.944  70.240  1.00  0.00    -0.089 C  
ENDROOT
BRANCH   1   2
HETATM    2  C   UNL     1      -7.347   7.052  69.021  1.00  0.00    -0.093 C  
HETATM    3  H   UNL     1      -9.109   6.995  67.960  1.00  0.00     0.000 HD 
HETATM    4  N   UNL     1      -8.135   6.694  67.936  1.00  0.00    -0.112 N  
HETATM    5  O   UNL     1      -6.211   6.584  69.088  1.00  0.00    -0.031 OA 
BRANCH   4   6
HETATM    6  C   UNL     1      -7.696   5.900  66.716  1.00  0.00    -0.100 C  
HETATM    7  C   UNL     1      -7.993   4.435  65.185  1.00  0.00    -0.097 C  
HETATM    8  F   UNL     1      -8.810   3.496  64.663  1.00  0.00    -0.110 F  
HETATM    9  C   UNL     1      -7.720   4.345  66.716  1.00  0.00    -0.094 C  
HETATM   10  F   UNL     1      -6.889   4.467  64.403  1.00  0.00    -0.041 F  
HETATM   11  C   UNL     1      -8.633   5.820  65.484  1.00  0.00    -0.151 C  
ENDBRANCH   4   6
ENDBRANCH   1   2
BRANCH   1  12
HETATM   12  N   UNL     1      -9.105   8.775  69.841  1.00  0.00    -0.152 N  
HETATM   13  O   UNL     1      -7.857  10.355  68.715  1.00  0.00    -0.093 OA 
HETATM   14  C   UNL     1      -8.967   9.943  69.061  1.00  0.00    -0.160 C  
BRANCH  12  15
HETATM   15  C   UNL     1     -10.368   8.299  70.265  1.00  0.00    -0.209 A  
HETATM   16  C   UNL     1     -10.918   7.121  69.759  1.00  0.00    -0.231 A  
HETATM   17  C   UNL     1     -12.234   8.421  71.762  1.00  0.00    -0.330 A  
HETATM   18  N   UNL     1     -12.065   6.572  70.223  1.00  0.00    -0.233 NA 
HETATM   19  F   UNL     1     -12.886   9.028  72.759  1.00  0.00    -0.457 F  
HETATM   20  C   UNL     1     -11.047   8.953  71.289  1.00  0.00    -0.367 A  
HETATM   21  C   UNL     1     -12.702   7.242  71.215  1.00  0.00    -0.359 A  
ENDBRANCH  12  15
BRANCH  14  22
HETATM   22  C   UNL     1     -10.272  10.672  68.573  1.00  0.00    -0.175 C  
HETATM   23  C   UNL     1     -10.303  10.471  66.184  1.00  0.00    -0.276 C  
HETATM   24  C   UNL     1     -10.898   9.860  67.441  1.00  0.00    -0.293 C  
HETATM   25  N   UNL     1     -10.122  11.993  67.962  1.00  0.00    -0.192 N  
HETATM   26  O   UNL     1     -10.000  12.795  65.718  1.00  0.00    -0.265 OA 
HETATM   27  C   UNL     1     -10.124  11.917  66.560  1.00  0.00    -0.203 C  
BRANCH  25  28
HETATM   28  C   UNL     1     -10.220  13.226  68.651  1.00  0.00    -0.172 A  
HETATM   29  N   UNL     1      -9.158  14.064  68.612  1.00  0.00    -0.152 NA 
HETATM   30  C   UNL     1      -9.218  15.276  69.199  1.00  0.00    -0.234 A  
HETATM   31  C   UNL     1     -10.331  15.735  69.862  1.00  0.00    -0.313 A  
HETATM   32  C   UNL     1     -11.428  14.883  69.915  1.00  0.00    -0.321 A  
HETATM   33  C   UNL     1     -11.379  13.620  69.304  1.00  0.00    -0.323 A  
HETATM   34  C   UNL     1     -12.617  15.303  70.594  1.00  0.00    -0.417 C  
HETATM   35  N   UNL     1     -13.585  15.631  71.143  1.00  0.00    -0.576 NA 
ENDBRANCH  25  28
ENDBRANCH  14  22
ENDBRANCH   1  12
BRANCH   1  36
HETATM   36  C   UNL     1      -8.007   7.517  71.728  1.00  0.00    -0.094 A  
HETATM   37  C   UNL     1      -7.859   8.325  74.069  1.00  0.00    -0.263 A  
HETATM   38  C   UNL     1      -7.945   7.036  74.554  1.00  0.00    -0.164 A  
HETATM   39 CL   UNL     1      -8.942   4.980  71.305  1.00  0.00    -0.155 Cl 
HETATM   40  C   UNL     1      -8.173   6.001  73.648  1.00  0.00    -0.112 A  
HETATM   41  C   UNL     1      -7.861   8.558  72.693  1.00  0.00    -0.080 A  
HETATM   42  C   UNL     1      -8.283   6.252  72.258  1.00  0.00    -0.108 A  
ENDBRANCH   1  36
TORSDOF 7
ENDMDL
MODEL       55
REMARK 921   NORMALIZED FREE ENERGY PREDICTED BY IDOCK:   -6.03 KCAL/MOL
REMARK 922        TOTAL FREE ENERGY PREDICTED BY IDOCK:   -9.96 KCAL/MOL
REMARK 923 INTER-LIGAND FREE ENERGY PREDICTED BY IDOCK:   -8.22 KCAL/MOL
REMARK 924 INTRA-LIGAND FREE ENERGY PREDICTED BY IDOCK:   -1.74 KCAL/MOL
REMARK 927      BINDING AFFINITY PREDICTED BY RF-SCORE:    0.00 PKD
ROOT
HETATM    1  C   UNL     1      -7.262  11.173  69.476  1.00  0.00    -0.057 C  
ENDROOT
BRANCH   1   2
HETATM    2  C   UNL     1      -6.636  12.628  69.190  1.00  0.00    -0.099 C  
HETATM    3  H   UNL     1      -8.428  13.640  69.144  1.00  0.00     0.000 HD 
HETATM    4  N   UNL     1      -7.418  13.769  69.075  1.00  0.00    -0.051 N  
HETATM    5  O   UNL     1      -5.431  12.730  68.969  1.00  0.00    -0.067 OA 
BRANCH   4   6
HETATM    6  C   UNL     1      -6.925  15.190  68.855  1.00  0.00    -0.124 C  
HETATM    7  C   UNL     1      -7.004  17.115  67.924  1.00  0.00    -0.165 C  
HETATM    8  F   UNL     1      -7.609  17.905  67.012  1.00  0.00    -0.193 F  
HETATM    9  C   UNL     1      -6.557  15.705  67.435  1.00  0.00    -0.194 C  
HETATM   10  F   UNL     1      -6.033  17.861  68.499  1.00  0.00    -0.168 F  
HETATM   11  C   UNL     1      -7.937  16.363  68.915  1.00  0.00    -0.236 C  
ENDBRANCH   4   6
ENDBRANCH   1   2
BRANCH   1  12
HETATM   12  N   UNL     1      -8.470  10.887  68.608  1.00  0.00    -0.146 N  
HETATM   13  O   UNL     1      -7.302  11.049  66.626  1.00  0.00    -0.131 OA 
HETATM   14  C   UNL     1      -8.369  10.826  67.202  1.00  0.00    -0.126 C  
BRANCH  12  15
HETATM   15  C   UNL     1      -9.692  10.656  69.284  1.00  0.00    -0.160 A  
HETATM   16  C   UNL     1     -10.784  11.514  69.144  1.00  0.00    -0.168 A  
HETATM   17  C   UNL     1     -11.095   9.232  70.603  1.00  0.00    -0.276 A  
HETATM   18  N   UNL     1     -12.002  11.266  69.679  1.00  0.00    -0.334 NA 
HETATM   19  F   UNL     1     -11.279   8.108  71.304  1.00  0.00    -0.252 F  
HETATM   20  C   UNL     1      -9.863   9.494  70.029  1.00  0.00    -0.269 A  
HETATM   21  C   UNL     1     -12.128  10.127  70.404  1.00  0.00    -0.246 A  
ENDBRANCH  12  15
BRANCH  14  22
HETATM   22  C   UNL     1      -9.638  10.390  66.381  1.00  0.00    -0.179 C  
HETATM   23  C   UNL     1      -8.856   8.887  64.683  1.00  0.00    -0.098 C  
HETATM   24  C   UNL     1      -9.523   8.903  66.048  1.00  0.00    -0.320 C  
HETATM   25  N   UNL     1      -9.829  10.989  65.060  1.00  0.00    -0.249 N  
HETATM   26  O   UNL     1      -9.347  10.308  62.826  1.00  0.00    -0.280 OA 
HETATM   27  C   UNL     1      -9.373  10.144  64.037  1.00  0.00    -0.287 C  
BRANCH  25  28
HETATM   28  C   UNL     1     -10.601  12.147  64.795  1.00  0.00    -0.296 A  
HETATM   29  N   UNL     1     -11.823  11.985  64.239  1.00  0.00    -0.360 NA 
HETATM   30  C   UNL     1     -12.625  13.046  64.020  1.00  0.00    -0.209 A  
HETATM   31  C   UNL     1     -12.267  14.335  64.337  1.00  0.00    -0.471 A  
HETATM   32  C   UNL     1     -11.012  14.518  64.905  1.00  0.00    -0.421 A  
HETATM   33  C   UNL     1     -10.170  13.420  65.141  1.00  0.00    -0.316 A  
HETATM   34  C   UNL     1     -10.580  15.838  65.255  1.00  0.00    -0.423 C  
HETATM   35  N   UNL     1     -10.219  16.903  65.541  1.00  0.00    -0.614 NA 
ENDBRANCH  25  28
ENDBRANCH  14  22
ENDBRANCH   1  12
BRANCH   1  36
HETATM   36  C   UNL     1      -6.475   9.866  69.758  1.00  0.00    -0.058 A  
HETATM   37  C   UNL     1      -5.908   7.624  68.858  1.00  0.00    -0.027 A  
HETATM   38  C   UNL     1      -5.300   7.267  70.044  1.00  0.00    -0.023 A  
HETATM   39 CL   UNL     1      -5.139  10.728  71.986  1.00  0.00     0.011 Cl 
HETATM   40  C   UNL     1      -5.175   8.230  71.043  1.00  0.00    -0.029 A  
HETATM   41  C   UNL     1      -6.505   8.879  68.728  1.00  0.00    -0.053 A  
HETATM   42  C   UNL     1      -5.688   9.541  70.868  1.00  0.00    -0.060 A  
ENDBRANCH   1  36
TORSDOF 7
ENDMDL
MODEL       56
REMARK 921   NORMALIZED FREE ENERGY PREDICTED BY IDOCK:   -6.00 KCAL/MOL
REMARK 922        TOTAL FREE ENERGY PREDICTED BY IDOCK:   -9.92 KCAL/MOL
REMARK 923 INTER-LIGAND FREE ENERGY PREDICTED BY IDOCK:   -7.99 KCAL/MOL
REMARK 924 INTRA-LIGAND FREE ENERGY PREDICTED BY IDOCK:   -1.92 KCAL/MOL
REMARK 927      BINDING AFFINITY PREDICTED BY RF-SCORE:    0.00 PKD
ROOT
HETATM    1  C   UNL     1     -11.144   9.416  68.399  1.00  0.00     0.071 C  
ENDROOT
BRANCH   1   2
HETATM    2  C   UNL     1     -10.797  10.545  67.305  1.00  0.00    -0.279 C  
HETATM    3  H   UNL     1     -12.234  11.891  67.905  1.00  0.00     0.000 HD 
HETATM    4  N   UNL     1     -11.471  11.757  67.242  1.00  0.00    -0.316 N  
HETATM    5  O   UNL     1      -9.970  10.298  66.429  1.00  0.00    -0.209 OA 
BRANCH   4   6
HETATM    6  C   UNL     1     -11.189  12.905  66.284  1.00  0.00    -0.301 C  
HETATM    7  C   UNL     1     -10.849  14.966  65.825  1.00  0.00    -0.339 C  
HETATM    8  F   UNL     1     -10.770  16.230  66.293  1.00  0.00    -0.305 F  
HETATM    9  C   UNL     1     -12.114  14.153  66.230  1.00  0.00    -0.463 C  
HETATM   10  F   UNL     1     -10.603  15.029  64.496  1.00  0.00    -0.392 F  
HETATM   11  C   UNL     1     -10.036  13.891  66.599  1.00  0.00    -0.279 C  
ENDBRANCH   4   6
ENDBRANCH   1   2
BRANCH   1  12
HETATM   12  N   UNL     1     -10.044   8.382  68.524  1.00  0.00    -0.192 N  
HETATM   13  O   UNL     1     -11.045   6.889  67.079  1.00  0.00    -0.389 OA 
HETATM   14  C   UNL     1     -10.087   7.170  67.803  1.00  0.00    -0.172 C  
BRANCH  12  15
HETATM   15  C   UNL     1      -8.962   8.712  69.375  1.00  0.00    -0.145 A  
HETATM   16  C   UNL     1      -7.963   9.603  68.983  1.00  0.00    -0.088 A  
HETATM   17  C   UNL     1      -7.924   8.636  71.532  1.00  0.00    -0.136 A  
HETATM   18  N   UNL     1      -6.980  10.033  69.808  1.00  0.00    -0.090 NA 
HETATM   19  F   UNL     1      -7.895   8.193  72.793  1.00  0.00    -0.134 F  
HETATM   20  C   UNL     1      -8.933   8.226  70.679  1.00  0.00    -0.161 A  
HETATM   21  C   UNL     1      -6.980   9.532  71.068  1.00  0.00    -0.015 A  
ENDBRANCH  12  15
BRANCH  14  22
HETATM   22  C   UNL     1      -8.843   6.211  67.880  1.00  0.00    -0.111 C  
HETATM   23  C   UNL     1      -9.322   4.367  66.423  1.00  0.00    -0.161 C  
HETATM   24  C   UNL     1      -8.546   5.672  66.482  1.00  0.00    -0.119 C  
HETATM   25  N   UNL     1      -8.982   4.983  68.663  1.00  0.00    -0.104 N  
HETATM   26  O   UNL     1      -9.479   2.710  68.137  1.00  0.00    -0.209 OA 
HETATM   27  C   UNL     1      -9.274   3.880  67.846  1.00  0.00    -0.165 C  
BRANCH  25  28
HETATM   28  C   UNL     1      -8.622   4.839  70.024  1.00  0.00    -0.082 A  
HETATM   29  N   UNL     1      -7.307   4.842  70.340  1.00  0.00    -0.053 NA 
HETATM   30  C   UNL     1      -6.908   4.770  71.626  1.00  0.00    -0.043 A  
HETATM   31  C   UNL     1      -7.787   4.688  72.680  1.00  0.00    -0.088 A  
HETATM   32  C   UNL     1      -9.142   4.678  72.372  1.00  0.00    -0.142 A  
HETATM   33  C   UNL     1      -9.569   4.757  71.036  1.00  0.00    -0.242 A  
HETATM   34  C   UNL     1     -10.107   4.592  73.427  1.00  0.00    -0.160 C  
HETATM   35  N   UNL     1     -10.898   4.520  74.272  1.00  0.00    -0.304 NA 
ENDBRANCH  25  28
ENDBRANCH  14  22
ENDBRANCH   1  12
BRANCH   1  36
HETATM   36  C   UNL     1     -11.840   9.636  69.768  1.00  0.00     0.141 A  
HETATM   37  C   UNL     1     -12.762  11.352  71.304  1.00  0.00    -0.498 A  
HETATM   38  C   UNL     1     -12.951  10.410  72.295  1.00  0.00    -0.241 A  
HETATM   39 CL   UNL     1     -12.318   7.004  70.350  1.00  0.00    -0.176 Cl 
HETATM   40  C   UNL     1     -12.696   9.073  71.996  1.00  0.00    -0.467 A  
HETATM   41  C   UNL     1     -12.196  10.982  70.084  1.00  0.00    -0.424 A  
HETATM   42  C   UNL     1     -12.222   8.683  70.718  1.00  0.00    -0.012 A  
ENDBRANCH   1  36
TORSDOF 7
ENDMDL
MODEL       57
REMARK 921   NORMALIZED FREE ENERGY PREDICTED BY IDOCK:   -6.00 KCAL/MOL
REMARK 922        TOTAL FREE ENERGY PREDICTED BY IDOCK:   -9.91 KCAL/MOL
REMARK 923 INTER-LIGAND FREE ENERGY PREDICTED BY IDOCK:   -8.58 KCAL/MOL
REMARK 924 INTRA-LIGAND FREE ENERGY PREDICTED BY IDOCK:   -1.33 KCAL/MOL
REMARK 927      BINDING AFFINITY PREDICTED BY RF-SCORE:    0.00 PKD
ROOT
HETATM    1  C   UNL     1      -8.969  10.093  67.220  1.00  0.00    -0.135 C  
ENDROOT
BRANCH   1   2
HETATM    2  C   UNL     1      -9.302   9.486  68.672  1.00  0.00    -0.142 C  
HETATM    3  H   UNL     1     -11.222  10.217  68.789  1.00  0.00     0.000 HD 
HETATM    4  N   UNL     1     -10.535   9.652  69.288  1.00  0.00    -0.208 N  
HETATM    5  O   UNL     1      -8.409   8.932  69.311  1.00  0.00    -0.115 OA 
BRANCH   4   6
HETATM    6  C   UNL     1     -10.966   9.080  70.629  1.00  0.00    -0.257 C  
HETATM    7  C   UNL     1     -12.256   7.923  71.884  1.00  0.00    -0.314 C  
HETATM    8  F   UNL     1     -13.369   7.163  71.966  1.00  0.00    -0.327 F  
HETATM    9  C   UNL     1     -12.406   9.300  71.174  1.00  0.00    -0.363 C  
HETATM   10  F   UNL     1     -11.726   7.968  73.128  1.00  0.00    -0.433 F  
HETATM   11  C   UNL     1     -11.255   7.562  70.750  1.00  0.00    -0.287 C  
ENDBRANCH   4   6
ENDBRANCH   1   2
BRANCH   1  12
HETATM   12  N   UNL     1      -9.451  11.522  67.072  1.00  0.00    -0.180 N  
HETATM   13  O   UNL     1      -8.213  12.308  68.852  1.00  0.00     0.020 OA 
HETATM   14  C   UNL     1      -8.990  12.547  67.925  1.00  0.00    -0.188 C  
BRANCH  12  15
HETATM   15  C   UNL     1     -10.360  11.775  66.016  1.00  0.00    -0.239 A  
HETATM   16  C   UNL     1     -11.656  12.232  66.256  1.00  0.00    -0.385 A  
HETATM   17  C   UNL     1     -10.804  12.016  63.676  1.00  0.00    -0.446 A  
HETATM   18  N   UNL     1     -12.513  12.596  65.274  1.00  0.00    -0.639 NA 
HETATM   19  F   UNL     1     -10.402  11.939  62.403  1.00  0.00     0.117 F  
HETATM   20  C   UNL     1      -9.935  11.670  64.696  1.00  0.00    -0.291 A  
HETATM   21  C   UNL     1     -12.067  12.473  64.000  1.00  0.00    -0.473 A  
ENDBRANCH  12  15
BRANCH  14  22
HETATM   22  C   UNL     1      -9.431  14.026  67.620  1.00  0.00    -0.210 C  
HETATM   23  C   UNL     1      -7.442  15.361  67.744  1.00  0.00    -0.173 C  
HETATM   24  C   UNL     1      -8.368  14.688  66.745  1.00  0.00    -0.078 C  
HETATM   25  N   UNL     1      -9.523  14.952  68.749  1.00  0.00    -0.210 N  
HETATM   26  O   UNL     1      -8.078  16.603  69.683  1.00  0.00     0.145 OA 
HETATM   27  C   UNL     1      -8.371  15.745  68.863  1.00  0.00    -0.213 C  
BRANCH  25  28
HETATM   28  C   UNL     1     -10.701  15.220  69.489  1.00  0.00    -0.265 A  
HETATM   29  N   UNL     1     -11.869  15.319  68.814  1.00  0.00    -0.332 NA 
HETATM   30  C   UNL     1     -13.029  15.513  69.473  1.00  0.00     0.570 A  
HETATM   31  C   UNL     1     -13.105  15.623  70.841  1.00  0.00    -0.425 A  
HETATM   32  C   UNL     1     -11.913  15.529  71.548  1.00  0.00    -0.463 A  
HETATM   33  C   UNL     1     -10.699  15.323  70.873  1.00  0.00    -0.126 A  
HETATM   34  C   UNL     1     -11.927  15.638  72.976  1.00  0.00    -0.480 C  
HETATM   35  N   UNL     1     -11.926  15.727  74.133  1.00  0.00    -0.343 NA 
ENDBRANCH  25  28
ENDBRANCH  14  22
ENDBRANCH   1  12
BRANCH   1  36
HETATM   36  C   UNL     1      -7.672   9.870  66.398  1.00  0.00    -0.104 A  
HETATM   37  C   UNL     1      -5.420  10.787  65.903  1.00  0.00    -0.133 A  
HETATM   38  C   UNL     1      -5.230   9.863  64.896  1.00  0.00    -0.059 A  
HETATM   39 CL   UNL     1      -8.277   7.375  65.449  1.00  0.00    -0.133 Cl 
HETATM   40  C   UNL     1      -6.197   8.877  64.709  1.00  0.00    -0.065 A  
HETATM   41  C   UNL     1      -6.620  10.810  66.616  1.00  0.00    -0.112 A  
HETATM   42  C   UNL     1      -7.367   8.835  65.507  1.00  0.00    -0.085 A  
ENDBRANCH   1  36
TORSDOF 7
ENDMDL
MODEL       58
REMARK 921   NORMALIZED FREE ENERGY PREDICTED BY IDOCK:   -5.85 KCAL/MOL
REMARK 922        TOTAL FREE ENERGY PREDICTED BY IDOCK:   -9.70 KCAL/MOL
REMARK 923 INTER-LIGAND FREE ENERGY PREDICTED BY IDOCK:   -8.68 KCAL/MOL
REMARK 924 INTRA-LIGAND FREE ENERGY PREDICTED BY IDOCK:   -1.03 KCAL/MOL
REMARK 927      BINDING AFFINITY PREDICTED BY RF-SCORE:    0.00 PKD
ROOT
HETATM    1  C   UNL     1      -9.769   9.211  67.288  1.00  0.00    -0.173 C  
ENDROOT
BRANCH   1   2
HETATM    2  C   UNL     1     -10.909   9.542  68.374  1.00  0.00    -0.137 C  
HETATM    3  H   UNL     1     -10.552   7.912  69.580  1.00  0.00     0.000 HD 
HETATM    4  N   UNL     1     -11.129   8.749  69.492  1.00  0.00    -0.064 N  
HETATM    5  O   UNL     1     -11.683  10.475  68.168  1.00  0.00    -0.431 OA 
BRANCH   4   6
HETATM    6  C   UNL     1     -12.142   8.998  70.599  1.00  0.00    -0.036 C  
HETATM    7  C   UNL     1     -13.252  10.264  71.919  1.00  0.00    -0.445 C  
HETATM    8  F   UNL     1     -13.485  11.523  72.347  1.00  0.00    -0.569 F  
HETATM    9  C   UNL     1     -11.763   9.811  71.869  1.00  0.00    -0.119 C  
HETATM   10  F   UNL     1     -14.078   9.456  72.623  1.00  0.00    -0.456 F  
HETATM   11  C   UNL     1     -13.264  10.045  70.380  1.00  0.00     0.066 C  
ENDBRANCH   4   6
ENDBRANCH   1   2
BRANCH   1  12
HETATM   12  N   UNL     1      -9.029  10.454  66.837  1.00  0.00    -0.139 N  
HETATM   13  O   UNL     1      -8.247  10.965  68.947  1.00  0.00    -0.140 OA 
HETATM   14  C   UNL     1      -8.285  11.238  67.744  1.00  0.00    -0.120 C  
BRANCH  12  15
HETATM   15  C   UNL     1      -9.100  10.766  65.459  1.00  0.00    -0.199 A  
HETATM   16  C   UNL     1      -8.072  10.434  64.576  1.00  0.00    -0.114 A  
HETATM   17  C   UNL     1     -10.356  11.528  63.567  1.00  0.00    -0.433 A  
HETATM   18  N   UNL     1      -8.152  10.608  63.236  1.00  0.00    -0.080 NA 
HETATM   19  F   UNL     1     -11.474  12.043  63.046  1.00  0.00    -0.384 F  
HETATM   20  C   UNL     1     -10.262  11.321  64.932  1.00  0.00    -0.341 A  
HETATM   21  C   UNL     1      -9.296  11.160  62.762  1.00  0.00    -0.351 A  
ENDBRANCH  12  15
BRANCH  14  22
HETATM   22  C   UNL     1      -7.434  12.432  67.176  1.00  0.00    -0.095 C  
HETATM   23  C   UNL     1      -5.941  13.093  68.933  1.00  0.00    -0.079 C  
HETATM   24  C   UNL     1      -5.990  12.280  67.650  1.00  0.00    -0.119 C  
HETATM   25  N   UNL     1      -7.769  13.781  67.632  1.00  0.00    -0.165 N  
HETATM   26  O   UNL     1      -6.912  15.243  69.311  1.00  0.00    -0.138 OA 
HETATM   27  C   UNL     1      -6.924  14.201  68.670  1.00  0.00    -0.107 C  
BRANCH  25  28
HETATM   28  C   UNL     1      -8.649  14.671  66.969  1.00  0.00    -0.224 A  
HETATM   29  N   UNL     1      -8.220  15.930  66.726  1.00  0.00    -0.247 NA 
HETATM   30  C   UNL     1      -8.992  16.800  66.045  1.00  0.00    -0.185 A  
HETATM   31  C   UNL     1     -10.238  16.479  65.562  1.00  0.00    -0.261 A  
HETATM   32  C   UNL     1     -10.696  15.190  65.808  1.00  0.00    -0.359 A  
HETATM   33  C   UNL     1      -9.899  14.274  66.513  1.00  0.00    -0.299 A  
HETATM   34  C   UNL     1     -11.988  14.796  65.332  1.00  0.00    -0.209 C  
HETATM   35  N   UNL     1     -13.034  14.466  64.954  1.00  0.00    -0.572 NA 
ENDBRANCH  25  28
ENDBRANCH  14  22
ENDBRANCH   1  12
BRANCH   1  36
HETATM   36  C   UNL     1      -8.819   7.984  67.286  1.00  0.00    -0.135 A  
HETATM   37  C   UNL     1      -6.472   7.255  67.619  1.00  0.00    -0.052 A  
HETATM   38  C   UNL     1      -6.771   5.981  67.183  1.00  0.00    -0.061 A  
HETATM   39 CL   UNL     1     -10.740   6.049  67.044  1.00  0.00    -0.379 Cl 
HETATM   40  C   UNL     1      -8.101   5.670  66.905  1.00  0.00    -0.102 A  
HETATM   41  C   UNL     1      -7.461   8.238  67.643  1.00  0.00    -0.094 A  
HETATM   42  C   UNL     1      -9.125   6.642  67.034  1.00  0.00    -0.130 A  
ENDBRANCH   1  36
TORSDOF 7
ENDMDL
MODEL       59
REMARK 921   NORMALIZED FREE ENERGY PREDICTED BY IDOCK:   -5.84 KCAL/MOL
REMARK 922        TOTAL FREE ENERGY PREDICTED BY IDOCK:   -9.69 KCAL/MOL
REMARK 923 INTER-LIGAND FREE ENERGY PREDICTED BY IDOCK:   -8.47 KCAL/MOL
REMARK 924 INTRA-LIGAND FREE ENERGY PREDICTED BY IDOCK:   -1.22 KCAL/MOL
REMARK 927      BINDING AFFINITY PREDICTED BY RF-SCORE:    0.00 PKD
ROOT
HETATM    1  C   UNL     1     -10.541  13.251  67.147  1.00  0.00    -0.258 C  
ENDROOT
BRANCH   1   2
HETATM    2  C   UNL     1     -10.082  14.653  66.505  1.00  0.00    -0.279 C  
HETATM    3  H   UNL     1     -10.203  15.749  68.243  1.00  0.00     0.000 HD 
HETATM    4  N   UNL     1      -9.954  15.813  67.256  1.00  0.00    -0.235 N  
HETATM    5  O   UNL     1      -9.926  14.734  65.288  1.00  0.00    -0.361 OA 
BRANCH   4   6
HETATM    6  C   UNL     1      -9.482  17.171  66.759  1.00  0.00    -0.267 C  
HETATM    7  C   UNL     1      -9.412  19.308  66.825  1.00  0.00    -0.329 C  
HETATM    8  F   UNL     1      -9.857  20.435  67.419  1.00  0.00    -0.504 F  
HETATM    9  C   UNL     1     -10.496  18.285  66.374  1.00  0.00    -0.387 C  
HETATM   10  F   UNL     1      -8.545  19.695  65.861  1.00  0.00    -0.345 F  
HETATM   11  C   UNL     1      -8.894  18.188  67.771  1.00  0.00    -0.259 C  
ENDBRANCH   4   6
ENDBRANCH   1   2
BRANCH   1  12
HETATM   12  N   UNL     1      -9.479  12.180  67.006  1.00  0.00    -0.196 N  
HETATM   13  O   UNL     1     -10.485  11.176  65.189  1.00  0.00    -0.276 OA 
HETATM   14  C   UNL     1      -9.540  11.213  65.981  1.00  0.00    -0.217 C  
BRANCH  12  15
HETATM   15  C   UNL     1      -8.413  12.223  67.936  1.00  0.00    -0.165 A  
HETATM   16  C   UNL     1      -8.228  11.222  68.890  1.00  0.00    -0.079 A  
HETATM   17  C   UNL     1      -6.363  13.200  68.696  1.00  0.00    -0.083 A  
HETATM   18  N   UNL     1      -7.158  11.166  69.717  1.00  0.00    -0.068 NA 
HETATM   19  F   UNL     1      -5.423  14.147  68.606  1.00  0.00    -0.077 F  
HETATM   20  C   UNL     1      -7.454  13.227  67.845  1.00  0.00    -0.143 A  
HETATM   21  C   UNL     1      -6.249  12.166  69.604  1.00  0.00    -0.131 A  
ENDBRANCH  12  15
BRANCH  14  22
HETATM   22  C   UNL     1      -8.329  10.222  65.817  1.00  0.00    -0.152 C  
HETATM   23  C   UNL     1      -7.804  10.180  63.477  1.00  0.00    -0.158 C  
HETATM   24  C   UNL     1      -7.355  10.797  64.791  1.00  0.00     0.274 C  
HETATM   25  N   UNL     1      -8.610   8.895  65.269  1.00  0.00    -0.175 N  
HETATM   26  O   UNL     1      -8.452   7.911  63.101  1.00  0.00    -0.009 OA 
HETATM   27  C   UNL     1      -8.325   8.832  63.896  1.00  0.00    -0.141 C  
BRANCH  25  28
HETATM   28  C   UNL     1      -8.883   7.737  66.036  1.00  0.00    -0.157 A  
HETATM   29  N   UNL     1     -10.152   7.541  66.464  1.00  0.00    -0.179 NA 
HETATM   30  C   UNL     1     -10.482   6.426  67.147  1.00  0.00    -0.277 A  
HETATM   31  C   UNL     1      -9.578   5.436  67.449  1.00  0.00    -0.139 A  
HETATM   32  C   UNL     1      -8.269   5.625  67.021  1.00  0.00    -0.101 A  
HETATM   33  C   UNL     1      -7.914   6.780  66.306  1.00  0.00    -0.108 A  
HETATM   34  C   UNL     1      -7.280   4.630  67.309  1.00  0.00    -0.073 C  
HETATM   35  N   UNL     1      -6.469   3.832  67.537  1.00  0.00    -0.037 NA 
ENDBRANCH  25  28
ENDBRANCH  14  22
ENDBRANCH   1  12
BRANCH   1  36
HETATM   36  C   UNL     1     -11.341  13.052  68.462  1.00  0.00    -0.323 A  
HETATM   37  C   UNL     1     -12.555  14.230  70.277  1.00  0.00    -0.378 A  
HETATM   38  C   UNL     1     -12.689  13.057  70.992  1.00  0.00    -0.347 A  
HETATM   39 CL   UNL     1     -11.532  10.323  68.353  1.00  0.00    -0.240 Cl 
HETATM   40  C   UNL     1     -12.256  11.869  70.406  1.00  0.00    -0.399 A  
HETATM   41  C   UNL     1     -11.875  14.233  69.059  1.00  0.00    -0.370 A  
HETATM   42  C   UNL     1     -11.662  11.859  69.119  1.00  0.00    -0.319 A  
ENDBRANCH   1  36
TORSDOF 7
ENDMDL
MODEL       60
REMARK 921   NORMALIZED FREE ENERGY PREDICTED BY IDOCK:   -5.84 KCAL/MOL
REMARK 922        TOTAL FREE ENERGY PREDICTED BY IDOCK:   -9.68 KCAL/MOL
REMARK 923 INTER-LIGAND FREE ENERGY PREDICTED BY IDOCK:   -7.75 KCAL/MOL
REMARK 924 INTRA-LIGAND FREE ENERGY PREDICTED BY IDOCK:   -1.94 KCAL/MOL
REMARK 927      BINDING AFFINITY PREDICTED BY RF-SCORE:    0.00 PKD
ROOT
HETATM    1  C   UNL     1     -10.503   9.089  69.496  1.00  0.00    -0.219 C  
ENDROOT
BRANCH   1   2
HETATM    2  C   UNL     1     -11.167  10.471  69.006  1.00  0.00    -0.259 C  
HETATM    3  H   UNL     1     -10.726  10.240  67.010  1.00  0.00     0.000 HD 
HETATM    4  N   UNL     1     -11.189  10.860  67.674  1.00  0.00    -0.313 N  
HETATM    5  O   UNL     1     -11.591  11.264  69.846  1.00  0.00    -0.289 OA 
BRANCH   4   6
HETATM    6  C   UNL     1     -11.832  12.115  67.104  1.00  0.00    -0.222 C  
HETATM    7  C   UNL     1     -11.888  13.799  65.785  1.00  0.00    -0.372 C  
HETATM    8  F   UNL     1     -11.254  14.503  64.825  1.00  0.00    -0.343 F  
HETATM    9  C   UNL     1     -11.063  13.466  67.063  1.00  0.00    -0.310 C  
HETATM   10  F   UNL     1     -13.070  14.421  66.006  1.00  0.00    -0.430 F  
HETATM   11  C   UNL     1     -11.980  12.262  65.568  1.00  0.00    -0.387 C  
ENDBRANCH   4   6
ENDBRANCH   1   2
BRANCH   1  12
HETATM   12  N   UNL     1      -9.318   8.688  68.641  1.00  0.00    -0.142 N  
HETATM   13  O   UNL     1      -8.160  10.647  69.020  1.00  0.00    -0.132 OA 
HETATM   14  C   UNL     1      -8.197   9.531  68.494  1.00  0.00    -0.113 C  
BRANCH  12  15
HETATM   15  C   UNL     1      -9.386   7.415  68.026  1.00  0.00    -0.135 A  
HETATM   16  C   UNL     1     -10.091   7.207  66.840  1.00  0.00    -0.238 A  
HETATM   17  C   UNL     1      -8.648   5.141  67.880  1.00  0.00    -0.103 A  
HETATM   18  N   UNL     1     -10.083   6.036  66.161  1.00  0.00     0.004 NA 
HETATM   19  F   UNL     1      -7.930   4.120  68.358  1.00  0.00    -0.072 F  
HETATM   20  C   UNL     1      -8.652   6.354  68.547  1.00  0.00    -0.122 A  
HETATM   21  C   UNL     1      -9.363   5.024  66.704  1.00  0.00    -0.138 A  
ENDBRANCH  12  15
BRANCH  14  22
HETATM   22  C   UNL     1      -6.951   8.986  67.703  1.00  0.00    -0.075 C  
HETATM   23  C   UNL     1      -5.342  10.765  67.672  1.00  0.00    -0.040 C  
HETATM   24  C   UNL     1      -5.677   9.471  68.394  1.00  0.00    -0.040 C  
HETATM   25  N   UNL     1      -6.759   9.458  66.332  1.00  0.00    -0.074 N  
HETATM   26  O   UNL     1      -5.435  11.164  65.318  1.00  0.00    -0.189 OA 
HETATM   27  C   UNL     1      -5.831  10.509  66.272  1.00  0.00    -0.092 C  
BRANCH  25  28
HETATM   28  C   UNL     1      -7.230   8.800  65.170  1.00  0.00    -0.087 A  
HETATM   29  N   UNL     1      -8.046   9.484  64.336  1.00  0.00    -0.131 NA 
HETATM   30  C   UNL     1      -8.476   8.928  63.185  1.00  0.00    -0.159 A  
HETATM   31  C   UNL     1      -8.125   7.660  62.789  1.00  0.00    -0.097 A  
HETATM   32  C   UNL     1      -7.291   6.942  63.637  1.00  0.00    -0.077 A  
HETATM   33  C   UNL     1      -6.835   7.512  64.836  1.00  0.00    -0.047 A  
HETATM   34  C   UNL     1      -6.893   5.613  63.280  1.00  0.00    -0.040 C  
HETATM   35  N   UNL     1      -6.565   4.536  63.003  1.00  0.00    -0.026 NA 
ENDBRANCH  25  28
ENDBRANCH  14  22
ENDBRANCH   1  12
BRANCH   1  36
HETATM   36  C   UNL     1     -10.293   8.631  70.963  1.00  0.00    -0.275 A  
HETATM   37  C   UNL     1      -8.607   8.349  72.761  1.00  0.00    -0.240 A  
HETATM   38  C   UNL     1      -9.523   7.696  73.562  1.00  0.00    -0.347 A  
HETATM   39 CL   UNL     1     -12.932   8.315  71.619  1.00  0.00    -0.342 Cl 
HETATM   40  C   UNL     1     -10.843   7.607  73.123  1.00  0.00    -0.440 A  
HETATM   41  C   UNL     1      -8.973   8.779  71.486  1.00  0.00    -0.306 A  
HETATM   42  C   UNL     1     -11.238   8.141  71.871  1.00  0.00    -0.290 A  
ENDBRANCH   1  36
TORSDOF 7
ENDMDL
MODEL       61
REMARK 921   NORMALIZED FREE ENERGY PREDICTED BY IDOCK:   -5.83 KCAL/MOL
REMARK 922        TOTAL FREE ENERGY PREDICTED BY IDOCK:   -9.68 KCAL/MOL
REMARK 923 INTER-LIGAND FREE ENERGY PREDICTED BY IDOCK:   -8.01 KCAL/MOL
REMARK 924 INTRA-LIGAND FREE ENERGY PREDICTED BY IDOCK:   -1.66 KCAL/MOL
REMARK 927      BINDING AFFINITY PREDICTED BY RF-SCORE:    0.00 PKD
ROOT
HETATM    1  C   UNL     1     -10.247  11.541  68.156  1.00  0.00    -0.194 C  
ENDROOT
BRANCH   1   2
HETATM    2  C   UNL     1     -11.406  11.109  69.185  1.00  0.00    -0.273 C  
HETATM    3  H   UNL     1     -10.157  10.294  70.604  1.00  0.00     0.000 HD 
HETATM    4  N   UNL     1     -11.136  10.497  70.401  1.00  0.00    -0.289 N  
HETATM    5  O   UNL     1     -12.583  11.236  68.852  1.00  0.00    -0.327 OA 
BRANCH   4   6
HETATM    6  C   UNL     1     -12.149  10.096  71.462  1.00  0.00    -0.351 C  
HETATM    7  C   UNL     1     -13.605   8.776  72.308  1.00  0.00    -0.430 C  
HETATM    8  F   UNL     1     -14.299   7.626  72.177  1.00  0.00    -0.410 F  
HETATM    9  C   UNL     1     -13.613   9.738  71.083  1.00  0.00    -0.233 C  
HETATM   10  F   UNL     1     -13.993   9.331  73.480  1.00  0.00     0.088 F  
HETATM   11  C   UNL     1     -12.068   8.683  72.096  1.00  0.00    -0.451 C  
ENDBRANCH   4   6
ENDBRANCH   1   2
BRANCH   1  12
HETATM   12  N   UNL     1      -9.171  10.482  68.026  1.00  0.00    -0.140 N  
HETATM   13  O   UNL     1     -10.645   8.809  67.433  1.00  0.00    -0.279 OA 
HETATM   14  C   UNL     1      -9.480   9.161  67.637  1.00  0.00    -0.140 C  
BRANCH  12  15
HETATM   15  C   UNL     1      -7.843  10.897  68.286  1.00  0.00    -0.118 A  
HETATM   16  C   UNL     1      -7.061  11.513  67.308  1.00  0.00    -0.128 A  
HETATM   17  C   UNL     1      -6.060  11.293  69.834  1.00  0.00    -0.130 A  
HETATM   18  N   UNL     1      -5.833  12.029  67.550  1.00  0.00    -0.093 NA 
HETATM   19  F   UNL     1      -5.556  11.217  71.070  1.00  0.00    -0.119 F  
HETATM   20  C   UNL     1      -7.323  10.792  69.572  1.00  0.00    -0.125 A  
HETATM   21  C   UNL     1      -5.356  11.901  68.812  1.00  0.00    -0.049 A  
ENDBRANCH  12  15
BRANCH  14  22
HETATM   22  C   UNL     1      -8.294   8.158  67.392  1.00  0.00    -0.122 C  
HETATM   23  C   UNL     1      -9.270   6.175  66.462  1.00  0.00    -0.161 C  
HETATM   24  C   UNL     1      -8.523   7.436  66.065  1.00  0.00    -0.152 C  
HETATM   25  N   UNL     1      -8.144   7.044  68.329  1.00  0.00    -0.122 N  
HETATM   26  O   UNL     1      -8.802   4.752  68.324  1.00  0.00    -0.101 OA 
HETATM   27  C   UNL     1      -8.714   5.865  67.825  1.00  0.00    -0.104 C  
BRANCH  25  28
HETATM   28  C   UNL     1      -7.318   7.052  69.479  1.00  0.00    -0.094 A  
HETATM   29  N   UNL     1      -6.047   6.606  69.354  1.00  0.00    -0.025 NA 
HETATM   30  C   UNL     1      -5.198   6.648  70.400  1.00  0.00    -0.018 A  
HETATM   31  C   UNL     1      -5.554   7.132  71.637  1.00  0.00    -0.036 A  
HETATM   32  C   UNL     1      -6.858   7.589  71.783  1.00  0.00    -0.057 A  
HETATM   33  C   UNL     1      -7.750   7.555  70.699  1.00  0.00    -0.090 A  
HETATM   34  C   UNL     1      -7.290   8.103  73.048  1.00  0.00    -0.123 C  
HETATM   35  N   UNL     1      -7.652   8.520  74.068  1.00  0.00    -0.386 NA 
ENDBRANCH  25  28
ENDBRANCH  14  22
ENDBRANCH   1  12
BRANCH   1  36
HETATM   36  C   UNL     1     -10.436  12.290  66.810  1.00  0.00    -0.242 A  
HETATM   37  C   UNL     1     -11.043  12.012  64.421  1.00  0.00    -0.399 A  
HETATM   38  C   UNL     1     -10.692  13.318  64.146  1.00  0.00    -0.350 A  
HETATM   39 CL   UNL     1     -10.186  14.837  67.782  1.00  0.00    -0.231 Cl 
HETATM   40  C   UNL     1     -10.321  14.142  65.207  1.00  0.00    -0.409 A  
HETATM   41  C   UNL     1     -10.893  11.503  65.711  1.00  0.00    -0.319 A  
HETATM   42  C   UNL     1     -10.272  13.652  66.536  1.00  0.00    -0.284 A  
ENDBRANCH   1  36
TORSDOF 7
ENDMDL
MODEL       62
REMARK 921   NORMALIZED FREE ENERGY PREDICTED BY IDOCK:   -5.74 KCAL/MOL
REMARK 922        TOTAL FREE ENERGY PREDICTED BY IDOCK:   -9.55 KCAL/MOL
REMARK 923 INTER-LIGAND FREE ENERGY PREDICTED BY IDOCK:   -8.80 KCAL/MOL
REMARK 924 INTRA-LIGAND FREE ENERGY PREDICTED BY IDOCK:   -0.74 KCAL/MOL
REMARK 927      BINDING AFFINITY PREDICTED BY RF-SCORE:    0.00 PKD
ROOT
HETATM    1  C   UNL     1      -9.682  12.779  67.446  1.00  0.00    -0.197 C  
ENDROOT
BRANCH   1   2
HETATM    2  C   UNL     1     -10.312  13.637  68.654  1.00  0.00    -0.219 C  
HETATM    3  H   UNL     1     -12.283  13.319  68.155  1.00  0.00     0.000 HD 
HETATM    4  N   UNL     1     -11.680  13.767  68.845  1.00  0.00    -0.313 N  
HETATM    5  O   UNL     1      -9.563  14.283  69.385  1.00  0.00     0.095 OA 
BRANCH   4   6
HETATM    6  C   UNL     1     -12.374  14.509  69.976  1.00  0.00    -0.323 C  
HETATM    7  C   UNL     1     -12.426  15.418  71.913  1.00  0.00    -0.377 C  
HETATM    8  F   UNL     1     -11.753  15.693  73.050  1.00  0.00    -0.496 F  
HETATM    9  C   UNL     1     -12.389  13.940  71.423  1.00  0.00    -0.383 C  
HETATM   10  F   UNL     1     -13.662  15.948  72.056  1.00  0.00    -0.518 F  
HETATM   11  C   UNL     1     -11.704  15.770  70.581  1.00  0.00    -0.412 C  
ENDBRANCH   4   6
ENDBRANCH   1   2
BRANCH   1  12
HETATM   12  N   UNL     1      -9.125  11.451  67.916  1.00  0.00    -0.159 N  
HETATM   13  O   UNL     1      -7.224  11.592  66.618  1.00  0.00    -0.132 OA 
HETATM   14  C   UNL     1      -7.881  10.970  67.455  1.00  0.00    -0.116 C  
BRANCH  12  15
HETATM   15  C   UNL     1      -9.903  10.739  68.861  1.00  0.00    -0.199 A  
HETATM   16  C   UNL     1     -11.253  10.462  68.642  1.00  0.00    -0.248 A  
HETATM   17  C   UNL     1     -10.049   9.426  70.858  1.00  0.00    -0.296 A  
HETATM   18  N   UNL     1     -11.999   9.686  69.463  1.00  0.00     0.339 NA 
HETATM   19  F   UNL     1      -9.476   8.889  71.940  1.00  0.00    -0.315 F  
HETATM   20  C   UNL     1      -9.299  10.204  69.994  1.00  0.00    -0.062 A  
HETATM   21  C   UNL     1     -11.377   9.190  70.561  1.00  0.00    -0.257 A  
ENDBRANCH  12  15
BRANCH  14  22
HETATM   22  C   UNL     1      -7.308   9.651  68.094  1.00  0.00    -0.081 C  
HETATM   23  C   UNL     1      -5.472   8.975  66.708  1.00  0.00    -0.040 C  
HETATM   24  C   UNL     1      -5.783   9.686  68.013  1.00  0.00    -0.040 C  
HETATM   25  N   UNL     1      -7.625   8.385  67.433  1.00  0.00    -0.096 N  
HETATM   26  O   UNL     1      -6.486   6.975  65.881  1.00  0.00    -0.048 OA 
HETATM   27  C   UNL     1      -6.577   7.959  66.601  1.00  0.00    -0.058 C  
BRANCH  25  28
HETATM   28  C   UNL     1      -8.717   7.545  67.761  1.00  0.00    -0.123 A  
HETATM   29  N   UNL     1      -9.794   7.551  66.942  1.00  0.00    -0.207 NA 
HETATM   30  C   UNL     1     -10.837   6.728  67.172  1.00  0.00    -0.392 A  
HETATM   31  C   UNL     1     -10.878   5.847  68.227  1.00  0.00    -0.325 A  
HETATM   32  C   UNL     1      -9.782   5.833  69.080  1.00  0.00    -0.189 A  
HETATM   33  C   UNL     1      -8.689   6.683  68.848  1.00  0.00    -0.128 A  
HETATM   34  C   UNL     1      -9.767   4.939  70.199  1.00  0.00    -0.213 C  
HETATM   35  N   UNL     1      -9.745   4.221  71.110  1.00  0.00    -0.179 NA 
ENDBRANCH  25  28
ENDBRANCH  14  22
ENDBRANCH   1  12
BRANCH   1  36
HETATM   36  C   UNL     1     -10.249  12.651  66.008  1.00  0.00    -0.287 A  
HETATM   37  C   UNL     1     -10.785  11.049  64.191  1.00  0.00    -0.344 A  
HETATM   38  C   UNL     1     -11.063  12.082  63.318  1.00  0.00    -0.400 A  
HETATM   39 CL   UNL     1     -11.109  15.236  65.733  1.00  0.00    -0.328 Cl 
HETATM   40  C   UNL     1     -11.046  13.387  63.808  1.00  0.00    -0.066 A  
HETATM   41  C   UNL     1     -10.362  11.326  65.491  1.00  0.00    -0.321 A  
HETATM   42  C   UNL     1     -10.721  13.660  65.160  1.00  0.00    -0.353 A  
ENDBRANCH   1  36
TORSDOF 7
ENDMDL
MODEL       63
REMARK 921   NORMALIZED FREE ENERGY PREDICTED BY IDOCK:   -5.70 KCAL/MOL
REMARK 922        TOTAL FREE ENERGY PREDICTED BY IDOCK:   -9.49 KCAL/MOL
REMARK 923 INTER-LIGAND FREE ENERGY PREDICTED BY IDOCK:   -8.77 KCAL/MOL
REMARK 924 INTRA-LIGAND FREE ENERGY PREDICTED BY IDOCK:   -0.73 KCAL/MOL
REMARK 927      BINDING AFFINITY PREDICTED BY RF-SCORE:    0.00 PKD
ROOT
HETATM    1  C   UNL     1      -9.846  11.544  67.385  1.00  0.00    -0.186 C  
ENDROOT
BRANCH   1   2
HETATM    2  C   UNL     1      -9.846  10.134  68.160  1.00  0.00    -0.144 C  
HETATM    3  H   UNL     1      -9.879  10.920  70.062  1.00  0.00     0.000 HD 
HETATM    4  N   UNL     1      -9.887  10.041  69.545  1.00  0.00    -0.217 N  
HETATM    5  O   UNL     1      -9.710   9.094  67.517  1.00  0.00    -0.148 OA 
BRANCH   4   6
HETATM    6  C   UNL     1      -9.941   8.765  70.370  1.00  0.00    -0.189 C  
HETATM    7  C   UNL     1     -10.537   7.620  72.076  1.00  0.00    -0.220 C  
HETATM    8  F   UNL     1     -11.174   7.613  73.266  1.00  0.00    -0.423 F  
HETATM    9  C   UNL     1      -9.485   8.747  71.856  1.00  0.00    -0.362 C  
HETATM   10  F   UNL     1     -10.085   6.361  71.871  1.00  0.00    -0.188 F  
HETATM   11  C   UNL     1     -11.310   8.248  70.882  1.00  0.00    -0.292 C  
ENDBRANCH   4   6
ENDBRANCH   1   2
BRANCH   1  12
HETATM   12  N   UNL     1      -8.465  12.165  67.326  1.00  0.00    -0.171 N  
HETATM   13  O   UNL     1      -9.166  14.218  68.110  1.00  0.00    -0.188 OA 
HETATM   14  C   UNL     1      -8.239  13.497  67.734  1.00  0.00    -0.176 C  
BRANCH  12  15
HETATM   15  C   UNL     1      -7.417  11.330  66.871  1.00  0.00    -0.145 A  
HETATM   16  C   UNL     1      -6.668  10.546  67.749  1.00  0.00    -0.069 A  
HETATM   17  C   UNL     1      -6.219  10.299  65.072  1.00  0.00    -0.125 A  
HETATM   18  N   UNL     1      -5.739   9.649  67.343  1.00  0.00    -0.040 NA 
HETATM   19  F   UNL     1      -5.997  10.144  63.762  1.00  0.00    -0.105 F  
HETATM   20  C   UNL     1      -7.181  11.194  65.507  1.00  0.00     0.347 A  
HETATM   21  C   UNL     1      -5.531   9.551  66.007  1.00  0.00    -0.040 A  
ENDBRANCH  12  15
BRANCH  14  22
HETATM   22  C   UNL     1      -6.758  14.024  67.773  1.00  0.00    -0.177 C  
HETATM   23  C   UNL     1      -6.086  13.978  70.075  1.00  0.00    -0.148 C  
HETATM   24  C   UNL     1      -5.964  13.194  68.780  1.00  0.00    -0.076 C  
HETATM   25  N   UNL     1      -6.536  15.388  68.253  1.00  0.00    -0.113 N  
HETATM   26  O   UNL     1      -5.905  16.345  70.345  1.00  0.00    -0.160 OA 
HETATM   27  C   UNL     1      -6.152  15.405  69.603  1.00  0.00    -0.140 C  
BRANCH  25  28
HETATM   28  C   UNL     1      -6.458  16.539  67.431  1.00  0.00    -0.166 A  
HETATM   29  N   UNL     1      -5.305  16.767  66.761  1.00  0.00    -0.326 NA 
HETATM   30  C   UNL     1      -5.195  17.813  65.918  1.00  0.00    -0.191 A  
HETATM   31  C   UNL     1      -6.219  18.700  65.686  1.00  0.00    -0.288 A  
HETATM   32  C   UNL     1      -7.408  18.482  66.371  1.00  0.00    -0.277 A  
HETATM   33  C   UNL     1      -7.536  17.394  67.248  1.00  0.00    -0.211 A  
HETATM   34  C   UNL     1      -8.512  19.374  66.173  1.00  0.00    -0.291 C  
HETATM   35  N   UNL     1      -9.412  20.090  66.023  1.00  0.00    -0.362 NA 
ENDBRANCH  25  28
ENDBRANCH  14  22
ENDBRANCH   1  12
BRANCH   1  36
HETATM   36  C   UNL     1     -10.656  11.900  66.111  1.00  0.00    -0.295 A  
HETATM   37  C   UNL     1     -11.015  11.318  63.726  1.00  0.00    -0.381 A  
HETATM   38  C   UNL     1     -11.834  12.414  63.548  1.00  0.00    -0.605 A  
HETATM   39 CL   UNL     1     -12.401  13.656  67.278  1.00  0.00    -0.295 Cl 
HETATM   40  C   UNL     1     -12.157  13.189  64.661  1.00  0.00    -0.462 A  
HETATM   41  C   UNL     1     -10.419  11.082  64.965  1.00  0.00    -0.344 A  
HETATM   42  C   UNL     1     -11.636  12.884  65.944  1.00  0.00    -0.377 A  
ENDBRANCH   1  36
TORSDOF 7
ENDMDL
MODEL       64
REMARK 921   NORMALIZED FREE ENERGY PREDICTED BY IDOCK:   -5.64 KCAL/MOL
REMARK 922        TOTAL FREE ENERGY PREDICTED BY IDOCK:   -9.41 KCAL/MOL
REMARK 923 INTER-LIGAND FREE ENERGY PREDICTED BY IDOCK:  -10.28 KCAL/MOL
REMARK 924 INTRA-LIGAND FREE ENERGY PREDICTED BY IDOCK:    0.87 KCAL/MOL
REMARK 927      BINDING AFFINITY PREDICTED BY RF-SCORE:    0.00 PKD
ROOT
HETATM    1  C   UNL     1     -11.351  14.154  68.043  1.00  0.00    -0.299 C  
ENDROOT
BRANCH   1   2
HETATM    2  C   UNL     1     -11.091  15.443  67.116  1.00  0.00    -0.291 C  
HETATM    3  H   UNL     1     -10.908  16.796  68.656  1.00  0.00     0.000 HD 
HETATM    4  N   UNL     1     -10.865  16.708  67.641  1.00  0.00    -0.300 N  
HETATM    5  O   UNL     1     -11.186  15.334  65.895  1.00  0.00    -0.322 OA 
BRANCH   4   6
HETATM    6  C   UNL     1     -10.561  17.976  66.858  1.00  0.00    -0.280 C  
HETATM    7  C   UNL     1      -9.573  19.852  66.574  1.00  0.00    -0.423 C  
HETATM    8  F   UNL     1      -8.728  20.773  67.085  1.00  0.00    -0.402 F  
HETATM    9  C   UNL     1     -10.731  19.381  67.502  1.00  0.00    -0.570 C  
HETATM   10  F   UNL     1      -9.955  20.309  65.360  1.00  0.00    -0.447 F  
HETATM   11  C   UNL     1      -9.085  18.376  66.603  1.00  0.00    -0.301 C  
ENDBRANCH   4   6
ENDBRANCH   1   2
BRANCH   1  12
HETATM   12  N   UNL     1     -10.233  13.137  67.939  1.00  0.00    -0.228 N  
HETATM   13  O   UNL     1     -11.520  11.577  66.829  1.00  0.00    -0.436 OA 
HETATM   14  C   UNL     1     -10.423  11.897  67.293  1.00  0.00    -0.222 C  
BRANCH  12  15
HETATM   15  C   UNL     1      -8.987  13.511  68.496  1.00  0.00    -0.086 A  
HETATM   16  C   UNL     1      -7.930  12.607  68.605  1.00  0.00    -0.030 A  
HETATM   17  C   UNL     1      -7.502  15.208  69.303  1.00  0.00    -0.193 A  
HETATM   18  N   UNL     1      -6.689  12.955  69.022  1.00  0.00    -0.098 NA 
HETATM   19  F   UNL     1      -7.261  16.482  69.630  1.00  0.00    -0.236 F  
HETATM   20  C   UNL     1      -8.757  14.836  68.853  1.00  0.00    -0.161 A  
HETATM   21  C   UNL     1      -6.506  14.253  69.369  1.00  0.00    -0.125 A  
ENDBRANCH  12  15
BRANCH  14  22
HETATM   22  C   UNL     1      -9.177  10.955  67.105  1.00  0.00    -0.148 C  
HETATM   23  C   UNL     1      -9.682   9.535  65.240  1.00  0.00    -0.268 C  
HETATM   24  C   UNL     1      -8.905  10.786  65.611  1.00  0.00    -0.202 C  
HETATM   25  N   UNL     1      -9.302   9.569  67.556  1.00  0.00    -0.126 N  
HETATM   26  O   UNL     1      -9.808   7.499  66.484  1.00  0.00    -0.208 OA 
HETATM   27  C   UNL     1      -9.609   8.705  66.493  1.00  0.00    -0.237 C  
BRANCH  25  28
HETATM   28  C   UNL     1      -8.918   9.089  68.831  1.00  0.00    -0.140 A  
HETATM   29  N   UNL     1      -9.635   9.491  69.906  1.00  0.00    -0.208 NA 
HETATM   30  C   UNL     1      -9.353   9.019  71.137  1.00  0.00    -0.266 A  
HETATM   31  C   UNL     1      -8.342   8.119  71.381  1.00  0.00    -0.146 A  
HETATM   32  C   UNL     1      -7.593   7.701  70.288  1.00  0.00    -0.089 A  
HETATM   33  C   UNL     1      -7.881   8.183  69.001  1.00  0.00    -0.108 A  
HETATM   34  C   UNL     1      -6.525   6.766  70.479  1.00  0.00    -0.047 C  
HETATM   35  N   UNL     1      -5.655   6.011  70.621  1.00  0.00    -0.013 NA 
ENDBRANCH  25  28
ENDBRANCH  14  22
ENDBRANCH   1  12
BRANCH   1  36
HETATM   36  C   UNL     1     -11.960  14.147  69.471  1.00  0.00    -0.389 A  
HETATM   37  C   UNL     1     -12.897  15.581  71.265  1.00  0.00    -0.540 A  
HETATM   38  C   UNL     1     -12.938  14.515  72.141  1.00  0.00    -0.424 A  
HETATM   39 CL   UNL     1     -12.184  11.433  69.749  1.00  0.00    -0.349 Cl 
HETATM   40  C   UNL     1     -12.601  13.250  71.661  1.00  0.00    -0.254 A  
HETATM   41  C   UNL     1     -12.395  15.409  69.975  1.00  0.00    -0.368 A  
HETATM   42  C   UNL     1     -12.194  13.058  70.317  1.00  0.00    -0.296 A  
ENDBRANCH   1  36
TORSDOF 7
ENDMDL
MODEL       65
REMARK 921   NORMALIZED FREE ENERGY PREDICTED BY IDOCK:   -5.60 KCAL/MOL
REMARK 922        TOTAL FREE ENERGY PREDICTED BY IDOCK:   -9.36 KCAL/MOL
REMARK 923 INTER-LIGAND FREE ENERGY PREDICTED BY IDOCK:   -7.14 KCAL/MOL
REMARK 924 INTRA-LIGAND FREE ENERGY PREDICTED BY IDOCK:   -2.22 KCAL/MOL
REMARK 927      BINDING AFFINITY PREDICTED BY RF-SCORE:    0.00 PKD
ROOT
HETATM    1  C   UNL     1      -8.404   8.173  68.392  1.00  0.00    -0.126 C  
ENDROOT
BRANCH   1   2
HETATM    2  C   UNL     1      -8.659   9.677  67.878  1.00  0.00    -0.122 C  
HETATM    3  H   UNL     1     -10.583   9.367  67.215  1.00  0.00     0.000 HD 
HETATM    4  N   UNL     1      -9.864  10.082  67.321  1.00  0.00    -0.174 N  
HETATM    5  O   UNL     1      -7.728  10.481  67.887  1.00  0.00    -0.091 OA 
BRANCH   4   6
HETATM    6  C   UNL     1     -10.223  11.484  66.853  1.00  0.00    -0.217 C  
HETATM    7  C   UNL     1     -11.573  12.946  66.067  1.00  0.00    -0.375 C  
HETATM    8  F   UNL     1     -12.810  13.201  65.592  1.00  0.00    -0.489 F  
HETATM    9  C   UNL     1     -10.825  11.732  65.441  1.00  0.00    -0.347 C  
HETATM   10  F   UNL     1     -10.897  14.118  66.038  1.00  0.00    -0.287 F  
HETATM   11  C   UNL     1     -11.496  12.170  67.412  1.00  0.00    -0.415 C  
ENDBRANCH   4   6
ENDBRANCH   1   2
BRANCH   1  12
HETATM   12  N   UNL     1      -8.565   8.045  69.893  1.00  0.00    -0.133 N  
HETATM   13  O   UNL     1      -6.304   7.824  70.292  1.00  0.00    -0.036 OA 
HETATM   14  C   UNL     1      -7.449   7.899  70.743  1.00  0.00    -0.072 C  
BRANCH  12  15
HETATM   15  C   UNL     1      -9.888   8.111  70.392  1.00  0.00    -0.186 A  
HETATM   16  C   UNL     1     -10.631   6.960  70.658  1.00  0.00    -0.222 A  
HETATM   17  C   UNL     1     -11.695   9.383  71.313  1.00  0.00    -0.360 A  
HETATM   18  N   UNL     1     -11.851   6.978  71.245  1.00  0.00    -0.311 NA 
HETATM   19  F   UNL     1     -12.229  10.558  71.663  1.00  0.00    -0.439 F  
HETATM   20  C   UNL     1     -10.440   9.341  70.733  1.00  0.00    -0.343 A  
HETATM   21  C   UNL     1     -12.360   8.196  71.554  1.00  0.00    -0.306 A  
ENDBRANCH  12  15
BRANCH  14  22
HETATM   22  C   UNL     1      -7.689   7.910  72.298  1.00  0.00    -0.104 C  
HETATM   23  C   UNL     1      -5.520   7.797  73.315  1.00  0.00    -0.044 C  
HETATM   24  C   UNL     1      -6.620   8.781  72.956  1.00  0.00     0.030 C  
HETATM   25  N   UNL     1      -7.543   6.644  73.016  1.00  0.00    -0.092 N  
HETATM   26  O   UNL     1      -5.791   5.624  74.273  1.00  0.00    -0.053 OA 
HETATM   27  C   UNL     1      -6.280   6.534  73.618  1.00  0.00    -0.064 C  
BRANCH  25  28
HETATM   28  C   UNL     1      -8.598   5.744  73.304  1.00  0.00    -0.118 A  
HETATM   29  N   UNL     1      -9.512   6.110  74.232  1.00  0.00    -0.162 NA 
HETATM   30  C   UNL     1     -10.571   5.320  74.502  1.00  0.00    -0.075 A  
HETATM   31  C   UNL     1     -10.789   4.117  73.873  1.00  0.00    -0.321 A  
HETATM   32  C   UNL     1      -9.856   3.725  72.921  1.00  0.00    -0.194 A  
HETATM   33  C   UNL     1      -8.752   4.542  72.628  1.00  0.00    -0.117 A  
HETATM   34  C   UNL     1     -10.028   2.481  72.232  1.00  0.00    -0.160 C  
HETATM   35  N   UNL     1     -10.155   1.475  71.670  1.00  0.00    -0.144 NA 
ENDBRANCH  25  28
ENDBRANCH  14  22
ENDBRANCH   1  12
BRANCH   1  36
HETATM   36  C   UNL     1      -8.847   6.865  67.684  1.00  0.00    -0.118 A  
HETATM   37  C   UNL     1      -8.103   4.604  66.985  1.00  0.00    -0.102 A  
HETATM   38  C   UNL     1      -9.272   4.402  66.281  1.00  0.00    -0.141 A  
HETATM   39 CL   UNL     1     -11.509   7.464  67.463  1.00  0.00     0.430 Cl 
HETATM   40  C   UNL     1     -10.272   5.369  66.363  1.00  0.00    -0.268 A  
HETATM   41  C   UNL     1      -7.883   5.813  67.646  1.00  0.00    -0.098 A  
HETATM   42  C   UNL     1     -10.090   6.551  67.124  1.00  0.00    -0.170 A  
ENDBRANCH   1  36
TORSDOF 7
ENDMDL
MODEL       66
REMARK 921   NORMALIZED FREE ENERGY PREDICTED BY IDOCK:   -5.60 KCAL/MOL
REMARK 922        TOTAL FREE ENERGY PREDICTED BY IDOCK:   -9.34 KCAL/MOL
REMARK 923 INTER-LIGAND FREE ENERGY PREDICTED BY IDOCK:   -8.18 KCAL/MOL
REMARK 924 INTRA-LIGAND FREE ENERGY PREDICTED BY IDOCK:   -1.16 KCAL/MOL
REMARK 927      BINDING AFFINITY PREDICTED BY RF-SCORE:    0.00 PKD
ROOT
HETATM    1  C   UNL     1     -10.999   9.327  69.393  1.00  0.00    -0.120 C  
ENDROOT
BRANCH   1   2
HETATM    2  C   UNL     1     -11.725  10.762  69.432  1.00  0.00    -0.306 C  
HETATM    3  H   UNL     1     -11.782  10.933  71.482  1.00  0.00     0.000 HD 
HETATM    4  N   UNL     1     -12.018  11.421  70.619  1.00  0.00    -0.352 N  
HETATM    5  O   UNL     1     -12.126  11.262  68.382  1.00  0.00    -0.598 OA 
BRANCH   4   6
HETATM    6  C   UNL     1     -12.653  12.795  70.763  1.00  0.00    -0.225 C  
HETATM    7  C   UNL     1     -12.725  14.793  71.524  1.00  0.00    -0.330 C  
HETATM    8  F   UNL     1     -12.146  15.724  72.312  1.00  0.00    -0.381 F  
HETATM    9  C   UNL     1     -12.967  13.394  72.163  1.00  0.00    -0.403 C  
HETATM   10  F   UNL     1     -13.817  15.375  70.976  1.00  0.00    -0.504 F  
HETATM   11  C   UNL     1     -11.791  14.060  70.520  1.00  0.00    -0.339 C  
ENDBRANCH   4   6
ENDBRANCH   1   2
BRANCH   1  12
HETATM   12  N   UNL     1      -9.739   9.344  68.553  1.00  0.00    -0.147 N  
HETATM   13  O   UNL     1     -10.833   8.829  66.589  1.00  0.00    -0.079 OA 
HETATM   14  C   UNL     1      -9.777   9.106  67.163  1.00  0.00    -0.182 C  
BRANCH  12  15
HETATM   15  C   UNL     1      -8.533   9.642  69.231  1.00  0.00    -0.150 A  
HETATM   16  C   UNL     1      -7.707   8.638  69.738  1.00  0.00    -0.088 A  
HETATM   17  C   UNL     1      -6.862  11.225  69.891  1.00  0.00    -0.013 A  
HETATM   18  N   UNL     1      -6.493   8.876  70.287  1.00  0.00    -0.038 NA 
HETATM   19  F   UNL     1      -6.415  12.484  69.958  1.00  0.00    -0.122 F  
HETATM   20  C   UNL     1      -8.090  10.958  69.313  1.00  0.00    -0.062 A  
HETATM   21  C   UNL     1      -6.100  10.171  70.357  1.00  0.00    -0.102 A  
ENDBRANCH  12  15
BRANCH  14  22
HETATM   22  C   UNL     1      -8.448   9.277  66.339  1.00  0.00    -0.123 C  
HETATM   23  C   UNL     1      -8.957  10.786  64.546  1.00  0.00    -0.181 C  
HETATM   24  C   UNL     1      -8.312  10.740  65.920  1.00  0.00    -0.162 C  
HETATM   25  N   UNL     1      -8.350   8.577  65.058  1.00  0.00    -0.161 N  
HETATM   26  O   UNL     1      -8.696   9.196  62.781  1.00  0.00    -0.218 OA 
HETATM   27  C   UNL     1      -8.651   9.425  63.981  1.00  0.00    -0.205 C  
BRANCH  25  28
HETATM   28  C   UNL     1      -7.780   7.294  64.873  1.00  0.00    -0.117 A  
HETATM   29  N   UNL     1      -7.313   6.976  63.643  1.00  0.00    -0.071 NA 
HETATM   30  C   UNL     1      -6.706   5.792  63.424  1.00  0.00    -0.036 A  
HETATM   31  C   UNL     1      -6.524   4.849  64.407  1.00  0.00    -0.038 A  
HETATM   32  C   UNL     1      -7.003   5.159  65.674  1.00  0.00    -0.066 A  
HETATM   33  C   UNL     1      -7.633   6.390  65.916  1.00  0.00    -0.084 A  
HETATM   34  C   UNL     1      -6.845   4.216  66.740  1.00  0.00    -0.055 C  
HETATM   35  N   UNL     1      -6.725   3.459  67.611  1.00  0.00    -0.041 NA 
ENDBRANCH  25  28
ENDBRANCH  14  22
ENDBRANCH   1  12
BRANCH   1  36
HETATM   36  C   UNL     1     -10.850   8.332  70.575  1.00  0.00    -0.245 A  
HETATM   37  C   UNL     1     -10.765   8.142  73.047  1.00  0.00    -0.208 A  
HETATM   38  C   UNL     1     -10.418   6.809  72.965  1.00  0.00    -0.280 A  
HETATM   39 CL   UNL     1     -11.005   6.021  69.116  1.00  0.00    -0.426 Cl 
HETATM   40  C   UNL     1     -10.395   6.206  71.709  1.00  0.00    -0.250 A  
HETATM   41  C   UNL     1     -10.949   8.891  71.884  1.00  0.00    -0.439 A  
HETATM   42  C   UNL     1     -10.687   6.943  70.534  1.00  0.00    -0.235 A  
ENDBRANCH   1  36
TORSDOF 7
ENDMDL
MODEL       67
REMARK 921   NORMALIZED FREE ENERGY PREDICTED BY IDOCK:   -5.58 KCAL/MOL
REMARK 922        TOTAL FREE ENERGY PREDICTED BY IDOCK:   -9.32 KCAL/MOL
REMARK 923 INTER-LIGAND FREE ENERGY PREDICTED BY IDOCK:   -7.90 KCAL/MOL
REMARK 924 INTRA-LIGAND FREE ENERGY PREDICTED BY IDOCK:   -1.41 KCAL/MOL
REMARK 927      BINDING AFFINITY PREDICTED BY RF-SCORE:    0.00 PKD
ROOT
HETATM    1  C   UNL     1     -10.171   9.454  67.042  1.00  0.00    -0.255 C  
ENDROOT
BRANCH   1   2
HETATM    2  C   UNL     1     -10.294   8.196  68.039  1.00  0.00    -0.211 C  
HETATM    3  H   UNL     1     -10.275   9.287  69.784  1.00  0.00     0.000 HD 
HETATM    4  N   UNL     1     -10.352   8.338  69.418  1.00  0.00    -0.219 N  
HETATM    5  O   UNL     1     -10.240   7.057  67.578  1.00  0.00    -0.164 OA 
BRANCH   4   6
HETATM    6  C   UNL     1     -10.517   7.225  70.441  1.00  0.00    -0.220 C  
HETATM    7  C   UNL     1     -10.471   5.176  71.054  1.00  0.00    -0.171 C  
HETATM    8  F   UNL     1     -10.266   3.892  70.691  1.00  0.00    -0.233 F  
HETATM    9  C   UNL     1     -11.440   6.005  70.161  1.00  0.00    -0.245 C  
HETATM   10  F   UNL     1     -10.771   5.162  72.374  1.00  0.00    -0.247 F  
HETATM   11  C   UNL     1      -9.375   6.195  70.635  1.00  0.00    -0.177 C  
ENDBRANCH   4   6
ENDBRANCH   1   2
BRANCH   1  12
HETATM   12  N   UNL     1      -9.826  10.734  67.774  1.00  0.00    -0.164 N  
HETATM   13  O   UNL     1     -11.996  11.517  67.785  1.00  0.00    -0.623 OA 
HETATM   14  C   UNL     1     -10.818  11.679  68.113  1.00  0.00    -0.217 C  
BRANCH  12  15
HETATM   15  C   UNL     1      -8.466  10.914  68.124  1.00  0.00    -0.131 A  
HETATM   16  C   UNL     1      -7.598  11.668  67.334  1.00  0.00    -0.139 A  
HETATM   17  C   UNL     1      -6.687  10.691  69.710  1.00  0.00    -0.130 A  
HETATM   18  N   UNL     1      -6.325  11.960  67.693  1.00  0.00    -0.074 NA 
HETATM   19  F   UNL     1      -6.223  10.242  70.882  1.00  0.00    -0.098 F  
HETATM   20  C   UNL     1      -7.991  10.422  69.335  1.00  0.00    -0.161 A  
HETATM   21  C   UNL     1      -5.896  11.457  68.876  1.00  0.00    -0.047 A  
ENDBRANCH  12  15
BRANCH  14  22
HETATM   22  C   UNL     1     -10.402  12.915  68.992  1.00  0.00     0.068 C  
HETATM   23  C   UNL     1     -12.409  13.700  70.044  1.00  0.00    -0.342 C  
HETATM   24  C   UNL     1     -11.170  12.864  70.312  1.00  0.00     0.556 C  
HETATM   25  N   UNL     1     -10.737  14.248  68.490  1.00  0.00    -0.248 N  
HETATM   26  O   UNL     1     -12.512  15.790  68.891  1.00  0.00    -0.003 OA 
HETATM   27  C   UNL     1     -11.915  14.739  69.074  1.00  0.00    -0.273 C  
BRANCH  25  28
HETATM   28  C   UNL     1      -9.879  15.067  67.718  1.00  0.00    -0.220 A  
HETATM   29  N   UNL     1     -10.440  15.919  66.829  1.00  0.00    -0.306 NA 
HETATM   30  C   UNL     1      -9.675  16.766  66.111  1.00  0.00    -0.291 A  
HETATM   31  C   UNL     1      -8.306  16.821  66.226  1.00  0.00    -0.353 A  
HETATM   32  C   UNL     1      -7.714  15.948  67.130  1.00  0.00    -0.247 A  
HETATM   33  C   UNL     1      -8.501  15.064  67.887  1.00  0.00    -0.149 A  
HETATM   34  C   UNL     1      -6.291  15.956  67.293  1.00  0.00    -0.113 C  
HETATM   35  N   UNL     1      -5.140  15.951  67.433  1.00  0.00    -0.313 NA 
ENDBRANCH  25  28
ENDBRANCH  14  22
ENDBRANCH   1  12
BRANCH   1  36
HETATM   36  C   UNL     1      -9.541   9.453  65.624  1.00  0.00    -0.345 A  
HETATM   37  C   UNL     1      -9.662  10.478  63.368  1.00  0.00    -0.368 A  
HETATM   38  C   UNL     1      -8.744   9.575  62.872  1.00  0.00    -0.233 A  
HETATM   39 CL   UNL     1      -7.407   7.832  66.183  1.00  0.00    -0.077 Cl 
HETATM   40  C   UNL     1      -8.141   8.687  63.762  1.00  0.00    -0.163 A  
HETATM   41  C   UNL     1     -10.071  10.402  64.699  1.00  0.00    -0.378 A  
HETATM   42  C   UNL     1      -8.478   8.683  65.138  1.00  0.00    -0.179 A  
ENDBRANCH   1  36
TORSDOF 7
ENDMDL
MODEL       68
REMARK 921   NORMALIZED FREE ENERGY PREDICTED BY IDOCK:   -5.53 KCAL/MOL
REMARK 922        TOTAL FREE ENERGY PREDICTED BY IDOCK:   -9.25 KCAL/MOL
REMARK 923 INTER-LIGAND FREE ENERGY PREDICTED BY IDOCK:   -7.45 KCAL/MOL
REMARK 924 INTRA-LIGAND FREE ENERGY PREDICTED BY IDOCK:   -1.81 KCAL/MOL
REMARK 927      BINDING AFFINITY PREDICTED BY RF-SCORE:    0.00 PKD
ROOT
HETATM    1  C   UNL     1      -9.033   9.994  68.455  1.00  0.00    -0.124 C  
ENDROOT
BRANCH   1   2
HETATM    2  C   UNL     1     -10.019  10.024  67.184  1.00  0.00    -0.201 C  
HETATM    3  H   UNL     1     -10.208  12.071  67.090  1.00  0.00     0.000 HD 
HETATM    4  N   UNL     1     -10.489  11.206  66.629  1.00  0.00    -0.241 N  
HETATM    5  O   UNL     1     -10.455   8.964  66.737  1.00  0.00    -0.260 OA 
BRANCH   4   6
HETATM    6  C   UNL     1     -11.380  11.345  65.404  1.00  0.00     0.003 C  
HETATM    7  C   UNL     1     -12.152  12.411  63.717  1.00  0.00    -0.529 C  
HETATM    8  F   UNL     1     -12.151  13.561  63.011  1.00  0.00    -0.545 F  
HETATM    9  C   UNL     1     -12.363  12.539  65.255  1.00  0.00    -0.469 C  
HETATM   10  F   UNL     1     -13.002  11.568  63.086  1.00  0.00    -0.632 F  
HETATM   11  C   UNL     1     -10.759  11.811  64.062  1.00  0.00    -0.434 C  
ENDBRANCH   4   6
ENDBRANCH   1   2
BRANCH   1  12
HETATM   12  N   UNL     1      -8.984   8.629  69.111  1.00  0.00    -0.141 N  
HETATM   13  O   UNL     1      -7.283   7.850  67.762  1.00  0.00    -0.086 OA 
HETATM   14  C   UNL     1      -8.057   7.648  68.701  1.00  0.00    -0.127 C  
BRANCH  12  15
HETATM   15  C   UNL     1      -9.894   8.407  70.172  1.00  0.00    -0.181 A  
HETATM   16  C   UNL     1      -9.743   9.028  71.412  1.00  0.00    -0.299 A  
HETATM   17  C   UNL     1     -11.963   7.507  70.975  1.00  0.00    -0.290 A  
HETATM   18  N   UNL     1     -10.653   8.934  72.411  1.00  0.00    -0.162 NA 
HETATM   19  F   UNL     1     -13.071   6.785  70.777  1.00  0.00    -0.357 F  
HETATM   20  C   UNL     1     -11.031   7.635  69.960  1.00  0.00    -0.237 A  
HETATM   21  C   UNL     1     -11.744   8.166  72.169  1.00  0.00    -0.359 A  
ENDBRANCH  12  15
BRANCH  14  22
HETATM   22  C   UNL     1      -7.976   6.308  69.521  1.00  0.00    -0.108 C  
HETATM   23  C   UNL     1      -5.712   6.125  70.292  1.00  0.00    -0.014 C  
HETATM   24  C   UNL     1      -7.101   6.535  70.753  1.00  0.00    -0.069 C  
HETATM   25  N   UNL     1      -7.326   5.162  68.885  1.00  0.00    -0.064 N  
HETATM   26  O   UNL     1      -5.139   4.215  68.977  1.00  0.00    -0.003 OA 
HETATM   27  C   UNL     1      -5.993   5.027  69.303  1.00  0.00    -0.017 C  
BRANCH  25  28
HETATM   28  C   UNL     1      -7.992   4.154  68.147  1.00  0.00    -0.081 A  
HETATM   29  N   UNL     1      -8.102   2.925  68.701  1.00  0.00    -0.056 NA 
HETATM   30  C   UNL     1      -8.778   1.944  68.069  1.00  0.00    -0.095 A  
HETATM   31  C   UNL     1      -9.386   2.118  66.849  1.00  0.00     0.023 A  
HETATM   32  C   UNL     1      -9.277   3.374  66.264  1.00  0.00    -0.168 A  
HETATM   33  C   UNL     1      -8.579   4.404  66.914  1.00  0.00    -0.104 A  
HETATM   34  C   UNL     1      -9.888   3.617  64.991  1.00  0.00    -0.146 C  
HETATM   35  N   UNL     1     -10.376   3.825  63.960  1.00  0.00    -0.238 NA 
ENDBRANCH  25  28
ENDBRANCH  14  22
ENDBRANCH   1  12
BRANCH   1  36
HETATM   36  C   UNL     1      -7.660  10.705  68.578  1.00  0.00    -0.097 A  
HETATM   37  C   UNL     1      -5.961  11.536  70.184  1.00  0.00    -0.159 A  
HETATM   38  C   UNL     1      -5.254  12.149  69.170  1.00  0.00    -0.055 A  
HETATM   39 CL   UNL     1      -7.009  10.687  65.919  1.00  0.00    -0.133 Cl 
HETATM   40  C   UNL     1      -5.676  11.953  67.855  1.00  0.00    -0.054 A  
HETATM   41  C   UNL     1      -7.146  10.857  69.902  1.00  0.00    -0.052 A  
HETATM   42  C   UNL     1      -6.821  11.171  67.560  1.00  0.00    -0.086 A  
ENDBRANCH   1  36
TORSDOF 7
ENDMDL
MODEL       69
REMARK 921   NORMALIZED FREE ENERGY PREDICTED BY IDOCK:   -5.50 KCAL/MOL
REMARK 922        TOTAL FREE ENERGY PREDICTED BY IDOCK:   -9.21 KCAL/MOL
REMARK 923 INTER-LIGAND FREE ENERGY PREDICTED BY IDOCK:   -9.06 KCAL/MOL
REMARK 924 INTRA-LIGAND FREE ENERGY PREDICTED BY IDOCK:   -0.15 KCAL/MOL
REMARK 927      BINDING AFFINITY PREDICTED BY RF-SCORE:    0.00 PKD
ROOT
HETATM    1  C   UNL     1      -9.279   9.854  66.644  1.00  0.00    -0.153 C  
ENDROOT
BRANCH   1   2
HETATM    2  C   UNL     1      -9.917   8.998  67.848  1.00  0.00    -0.178 C  
HETATM    3  H   UNL     1      -8.710   7.348  67.618  1.00  0.00     0.000 HD 
HETATM    4  N   UNL     1      -9.458   7.735  68.193  1.00  0.00    -0.145 N  
HETATM    5  O   UNL     1     -10.910   9.430  68.432  1.00  0.00    -0.194 OA 
BRANCH   4   6
HETATM    6  C   UNL     1      -9.955   6.868  69.339  1.00  0.00    -0.160 C  
HETATM    7  C   UNL     1     -11.407   6.282  70.798  1.00  0.00    -0.332 C  
HETATM    8  F   UNL     1     -12.616   6.523  71.349  1.00  0.00    -0.376 F  
HETATM    9  C   UNL     1     -10.445   7.500  70.673  1.00  0.00    -0.221 C  
HETATM   10  F   UNL     1     -10.897   5.205  71.438  1.00  0.00    -0.280 F  
HETATM   11  C   UNL     1     -11.358   6.214  69.245  1.00  0.00    -0.361 C  
ENDBRANCH   4   6
ENDBRANCH   1   2
BRANCH   1  12
HETATM   12  N   UNL     1      -9.703  11.308  66.686  1.00  0.00    -0.193 N  
HETATM   13  O   UNL     1      -8.468  11.794  68.572  1.00  0.00    -0.158 OA 
HETATM   14  C   UNL     1      -9.219  12.188  67.677  1.00  0.00    -0.181 C  
BRANCH  12  15
HETATM   15  C   UNL     1     -10.583  11.738  65.664  1.00  0.00    -0.268 A  
HETATM   16  C   UNL     1     -10.476  11.266  64.355  1.00  0.00    -0.345 A  
HETATM   17  C   UNL     1     -12.562  12.904  64.986  1.00  0.00    -0.472 A  
HETATM   18  N   UNL     1     -11.367  11.561  63.379  1.00  0.00    -0.310 NA 
HETATM   19  F   UNL     1     -13.606  13.688  65.276  1.00  0.00    -0.195 F  
HETATM   20  C   UNL     1     -11.653  12.571  65.975  1.00  0.00    -0.456 A  
HETATM   21  C   UNL     1     -12.390  12.383  63.718  1.00  0.00    -0.528 A  
ENDBRANCH  12  15
BRANCH  14  22
HETATM   22  C   UNL     1      -9.597  13.711  67.571  1.00  0.00    -0.220 C  
HETATM   23  C   UNL     1      -7.525  14.911  67.425  1.00  0.00    -0.228 C  
HETATM   24  C   UNL     1      -8.663  14.384  66.567  1.00  0.00    -0.042 C  
HETATM   25  N   UNL     1      -9.416  14.538  68.765  1.00  0.00    -0.203 N  
HETATM   26  O   UNL     1      -7.708  16.014  69.537  1.00  0.00    -0.217 OA 
HETATM   27  C   UNL     1      -8.207  15.249  68.723  1.00  0.00    -0.169 C  
BRANCH  25  28
HETATM   28  C   UNL     1     -10.418  14.809  69.727  1.00  0.00    -0.065 A  
HETATM   29  N   UNL     1     -10.632  16.098  70.080  1.00  0.00    -0.271 NA 
HETATM   30  C   UNL     1     -11.614  16.420  70.946  1.00  0.00    -0.152 A  
HETATM   31  C   UNL     1     -12.445  15.486  71.519  1.00  0.00    -0.474 A  
HETATM   32  C   UNL     1     -12.234  14.158  71.171  1.00  0.00    -0.435 A  
HETATM   33  C   UNL     1     -11.218  13.811  70.267  1.00  0.00     0.181 A  
HETATM   34  C   UNL     1     -13.066  13.138  71.737  1.00  0.00    -0.383 C  
HETATM   35  N   UNL     1     -13.732  12.303  72.190  1.00  0.00    -0.280 NA 
ENDBRANCH  25  28
ENDBRANCH  14  22
ENDBRANCH   1  12
BRANCH   1  36
HETATM   36  C   UNL     1      -7.842   9.724  66.076  1.00  0.00    -0.107 A  
HETATM   37  C   UNL     1      -6.474   9.862  64.010  1.00  0.00    -0.126 A  
HETATM   38  C   UNL     1      -5.364   9.381  64.675  1.00  0.00    -0.054 A  
HETATM   39 CL   UNL     1      -6.531   9.512  68.469  1.00  0.00    -0.052 Cl 
HETATM   40  C   UNL     1      -5.451   9.177  66.051  1.00  0.00    -0.041 A  
HETATM   41  C   UNL     1      -7.687  10.003  64.684  1.00  0.00    -0.146 A  
HETATM   42  C   UNL     1      -6.656   9.424  66.755  1.00  0.00    -0.068 A  
ENDBRANCH   1  36
TORSDOF 7
ENDMDL
MODEL       70
REMARK 921   NORMALIZED FREE ENERGY PREDICTED BY IDOCK:   -5.50 KCAL/MOL
REMARK 922        TOTAL FREE ENERGY PREDICTED BY IDOCK:   -9.21 KCAL/MOL
REMARK 923 INTER-LIGAND FREE ENERGY PREDICTED BY IDOCK:   -8.09 KCAL/MOL
REMARK 924 INTRA-LIGAND FREE ENERGY PREDICTED BY IDOCK:   -1.12 KCAL/MOL
REMARK 927      BINDING AFFINITY PREDICTED BY RF-SCORE:    0.00 PKD
ROOT
HETATM    1  C   UNL     1      -8.666   6.767  70.653  1.00  0.00    -0.143 C  
ENDROOT
BRANCH   1   2
HETATM    2  C   UNL     1      -8.129   5.794  69.489  1.00  0.00    -0.108 C  
HETATM    3  H   UNL     1      -9.888   5.721  68.424  1.00  0.00     0.000 HD 
HETATM    4  N   UNL     1      -8.922   5.396  68.422  1.00  0.00    -0.107 N  
HETATM    5  O   UNL     1      -7.005   5.303  69.588  1.00  0.00    -0.054 OA 
BRANCH   4   6
HETATM    6  C   UNL     1      -8.498   4.523  67.250  1.00  0.00    -0.104 C  
HETATM    7  C   UNL     1      -8.892   3.347  65.507  1.00  0.00    -0.134 C  
HETATM    8  F   UNL     1      -9.824   2.837  64.675  1.00  0.00    -0.152 F  
HETATM    9  C   UNL     1      -9.117   3.114  67.030  1.00  0.00    -0.198 C  
HETATM   10  F   UNL     1      -7.689   2.947  65.033  1.00  0.00    -0.075 F  
HETATM   11  C   UNL     1      -9.007   4.864  65.826  1.00  0.00    -0.142 C  
ENDBRANCH   4   6
ENDBRANCH   1   2
BRANCH   1  12
HETATM   12  N   UNL     1      -9.510   7.901  70.108  1.00  0.00    -0.160 N  
HETATM   13  O   UNL     1      -7.814   8.770  68.808  1.00  0.00    -0.098 OA 
HETATM   14  C   UNL     1      -8.990   8.825  69.177  1.00  0.00    -0.137 C  
BRANCH  12  15
HETATM   15  C   UNL     1     -10.850   7.963  70.559  1.00  0.00    -0.241 A  
HETATM   16  C   UNL     1     -11.731   6.893  70.394  1.00  0.00    -0.325 A  
HETATM   17  C   UNL     1     -12.571   9.072  71.801  1.00  0.00    -0.367 A  
HETATM   18  N   UNL     1     -12.981   6.868  70.914  1.00  0.00    -0.145 NA 
HETATM   19  F   UNL     1     -12.999  10.120  72.514  1.00  0.00    -0.427 F  
HETATM   20  C   UNL     1     -11.289   9.068  71.280  1.00  0.00    -0.389 A  
HETATM   21  C   UNL     1     -13.376   7.967  71.603  1.00  0.00    -0.337 A  
ENDBRANCH  12  15
BRANCH  14  22
HETATM   22  C   UNL     1      -9.967   9.889  68.556  1.00  0.00    -0.159 C  
HETATM   23  C   UNL     1     -10.191   9.324  66.236  1.00  0.00    -0.273 C  
HETATM   24  C   UNL     1     -10.901   9.187  67.571  1.00  0.00    -0.151 C  
HETATM   25  N   UNL     1      -9.382  10.945  67.728  1.00  0.00    -0.155 N  
HETATM   26  O   UNL     1      -9.094  11.268  65.383  1.00  0.00    -0.205 OA 
HETATM   27  C   UNL     1      -9.483  10.646  66.361  1.00  0.00    -0.171 C  
BRANCH  25  28
HETATM   28  C   UNL     1      -8.993  12.224  68.195  1.00  0.00    -0.192 A  
HETATM   29  N   UNL     1      -7.692  12.419  68.511  1.00  0.00    -0.134 NA 
HETATM   30  C   UNL     1      -7.254  13.632  68.902  1.00  0.00    -0.083 A  
HETATM   31  C   UNL     1      -8.077  14.729  69.006  1.00  0.00    -0.145 A  
HETATM   32  C   UNL     1      -9.417  14.543  68.690  1.00  0.00    -0.205 A  
HETATM   33  C   UNL     1      -9.884  13.285  68.278  1.00  0.00    -0.231 A  
HETATM   34  C   UNL     1     -10.325  15.648  68.782  1.00  0.00    -0.218 C  
HETATM   35  N   UNL     1     -11.070  16.534  68.854  1.00  0.00    -0.324 NA 
ENDBRANCH  25  28
ENDBRANCH  14  22
ENDBRANCH   1  12
BRANCH   1  36
HETATM   36  C   UNL     1      -9.171   6.341  72.057  1.00  0.00    -0.145 A  
HETATM   37  C   UNL     1     -10.243   4.507  73.338  1.00  0.00    -0.220 A  
HETATM   38  C   UNL     1     -10.367   5.313  74.451  1.00  0.00    -0.302 A  
HETATM   39 CL   UNL     1      -8.161   8.464  73.458  1.00  0.00    -0.233 Cl 
HETATM   40  C   UNL     1      -9.801   6.587  74.414  1.00  0.00    -0.355 A  
HETATM   41  C   UNL     1      -9.686   5.014  72.164  1.00  0.00    -0.208 A  
HETATM   42  C   UNL     1      -9.139   7.063  73.255  1.00  0.00    -0.136 A  
ENDBRANCH   1  36
TORSDOF 7
ENDMDL
MODEL       71
REMARK 921   NORMALIZED FREE ENERGY PREDICTED BY IDOCK:   -5.45 KCAL/MOL
REMARK 922        TOTAL FREE ENERGY PREDICTED BY IDOCK:   -9.14 KCAL/MOL
REMARK 923 INTER-LIGAND FREE ENERGY PREDICTED BY IDOCK:   -8.05 KCAL/MOL
REMARK 924 INTRA-LIGAND FREE ENERGY PREDICTED BY IDOCK:   -1.09 KCAL/MOL
REMARK 927      BINDING AFFINITY PREDICTED BY RF-SCORE:    0.00 PKD
ROOT
HETATM    1  C   UNL     1     -10.771  12.433  67.793  1.00  0.00    -0.221 C  
ENDROOT
BRANCH   1   2
HETATM    2  C   UNL     1     -10.466  13.886  67.170  1.00  0.00    -0.269 C  
HETATM    3  H   UNL     1      -9.595  14.678  68.858  1.00  0.00     0.000 HD 
HETATM    4  N   UNL     1      -9.832  14.889  67.889  1.00  0.00    -0.213 N  
HETATM    5  O   UNL     1     -10.891  14.160  66.049  1.00  0.00    -0.291 OA 
BRANCH   4   6
HETATM    6  C   UNL     1      -9.455  16.272  67.380  1.00  0.00    -0.227 C  
HETATM    7  C   UNL     1      -9.209  18.386  67.604  1.00  0.00    -0.266 C  
HETATM    8  F   UNL     1      -9.345  19.460  68.410  1.00  0.00    -0.353 F  
HETATM    9  C   UNL     1     -10.453  17.461  67.462  1.00  0.00    -0.354 C  
HETATM   10  F   UNL     1      -8.690  18.838  66.439  1.00  0.00    -0.281 F  
HETATM   11  C   UNL     1      -8.488  17.151  68.215  1.00  0.00    -0.236 C  
ENDBRANCH   4   6
ENDBRANCH   1   2
BRANCH   1  12
HETATM   12  N   UNL     1      -9.632  11.461  67.565  1.00  0.00    -0.166 N  
HETATM   13  O   UNL     1     -10.606  10.481  65.719  1.00  0.00    -0.176 OA 
HETATM   14  C   UNL     1      -9.644  10.550  66.488  1.00  0.00    -0.174 C  
BRANCH  12  15
HETATM   15  C   UNL     1      -8.546  11.539  68.471  1.00  0.00    -0.140 A  
HETATM   16  C   UNL     1      -8.343  10.576  69.459  1.00  0.00    -0.061 A  
HETATM   17  C   UNL     1      -6.481  12.543  69.150  1.00  0.00    -0.099 A  
HETATM   18  N   UNL     1      -7.256  10.551  70.265  1.00  0.00    -0.220 NA 
HETATM   19  F   UNL     1      -5.543  13.484  69.003  1.00  0.00    -0.072 F  
HETATM   20  C   UNL     1      -7.589  12.537  68.320  1.00  0.00    -0.129 A  
HETATM   21  C   UNL     1      -6.349  11.544  70.095  1.00  0.00    -0.078 A  
ENDBRANCH  12  15
BRANCH  14  22
HETATM   22  C   UNL     1      -8.365   9.671  66.240  1.00  0.00    -0.116 C  
HETATM   23  C   UNL     1      -7.748  10.012  63.947  1.00  0.00    -0.145 C  
HETATM   24  C   UNL     1      -7.392  10.451  65.357  1.00  0.00    -0.124 C  
HETATM   25  N   UNL     1      -8.533   8.426  65.490  1.00  0.00    -0.160 N  
HETATM   26  O   UNL     1      -8.225   7.789  63.211  1.00  0.00    -0.103 OA 
HETATM   27  C   UNL     1      -8.192   8.587  64.138  1.00  0.00    -0.139 C  
BRANCH  25  28
HETATM   28  C   UNL     1      -8.757   7.152  66.065  1.00  0.00    -0.147 A  
HETATM   29  N   UNL     1     -10.036   6.759  66.267  1.00  0.00     0.014 NA 
HETATM   30  C   UNL     1     -10.310   5.533  66.755  1.00  0.00    -0.269 A  
HETATM   31  C   UNL     1      -9.335   4.618  67.075  1.00  0.00    -0.153 A  
HETATM   32  C   UNL     1      -8.016   5.008  66.879  1.00  0.00    -0.104 A  
HETATM   33  C   UNL     1      -7.719   6.281  66.367  1.00  0.00    -0.099 A  
HETATM   34  C   UNL     1      -6.955   4.100  67.196  1.00  0.00    -0.059 C  
HETATM   35  N   UNL     1      -6.086   3.374  67.451  1.00  0.00    -0.027 NA 
ENDBRANCH  25  28
ENDBRANCH  14  22
ENDBRANCH   1  12
BRANCH   1  36
HETATM   36  C   UNL     1     -11.480  12.134  69.140  1.00  0.00    -0.352 A  
HETATM   37  C   UNL     1     -12.491  10.342  70.527  1.00  0.00    -0.403 A  
HETATM   38  C   UNL     1     -12.965  11.268  71.435  1.00  0.00    -0.482 A  
HETATM   39 CL   UNL     1     -11.123  14.594  70.285  1.00  0.00    -0.193 Cl 
HETATM   40  C   UNL     1     -12.609  12.605  71.265  1.00  0.00    -0.339 A  
HETATM   41  C   UNL     1     -11.792  10.765  69.396  1.00  0.00    -0.370 A  
HETATM   42  C   UNL     1     -11.807  13.019  70.173  1.00  0.00    -0.252 A  
ENDBRANCH   1  36
TORSDOF 7
ENDMDL
MODEL       72
REMARK 921   NORMALIZED FREE ENERGY PREDICTED BY IDOCK:   -5.41 KCAL/MOL
REMARK 922        TOTAL FREE ENERGY PREDICTED BY IDOCK:   -9.09 KCAL/MOL
REMARK 923 INTER-LIGAND FREE ENERGY PREDICTED BY IDOCK:   -7.99 KCAL/MOL
REMARK 924 INTRA-LIGAND FREE ENERGY PREDICTED BY IDOCK:   -1.10 KCAL/MOL
REMARK 927      BINDING AFFINITY PREDICTED BY RF-SCORE:    0.00 PKD
ROOT
HETATM    1  C   UNL     1      -9.175   8.370  66.037  1.00  0.00    -0.187 C  
ENDROOT
BRANCH   1   2
HETATM    2  C   UNL     1      -8.947   6.858  66.536  1.00  0.00    -0.150 C  
HETATM    3  H   UNL     1     -10.928   6.439  66.904  1.00  0.00     0.000 HD 
HETATM    4  N   UNL     1      -9.994   6.030  66.918  1.00  0.00    -0.156 N  
HETATM    5  O   UNL     1      -7.799   6.439  66.679  1.00  0.00    -0.101 OA 
BRANCH   4   6
HETATM    6  C   UNL     1      -9.892   4.578  67.356  1.00  0.00    -0.157 C  
HETATM    7  C   UNL     1      -8.822   2.879  68.098  1.00  0.00    -0.127 C  
HETATM    8  F   UNL     1      -7.634   2.378  68.496  1.00  0.00    -0.049 F  
HETATM    9  C   UNL     1      -8.841   3.619  66.728  1.00  0.00    -0.137 C  
HETATM   10  F   UNL     1      -9.727   1.882  68.228  1.00  0.00    -0.251 F  
HETATM   11  C   UNL     1      -9.242   4.240  68.723  1.00  0.00    -0.200 C  
ENDBRANCH   4   6
ENDBRANCH   1   2
BRANCH   1  12
HETATM   12  N   UNL     1      -9.109   9.367  67.176  1.00  0.00    -0.129 N  
HETATM   13  O   UNL     1     -11.355   9.204  67.678  1.00  0.00     0.258 OA 
HETATM   14  C   UNL     1     -10.251   9.688  67.940  1.00  0.00    -0.198 C  
BRANCH  12  15
HETATM   15  C   UNL     1      -7.840   9.929  67.449  1.00  0.00    -0.098 A  
HETATM   16  C   UNL     1      -7.352  11.025  66.735  1.00  0.00    -0.139 A  
HETATM   17  C   UNL     1      -5.895  10.084  68.838  1.00  0.00    -0.034 A  
HETATM   18  N   UNL     1      -6.199  11.663  67.042  1.00  0.00    -0.131 NA 
HETATM   19  F   UNL     1      -5.174   9.655  69.879  1.00  0.00    -0.032 F  
HETATM   20  C   UNL     1      -7.089   9.459  68.522  1.00  0.00    -0.071 A  
HETATM   21  C   UNL     1      -5.491  11.171  68.088  1.00  0.00    -0.042 A  
ENDBRANCH  12  15
BRANCH  14  22
HETATM   22  C   UNL     1     -10.073  10.625  69.191  1.00  0.00    -0.216 C  
HETATM   23  C   UNL     1     -11.272   9.584  70.988  1.00  0.00    -0.432 C  
HETATM   24  C   UNL     1      -9.869   9.758  70.432  1.00  0.00    -0.269 C  
HETATM   25  N   UNL     1     -11.209  11.461  69.579  1.00  0.00    -0.262 N  
HETATM   26  O   UNL     1     -12.957  11.267  71.190  1.00  0.00    -0.354 OA 
HETATM   27  C   UNL     1     -11.945  10.880  70.624  1.00  0.00    -0.368 C  
BRANCH  25  28
HETATM   28  C   UNL     1     -11.418  12.797  69.161  1.00  0.00    -0.306 A  
HETATM   29  N   UNL     1     -11.719  13.721  70.102  1.00  0.00    -0.264 NA 
HETATM   30  C   UNL     1     -11.869  15.018  69.769  1.00  0.00    -0.321 A  
HETATM   31  C   UNL     1     -11.731  15.483  68.483  1.00  0.00    -0.351 A  
HETATM   32  C   UNL     1     -11.428  14.546  67.503  1.00  0.00    -0.375 A  
HETATM   33  C   UNL     1     -11.266  13.192  67.839  1.00  0.00    -0.300 A  
HETATM   34  C   UNL     1     -11.275  14.968  66.143  1.00  0.00    -0.307 C  
HETATM   35  N   UNL     1     -11.150  15.298  65.038  1.00  0.00    -0.408 NA 
ENDBRANCH  25  28
ENDBRANCH  14  22
ENDBRANCH   1  12
BRANCH   1  36
HETATM   36  C   UNL     1      -8.633   9.005  64.729  1.00  0.00    -0.201 A  
HETATM   37  C   UNL     1      -6.906   8.803  62.959  1.00  0.00    -0.090 A  
HETATM   38  C   UNL     1      -7.271  10.019  62.418  1.00  0.00    -0.135 A  
HETATM   39 CL   UNL     1     -10.646  10.822  64.354  1.00  0.00    -0.359 Cl 
HETATM   40  C   UNL     1      -8.379  10.677  62.952  1.00  0.00    -0.158 A  
HETATM   41  C   UNL     1      -7.550   8.322  64.099  1.00  0.00    -0.127 A  
HETATM   42  C   UNL     1      -9.100  10.133  64.045  1.00  0.00    -0.254 A  
ENDBRANCH   1  36
TORSDOF 7
ENDMDL
MODEL       73
REMARK 921   NORMALIZED FREE ENERGY PREDICTED BY IDOCK:   -5.39 KCAL/MOL
REMARK 922        TOTAL FREE ENERGY PREDICTED BY IDOCK:   -9.06 KCAL/MOL
REMARK 923 INTER-LIGAND FREE ENERGY PREDICTED BY IDOCK:   -7.98 KCAL/MOL
REMARK 924 INTRA-LIGAND FREE ENERGY PREDICTED BY IDOCK:   -1.07 KCAL/MOL
REMARK 927      BINDING AFFINITY PREDICTED BY RF-SCORE:    0.00 PKD
ROOT
HETATM    1  C   UNL     1      -8.770   8.564  65.538  1.00  0.00    -0.174 C  
ENDROOT
BRANCH   1   2
HETATM    2  C   UNL     1      -9.057   6.993  65.735  1.00  0.00     0.058 C  
HETATM    3  H   UNL     1      -7.681   6.336  64.352  1.00  0.00     0.000 HD 
HETATM    4  N   UNL     1      -8.365   6.013  65.035  1.00  0.00    -0.138 N  
HETATM    5  O   UNL     1      -9.986   6.637  66.459  1.00  0.00    -0.159 OA 
BRANCH   4   6
HETATM    6  C   UNL     1      -8.524   4.508  65.183  1.00  0.00    -0.126 C  
HETATM    7  C   UNL     1      -8.528   2.507  64.426  1.00  0.00    -0.087 C  
HETATM    8  F   UNL     1      -8.393   1.706  63.347  1.00  0.00    -0.062 F  
HETATM    9  C   UNL     1      -9.507   3.709  64.281  1.00  0.00    -0.152 C  
HETATM   10  F   UNL     1      -8.762   1.696  65.483  1.00  0.00    -0.092 F  
HETATM   11  C   UNL     1      -7.415   3.570  64.641  1.00  0.00    -0.072 C  
ENDBRANCH   4   6
ENDBRANCH   1   2
BRANCH   1  12
HETATM   12  N   UNL     1      -8.951   9.345  66.824  1.00  0.00    -0.130 N  
HETATM   13  O   UNL     1      -7.378   8.125  67.989  1.00  0.00    -0.092 OA 
HETATM   14  C   UNL     1      -8.187   9.055  67.975  1.00  0.00    -0.110 C  
BRANCH  12  15
HETATM   15  C   UNL     1      -9.899  10.395  66.796  1.00  0.00    -0.195 A  
HETATM   16  C   UNL     1     -11.042  10.374  67.597  1.00  0.00    -0.293 A  
HETATM   17  C   UNL     1     -10.539  12.593  66.096  1.00  0.00    -0.258 A  
HETATM   18  N   UNL     1     -11.910  11.409  67.686  1.00  0.00    -0.636 NA 
HETATM   19  F   UNL     1     -10.302  13.702  65.386  1.00  0.00    -0.286 F  
HETATM   20  C   UNL     1      -9.652  11.533  66.036  1.00  0.00    -0.251 A  
HETATM   21  C   UNL     1     -11.640  12.498  66.924  1.00  0.00    -0.370 A  
ENDBRANCH  12  15
BRANCH  14  22
HETATM   22  C   UNL     1      -8.334   9.998  69.225  1.00  0.00    -0.154 C  
HETATM   23  C   UNL     1      -6.106  10.534  69.931  1.00  0.00    -0.079 C  
HETATM   24  C   UNL     1      -7.276  11.097  69.142  1.00  0.00    -0.123 C  
HETATM   25  N   UNL     1      -8.079   9.420  70.544  1.00  0.00    -0.176 N  
HETATM   26  O   UNL     1      -6.203   9.373  72.017  1.00  0.00    -0.268 OA 
HETATM   27  C   UNL     1      -6.778   9.702  70.989  1.00  0.00    -0.013 C  
BRANCH  25  28
HETATM   28  C   UNL     1      -9.065   8.868  71.397  1.00  0.00    -0.248 A  
HETATM   29  N   UNL     1      -8.654   8.128  72.452  1.00  0.00    -0.167 NA 
HETATM   30  C   UNL     1      -9.546   7.629  73.331  1.00  0.00    -0.288 A  
HETATM   31  C   UNL     1     -10.902   7.830  73.220  1.00  0.00    -0.312 A  
HETATM   32  C   UNL     1     -11.340   8.583  72.137  1.00  0.00    -0.442 A  
HETATM   33  C   UNL     1     -10.420   9.111  71.218  1.00  0.00    -0.398 A  
HETATM   34  C   UNL     1     -12.741   8.824  71.965  1.00  0.00    -0.387 C  
HETATM   35  N   UNL     1     -13.874   9.025  71.814  1.00  0.00    -0.406 NA 
ENDBRANCH  25  28
ENDBRANCH  14  22
ENDBRANCH   1  12
BRANCH   1  36
HETATM   36  C   UNL     1      -7.654   9.200  64.669  1.00  0.00    -0.106 A  
HETATM   37  C   UNL     1      -5.227   9.703  64.562  1.00  0.00    -0.060 A  
HETATM   38  C   UNL     1      -5.399  10.449  63.414  1.00  0.00    -0.151 A  
HETATM   39 CL   UNL     1      -9.145   9.595  62.407  1.00  0.00    -0.288 Cl 
HETATM   40  C   UNL     1      -6.663  10.484  62.829  1.00  0.00    -0.088 A  
HETATM   41  C   UNL     1      -6.327   9.117  65.189  1.00  0.00    -0.068 A  
HETATM   42  C   UNL     1      -7.760   9.799  63.408  1.00  0.00    -0.137 A  
ENDBRANCH   1  36
TORSDOF 7
ENDMDL
MODEL       74
REMARK 921   NORMALIZED FREE ENERGY PREDICTED BY IDOCK:   -5.38 KCAL/MOL
REMARK 922        TOTAL FREE ENERGY PREDICTED BY IDOCK:   -9.04 KCAL/MOL
REMARK 923 INTER-LIGAND FREE ENERGY PREDICTED BY IDOCK:   -8.00 KCAL/MOL
REMARK 924 INTRA-LIGAND FREE ENERGY PREDICTED BY IDOCK:   -1.04 KCAL/MOL
REMARK 927      BINDING AFFINITY PREDICTED BY RF-SCORE:    0.00 PKD
ROOT
HETATM    1  C   UNL     1      -7.175  13.193  67.930  1.00  0.00    -0.133 C  
ENDROOT
BRANCH   1   2
HETATM    2  C   UNL     1      -6.635  14.599  67.363  1.00  0.00     0.040 C  
HETATM    3  H   UNL     1      -8.484  15.400  66.944  1.00  0.00     0.000 HD 
HETATM    4  N   UNL     1      -7.485  15.605  66.925  1.00  0.00    -0.186 N  
HETATM    5  O   UNL     1      -5.425  14.764  67.219  1.00  0.00    -0.297 OA 
BRANCH   4   6
HETATM    6  C   UNL     1      -7.081  16.982  66.421  1.00  0.00    -0.250 C  
HETATM    7  C   UNL     1      -7.177  19.119  66.424  1.00  0.00    -0.241 C  
HETATM    8  F   UNL     1      -7.748  20.224  66.949  1.00  0.00    -0.298 F  
HETATM    9  C   UNL     1      -8.144  18.004  65.929  1.00  0.00    -0.009 C  
HETATM   10  F   UNL     1      -6.273  19.547  65.512  1.00  0.00    -0.192 F  
HETATM   11  C   UNL     1      -6.647  18.067  67.439  1.00  0.00    -0.183 C  
ENDBRANCH   4   6
ENDBRANCH   1   2
BRANCH   1  12
HETATM   12  N   UNL     1      -8.689  13.130  67.959  1.00  0.00    -0.182 N  
HETATM   13  O   UNL     1      -8.895  14.678  69.656  1.00  0.00     0.121 OA 
HETATM   14  C   UNL     1      -9.443  13.931  68.842  1.00  0.00     0.053 C  
BRANCH  12  15
HETATM   15  C   UNL     1      -9.300  12.251  67.034  1.00  0.00    -0.205 A  
HETATM   16  C   UNL     1      -9.661  12.667  65.752  1.00  0.00    -0.175 A  
HETATM   17  C   UNL     1      -9.966  10.038  66.405  1.00  0.00    -0.237 A  
HETATM   18  N   UNL     1     -10.139  11.830  64.801  1.00  0.00    -0.257 NA 
HETATM   19  F   UNL     1     -10.104   8.740  66.694  1.00  0.00    -0.273 F  
HETATM   20  C   UNL     1      -9.458  10.906  67.355  1.00  0.00    -0.170 A  
HETATM   21  C   UNL     1     -10.287  10.530  65.154  1.00  0.00    -0.240 A  
ENDBRANCH  12  15
BRANCH  14  22
HETATM   22  C   UNL     1     -11.010  13.909  68.716  1.00  0.00    -0.263 C  
HETATM   23  C   UNL     1     -11.750  16.154  69.120  1.00  0.00    -0.239 C  
HETATM   24  C   UNL     1     -11.466  15.175  67.993  1.00  0.00    -0.355 C  
HETATM   25  N   UNL     1     -11.791  13.960  69.953  1.00  0.00    -0.312 N  
HETATM   26  O   UNL     1     -12.883  15.694  71.173  1.00  0.00    -0.462 OA 
HETATM   27  C   UNL     1     -12.234  15.262  70.231  1.00  0.00    -0.363 C  
BRANCH  25  28
HETATM   28  C   UNL     1     -12.272  12.832  70.660  1.00  0.00    -0.288 A  
HETATM   29  N   UNL     1     -13.219  13.028  71.606  1.00  0.00    -0.373 NA 
HETATM   30  C   UNL     1     -13.757  11.984  72.267  1.00  0.00     0.067 A  
HETATM   31  C   UNL     1     -13.391  10.680  72.035  1.00  0.00    -0.409 A  
HETATM   32  C   UNL     1     -12.416  10.462  71.069  1.00  0.00    -0.488 A  
HETATM   33  C   UNL     1     -11.851  11.541  70.371  1.00  0.00    -0.413 A  
HETATM   34  C   UNL     1     -11.990   9.124  70.783  1.00  0.00    -0.191 C  
HETATM   35  N   UNL     1     -11.636   8.046  70.545  1.00  0.00    -0.196 NA 
ENDBRANCH  25  28
ENDBRANCH  14  22
ENDBRANCH   1  12
BRANCH   1  36
HETATM   36  C   UNL     1      -6.578  11.790  67.646  1.00  0.00    -0.085 A  
HETATM   37  C   UNL     1      -5.639  10.322  65.880  1.00  0.00    -0.081 A  
HETATM   38  C   UNL     1      -5.617   9.244  66.741  1.00  0.00    -0.043 A  
HETATM   39 CL   UNL     1      -6.387  10.951  70.245  1.00  0.00    -0.150 Cl 
HETATM   40  C   UNL     1      -5.965   9.454  68.075  1.00  0.00    -0.048 A  
HETATM   41  C   UNL     1      -6.132  11.554  66.311  1.00  0.00     0.061 A  
HETATM   42  C   UNL     1      -6.363  10.733  68.538  1.00  0.00    -0.050 A  
ENDBRANCH   1  36
TORSDOF 7
ENDMDL
MODEL       75
REMARK 921   NORMALIZED FREE ENERGY PREDICTED BY IDOCK:   -5.38 KCAL/MOL
REMARK 922        TOTAL FREE ENERGY PREDICTED BY IDOCK:   -9.04 KCAL/MOL
REMARK 923 INTER-LIGAND FREE ENERGY PREDICTED BY IDOCK:   -8.35 KCAL/MOL
REMARK 924 INTRA-LIGAND FREE ENERGY PREDICTED BY IDOCK:   -0.69 KCAL/MOL
REMARK 927      BINDING AFFINITY PREDICTED BY RF-SCORE:    0.00 PKD
ROOT
HETATM    1  C   UNL     1      -7.470  14.143  68.663  1.00  0.00    -0.125 C  
ENDROOT
BRANCH   1   2
HETATM    2  C   UNL     1      -7.029  15.421  67.789  1.00  0.00    -0.163 C  
HETATM    3  H   UNL     1      -8.729  16.529  68.135  1.00  0.00     0.000 HD 
HETATM    4  N   UNL     1      -7.822  16.553  67.669  1.00  0.00    -0.155 N  
HETATM    5  O   UNL     1      -5.997  15.366  67.123  1.00  0.00    -0.306 OA 
BRANCH   4   6
HETATM    6  C   UNL     1      -7.478  17.827  66.913  1.00  0.00    -0.201 C  
HETATM    7  C   UNL     1      -7.369  19.955  66.709  1.00  0.00    -0.245 C  
HETATM    8  F   UNL     1      -7.633  21.157  67.261  1.00  0.00    -0.407 F  
HETATM    9  C   UNL     1      -8.544  18.933  66.672  1.00  0.00    -0.312 C  
HETATM   10  F   UNL     1      -6.777  20.197  65.517  1.00  0.00    -0.232 F  
HETATM   11  C   UNL     1      -6.637  18.924  67.615  1.00  0.00    -0.212 C  
ENDBRANCH   4   6
ENDBRANCH   1   2
BRANCH   1  12
HETATM   12  N   UNL     1      -8.336  13.181  67.875  1.00  0.00    -0.157 N  
HETATM   13  O   UNL     1      -6.555  12.187  66.797  1.00  0.00    -0.069 OA 
HETATM   14  C   UNL     1      -7.772  12.235  66.993  1.00  0.00    -0.089 C  
BRANCH  12  15
HETATM   15  C   UNL     1      -9.731  13.264  68.096  1.00  0.00    -0.227 A  
HETATM   16  C   UNL     1     -10.480  14.359  67.664  1.00  0.00    -0.245 A  
HETATM   17  C   UNL     1     -11.786  12.243  68.782  1.00  0.00    -0.306 A  
HETATM   18  N   UNL     1     -11.830  14.422  67.750  1.00  0.00    -0.374 NA 
HETATM   19  F   UNL     1     -12.452  11.209  69.306  1.00  0.00    -0.370 F  
HETATM   20  C   UNL     1     -10.409  12.189  68.663  1.00  0.00    -0.211 A  
HETATM   21  C   UNL     1     -12.453  13.360  68.316  1.00  0.00     0.382 A  
ENDBRANCH  12  15
BRANCH  14  22
HETATM   22  C   UNL     1      -8.726  11.182  66.318  1.00  0.00    -0.182 C  
HETATM   23  C   UNL     1      -7.329   9.777  64.966  1.00  0.00    -0.128 C  
HETATM   24  C   UNL     1      -8.033   9.821  66.312  1.00  0.00    -0.109 C  
HETATM   25  N   UNL     1      -9.051  11.371  64.904  1.00  0.00    -0.064 N  
HETATM   26  O   UNL     1      -8.211  10.477  62.859  1.00  0.00    -0.153 OA 
HETATM   27  C   UNL     1      -8.246  10.573  64.077  1.00  0.00    -0.057 C  
BRANCH  25  28
HETATM   28  C   UNL     1     -10.188  12.059  64.415  1.00  0.00    -0.302 A  
HETATM   29  N   UNL     1     -11.207  11.327  63.909  1.00  0.00    -0.282 NA 
HETATM   30  C   UNL     1     -12.338  11.926  63.484  1.00  0.00    -0.490 A  
HETATM   31  C   UNL     1     -12.531  13.286  63.533  1.00  0.00    -0.328 A  
HETATM   32  C   UNL     1     -11.491  14.052  64.046  1.00  0.00    -0.119 A  
HETATM   33  C   UNL     1     -10.310  13.440  64.494  1.00  0.00    -0.394 A  
HETATM   34  C   UNL     1     -11.632  15.475  64.120  1.00  0.00    -0.078 C  
HETATM   35  N   UNL     1     -11.732  16.629  64.184  1.00  0.00    -1.007 NA 
ENDBRANCH  25  28
ENDBRANCH  14  22
ENDBRANCH   1  12
BRANCH   1  36
HETATM   36  C   UNL     1      -6.592  13.371  69.683  1.00  0.00    -0.008 A  
HETATM   37  C   UNL     1      -5.944  11.112  70.477  1.00  0.00    -0.114 A  
HETATM   38  C   UNL     1      -5.249  11.650  71.541  1.00  0.00     0.030 A  
HETATM   39 CL   UNL     1      -5.186  15.517  70.637  1.00  0.00    -0.142 Cl 
HETATM   40  C   UNL     1      -5.126  13.036  71.621  1.00  0.00    -0.154 A  
HETATM   41  C   UNL     1      -6.620  11.947  69.588  1.00  0.00    -0.062 A  
HETATM   42  C   UNL     1      -5.725  13.883  70.655  1.00  0.00    -0.180 A  
ENDBRANCH   1  36
TORSDOF 7
ENDMDL
MODEL       76
REMARK 921   NORMALIZED FREE ENERGY PREDICTED BY IDOCK:   -5.37 KCAL/MOL
REMARK 922        TOTAL FREE ENERGY PREDICTED BY IDOCK:   -9.03 KCAL/MOL
REMARK 923 INTER-LIGAND FREE ENERGY PREDICTED BY IDOCK:   -8.11 KCAL/MOL
REMARK 924 INTRA-LIGAND FREE ENERGY PREDICTED BY IDOCK:   -0.92 KCAL/MOL
REMARK 927      BINDING AFFINITY PREDICTED BY RF-SCORE:    0.00 PKD
ROOT
HETATM    1  C   UNL     1     -10.474  12.077  67.856  1.00  0.00    -0.202 C  
ENDROOT
BRANCH   1   2
HETATM    2  C   UNL     1     -11.438  11.249  68.843  1.00  0.00    -0.297 C  
HETATM    3  H   UNL     1     -10.311  11.521  70.544  1.00  0.00     0.000 HD 
HETATM    4  N   UNL     1     -11.175  11.104  70.198  1.00  0.00    -0.206 N  
HETATM    5  O   UNL     1     -12.396  10.637  68.373  1.00  0.00    -0.269 OA 
BRANCH   4   6
HETATM    6  C   UNL     1     -12.043  10.388  71.221  1.00  0.00    -0.362 C  
HETATM    7  C   UNL     1     -13.426   8.869  71.821  1.00  0.00    -0.397 C  
HETATM    8  F   UNL     1     -14.188   7.821  71.442  1.00  0.00    -0.426 F  
HETATM    9  C   UNL     1     -13.563  10.170  70.977  1.00  0.00    -0.084 C  
HETATM   10  F   UNL     1     -13.611   9.022  73.153  1.00  0.00    -0.404 F  
HETATM   11  C   UNL     1     -11.941   8.847  71.358  1.00  0.00    -0.374 C  
ENDBRANCH   4   6
ENDBRANCH   1   2
BRANCH   1  12
HETATM   12  N   UNL     1      -9.257  11.278  67.439  1.00  0.00    -0.161 N  
HETATM   13  O   UNL     1     -10.413   9.981  65.922  1.00  0.00    -0.174 OA 
HETATM   14  C   UNL     1      -9.338  10.275  66.450  1.00  0.00    -0.165 C  
BRANCH  12  15
HETATM   15  C   UNL     1      -8.035  11.613  68.071  1.00  0.00    -0.132 A  
HETATM   16  C   UNL     1      -7.589  10.941  69.210  1.00  0.00    -0.113 A  
HETATM   17  C   UNL     1      -5.960  12.806  68.070  1.00  0.00    -0.101 A  
HETATM   18  N   UNL     1      -6.376  11.151  69.773  1.00  0.00    -0.115 NA 
HETATM   19  F   UNL     1      -5.133  13.700  67.517  1.00  0.00    -0.079 F  
HETATM   20  C   UNL     1      -7.195  12.560  67.497  1.00  0.00    -0.147 A  
HETATM   21  C   UNL     1      -5.589  12.088  69.191  1.00  0.00    -0.061 A  
ENDBRANCH  12  15
BRANCH  14  22
HETATM   22  C   UNL     1      -8.007   9.586  65.975  1.00  0.00    -0.107 C  
HETATM   23  C   UNL     1      -8.102   9.517  63.579  1.00  0.00    -0.151 C  
HETATM   24  C   UNL     1      -7.496  10.305  64.727  1.00  0.00    -0.103 C  
HETATM   25  N   UNL     1      -8.087   8.197  65.521  1.00  0.00    -0.122 N  
HETATM   26  O   UNL     1      -8.253   7.139  63.389  1.00  0.00    -0.048 OA 
HETATM   27  C   UNL     1      -8.156   8.114  64.121  1.00  0.00    -0.128 C  
BRANCH  25  28
HETATM   28  C   UNL     1      -7.866   7.060  66.334  1.00  0.00    -0.106 A  
HETATM   29  N   UNL     1      -8.312   7.093  67.611  1.00  0.00    -0.117 NA 
HETATM   30  C   UNL     1      -8.184   6.016  68.412  1.00  0.00    -0.110 A  
HETATM   31  C   UNL     1      -7.604   4.840  68.000  1.00  0.00    -0.082 A  
HETATM   32  C   UNL     1      -7.136   4.792  66.693  1.00  0.00    -0.072 A  
HETATM   33  C   UNL     1      -7.268   5.905  65.848  1.00  0.00    -0.075 A  
HETATM   34  C   UNL     1      -6.520   3.594  66.206  1.00  0.00    -0.037 C  
HETATM   35  N   UNL     1      -6.017   2.630  65.801  1.00  0.00    -0.022 NA 
ENDBRANCH  25  28
ENDBRANCH  14  22
ENDBRANCH   1  12
BRANCH   1  36
HETATM   36  C   UNL     1     -10.916  13.029  66.714  1.00  0.00    -0.299 A  
HETATM   37  C   UNL     1     -12.520  13.319  64.844  1.00  0.00    -0.465 A  
HETATM   38  C   UNL     1     -11.861  14.451  64.410  1.00  0.00    -0.433 A  
HETATM   39 CL   UNL     1      -9.362  15.172  67.414  1.00  0.00    -0.194 Cl 
HETATM   40  C   UNL     1     -10.805  14.940  65.180  1.00  0.00    -0.428 A  
HETATM   41  C   UNL     1     -12.045  12.611  65.948  1.00  0.00    -0.459 A  
HETATM   42  C   UNL     1     -10.391  14.278  66.363  1.00  0.00    -0.286 A  
ENDBRANCH   1  36
TORSDOF 7
ENDMDL
MODEL       77
REMARK 921   NORMALIZED FREE ENERGY PREDICTED BY IDOCK:   -5.37 KCAL/MOL
REMARK 922        TOTAL FREE ENERGY PREDICTED BY IDOCK:   -9.03 KCAL/MOL
REMARK 923 INTER-LIGAND FREE ENERGY PREDICTED BY IDOCK:  -10.14 KCAL/MOL
REMARK 924 INTRA-LIGAND FREE ENERGY PREDICTED BY IDOCK:    1.11 KCAL/MOL
REMARK 927      BINDING AFFINITY PREDICTED BY RF-SCORE:    0.00 PKD
ROOT
HETATM    1  C   UNL     1     -11.786  14.990  68.317  1.00  0.00    -0.268 C  
ENDROOT
BRANCH   1   2
HETATM    2  C   UNL     1     -10.783  15.838  67.387  1.00  0.00    -0.317 C  
HETATM    3  H   UNL     1     -10.768  17.532  68.554  1.00  0.00     0.000 HD 
HETATM    4  N   UNL     1     -10.373  17.124  67.708  1.00  0.00    -0.334 N  
HETATM    5  O   UNL     1     -10.435  15.375  66.301  1.00  0.00    -0.284 OA 
BRANCH   4   6
HETATM    6  C   UNL     1      -9.394  17.987  66.927  1.00  0.00    -0.276 C  
HETATM    7  C   UNL     1      -8.009  19.607  66.737  1.00  0.00    -0.292 C  
HETATM    8  F   UNL     1      -7.408  20.656  67.338  1.00  0.00    -0.307 F  
HETATM    9  C   UNL     1      -9.559  19.532  66.858  1.00  0.00    -0.440 C  
HETATM   10  F   UNL     1      -7.524  19.554  65.475  1.00  0.00    -0.310 F  
HETATM   11  C   UNL     1      -7.985  18.260  67.513  1.00  0.00    -0.233 C  
ENDBRANCH   4   6
ENDBRANCH   1   2
BRANCH   1  12
HETATM   12  N   UNL     1     -11.713  13.504  68.033  1.00  0.00    -0.339 N  
HETATM   13  O   UNL     1     -11.292  12.930  70.227  1.00  0.00     0.063 OA 
HETATM   14  C   UNL     1     -11.486  12.568  69.064  1.00  0.00    -0.304 C  
BRANCH  12  15
HETATM   15  C   UNL     1     -11.916  13.108  66.690  1.00  0.00    -0.389 A  
HETATM   16  C   UNL     1     -12.975  13.603  65.929  1.00  0.00    -0.114 A  
HETATM   17  C   UNL     1     -11.144  11.987  64.719  1.00  0.00    -0.317 A  
HETATM   18  N   UNL     1     -13.135  13.341  64.610  1.00  0.00    -0.557 NA 
HETATM   19  F   UNL     1     -10.246  11.214  64.099  1.00  0.00    -0.287 F  
HETATM   20  C   UNL     1     -10.986  12.285  66.062  1.00  0.00    -0.327 A  
HETATM   21  C   UNL     1     -12.214  12.529  64.036  1.00  0.00    -0.480 A  
ENDBRANCH  12  15
BRANCH  14  22
HETATM   22  C   UNL     1     -11.561  11.037  68.712  1.00  0.00    -0.318 C  
HETATM   23  C   UNL     1     -11.609   9.866  70.804  1.00  0.00    -0.430 C  
HETATM   24  C   UNL     1     -12.516  10.352  69.687  1.00  0.00     0.022 C  
HETATM   25  N   UNL     1     -10.340  10.245  68.866  1.00  0.00    -0.192 N  
HETATM   26  O   UNL     1      -9.475   8.817  70.570  1.00  0.00    -0.164 OA 
HETATM   27  C   UNL     1     -10.325   9.551  70.086  1.00  0.00    -0.255 C  
BRANCH  25  28
HETATM   28  C   UNL     1      -9.402   9.984  67.838  1.00  0.00    -0.140 A  
HETATM   29  N   UNL     1      -9.696   9.020  66.936  1.00  0.00    -0.182 NA 
HETATM   30  C   UNL     1      -8.868   8.771  65.902  1.00  0.00    -0.186 A  
HETATM   31  C   UNL     1      -7.697   9.460  65.696  1.00  0.00    -0.099 A  
HETATM   32  C   UNL     1      -7.378  10.451  66.617  1.00  0.00    -0.114 A  
HETATM   33  C   UNL     1      -8.234  10.721  67.696  1.00  0.00    -0.115 A  
HETATM   34  C   UNL     1      -6.169  11.202  66.457  1.00  0.00    -0.139 C  
HETATM   35  N   UNL     1      -5.192  11.816  66.340  1.00  0.00    -0.326 NA 
ENDBRANCH  25  28
ENDBRANCH  14  22
ENDBRANCH   1  12
BRANCH   1  36
HETATM   36  C   UNL     1     -12.094  15.242  69.816  1.00  0.00    -0.357 A  
HETATM   37  C   UNL     1     -13.881  15.210  71.537  1.00  0.00    -0.597 A  
HETATM   38  C   UNL     1     -13.043  15.793  72.465  1.00  0.00    -0.558 A  
HETATM   39 CL   UNL     1      -9.512  15.588  70.657  1.00  0.00     0.868 Cl 
HETATM   40  C   UNL     1     -11.709  15.998  72.117  1.00  0.00    -0.587 A  
HETATM   41  C   UNL     1     -13.429  14.967  70.239  1.00  0.00     0.210 A  
HETATM   42  C   UNL     1     -11.223  15.651  70.832  1.00  0.00    -0.369 A  
ENDBRANCH   1  36
TORSDOF 7
ENDMDL
MODEL       78
REMARK 921   NORMALIZED FREE ENERGY PREDICTED BY IDOCK:   -5.37 KCAL/MOL
REMARK 922        TOTAL FREE ENERGY PREDICTED BY IDOCK:   -9.02 KCAL/MOL
REMARK 923 INTER-LIGAND FREE ENERGY PREDICTED BY IDOCK:   -8.39 KCAL/MOL
REMARK 924 INTRA-LIGAND FREE ENERGY PREDICTED BY IDOCK:   -0.64 KCAL/MOL
REMARK 927      BINDING AFFINITY PREDICTED BY RF-SCORE:    0.00 PKD
ROOT
HETATM    1  C   UNL     1      -7.966  15.485  68.818  1.00  0.00    -0.163 C  
ENDROOT
BRANCH   1   2
HETATM    2  C   UNL     1      -7.780  16.868  68.016  1.00  0.00    -0.177 C  
HETATM    3  H   UNL     1      -7.130  16.024  66.255  1.00  0.00     0.000 HD 
HETATM    4  N   UNL     1      -7.357  16.916  66.695  1.00  0.00    -0.235 N  
HETATM    5  O   UNL     1      -7.924  17.933  68.614  1.00  0.00    -0.290 OA 
BRANCH   4   6
HETATM    6  C   UNL     1      -7.197  18.160  65.836  1.00  0.00    -0.240 C  
HETATM    7  C   UNL     1      -6.525  20.160  65.480  1.00  0.00    -0.251 C  
HETATM    8  F   UNL     1      -5.909  21.251  65.983  1.00  0.00    -0.255 F  
HETATM    9  C   UNL     1      -7.673  19.553  66.339  1.00  0.00    -0.307 C  
HETATM   10  F   UNL     1      -6.853  20.455  64.201  1.00  0.00    -0.220 F  
HETATM   11  C   UNL     1      -5.795  18.802  65.680  1.00  0.00    -0.223 C  
ENDBRANCH   4   6
ENDBRANCH   1   2
BRANCH   1  12
HETATM   12  N   UNL     1      -9.392  14.977  68.762  1.00  0.00    -0.194 N  
HETATM   13  O   UNL     1      -9.781  15.306  71.012  1.00  0.00     0.828 OA 
HETATM   14  C   UNL     1     -10.211  14.955  69.910  1.00  0.00     0.008 C  
BRANCH  12  15
HETATM   15  C   UNL     1      -9.863  14.558  67.495  1.00  0.00    -0.222 A  
HETATM   16  C   UNL     1      -9.828  13.220  67.103  1.00  0.00    -0.237 A  
HETATM   17  C   UNL     1     -11.022  15.031  65.453  1.00  0.00    -0.373 A  
HETATM   18  N   UNL     1     -10.374  12.763  65.952  1.00  0.00    -0.277 NA 
HETATM   19  F   UNL     1     -11.633  15.897  64.637  1.00  0.00    -0.374 F  
HETATM   20  C   UNL     1     -10.477  15.474  66.646  1.00  0.00    -0.299 A  
HETATM   21  C   UNL     1     -10.955  13.686  65.147  1.00  0.00    -0.330 A  
ENDBRANCH  12  15
BRANCH  14  22
HETATM   22  C   UNL     1     -11.720  14.545  69.743  1.00  0.00    -0.303 C  
HETATM   23  C   UNL     1     -12.940  15.765  71.409  1.00  0.00    -0.478 C  
HETATM   24  C   UNL     1     -12.594  15.784  69.930  1.00  0.00    -0.015 C  
HETATM   25  N   UNL     1     -12.283  13.617  70.725  1.00  0.00    -0.355 N  
HETATM   26  O   UNL     1     -13.580  13.867  72.712  1.00  0.00    -0.654 OA 
HETATM   27  C   UNL     1     -12.997  14.295  71.726  1.00  0.00    -0.354 C  
BRANCH  25  28
HETATM   28  C   UNL     1     -12.342  12.210  70.578  1.00  0.00    -0.272 A  
HETATM   29  N   UNL     1     -11.788  11.662  69.472  1.00  0.00    -0.329 NA 
HETATM   30  C   UNL     1     -11.760  10.324  69.309  1.00  0.00    -0.070 A  
HETATM   31  C   UNL     1     -12.281   9.445  70.229  1.00  0.00     0.169 A  
HETATM   32  C   UNL     1     -12.858   9.993  71.367  1.00  0.00    -0.519 A  
HETATM   33  C   UNL     1     -12.889  11.385  71.550  1.00  0.00    -0.508 A  
HETATM   34  C   UNL     1     -13.420   9.129  72.362  1.00  0.00    -0.476 C  
HETATM   35  N   UNL     1     -13.881   8.440  73.173  1.00  0.00     0.150 NA 
ENDBRANCH  25  28
ENDBRANCH  14  22
ENDBRANCH   1  12
BRANCH   1  36
HETATM   36  C   UNL     1      -6.968  14.297  68.859  1.00  0.00    -0.107 A  
HETATM   37  C   UNL     1      -5.770  12.626  67.471  1.00  0.00    -0.131 A  
HETATM   38  C   UNL     1      -5.310  11.973  68.596  1.00  0.00    -0.049 A  
HETATM   39 CL   UNL     1      -6.262  14.518  71.495  1.00  0.00     0.123 Cl 
HETATM   40  C   UNL     1      -5.578  12.533  69.844  1.00  0.00    -0.112 A  
HETATM   41  C   UNL     1      -6.600  13.741  67.598  1.00  0.00    -0.181 A  
HETATM   42  C   UNL     1      -6.331  13.728  69.967  1.00  0.00    -0.084 A  
ENDBRANCH   1  36
TORSDOF 7
ENDMDL
MODEL       79
REMARK 921   NORMALIZED FREE ENERGY PREDICTED BY IDOCK:   -5.31 KCAL/MOL
REMARK 922        TOTAL FREE ENERGY PREDICTED BY IDOCK:   -8.94 KCAL/MOL
REMARK 923 INTER-LIGAND FREE ENERGY PREDICTED BY IDOCK:   -7.87 KCAL/MOL
REMARK 924 INTRA-LIGAND FREE ENERGY PREDICTED BY IDOCK:   -1.06 KCAL/MOL
REMARK 927      BINDING AFFINITY PREDICTED BY RF-SCORE:    0.00 PKD
ROOT
HETATM    1  C   UNL     1     -10.387   8.221  68.606  1.00  0.00    -0.200 C  
ENDROOT
BRANCH   1   2
HETATM    2  C   UNL     1     -10.411   7.005  67.552  1.00  0.00    -0.250 C  
HETATM    3  H   UNL     1      -8.455   6.427  67.826  1.00  0.00     0.000 HD 
HETATM    4  N   UNL     1      -9.309   6.194  67.319  1.00  0.00    -0.113 N  
HETATM    5  O   UNL     1     -11.409   6.837  66.852  1.00  0.00    -0.318 OA 
BRANCH   4   6
HETATM    6  C   UNL     1      -9.243   4.995  66.386  1.00  0.00    -0.139 C  
HETATM    7  C   UNL     1      -8.530   3.061  65.813  1.00  0.00    -0.110 C  
HETATM    8  F   UNL     1      -7.716   2.024  66.105  1.00  0.00    -0.068 F  
HETATM    9  C   UNL     1      -7.885   4.478  65.834  1.00  0.00    -0.095 C  
HETATM   10  F   UNL     1      -9.175   2.737  64.668  1.00  0.00    -0.116 F  
HETATM   11  C   UNL     1      -9.441   3.570  66.965  1.00  0.00    -0.207 C  
ENDBRANCH   4   6
ENDBRANCH   1   2
BRANCH   1  12
HETATM   12  N   UNL     1     -10.571   7.747  70.033  1.00  0.00    -0.235 N  
HETATM   13  O   UNL     1      -8.532   6.672  70.123  1.00  0.00    -0.132 OA 
HETATM   14  C   UNL     1      -9.573   7.003  70.696  1.00  0.00    -0.165 C  
BRANCH  12  15
HETATM   15  C   UNL     1     -11.780   8.117  70.669  1.00  0.00    -0.143 A  
HETATM   16  C   UNL     1     -12.768   7.179  70.972  1.00  0.00    -0.253 A  
HETATM   17  C   UNL     1     -13.106   9.750  71.813  1.00  0.00    -0.431 A  
HETATM   18  N   UNL     1     -13.883   7.471  71.682  1.00  0.00    -0.392 NA 
HETATM   19  F   UNL     1     -13.284  10.999  72.256  1.00  0.00    -0.580 F  
HETATM   20  C   UNL     1     -11.962   9.425  71.105  1.00  0.00    -0.413 A  
HETATM   21  C   UNL     1     -14.029   8.758  72.082  1.00  0.00    -0.460 A  
ENDBRANCH  12  15
BRANCH  14  22
HETATM   22  C   UNL     1      -9.781   6.667  72.219  1.00  0.00    -0.148 C  
HETATM   23  C   UNL     1      -8.005   7.763  73.400  1.00  0.00    -0.192 C  
HETATM   24  C   UNL     1      -9.474   7.913  73.047  1.00  0.00    -0.336 C  
HETATM   25  N   UNL     1      -8.894   5.670  72.820  1.00  0.00    -0.122 N  
HETATM   26  O   UNL     1      -6.894   5.772  74.115  1.00  0.00    -0.079 OA 
HETATM   27  C   UNL     1      -7.833   6.273  73.513  1.00  0.00    -0.097 C  
BRANCH  25  28
HETATM   28  C   UNL     1      -9.179   4.287  72.929  1.00  0.00    -0.112 A  
HETATM   29  N   UNL     1      -8.141   3.419  72.905  1.00  0.00    -0.078 NA 
HETATM   30  C   UNL     1      -8.348   2.096  73.067  1.00  0.00    -0.062 A  
HETATM   31  C   UNL     1      -9.594   1.550  73.260  1.00  0.00    -0.096 A  
HETATM   32  C   UNL     1     -10.671   2.428  73.282  1.00  0.00    -0.274 A  
HETATM   33  C   UNL     1     -10.468   3.808  73.119  1.00  0.00    -0.257 A  
HETATM   34  C   UNL     1     -11.995   1.919  73.478  1.00  0.00    -0.093 C  
HETATM   35  N   UNL     1     -13.073   1.518  73.633  1.00  0.00    -0.063 NA 
ENDBRANCH  25  28
ENDBRANCH  14  22
ENDBRANCH   1  12
BRANCH   1  36
HETATM   36  C   UNL     1      -9.461   9.465  68.563  1.00  0.00    -0.150 A  
HETATM   37  C   UNL     1      -7.096  10.212  68.490  1.00  0.00    -0.074 A  
HETATM   38  C   UNL     1      -7.472  11.528  68.667  1.00  0.00    -0.116 A  
HETATM   39 CL   UNL     1     -11.412  11.348  68.190  1.00  0.00    -0.362 Cl 
HETATM   40  C   UNL     1      -8.832  11.833  68.680  1.00  0.00    -0.062 A  
HETATM   41  C   UNL     1      -8.061   9.204  68.467  1.00  0.00    -0.103 A  
HETATM   42  C   UNL     1      -9.814  10.819  68.547  1.00  0.00    -0.177 A  
ENDBRANCH   1  36
TORSDOF 7
ENDMDL
MODEL       80
REMARK 921   NORMALIZED FREE ENERGY PREDICTED BY IDOCK:   -5.26 KCAL/MOL
REMARK 922        TOTAL FREE ENERGY PREDICTED BY IDOCK:   -8.88 KCAL/MOL
REMARK 923 INTER-LIGAND FREE ENERGY PREDICTED BY IDOCK:   -9.10 KCAL/MOL
REMARK 924 INTRA-LIGAND FREE ENERGY PREDICTED BY IDOCK:    0.22 KCAL/MOL
REMARK 927      BINDING AFFINITY PREDICTED BY RF-SCORE:    0.00 PKD
ROOT
HETATM    1  C   UNL     1     -10.289  10.727  66.625  1.00  0.00    -0.241 C  
ENDROOT
BRANCH   1   2
HETATM    2  C   UNL     1      -9.038   9.717  66.555  1.00  0.00    -0.153 C  
HETATM    3  H   UNL     1     -10.147   7.985  66.500  1.00  0.00     0.000 HD 
HETATM    4  N   UNL     1      -9.192   8.340  66.475  1.00  0.00    -0.175 N  
HETATM    5  O   UNL     1      -7.898  10.164  66.671  1.00  0.00    -0.107 OA 
BRANCH   4   6
HETATM    6  C   UNL     1      -8.083   7.307  66.355  1.00  0.00    -0.119 C  
HETATM    7  C   UNL     1      -7.229   5.375  66.700  1.00  0.00    -0.074 C  
HETATM    8  F   UNL     1      -7.375   4.161  67.270  1.00  0.00    -0.065 F  
HETATM    9  C   UNL     1      -7.492   6.609  67.613  1.00  0.00    -0.097 C  
HETATM   10  F   UNL     1      -6.030   5.367  66.072  1.00  0.00    -0.019 F  
HETATM   11  C   UNL     1      -8.422   5.884  65.842  1.00  0.00    -0.141 C  
ENDBRANCH   4   6
ENDBRANCH   1   2
BRANCH   1  12
HETATM   12  N   UNL     1     -10.232  11.627  67.843  1.00  0.00    -0.185 N  
HETATM   13  O   UNL     1      -9.160  13.345  66.739  1.00  0.00    -0.242 OA 
HETATM   14  C   UNL     1      -9.669  12.918  67.778  1.00  0.00    -0.214 C  
BRANCH  12  15
HETATM   15  C   UNL     1     -10.801  11.113  69.033  1.00  0.00    -0.231 A  
HETATM   16  C   UNL     1     -12.135  11.343  69.368  1.00  0.00    -0.291 A  
HETATM   17  C   UNL     1     -10.655   9.695  70.957  1.00  0.00    -0.292 A  
HETATM   18  N   UNL     1     -12.746  10.773  70.434  1.00  0.00    -0.310 NA 
HETATM   19  F   UNL     1      -9.955   8.865  71.738  1.00  0.00    -0.311 F  
HETATM   20  C   UNL     1     -10.055  10.269  69.849  1.00  0.00    -0.219 A  
HETATM   21  C   UNL     1     -11.985   9.964  71.211  1.00  0.00    -0.402 A  
ENDBRANCH  12  15
BRANCH  14  22
HETATM   22  C   UNL     1      -9.771  13.841  69.047  1.00  0.00     0.148 C  
HETATM   23  C   UNL     1     -11.614  15.325  68.654  1.00  0.00    -0.370 C  
HETATM   24  C   UNL     1     -11.245  14.048  69.390  1.00  0.00    -0.283 C  
HETATM   25  N   UNL     1      -9.285  15.216  68.927  1.00  0.00    -0.199 N  
HETATM   26  O   UNL     1     -10.316  17.326  68.507  1.00  0.00    -0.326 OA 
HETATM   27  C   UNL     1     -10.335  16.116  68.684  1.00  0.00    -0.252 C  
BRANCH  25  28
HETATM   28  C   UNL     1      -7.980  15.651  69.260  1.00  0.00    -0.237 A  
HETATM   29  N   UNL     1      -7.179  14.801  69.942  1.00  0.00    -0.117 NA 
HETATM   30  C   UNL     1      -5.906  15.139  70.233  1.00  0.00    -0.147 A  
HETATM   31  C   UNL     1      -5.347  16.340  69.868  1.00  0.00    -0.154 A  
HETATM   32  C   UNL     1      -6.159  17.227  69.171  1.00  0.00    -0.217 A  
HETATM   33  C   UNL     1      -7.484  16.885  68.859  1.00  0.00    -0.238 A  
HETATM   34  C   UNL     1      -5.634  18.497  68.765  1.00  0.00    -0.191 C  
HETATM   35  N   UNL     1      -5.222  19.529  68.433  1.00  0.00    -0.191 NA 
ENDBRANCH  25  28
ENDBRANCH  14  22
ENDBRANCH   1  12
BRANCH   1  36
HETATM   36  C   UNL     1     -10.948  11.469  65.432  1.00  0.00    -0.288 A  
HETATM   37  C   UNL     1     -12.763  13.034  64.791  1.00  0.00    -0.409 A  
HETATM   38  C   UNL     1     -12.509  12.831  63.450  1.00  0.00    -0.438 A  
HETATM   39 CL   UNL     1      -9.080  10.827  63.537  1.00  0.00    -0.223 Cl 
HETATM   40  C   UNL     1     -11.415  12.044  63.094  1.00  0.00    -0.254 A  
HETATM   41  C   UNL     1     -12.023  12.351  65.756  1.00  0.00    -0.437 A  
HETATM   42  C   UNL     1     -10.596  11.436  64.079  1.00  0.00    -0.383 A  
ENDBRANCH   1  36
TORSDOF 7
ENDMDL
MODEL       81
REMARK 921   NORMALIZED FREE ENERGY PREDICTED BY IDOCK:   -5.24 KCAL/MOL
REMARK 922        TOTAL FREE ENERGY PREDICTED BY IDOCK:   -8.85 KCAL/MOL
REMARK 923 INTER-LIGAND FREE ENERGY PREDICTED BY IDOCK:   -6.64 KCAL/MOL
REMARK 924 INTRA-LIGAND FREE ENERGY PREDICTED BY IDOCK:   -2.20 KCAL/MOL
REMARK 927      BINDING AFFINITY PREDICTED BY RF-SCORE:    0.00 PKD
ROOT
HETATM    1  C   UNL     1      -8.460   9.891  67.429  1.00  0.00    -0.118 C  
ENDROOT
BRANCH   1   2
HETATM    2  C   UNL     1      -9.760  10.830  67.292  1.00  0.00    -0.161 C  
HETATM    3  H   UNL     1      -9.132  11.846  65.616  1.00  0.00     0.000 HD 
HETATM    4  N   UNL     1      -9.910  11.756  66.270  1.00  0.00    -0.215 N  
HETATM    5  O   UNL     1     -10.617  10.802  68.175  1.00  0.00    -0.179 OA 
BRANCH   4   6
HETATM    6  C   UNL     1     -11.114  12.652  66.023  1.00  0.00    -0.287 C  
HETATM    7  C   UNL     1     -12.291  13.980  64.828  1.00  0.00    -0.413 C  
HETATM    8  F   UNL     1     -12.407  14.646  63.659  1.00  0.00    -0.396 F  
HETATM    9  C   UNL     1     -10.939  14.133  65.584  1.00  0.00    -0.308 C  
HETATM   10  F   UNL     1     -13.395  14.273  65.552  1.00  0.00    -0.520 F  
HETATM   11  C   UNL     1     -11.947  12.467  64.729  1.00  0.00    -0.462 C  
ENDBRANCH   4   6
ENDBRANCH   1   2
BRANCH   1  12
HETATM   12  N   UNL     1      -8.699   8.711  68.349  1.00  0.00    -0.141 N  
HETATM   13  O   UNL     1      -7.900   9.789  70.225  1.00  0.00    -0.166 OA 
HETATM   14  C   UNL     1      -8.405   8.780  69.727  1.00  0.00    -0.127 C  
BRANCH  12  15
HETATM   15  C   UNL     1      -9.260   7.554  67.757  1.00  0.00    -0.135 A  
HETATM   16  C   UNL     1     -10.639   7.391  67.625  1.00  0.00    -0.239 A  
HETATM   17  C   UNL     1      -8.991   5.516  66.530  1.00  0.00    -0.123 A  
HETATM   18  N   UNL     1     -11.209   6.357  66.961  1.00  0.00    -0.328 NA 
HETATM   19  F   UNL     1      -8.203   4.594  65.965  1.00  0.00    -0.107 F  
HETATM   20  C   UNL     1      -8.429   6.592  67.192  1.00  0.00    -0.113 A  
HETATM   21  C   UNL     1     -10.367   5.436  66.432  1.00  0.00    -0.247 A  
ENDBRANCH  12  15
BRANCH  14  22
HETATM   22  C   UNL     1      -8.810   7.564  70.638  1.00  0.00    -0.146 C  
HETATM   23  C   UNL     1      -8.082   8.113  72.857  1.00  0.00    -0.224 C  
HETATM   24  C   UNL     1      -9.320   8.096  71.976  1.00  0.00    -0.266 C  
HETATM   25  N   UNL     1      -7.748   6.646  71.054  1.00  0.00    -0.096 N  
HETATM   26  O   UNL     1      -6.406   6.417  73.012  1.00  0.00    -0.061 OA 
HETATM   27  C   UNL     1      -7.287   6.942  72.346  1.00  0.00    -0.086 C  
BRANCH  25  28
HETATM   28  C   UNL     1      -7.391   5.454  70.379  1.00  0.00    -0.070 A  
HETATM   29  N   UNL     1      -6.076   5.197  70.193  1.00  0.00    -0.018 NA 
HETATM   30  C   UNL     1      -5.676   4.049  69.611  1.00  0.00    -0.017 A  
HETATM   31  C   UNL     1      -6.552   3.083  69.175  1.00  0.00    -0.033 A  
HETATM   32  C   UNL     1      -7.907   3.335  69.355  1.00  0.00    -0.054 A  
HETATM   33  C   UNL     1      -8.335   4.526  69.963  1.00  0.00    -0.077 A  
HETATM   34  C   UNL     1      -8.870   2.369  68.919  1.00  0.00    -0.099 C  
HETATM   35  N   UNL     1      -9.660   1.594  68.569  1.00  0.00    -0.172 NA 
ENDBRANCH  25  28
ENDBRANCH  14  22
ENDBRANCH   1  12
BRANCH   1  36
HETATM   36  C   UNL     1      -7.474   9.504  66.295  1.00  0.00    -0.097 A  
HETATM   37  C   UNL     1      -5.128   8.868  65.799  1.00  0.00    -0.029 A  
HETATM   38  C   UNL     1      -5.361   8.944  64.441  1.00  0.00    -0.054 A  
HETATM   39 CL   UNL     1      -9.315   9.285  64.281  1.00  0.00     0.007 Cl 
HETATM   40  C   UNL     1      -6.662   9.187  64.003  1.00  0.00    -0.089 A  
HETATM   41  C   UNL     1      -6.148   9.168  66.703  1.00  0.00    -0.064 A  
HETATM   42  C   UNL     1      -7.722   9.384  64.923  1.00  0.00    -0.111 A  
ENDBRANCH   1  36
TORSDOF 7
ENDMDL
MODEL       82
REMARK 921   NORMALIZED FREE ENERGY PREDICTED BY IDOCK:   -5.23 KCAL/MOL
REMARK 922        TOTAL FREE ENERGY PREDICTED BY IDOCK:   -8.83 KCAL/MOL
REMARK 923 INTER-LIGAND FREE ENERGY PREDICTED BY IDOCK:   -7.60 KCAL/MOL
REMARK 924 INTRA-LIGAND FREE ENERGY PREDICTED BY IDOCK:   -1.23 KCAL/MOL
REMARK 927      BINDING AFFINITY PREDICTED BY RF-SCORE:    0.00 PKD
ROOT
HETATM    1  C   UNL     1      -7.329   9.692  69.953  1.00  0.00    -0.120 C  
ENDROOT
BRANCH   1   2
HETATM    2  C   UNL     1      -6.497  11.053  69.744  1.00  0.00    -0.137 C  
HETATM    3  H   UNL     1      -8.120  12.249  69.328  1.00  0.00     0.000 HD 
HETATM    4  N   UNL     1      -7.108  12.264  69.447  1.00  0.00     0.053 N  
HETATM    5  O   UNL     1      -5.268  11.014  69.752  1.00  0.00    -0.041 OA 
BRANCH   4   6
HETATM    6  C   UNL     1      -6.422  13.611  69.280  1.00  0.00    -0.110 C  
HETATM    7  C   UNL     1      -6.321  15.626  68.566  1.00  0.00    -0.104 C  
HETATM    8  F   UNL     1      -6.923  16.605  67.858  1.00  0.00    -0.131 F  
HETATM    9  C   UNL     1      -6.206  14.236  67.873  1.00  0.00    -0.167 C  
HETATM   10  F   UNL     1      -5.157  16.140  69.027  1.00  0.00    -0.104 F  
HETATM   11  C   UNL     1      -7.196  14.907  69.632  1.00  0.00    -0.166 C  
ENDBRANCH   4   6
ENDBRANCH   1   2
BRANCH   1  12
HETATM   12  N   UNL     1      -8.526   9.603  69.028  1.00  0.00    -0.125 N  
HETATM   13  O   UNL     1      -7.354  10.288  67.163  1.00  0.00    -0.089 OA 
HETATM   14  C   UNL     1      -8.418   9.900  67.653  1.00  0.00    -0.114 C  
BRANCH  12  15
HETATM   15  C   UNL     1      -9.743   9.178  69.611  1.00  0.00    -0.176 A  
HETATM   16  C   UNL     1     -10.194   7.862  69.494  1.00  0.00    -0.208 A  
HETATM   17  C   UNL     1     -11.605   9.592  71.059  1.00  0.00    -0.359 A  
HETATM   18  N   UNL     1     -11.289   7.389  70.134  1.00  0.00    -0.224 NA 
HETATM   19  F   UNL     1     -12.301  10.416  71.850  1.00  0.00    -0.456 F  
HETATM   20  C   UNL     1     -10.470  10.051  70.414  1.00  0.00    -0.304 A  
HETATM   21  C   UNL     1     -11.976   8.271  70.900  1.00  0.00    -0.180 A  
ENDBRANCH  12  15
BRANCH  14  22
HETATM   22  C   UNL     1      -9.670   9.652  66.735  1.00  0.00    -0.197 C  
HETATM   23  C   UNL     1      -8.823   8.833  64.646  1.00  0.00    -0.054 C  
HETATM   24  C   UNL     1      -9.456   8.362  65.945  1.00  0.00    -0.169 C  
HETATM   25  N   UNL     1      -9.938  10.625  65.675  1.00  0.00    -0.253 N  
HETATM   26  O   UNL     1      -9.461  10.730  63.340  1.00  0.00    -0.252 OA 
HETATM   27  C   UNL     1      -9.446  10.186  64.436  1.00  0.00    -0.308 C  
BRANCH  25  28
HETATM   28  C   UNL     1     -10.797  11.743  65.794  1.00  0.00    -0.291 A  
HETATM   29  N   UNL     1     -11.663  11.992  64.784  1.00  0.00    -0.310 NA 
HETATM   30  C   UNL     1     -12.546  13.007  64.870  1.00  0.00    -0.428 A  
HETATM   31  C   UNL     1     -12.627  13.840  65.960  1.00  0.00    -0.458 A  
HETATM   32  C   UNL     1     -11.741  13.601  67.003  1.00  0.00    -0.419 A  
HETATM   33  C   UNL     1     -10.819  12.545  66.927  1.00  0.00    -0.280 A  
HETATM   34  C   UNL     1     -11.774  14.438  68.166  1.00  0.00    -0.342 C  
HETATM   35  N   UNL     1     -11.790  15.109  69.111  1.00  0.00    -0.318 NA 
ENDBRANCH  25  28
ENDBRANCH  14  22
ENDBRANCH   1  12
BRANCH   1  36
HETATM   36  C   UNL     1      -6.742   8.280  70.218  1.00  0.00    -0.036 A  
HETATM   37  C   UNL     1      -6.773   6.348  71.774  1.00  0.00    -0.063 A  
HETATM   38  C   UNL     1      -5.726   5.749  71.103  1.00  0.00    -0.017 A  
HETATM   39 CL   UNL     1      -5.437   7.982  67.830  1.00  0.00    -0.033 Cl 
HETATM   40  C   UNL     1      -5.259   6.347  69.934  1.00  0.00    -0.013 A  
HETATM   41  C   UNL     1      -7.250   7.592  71.361  1.00  0.00    -0.066 A  
HETATM   42  C   UNL     1      -5.818   7.558  69.454  1.00  0.00    -0.026 A  
ENDBRANCH   1  36
TORSDOF 7
ENDMDL
MODEL       83
REMARK 921   NORMALIZED FREE ENERGY PREDICTED BY IDOCK:   -5.23 KCAL/MOL
REMARK 922        TOTAL FREE ENERGY PREDICTED BY IDOCK:   -8.83 KCAL/MOL
REMARK 923 INTER-LIGAND FREE ENERGY PREDICTED BY IDOCK:   -7.69 KCAL/MOL
REMARK 924 INTRA-LIGAND FREE ENERGY PREDICTED BY IDOCK:   -1.14 KCAL/MOL
REMARK 927      BINDING AFFINITY PREDICTED BY RF-SCORE:    0.00 PKD
ROOT
HETATM    1  C   UNL     1     -10.774  11.619  66.779  1.00  0.00    -0.260 C  
ENDROOT
BRANCH   1   2
HETATM    2  C   UNL     1     -11.204  10.553  67.905  1.00  0.00    -0.289 C  
HETATM    3  H   UNL     1      -9.754   9.160  67.465  1.00  0.00     0.000 HD 
HETATM    4  N   UNL     1     -10.527   9.357  68.100  1.00  0.00    -0.214 N  
HETATM    5  O   UNL     1     -12.226  10.751  68.561  1.00  0.00    -0.470 OA 
BRANCH   4   6
HETATM    6  C   UNL     1     -10.821   8.309  69.163  1.00  0.00    -0.017 C  
HETATM    7  C   UNL     1     -10.436   6.470  70.186  1.00  0.00    -0.214 C  
HETATM    8  F   UNL     1      -9.675   5.358  70.263  1.00  0.00    -0.192 F  
HETATM    9  C   UNL     1     -11.024   6.815  68.786  1.00  0.00    -0.267 C  
HETATM   10  F   UNL     1     -11.341   6.391  71.189  1.00  0.00    -0.308 F  
HETATM   11  C   UNL     1      -9.674   7.822  70.086  1.00  0.00    -0.183 C  
ENDBRANCH   4   6
ENDBRANCH   1   2
BRANCH   1  12
HETATM   12  N   UNL     1      -9.865  12.699  67.330  1.00  0.00    -0.203 N  
HETATM   13  O   UNL     1     -11.486  14.339  67.264  1.00  0.00    -0.317 OA 
HETATM   14  C   UNL     1     -10.332  14.012  67.553  1.00  0.00    -0.245 C  
BRANCH  12  15
HETATM   15  C   UNL     1      -8.538  12.312  67.634  1.00  0.00    -0.169 A  
HETATM   16  C   UNL     1      -7.453  12.741  66.869  1.00  0.00     0.214 A  
HETATM   17  C   UNL     1      -6.968  11.285  69.122  1.00  0.00    -0.114 A  
HETATM   18  N   UNL     1      -6.163  12.490  67.196  1.00  0.00    -0.233 NA 
HETATM   19  F   UNL     1      -6.703  10.591  70.234  1.00  0.00    -0.121 F  
HETATM   20  C   UNL     1      -8.279  11.571  68.783  1.00  0.00    -0.082 A  
HETATM   21  C   UNL     1      -5.951  11.759  68.317  1.00  0.00    -0.049 A  
ENDBRANCH  12  15
BRANCH  14  22
HETATM   22  C   UNL     1      -9.368  15.038  68.254  1.00  0.00    -0.192 C  
HETATM   23  C   UNL     1     -10.207  15.337  70.481  1.00  0.00     0.104 C  
HETATM   24  C   UNL     1      -9.139  14.594  69.697  1.00  0.00     0.321 C  
HETATM   25  N   UNL     1      -9.847  16.410  68.424  1.00  0.00    -0.226 N  
HETATM   26  O   UNL     1     -10.859  17.621  70.213  1.00  0.00     0.649 OA 
HETATM   27  C   UNL     1     -10.358  16.623  69.714  1.00  0.00    -0.115 C  
BRANCH  25  28
HETATM   28  C   UNL     1      -9.608  17.475  67.522  1.00  0.00    -0.265 A  
HETATM   29  N   UNL     1     -10.644  18.281  67.198  1.00  0.00    -0.392 NA 
HETATM   30  C   UNL     1     -10.461  19.346  66.391  1.00  0.00    -0.488 A  
HETATM   31  C   UNL     1      -9.240  19.678  65.854  1.00  0.00    -0.166 A  
HETATM   32  C   UNL     1      -8.166  18.856  66.173  1.00  0.00    -0.222 A  
HETATM   33  C   UNL     1      -8.344  17.747  67.015  1.00  0.00    -0.242 A  
HETATM   34  C   UNL     1      -6.869  19.149  65.642  1.00  0.00    -0.274 C  
HETATM   35  N   UNL     1      -5.814  19.375  65.215  1.00  0.00    -0.186 NA 
ENDBRANCH  25  28
ENDBRANCH  14  22
ENDBRANCH   1  12
BRANCH   1  36
HETATM   36  C   UNL     1     -10.418  11.312  65.301  1.00  0.00    -0.341 A  
HETATM   37  C   UNL     1      -9.191   9.755  63.808  1.00  0.00    -0.237 A  
HETATM   38  C   UNL     1      -9.423  10.568  62.717  1.00  0.00    -0.353 A  
HETATM   39 CL   UNL     1     -12.073  13.160  64.144  1.00  0.00    -0.474 Cl 
HETATM   40  C   UNL     1     -10.238  11.686  62.884  1.00  0.00    -0.146 A  
HETATM   41  C   UNL     1      -9.651  10.130  65.071  1.00  0.00    -0.362 A  
HETATM   42  C   UNL     1     -10.795  12.008  64.147  1.00  0.00    -0.352 A  
ENDBRANCH   1  36
TORSDOF 7
ENDMDL
MODEL       84
REMARK 921   NORMALIZED FREE ENERGY PREDICTED BY IDOCK:   -5.21 KCAL/MOL
REMARK 922        TOTAL FREE ENERGY PREDICTED BY IDOCK:   -8.79 KCAL/MOL
REMARK 923 INTER-LIGAND FREE ENERGY PREDICTED BY IDOCK:   -7.88 KCAL/MOL
REMARK 924 INTRA-LIGAND FREE ENERGY PREDICTED BY IDOCK:   -0.91 KCAL/MOL
REMARK 927      BINDING AFFINITY PREDICTED BY RF-SCORE:    0.00 PKD
ROOT
HETATM    1  C   UNL     1      -9.823  11.187  67.216  1.00  0.00    -0.175 C  
ENDROOT
BRANCH   1   2
HETATM    2  C   UNL     1      -9.867   9.721  67.879  1.00  0.00    -0.149 C  
HETATM    3  H   UNL     1     -10.514   8.730  66.196  1.00  0.00     0.000 HD 
HETATM    4  N   UNL     1     -10.233   8.588  67.166  1.00  0.00    -0.257 N  
HETATM    5  O   UNL     1      -9.661   9.602  69.086  1.00  0.00    -0.161 OA 
BRANCH   4   6
HETATM    6  C   UNL     1     -10.258   7.158  67.681  1.00  0.00    -0.198 C  
HETATM    7  C   UNL     1      -9.688   5.097  67.619  1.00  0.00    -0.148 C  
HETATM    8  F   UNL     1      -8.994   4.135  66.974  1.00  0.00    -0.110 F  
HETATM    9  C   UNL     1     -10.637   5.972  66.750  1.00  0.00    -0.359 C  
HETATM   10  F   UNL     1     -10.266   4.505  68.690  1.00  0.00    -0.205 F  
HETATM   11  C   UNL     1      -8.920   6.414  67.926  1.00  0.00    -0.114 C  
ENDBRANCH   4   6
ENDBRANCH   1   2
BRANCH   1  12
HETATM   12  N   UNL     1      -8.432  11.786  67.239  1.00  0.00    -0.153 N  
HETATM   13  O   UNL     1      -9.105  13.748  68.249  1.00  0.00    -0.189 OA 
HETATM   14  C   UNL     1      -8.187  13.058  67.799  1.00  0.00    -0.168 C  
BRANCH  12  15
HETATM   15  C   UNL     1      -7.394  10.990  66.699  1.00  0.00    -0.143 A  
HETATM   16  C   UNL     1      -6.736  10.024  67.461  1.00  0.00    -0.072 A  
HETATM   17  C   UNL     1      -6.131  10.232  64.811  1.00  0.00    -0.128 A  
HETATM   18  N   UNL     1      -5.823   9.164  66.950  1.00  0.00    -0.048 NA 
HETATM   19  F   UNL     1      -5.832  10.301  63.509  1.00  0.00    -0.109 F  
HETATM   20  C   UNL     1      -7.078  11.086  65.348  1.00  0.00     0.296 A  
HETATM   21  C   UNL     1      -5.535   9.295  65.632  1.00  0.00    -0.040 A  
ENDBRANCH  12  15
BRANCH  14  22
HETATM   22  C   UNL     1      -6.697  13.550  67.910  1.00  0.00    -0.150 C  
HETATM   23  C   UNL     1      -6.041  13.208  70.191  1.00  0.00    -0.099 C  
HETATM   24  C   UNL     1      -5.924  12.587  68.810  1.00  0.00    -0.066 C  
HETATM   25  N   UNL     1      -6.456  14.840  68.556  1.00  0.00    -0.087 N  
HETATM   26  O   UNL     1      -5.822  15.520  70.753  1.00  0.00    -0.067 OA 
HETATM   27  C   UNL     1      -6.080  14.683  69.899  1.00  0.00    -0.141 C  
BRANCH  25  28
HETATM   28  C   UNL     1      -6.353  16.082  67.884  1.00  0.00    -0.138 A  
HETATM   29  N   UNL     1      -5.295  16.277  67.064  1.00  0.00    -0.347 NA 
HETATM   30  C   UNL     1      -5.178  17.416  66.352  1.00  0.00    -0.180 A  
HETATM   31  C   UNL     1      -6.100  18.434  66.408  1.00  0.00    -0.198 A  
HETATM   32  C   UNL     1      -7.190  18.251  67.250  1.00  0.00    -0.211 A  
HETATM   33  C   UNL     1      -7.324  17.067  67.993  1.00  0.00    -0.183 A  
HETATM   34  C   UNL     1      -8.184  19.277  67.354  1.00  0.00    -0.282 C  
HETATM   35  N   UNL     1      -8.995  20.101  67.448  1.00  0.00    -0.342 NA 
ENDBRANCH  25  28
ENDBRANCH  14  22
ENDBRANCH   1  12
BRANCH   1  36
HETATM   36  C   UNL     1     -10.595  11.656  65.954  1.00  0.00    -0.318 A  
HETATM   37  C   UNL     1     -10.940  11.234  63.534  1.00  0.00    -0.329 A  
HETATM   38  C   UNL     1     -11.705  12.376  63.411  1.00  0.00    -0.554 A  
HETATM   39 CL   UNL     1     -12.277  13.420  67.201  1.00  0.00    -0.360 Cl 
HETATM   40  C   UNL     1     -12.011  13.098  64.564  1.00  0.00    -0.442 A  
HETATM   41  C   UNL     1     -10.377  10.897  64.765  1.00  0.00    -0.391 A  
HETATM   42  C   UNL     1     -11.526  12.694  65.833  1.00  0.00    -0.363 A  
ENDBRANCH   1  36
TORSDOF 7
ENDMDL
MODEL       85
REMARK 921   NORMALIZED FREE ENERGY PREDICTED BY IDOCK:   -5.13 KCAL/MOL
REMARK 922        TOTAL FREE ENERGY PREDICTED BY IDOCK:   -8.68 KCAL/MOL
REMARK 923 INTER-LIGAND FREE ENERGY PREDICTED BY IDOCK:   -6.60 KCAL/MOL
REMARK 924 INTRA-LIGAND FREE ENERGY PREDICTED BY IDOCK:   -2.08 KCAL/MOL
REMARK 927      BINDING AFFINITY PREDICTED BY RF-SCORE:    0.00 PKD
ROOT
HETATM    1  C   UNL     1     -10.093   8.252  69.334  1.00  0.00    -0.198 C  
ENDROOT
BRANCH   1   2
HETATM    2  C   UNL     1     -10.672   9.543  68.567  1.00  0.00    -0.182 C  
HETATM    3  H   UNL     1     -10.855  10.735  70.235  1.00  0.00     0.000 HD 
HETATM    4  N   UNL     1     -10.979  10.727  69.223  1.00  0.00    -0.224 N  
HETATM    5  O   UNL     1     -10.945   9.458  67.371  1.00  0.00    -0.210 OA 
BRANCH   4   6
HETATM    6  C   UNL     1     -11.481  12.014  68.587  1.00  0.00    -0.297 C  
HETATM    7  C   UNL     1     -11.429  14.128  68.261  1.00  0.00    -0.304 C  
HETATM    8  F   UNL     1     -10.846  15.305  68.572  1.00  0.00    -0.228 F  
HETATM    9  C   UNL     1     -11.882  13.239  69.457  1.00  0.00    -0.388 C  
HETATM   10  F   UNL     1     -12.390  14.401  67.348  1.00  0.00    -0.410 F  
HETATM   11  C   UNL     1     -10.472  12.961  67.888  1.00  0.00    -0.231 C  
ENDBRANCH   4   6
ENDBRANCH   1   2
BRANCH   1  12
HETATM   12  N   UNL     1      -8.771   7.788  68.758  1.00  0.00    -0.129 N  
HETATM   13  O   UNL     1      -7.914   9.919  68.552  1.00  0.00    -0.084 OA 
HETATM   14  C   UNL     1      -7.750   8.703  68.427  1.00  0.00    -0.100 C  
BRANCH  12  15
HETATM   15  C   UNL     1      -8.608   6.391  68.601  1.00  0.00    -0.123 A  
HETATM   16  C   UNL     1      -7.725   5.660  69.396  1.00  0.00    -0.088 A  
HETATM   17  C   UNL     1      -9.315   4.316  67.636  1.00  0.00    -0.161 A  
HETATM   18  N   UNL     1      -7.626   4.310  69.357  1.00  0.00    -0.054 NA 
HETATM   19  F   UNL     1     -10.100   3.632  66.797  1.00  0.00    -0.171 F  
HETATM   20  C   UNL     1      -9.416   5.694  67.708  1.00  0.00    -0.121 A  
HETATM   21  C   UNL     1      -8.423   3.667  68.469  1.00  0.00    -0.087 A  
ENDBRANCH  12  15
BRANCH  14  22
HETATM   22  C   UNL     1      -6.358   8.134  67.965  1.00  0.00    -0.055 C  
HETATM   23  C   UNL     1      -5.195   9.957  66.928  1.00  0.00    -0.041 C  
HETATM   24  C   UNL     1      -5.281   9.183  68.233  1.00  0.00    -0.037 C  
HETATM   25  N   UNL     1      -6.178   7.861  66.539  1.00  0.00    -0.045 N  
HETATM   26  O   UNL     1      -5.203   9.053  64.716  1.00  0.00    -0.041 OA 
HETATM   27  C   UNL     1      -5.509   8.912  65.892  1.00  0.00    -0.041 C  
BRANCH  25  28
HETATM   28  C   UNL     1      -6.401   6.611  65.913  1.00  0.00    -0.045 A  
HETATM   29  N   UNL     1      -5.672   5.550  66.330  1.00  0.00    -0.017 NA 
HETATM   30  C   UNL     1      -5.884   4.323  65.813  1.00  0.00    -0.023 A  
HETATM   31  C   UNL     1      -6.831   4.070  64.849  1.00  0.00    -0.049 A  
HETATM   32  C   UNL     1      -7.585   5.150  64.407  1.00  0.00    -0.079 A  
HETATM   33  C   UNL     1      -7.375   6.431  64.941  1.00  0.00    -0.079 A  
HETATM   34  C   UNL     1      -8.586   4.950  63.402  1.00  0.00    -0.128 C  
HETATM   35  N   UNL     1      -9.398   4.801  62.587  1.00  0.00    -0.074 NA 
ENDBRANCH  25  28
ENDBRANCH  14  22
ENDBRANCH   1  12
BRANCH   1  36
HETATM   36  C   UNL     1     -10.144   7.982  70.861  1.00  0.00    -0.211 A  
HETATM   37  C   UNL     1      -8.881   8.192  72.986  1.00  0.00    -0.316 A  
HETATM   38  C   UNL     1      -9.833   7.458  73.663  1.00  0.00    -0.365 A  
HETATM   39 CL   UNL     1     -12.776   7.239  71.003  1.00  0.00    -0.330 Cl 
HETATM   40  C   UNL     1     -10.989   7.081  72.980  1.00  0.00    -0.327 A  
HETATM   41  C   UNL     1      -9.017   8.424  71.617  1.00  0.00    -0.261 A  
HETATM   42  C   UNL     1     -11.176   7.411  71.615  1.00  0.00    -0.247 A  
ENDBRANCH   1  36
TORSDOF 7
ENDMDL
MODEL       86
REMARK 921   NORMALIZED FREE ENERGY PREDICTED BY IDOCK:   -5.06 KCAL/MOL
REMARK 922        TOTAL FREE ENERGY PREDICTED BY IDOCK:   -8.59 KCAL/MOL
REMARK 923 INTER-LIGAND FREE ENERGY PREDICTED BY IDOCK:   -6.64 KCAL/MOL
REMARK 924 INTRA-LIGAND FREE ENERGY PREDICTED BY IDOCK:   -1.96 KCAL/MOL
REMARK 927      BINDING AFFINITY PREDICTED BY RF-SCORE:    0.00 PKD
ROOT
HETATM    1  C   UNL     1      -8.708  10.214  68.512  1.00  0.00    -0.123 C  
ENDROOT
BRANCH   1   2
HETATM    2  C   UNL     1     -10.016  10.553  67.638  1.00  0.00    -0.173 C  
HETATM    3  H   UNL     1      -9.012  11.331  66.019  1.00  0.00     0.000 HD 
HETATM    4  N   UNL     1      -9.944  11.109  66.369  1.00  0.00    -0.210 N  
HETATM    5  O   UNL     1     -11.129  10.407  68.142  1.00  0.00    -0.267 OA 
BRANCH   4   6
HETATM    6  C   UNL     1     -11.111  11.421  65.445  1.00  0.00    -0.128 C  
HETATM    7  C   UNL     1     -12.153  12.646  64.034  1.00  0.00    -0.462 C  
HETATM    8  F   UNL     1     -12.174  13.805  63.342  1.00  0.00    -0.529 F  
HETATM    9  C   UNL     1     -11.900  12.755  65.566  1.00  0.00    -0.466 C  
HETATM   10  F   UNL     1     -13.266  11.963  63.679  1.00  0.00    -0.585 F  
HETATM   11  C   UNL     1     -10.830  11.831  63.977  1.00  0.00    -0.446 C  
ENDBRANCH   4   6
ENDBRANCH   1   2
BRANCH   1  12
HETATM   12  N   UNL     1      -8.077   8.895  68.111  1.00  0.00    -0.106 N  
HETATM   13  O   UNL     1      -6.850   9.808  66.385  1.00  0.00    -0.084 OA 
HETATM   14  C   UNL     1      -7.148   8.815  67.053  1.00  0.00    -0.078 C  
BRANCH  12  15
HETATM   15  C   UNL     1      -8.448   7.762  68.874  1.00  0.00    -0.129 A  
HETATM   16  C   UNL     1      -7.566   7.162  69.774  1.00  0.00    -0.103 A  
HETATM   17  C   UNL     1     -10.127   6.238  69.641  1.00  0.00    -0.174 A  
HETATM   18  N   UNL     1      -7.919   6.153  70.605  1.00  0.00    -0.109 NA 
HETATM   19  F   UNL     1     -11.384   5.782  69.611  1.00  0.00    -0.447 F  
HETATM   20  C   UNL     1      -9.753   7.284  68.816  1.00  0.00    -0.151 A  
HETATM   21  C   UNL     1      -9.197   5.708  70.514  1.00  0.00    -0.150 A  
ENDBRANCH  12  15
BRANCH  14  22
HETATM   22  C   UNL     1      -6.436   7.438  66.788  1.00  0.00    -0.052 C  
HETATM   23  C   UNL     1      -5.522   7.566  64.574  1.00  0.00    -0.033 C  
HETATM   24  C   UNL     1      -5.130   7.693  66.036  1.00  0.00    -0.025 C  
HETATM   25  N   UNL     1      -7.114   6.480  65.915  1.00  0.00    -0.061 N  
HETATM   26  O   UNL     1      -6.944   5.908  63.605  1.00  0.00    -0.040 OA 
HETATM   27  C   UNL     1      -6.615   6.532  64.604  1.00  0.00    -0.038 C  
BRANCH  25  28
HETATM   28  C   UNL     1      -7.978   5.448  66.353  1.00  0.00    -0.104 A  
HETATM   29  N   UNL     1      -9.238   5.418  65.861  1.00  0.00    -0.160 NA 
HETATM   30  C   UNL     1     -10.083   4.423  66.196  1.00  0.00    -0.234 A  
HETATM   31  C   UNL     1      -9.736   3.396  67.042  1.00  0.00     0.008 A  
HETATM   32  C   UNL     1      -8.447   3.416  67.560  1.00  0.00    -0.107 A  
HETATM   33  C   UNL     1      -7.556   4.444  67.215  1.00  0.00    -0.081 A  
HETATM   34  C   UNL     1      -8.026   2.374  68.449  1.00  0.00    -0.057 C  
HETATM   35  N   UNL     1      -7.675   1.537  69.172  1.00  0.00    -0.042 NA 
ENDBRANCH  25  28
ENDBRANCH  14  22
ENDBRANCH   1  12
BRANCH   1  36
HETATM   36  C   UNL     1      -7.620  11.216  68.978  1.00  0.00    -0.119 A  
HETATM   37  C   UNL     1      -6.711  13.500  68.642  1.00  0.00    -0.094 A  
HETATM   38  C   UNL     1      -5.637  13.230  69.465  1.00  0.00    -0.087 A  
HETATM   39 CL   UNL     1      -6.683   9.764  71.101  1.00  0.00     0.027 Cl 
HETATM   40  C   UNL     1      -5.605  12.006  70.132  1.00  0.00    -0.139 A  
HETATM   41  C   UNL     1      -7.662  12.513  68.382  1.00  0.00    -0.136 A  
HETATM   42  C   UNL     1      -6.629  11.043  69.951  1.00  0.00    -0.142 A  
ENDBRANCH   1  36
TORSDOF 7
ENDMDL
MODEL       87
REMARK 921   NORMALIZED FREE ENERGY PREDICTED BY IDOCK:   -5.06 KCAL/MOL
REMARK 922        TOTAL FREE ENERGY PREDICTED BY IDOCK:   -8.59 KCAL/MOL
REMARK 923 INTER-LIGAND FREE ENERGY PREDICTED BY IDOCK:   -7.28 KCAL/MOL
REMARK 924 INTRA-LIGAND FREE ENERGY PREDICTED BY IDOCK:   -1.31 KCAL/MOL
REMARK 927      BINDING AFFINITY PREDICTED BY RF-SCORE:    0.00 PKD
ROOT
HETATM    1  C   UNL     1     -11.141   7.564  70.239  1.00  0.00    -0.248 C  
ENDROOT
BRANCH   1   2
HETATM    2  C   UNL     1     -12.037   8.834  70.657  1.00  0.00     0.012 C  
HETATM    3  H   UNL     1     -10.994  10.222  69.552  1.00  0.00     0.000 HD 
HETATM    4  N   UNL     1     -11.798  10.111  70.170  1.00  0.00    -0.246 N  
HETATM    5  O   UNL     1     -12.910   8.697  71.513  1.00  0.00    -0.323 OA 
BRANCH   4   6
HETATM    6  C   UNL     1     -12.611  11.362  70.462  1.00  0.00    -0.224 C  
HETATM    7  C   UNL     1     -12.880  13.308  71.311  1.00  0.00    -0.312 C  
HETATM    8  F   UNL     1     -12.344  14.303  72.048  1.00  0.00    -0.378 F  
HETATM    9  C   UNL     1     -12.805  11.875  71.917  1.00  0.00    -0.341 C  
HETATM   10  F   UNL     1     -14.118  13.718  70.949  1.00  0.00    -0.032 F  
HETATM   11  C   UNL     1     -12.001  12.754  70.154  1.00  0.00    -0.371 C  
ENDBRANCH   4   6
ENDBRANCH   1   2
BRANCH   1  12
HETATM   12  N   UNL     1      -9.910   7.965  69.451  1.00  0.00    -0.177 N  
HETATM   13  O   UNL     1     -11.024   8.078  67.434  1.00  0.00    -0.151 OA 
HETATM   14  C   UNL     1      -9.973   8.219  68.065  1.00  0.00    -0.185 C  
BRANCH  12  15
HETATM   15  C   UNL     1      -8.708   8.101  70.186  1.00  0.00    -0.130 A  
HETATM   16  C   UNL     1      -8.578   9.032  71.217  1.00  0.00    -0.155 A  
HETATM   17  C   UNL     1      -6.523   7.302  70.752  1.00  0.00    -0.043 A  
HETATM   18  N   UNL     1      -7.489   9.112  72.018  1.00  0.00    -0.309 NA 
HETATM   19  F   UNL     1      -5.511   6.449  70.558  1.00  0.00    -0.016 F  
HETATM   20  C   UNL     1      -7.654   7.222  69.959  1.00  0.00    -0.090 A  
HETATM   21  C   UNL     1      -6.480   8.244  71.761  1.00  0.00    -0.058 A  
ENDBRANCH  12  15
BRANCH  14  22
HETATM   22  C   UNL     1      -8.685   8.763  67.346  1.00  0.00    -0.130 C  
HETATM   23  C   UNL     1      -9.352  10.751  66.181  1.00  0.00    -0.209 C  
HETATM   24  C   UNL     1      -8.665  10.287  67.454  1.00  0.00    -0.128 C  
HETATM   25  N   UNL     1      -8.574   8.554  65.902  1.00  0.00    -0.154 N  
HETATM   26  O   UNL     1      -9.031   9.886  63.977  1.00  0.00    -0.209 OA 
HETATM   27  C   UNL     1      -8.967   9.693  65.183  1.00  0.00    -0.207 C  
BRANCH  25  28
HETATM   28  C   UNL     1      -7.920   7.460  65.285  1.00  0.00    -0.127 A  
HETATM   29  N   UNL     1      -7.071   7.718  64.264  1.00  0.00    -0.071 NA 
HETATM   30  C   UNL     1      -6.376   6.722  63.679  1.00  0.00    -0.042 A  
HETATM   31  C   UNL     1      -6.478   5.407  64.068  1.00  0.00    -0.029 A  
HETATM   32  C   UNL     1      -7.351   5.125  65.112  1.00  0.00    -0.068 A  
HETATM   33  C   UNL     1      -8.077   6.155  65.731  1.00  0.00    -0.124 A  
HETATM   34  C   UNL     1      -7.503   3.774  65.561  1.00  0.00    -0.077 C  
HETATM   35  N   UNL     1      -7.636   2.682  65.932  1.00  0.00    -0.072 NA 
ENDBRANCH  25  28
ENDBRANCH  14  22
ENDBRANCH   1  12
BRANCH   1  36
HETATM   36  C   UNL     1     -10.845   6.313  71.107  1.00  0.00    -0.320 A  
HETATM   37  C   UNL     1     -11.004   5.368  73.395  1.00  0.00    -0.349 A  
HETATM   38  C   UNL     1     -10.269   4.260  73.024  1.00  0.00    -0.226 A  
HETATM   39 CL   UNL     1     -10.132   4.627  69.071  1.00  0.00    -0.182 Cl 
HETATM   40  C   UNL     1      -9.918   4.116  71.683  1.00  0.00    -0.240 A  
HETATM   41  C   UNL     1     -11.261   6.381  72.470  1.00  0.00    -0.307 A  
HETATM   42  C   UNL     1     -10.274   5.095  70.721  1.00  0.00    -0.238 A  
ENDBRANCH   1  36
TORSDOF 7
ENDMDL
MODEL       88
REMARK 921   NORMALIZED FREE ENERGY PREDICTED BY IDOCK:   -5.04 KCAL/MOL
REMARK 922        TOTAL FREE ENERGY PREDICTED BY IDOCK:   -8.56 KCAL/MOL
REMARK 923 INTER-LIGAND FREE ENERGY PREDICTED BY IDOCK:   -7.73 KCAL/MOL
REMARK 924 INTRA-LIGAND FREE ENERGY PREDICTED BY IDOCK:   -0.83 KCAL/MOL
REMARK 927      BINDING AFFINITY PREDICTED BY RF-SCORE:    0.00 PKD
ROOT
HETATM    1  C   UNL     1      -9.131   9.450  68.040  1.00  0.00    -0.127 C  
ENDROOT
BRANCH   1   2
HETATM    2  C   UNL     1     -10.437   9.637  68.963  1.00  0.00    -0.213 C  
HETATM    3  H   UNL     1      -9.845   8.353  70.458  1.00  0.00     0.000 HD 
HETATM    4  N   UNL     1     -10.590   8.992  70.181  1.00  0.00    -0.216 N  
HETATM    5  O   UNL     1     -11.382  10.301  68.538  1.00  0.00    -0.241 OA 
BRANCH   4   6
HETATM    6  C   UNL     1     -11.756   9.138  71.147  1.00  0.00    -0.313 C  
HETATM    7  C   UNL     1     -13.510   8.424  72.142  1.00  0.00    -0.315 C  
HETATM    8  F   UNL     1     -14.396   7.416  72.286  1.00  0.00    -0.356 F  
HETATM    9  C   UNL     1     -13.220   8.892  70.686  1.00  0.00     0.484 C  
HETATM   10  F   UNL     1     -13.892   9.401  72.998  1.00  0.00    -0.363 F  
HETATM   11  C   UNL     1     -12.006   8.036  72.209  1.00  0.00    -0.412 C  
ENDBRANCH   4   6
ENDBRANCH   1   2
BRANCH   1  12
HETATM   12  N   UNL     1      -8.752  10.727  67.318  1.00  0.00    -0.130 N  
HETATM   13  O   UNL     1      -8.818  12.029  69.221  1.00  0.00     0.426 OA 
HETATM   14  C   UNL     1      -8.601  11.947  68.009  1.00  0.00    -0.168 C  
BRANCH  12  15
HETATM   15  C   UNL     1      -8.528  10.620  65.924  1.00  0.00    -0.167 A  
HETATM   16  C   UNL     1      -7.268  10.324  65.403  1.00  0.00    -0.143 A  
HETATM   17  C   UNL     1      -9.381  10.499  63.690  1.00  0.00    -0.289 A  
HETATM   18  N   UNL     1      -7.038  10.097  64.088  1.00  0.00    -0.124 NA 
HETATM   19  F   UNL     1     -10.406  10.558  62.833  1.00  0.00    -0.275 F  
HETATM   20  C   UNL     1      -9.599  10.705  65.041  1.00  0.00    -0.319 A  
HETATM   21  C   UNL     1      -8.105  10.198  63.258  1.00  0.00    -0.160 A  
ENDBRANCH  12  15
BRANCH  14  22
HETATM   22  C   UNL     1      -8.071  13.196  67.213  1.00  0.00    -0.146 C  
HETATM   23  C   UNL     1      -7.245  14.740  68.851  1.00  0.00    -0.126 C  
HETATM   24  C   UNL     1      -6.779  13.685  67.863  1.00  0.00    -0.156 C  
HETATM   25  N   UNL     1      -8.898  14.403  67.218  1.00  0.00    -0.202 N  
HETATM   26  O   UNL     1      -8.897  16.427  68.481  1.00  0.00    -0.205 OA 
HETATM   27  C   UNL     1      -8.453  15.330  68.174  1.00  0.00    -0.151 C  
BRANCH  25  28
HETATM   28  C   UNL     1      -9.860  14.737  66.234  1.00  0.00    -0.296 A  
HETATM   29  N   UNL     1      -9.993  16.038  65.888  1.00  0.00    -0.330 NA 
HETATM   30  C   UNL     1     -10.851  16.406  64.915  1.00  0.00    -0.250 A  
HETATM   31  C   UNL     1     -11.630  15.509  64.224  1.00  0.00    -0.198 A  
HETATM   32  C   UNL     1     -11.508  14.169  64.571  1.00  0.00    -0.380 A  
HETATM   33  C   UNL     1     -10.616  13.774  65.581  1.00  0.00    -0.302 A  
HETATM   34  C   UNL     1     -12.296  13.187  63.889  1.00  0.00    -0.365 C  
HETATM   35  N   UNL     1     -12.931  12.382  63.345  1.00  0.00    -0.690 NA 
ENDBRANCH  25  28
ENDBRANCH  14  22
ENDBRANCH   1  12
BRANCH   1  36
HETATM   36  C   UNL     1      -7.864   8.625  68.386  1.00  0.00    -0.105 A  
HETATM   37  C   UNL     1      -6.500   6.660  67.726  1.00  0.00    -0.053 A  
HETATM   38  C   UNL     1      -5.717   6.783  68.856  1.00  0.00    -0.018 A  
HETATM   39 CL   UNL     1      -6.841  10.318  70.277  1.00  0.00    -0.151 Cl 
HETATM   40  C   UNL     1      -5.926   7.880  69.691  1.00  0.00    -0.026 A  
HETATM   41  C   UNL     1      -7.562   7.538  67.510  1.00  0.00    -0.113 A  
HETATM   42  C   UNL     1      -6.936   8.834  69.413  1.00  0.00    -0.053 A  
ENDBRANCH   1  36
TORSDOF 7
ENDMDL
MODEL       89
REMARK 921   NORMALIZED FREE ENERGY PREDICTED BY IDOCK:   -5.02 KCAL/MOL
REMARK 922        TOTAL FREE ENERGY PREDICTED BY IDOCK:   -8.53 KCAL/MOL
REMARK 923 INTER-LIGAND FREE ENERGY PREDICTED BY IDOCK:   -8.56 KCAL/MOL
REMARK 924 INTRA-LIGAND FREE ENERGY PREDICTED BY IDOCK:    0.04 KCAL/MOL
REMARK 927      BINDING AFFINITY PREDICTED BY RF-SCORE:    0.00 PKD
ROOT
HETATM    1  C   UNL     1     -10.649  13.828  68.316  1.00  0.00    -0.255 C  
ENDROOT
BRANCH   1   2
HETATM    2  C   UNL     1      -9.440  14.880  68.175  1.00  0.00    -0.202 C  
HETATM    3  H   UNL     1     -10.618  16.541  67.876  1.00  0.00     0.000 HD 
HETATM    4  N   UNL     1      -9.649  16.237  67.971  1.00  0.00    -0.223 N  
HETATM    5  O   UNL     1      -8.282  14.465  68.151  1.00  0.00    -0.133 OA 
BRANCH   4   6
HETATM    6  C   UNL     1      -8.582  17.317  67.874  1.00  0.00    -0.223 C  
HETATM    7  C   UNL     1      -7.896  19.281  67.376  1.00  0.00    -0.255 C  
HETATM    8  F   UNL     1      -8.203  20.486  66.850  1.00  0.00    -0.342 F  
HETATM    9  C   UNL     1      -8.282  18.033  66.528  1.00  0.00    -0.298 C  
HETATM   10  F   UNL     1      -6.598  19.343  67.755  1.00  0.00    -0.222 F  
HETATM   11  C   UNL     1      -8.874  18.726  68.450  1.00  0.00    -0.375 C  
ENDBRANCH   4   6
ENDBRANCH   1   2
BRANCH   1  12
HETATM   12  N   UNL     1     -10.334  12.501  67.657  1.00  0.00    -0.216 N  
HETATM   13  O   UNL     1      -9.419  11.574  69.561  1.00  0.00     0.402 OA 
HETATM   14  C   UNL     1      -9.743  11.442  68.378  1.00  0.00    -0.203 C  
BRANCH  12  15
HETATM   15  C   UNL     1     -10.693  12.373  66.294  1.00  0.00    -0.256 A  
HETATM   16  C   UNL     1      -9.742  12.119  65.304  1.00  0.00    -0.141 A  
HETATM   17  C   UNL     1     -12.376  12.169  64.603  1.00  0.00    -0.272 A  
HETATM   18  N   UNL     1     -10.057  11.875  64.011  1.00  0.00    -0.320 NA 
HETATM   19  F   UNL     1     -13.663  12.166  64.238  1.00  0.00    -0.166 F  
HETATM   20  C   UNL     1     -12.034  12.394  65.925  1.00  0.00    -0.434 A  
HETATM   21  C   UNL     1     -11.374  11.912  63.688  1.00  0.00    -0.450 A  
ENDBRANCH  12  15
BRANCH  14  22
HETATM   22  C   UNL     1      -9.574  10.053  67.660  1.00  0.00    -0.148 C  
HETATM   23  C   UNL     1      -9.337   8.420  69.401  1.00  0.00    -0.154 C  
HETATM   24  C   UNL     1     -10.359   8.997  68.437  1.00  0.00    -0.242 C  
HETATM   25  N   UNL     1      -8.233   9.471  67.616  1.00  0.00    -0.120 N  
HETATM   26  O   UNL     1      -7.068   7.846  68.917  1.00  0.00    -0.070 OA 
HETATM   27  C   UNL     1      -8.049   8.516  68.628  1.00  0.00    -0.121 C  
BRANCH  25  28
HETATM   28  C   UNL     1      -7.309   9.634  66.555  1.00  0.00    -0.090 A  
HETATM   29  N   UNL     1      -6.458  10.684  66.607  1.00  0.00    -0.091 NA 
HETATM   30  C   UNL     1      -5.517  10.854  65.656  1.00  0.00    -0.131 A  
HETATM   31  C   UNL     1      -5.361   9.995  64.593  1.00  0.00    -0.088 A  
HETATM   32  C   UNL     1      -6.231   8.914  64.523  1.00  0.00    -0.066 A  
HETATM   33  C   UNL     1      -7.212   8.725  65.510  1.00  0.00    -0.084 A  
HETATM   34  C   UNL     1      -6.120   7.986  63.439  1.00  0.00    -0.071 C  
HETATM   35  N   UNL     1      -6.042   7.228  62.564  1.00  0.00    -0.049 NA 
ENDBRANCH  25  28
ENDBRANCH  14  22
ENDBRANCH   1  12
BRANCH   1  36
HETATM   36  C   UNL     1     -11.551  13.615  69.561  1.00  0.00    -0.361 A  
HETATM   37  C   UNL     1     -12.792  11.920  70.880  1.00  0.00    -0.220 A  
HETATM   38  C   UNL     1     -13.370  12.902  71.659  1.00  0.00    -0.358 A  
HETATM   39 CL   UNL     1     -11.305  16.131  70.612  1.00  0.00    -0.410 Cl 
HETATM   40  C   UNL     1     -12.963  14.222  71.472  1.00  0.00    -0.411 A  
HETATM   41  C   UNL     1     -11.928  12.268  69.842  1.00  0.00    -0.377 A  
HETATM   42  C   UNL     1     -12.003  14.562  70.486  1.00  0.00    -0.318 A  
ENDBRANCH   1  36
TORSDOF 7
ENDMDL
MODEL       90
REMARK 921   NORMALIZED FREE ENERGY PREDICTED BY IDOCK:   -5.00 KCAL/MOL
REMARK 922        TOTAL FREE ENERGY PREDICTED BY IDOCK:   -8.50 KCAL/MOL
REMARK 923 INTER-LIGAND FREE ENERGY PREDICTED BY IDOCK:   -6.82 KCAL/MOL
REMARK 924 INTRA-LIGAND FREE ENERGY PREDICTED BY IDOCK:   -1.68 KCAL/MOL
REMARK 927      BINDING AFFINITY PREDICTED BY RF-SCORE:    0.00 PKD
ROOT
HETATM    1  C   UNL     1      -9.528   8.223  66.106  1.00  0.00    -0.171 C  
ENDROOT
BRANCH   1   2
HETATM    2  C   UNL     1      -9.964   7.066  67.136  1.00  0.00    -0.189 C  
HETATM    3  H   UNL     1      -8.612   7.552  68.609  1.00  0.00     0.000 HD 
HETATM    4  N   UNL     1      -9.374   6.913  68.382  1.00  0.00    -0.130 N  
HETATM    5  O   UNL     1     -10.786   6.223  66.779  1.00  0.00    -0.290 OA 
BRANCH   4   6
HETATM    6  C   UNL     1      -9.745   5.889  69.444  1.00  0.00    -0.152 C  
HETATM    7  C   UNL     1      -9.418   4.842  71.281  1.00  0.00    -0.156 C  
HETATM    8  F   UNL     1      -8.610   4.653  72.346  1.00  0.00    -0.109 F  
HETATM    9  C   UNL     1      -8.745   4.780  69.878  1.00  0.00    -0.113 C  
HETATM   10  F   UNL     1     -10.479   4.020  71.449  1.00  0.00    -0.179 F  
HETATM   11  C   UNL     1      -9.771   6.316  70.935  1.00  0.00    -0.197 C  
ENDBRANCH   4   6
ENDBRANCH   1   2
BRANCH   1  12
HETATM   12  N   UNL     1      -9.252   9.539  66.805  1.00  0.00    -0.145 N  
HETATM   13  O   UNL     1     -11.476  10.137  66.933  1.00  0.00     0.052 OA 
HETATM   14  C   UNL     1     -10.299  10.401  67.191  1.00  0.00    -0.238 C  
BRANCH  12  15
HETATM   15  C   UNL     1      -7.895   9.837  67.073  1.00  0.00    -0.102 A  
HETATM   16  C   UNL     1      -7.171  10.737  66.290  1.00  0.00    -0.137 A  
HETATM   17  C   UNL     1      -5.984   9.689  68.509  1.00  0.00    -0.043 A  
HETATM   18  N   UNL     1      -5.911  11.137  66.583  1.00  0.00    -0.115 NA 
HETATM   19  F   UNL     1      -5.388   9.206  69.605  1.00  0.00    -0.033 F  
HETATM   20  C   UNL     1      -7.280   9.311  68.204  1.00  0.00    -0.078 A  
HETATM   21  C   UNL     1      -5.342  10.596  67.688  1.00  0.00    -0.043 A  
ENDBRANCH  12  15
BRANCH  14  22
HETATM   22  C   UNL     1      -9.940  11.680  68.033  1.00  0.00    -0.188 C  
HETATM   23  C   UNL     1     -11.418  11.681  69.922  1.00  0.00    -0.308 C  
HETATM   24  C   UNL     1      -9.997  11.327  69.518  1.00  0.00     0.270 C  
HETATM   25  N   UNL     1     -10.850  12.823  67.951  1.00  0.00    -0.214 N  
HETATM   26  O   UNL     1     -12.648  13.632  69.295  1.00  0.00    -0.082 OA 
HETATM   27  C   UNL     1     -11.741  12.853  69.035  1.00  0.00    -0.327 C  
BRANCH  25  28
HETATM   28  C   UNL     1     -10.712  13.912  67.057  1.00  0.00    -0.283 A  
HETATM   29  N   UNL     1     -10.879  13.678  65.735  1.00  0.00    -0.271 NA 
HETATM   30  C   UNL     1     -10.819  14.688  64.845  1.00  0.00    -0.419 A  
HETATM   31  C   UNL     1     -10.589  15.994  65.207  1.00  0.00    -0.424 A  
HETATM   32  C   UNL     1     -10.409  16.251  66.561  1.00  0.00    -0.310 A  
HETATM   33  C   UNL     1     -10.474  15.207  67.498  1.00  0.00    -0.258 A  
HETATM   34  C   UNL     1     -10.163  17.592  67.000  1.00  0.00    -0.327 C  
HETATM   35  N   UNL     1      -9.961  18.673  67.368  1.00  0.00    -0.318 NA 
ENDBRANCH  25  28
ENDBRANCH  14  22
ENDBRANCH   1  12
BRANCH   1  36
HETATM   36  C   UNL     1      -8.605   8.062  64.869  1.00  0.00     0.000 A  
HETATM   37  C   UNL     1      -6.904   6.603  63.804  1.00  0.00    -0.053 A  
HETATM   38  C   UNL     1      -6.656   7.549  62.829  1.00  0.00    -0.070 A  
HETATM   39 CL   UNL     1      -9.614  10.139  63.399  1.00  0.00    -0.312 Cl 
HETATM   40  C   UNL     1      -7.450   8.694  62.800  1.00  0.00    -0.103 A  
HETATM   41  C   UNL     1      -7.832   6.863  64.813  1.00  0.00    -0.119 A  
HETATM   42  C   UNL     1      -8.467   8.908  63.763  1.00  0.00    -0.137 A  
ENDBRANCH   1  36
TORSDOF 7
ENDMDL
MODEL       91
REMARK 921   NORMALIZED FREE ENERGY PREDICTED BY IDOCK:   -4.99 KCAL/MOL
REMARK 922        TOTAL FREE ENERGY PREDICTED BY IDOCK:   -8.49 KCAL/MOL
REMARK 923 INTER-LIGAND FREE ENERGY PREDICTED BY IDOCK:   -8.28 KCAL/MOL
REMARK 924 INTRA-LIGAND FREE ENERGY PREDICTED BY IDOCK:   -0.20 KCAL/MOL
REMARK 927      BINDING AFFINITY PREDICTED BY RF-SCORE:    0.00 PKD
ROOT
HETATM    1  C   UNL     1      -9.556  10.308  68.638  1.00  0.00    -0.168 C  
ENDROOT
BRANCH   1   2
HETATM    2  C   UNL     1     -10.641  10.668  67.505  1.00  0.00    -0.252 C  
HETATM    3  H   UNL     1      -9.283  11.119  66.025  1.00  0.00     0.000 HD 
HETATM    4  N   UNL     1     -10.281  11.043  66.218  1.00  0.00    -0.238 N  
HETATM    5  O   UNL     1     -11.833  10.707  67.805  1.00  0.00    -0.460 OA 
BRANCH   4   6
HETATM    6  C   UNL     1     -11.223  11.354  65.065  1.00  0.00    -0.089 C  
HETATM    7  C   UNL     1     -12.048  12.643  63.569  1.00  0.00    -0.561 C  
HETATM    8  F   UNL     1     -12.054  13.875  63.017  1.00  0.00    -0.340 F  
HETATM    9  C   UNL     1     -12.186  12.574  65.118  1.00  0.00    -0.509 C  
HETATM   10  F   UNL     1     -12.943  11.903  62.875  1.00  0.00    -0.600 F  
HETATM   11  C   UNL     1     -10.654  11.981  63.766  1.00  0.00    -0.478 C  
ENDBRANCH   4   6
ENDBRANCH   1   2
BRANCH   1  12
HETATM   12  N   UNL     1      -9.328   8.815  68.759  1.00  0.00    -0.141 N  
HETATM   13  O   UNL     1      -7.814   8.729  67.020  1.00  0.00    -0.094 OA 
HETATM   14  C   UNL     1      -8.421   8.138  67.917  1.00  0.00    -0.132 C  
BRANCH  12  15
HETATM   15  C   UNL     1     -10.048   8.148  69.779  1.00  0.00    -0.197 A  
HETATM   16  C   UNL     1     -10.917   7.094  69.496  1.00  0.00    -0.191 A  
HETATM   17  C   UNL     1     -10.453   7.740  72.103  1.00  0.00    -0.231 A  
HETATM   18  N   UNL     1     -11.532   6.356  70.450  1.00  0.00    -0.388 NA 
HETATM   19  F   UNL     1     -10.225   8.023  73.390  1.00  0.00    -0.381 F  
HETATM   20  C   UNL     1      -9.817   8.467  71.113  1.00  0.00    -0.263 A  
HETATM   21  C   UNL     1     -11.289   6.703  71.738  1.00  0.00    -0.279 A  
ENDBRANCH  12  15
BRANCH  14  22
HETATM   22  C   UNL     1      -8.137   6.616  68.196  1.00  0.00    -0.111 C  
HETATM   23  C   UNL     1      -5.754   6.391  68.346  1.00  0.00    -0.016 C  
HETATM   24  C   UNL     1      -6.999   6.503  69.209  1.00  0.00    -0.071 C  
HETATM   25  N   UNL     1      -7.644   5.803  67.084  1.00  0.00    -0.098 N  
HETATM   26  O   UNL     1      -5.487   5.075  66.370  1.00  0.00    -0.015 OA 
HETATM   27  C   UNL     1      -6.249   5.657  67.129  1.00  0.00    -0.034 C  
BRANCH  25  28
HETATM   28  C   UNL     1      -8.455   5.038  66.211  1.00  0.00    -0.112 A  
HETATM   29  N   UNL     1      -9.798   5.131  66.344  1.00  0.00    -0.174 NA 
HETATM   30  C   UNL     1     -10.619   4.472  65.501  1.00  0.00    -0.183 A  
HETATM   31  C   UNL     1     -10.162   3.680  64.475  1.00  0.00    -0.176 A  
HETATM   32  C   UNL     1      -8.784   3.570  64.329  1.00  0.00    -0.093 A  
HETATM   33  C   UNL     1      -7.919   4.255  65.198  1.00  0.00    -0.097 A  
HETATM   34  C   UNL     1      -8.246   2.757  63.280  1.00  0.00    -0.084 C  
HETATM   35  N   UNL     1      -7.799   2.099  62.436  1.00  0.00    -0.052 NA 
ENDBRANCH  25  28
ENDBRANCH  14  22
ENDBRANCH   1  12
BRANCH   1  36
HETATM   36  C   UNL     1      -8.249  11.084  68.948  1.00  0.00    -0.127 A  
HETATM   37  C   UNL     1      -6.096  10.989  70.177  1.00  0.00    -0.138 A  
HETATM   38  C   UNL     1      -5.826  12.307  69.871  1.00  0.00    -0.140 A  
HETATM   39 CL   UNL     1      -8.624  13.136  67.176  1.00  0.00    -0.202 Cl 
HETATM   40  C   UNL     1      -6.698  12.982  69.019  1.00  0.00    -0.099 A  
HETATM   41  C   UNL     1      -7.288  10.401  69.752  1.00  0.00    -0.157 A  
HETATM   42  C   UNL     1      -7.855  12.349  68.499  1.00  0.00    -0.112 A  
ENDBRANCH   1  36
TORSDOF 7
ENDMDL
MODEL       92
REMARK 921   NORMALIZED FREE ENERGY PREDICTED BY IDOCK:   -4.96 KCAL/MOL
REMARK 922        TOTAL FREE ENERGY PREDICTED BY IDOCK:   -8.45 KCAL/MOL
REMARK 923 INTER-LIGAND FREE ENERGY PREDICTED BY IDOCK:   -7.66 KCAL/MOL
REMARK 924 INTRA-LIGAND FREE ENERGY PREDICTED BY IDOCK:   -0.79 KCAL/MOL
REMARK 927      BINDING AFFINITY PREDICTED BY RF-SCORE:    0.00 PKD
ROOT
HETATM    1  C   UNL     1      -8.840  12.058  68.125  1.00  0.00    -0.182 C  
ENDROOT
BRANCH   1   2
HETATM    2  C   UNL     1      -9.896  12.185  66.917  1.00  0.00    -0.203 C  
HETATM    3  H   UNL     1      -9.155  13.946  66.152  1.00  0.00     0.000 HD 
HETATM    4  N   UNL     1      -9.865  13.229  66.003  1.00  0.00    -0.283 N  
HETATM    5  O   UNL     1     -10.827  11.384  66.846  1.00  0.00    -0.258 OA 
BRANCH   4   6
HETATM    6  C   UNL     1     -10.780  13.414  64.802  1.00  0.00    -0.390 C  
HETATM    7  C   UNL     1     -12.253  12.740  63.405  1.00  0.00    -0.504 C  
HETATM    8  F   UNL     1     -13.030  11.719  62.986  1.00  0.00    -0.685 F  
HETATM    9  C   UNL     1     -10.740  12.429  63.600  1.00  0.00    -0.497 C  
HETATM   10  F   UNL     1     -12.527  13.792  62.598  1.00  0.00    -0.190 F  
HETATM   11  C   UNL     1     -12.281  13.050  64.928  1.00  0.00    -0.490 C  
ENDBRANCH   4   6
ENDBRANCH   1   2
BRANCH   1  12
HETATM   12  N   UNL     1      -8.318  10.645  68.284  1.00  0.00    -0.117 N  
HETATM   13  O   UNL     1      -7.337  10.586  66.198  1.00  0.00    -0.124 OA 
HETATM   14  C   UNL     1      -7.562  10.020  67.271  1.00  0.00    -0.095 C  
BRANCH  12  15
HETATM   15  C   UNL     1      -8.604  10.002  69.512  1.00  0.00    -0.186 A  
HETATM   16  C   UNL     1      -9.902   9.628  69.861  1.00  0.00    -0.239 A  
HETATM   17  C   UNL     1      -7.851   8.916  71.509  1.00  0.00    -0.058 A  
HETATM   18  N   UNL     1     -10.200   8.909  70.969  1.00  0.00    -0.231 NA 
HETATM   19  F   UNL     1      -6.859   8.536  72.322  1.00  0.00    -0.083 F  
HETATM   20  C   UNL     1      -7.565   9.631  70.360  1.00  0.00    -0.176 A  
HETATM   21  C   UNL     1      -9.163   8.574  71.774  1.00  0.00    -0.246 A  
ENDBRANCH  12  15
BRANCH  14  22
HETATM   22  C   UNL     1      -6.940   8.606  67.567  1.00  0.00    -0.078 C  
HETATM   23  C   UNL     1      -5.134   8.325  66.015  1.00  0.00    -0.024 C  
HETATM   24  C   UNL     1      -5.419   8.702  67.458  1.00  0.00    -0.038 C  
HETATM   25  N   UNL     1      -7.250   7.521  66.636  1.00  0.00    -0.081 N  
HETATM   26  O   UNL     1      -6.130   6.546  64.769  1.00  0.00    -0.035 OA 
HETATM   27  C   UNL     1      -6.219   7.331  65.702  1.00  0.00    -0.038 C  
BRANCH  25  28
HETATM   28  C   UNL     1      -8.312   6.597  66.785  1.00  0.00    -0.115 A  
HETATM   29  N   UNL     1      -9.568   7.084  66.913  1.00  0.00    -0.161 NA 
HETATM   30  C   UNL     1     -10.623   6.249  66.997  1.00  0.00    -0.318 A  
HETATM   31  C   UNL     1     -10.502   4.880  66.962  1.00  0.00    -0.164 A  
HETATM   32  C   UNL     1      -9.218   4.364  66.837  1.00  0.00    -0.150 A  
HETATM   33  C   UNL     1      -8.111   5.224  66.744  1.00  0.00    -0.105 A  
HETATM   34  C   UNL     1      -9.027   2.946  66.797  1.00  0.00    -0.158 C  
HETATM   35  N   UNL     1      -8.858   1.798  66.766  1.00  0.00    -0.119 NA 
ENDBRANCH  25  28
ENDBRANCH  14  22
ENDBRANCH   1  12
BRANCH   1  36
HETATM   36  C   UNL     1      -7.745  13.087  68.509  1.00  0.00    -0.111 A  
HETATM   37  C   UNL     1      -5.300  13.505  68.547  1.00  0.00    -0.087 A  
HETATM   38  C   UNL     1      -5.477  14.667  69.270  1.00  0.00    -0.088 A  
HETATM   39 CL   UNL     1      -9.412  15.179  69.092  1.00  0.00    -0.219 Cl 
HETATM   40  C   UNL     1      -6.777  15.103  69.518  1.00  0.00    -0.171 A  
HETATM   41  C   UNL     1      -6.401  12.721  68.200  1.00  0.00    -0.088 A  
HETATM   42  C   UNL     1      -7.899  14.360  69.071  1.00  0.00    -0.077 A  
ENDBRANCH   1  36
TORSDOF 7
ENDMDL
MODEL       93
REMARK 921   NORMALIZED FREE ENERGY PREDICTED BY IDOCK:   -4.94 KCAL/MOL
REMARK 922        TOTAL FREE ENERGY PREDICTED BY IDOCK:   -8.42 KCAL/MOL
REMARK 923 INTER-LIGAND FREE ENERGY PREDICTED BY IDOCK:   -7.78 KCAL/MOL
REMARK 924 INTRA-LIGAND FREE ENERGY PREDICTED BY IDOCK:   -0.64 KCAL/MOL
REMARK 927      BINDING AFFINITY PREDICTED BY RF-SCORE:    0.00 PKD
ROOT
HETATM    1  C   UNL     1      -8.214  10.132  65.818  1.00  0.00    -0.144 C  
ENDROOT
BRANCH   1   2
HETATM    2  C   UNL     1      -9.643  10.852  65.657  1.00  0.00    -0.224 C  
HETATM    3  H   UNL     1      -9.046  12.698  66.344  1.00  0.00     0.000 HD 
HETATM    4  N   UNL     1      -9.846  12.190  65.968  1.00  0.00    -0.240 N  
HETATM    5  O   UNL     1     -10.623  10.180  65.337  1.00  0.00    -0.108 OA 
BRANCH   4   6
HETATM    6  C   UNL     1     -11.138  12.975  65.806  1.00  0.00    -0.278 C  
HETATM    7  C   UNL     1     -12.319  14.557  64.979  1.00  0.00    -0.349 C  
HETATM    8  F   UNL     1     -12.351  15.643  64.178  1.00  0.00    -0.444 F  
HETATM    9  C   UNL     1     -11.182  14.511  66.043  1.00  0.00    -0.337 C  
HETATM   10  F   UNL     1     -13.571  14.396  65.465  1.00  0.00    -0.351 F  
HETATM   11  C   UNL     1     -11.671  13.276  64.381  1.00  0.00    -0.433 C  
ENDBRANCH   4   6
ENDBRANCH   1   2
BRANCH   1  12
HETATM   12  N   UNL     1      -8.072   9.431  67.154  1.00  0.00    -0.102 N  
HETATM   13  O   UNL     1      -9.413   7.651  66.559  1.00  0.00    -0.185 OA 
HETATM   14  C   UNL     1      -8.694   8.190  67.404  1.00  0.00    -0.124 C  
BRANCH  12  15
HETATM   15  C   UNL     1      -7.261  10.073  68.119  1.00  0.00    -0.081 A  
HETATM   16  C   UNL     1      -6.092   9.486  68.605  1.00  0.00    -0.043 A  
HETATM   17  C   UNL     1      -6.706  12.021  69.397  1.00  0.00    -0.070 A  
HETATM   18  N   UNL     1      -5.230  10.116  69.438  1.00  0.00    -0.038 NA 
HETATM   19  F   UNL     1      -6.974  13.273  69.783  1.00  0.00    -0.016 F  
HETATM   20  C   UNL     1      -7.563  11.368  68.529  1.00  0.00    -0.129 A  
HETATM   21  C   UNL     1      -5.562  11.373  69.821  1.00  0.00    -0.075 A  
ENDBRANCH  12  15
BRANCH  14  22
HETATM   22  C   UNL     1      -8.386   7.462  68.764  1.00  0.00    -0.129 C  
HETATM   23  C   UNL     1      -8.209   5.125  68.253  1.00  0.00    -0.093 C  
HETATM   24  C   UNL     1      -7.361   6.358  68.513  1.00  0.00    -0.087 C  
HETATM   25  N   UNL     1      -9.480   6.729  69.403  1.00  0.00    -0.148 N  
HETATM   26  O   UNL     1     -10.161   4.443  69.452  1.00  0.00    -0.162 OA 
HETATM   27  C   UNL     1      -9.418   5.356  69.118  1.00  0.00    -0.133 C  
BRANCH  25  28
HETATM   28  C   UNL     1     -10.348   7.257  70.389  1.00  0.00    -0.208 A  
HETATM   29  N   UNL     1     -10.597   6.507  71.487  1.00  0.00    -0.225 NA 
HETATM   30  C   UNL     1     -11.367   6.984  72.485  1.00  0.00    -0.263 A  
HETATM   31  C   UNL     1     -11.940   8.234  72.460  1.00  0.00    -0.420 A  
HETATM   32  C   UNL     1     -11.697   9.015  71.336  1.00  0.00    -0.392 A  
HETATM   33  C   UNL     1     -10.894   8.530  70.292  1.00  0.00    -0.249 A  
HETATM   34  C   UNL     1     -12.268  10.326  71.249  1.00  0.00    -0.395 C  
HETATM   35  N   UNL     1     -12.727  11.388  71.166  1.00  0.00    -0.401 NA 
ENDBRANCH  25  28
ENDBRANCH  14  22
ENDBRANCH   1  12
BRANCH   1  36
HETATM   36  C   UNL     1      -7.434   9.364  64.717  1.00  0.00    -0.107 A  
HETATM   37  C   UNL     1      -5.744   7.595  64.312  1.00  0.00    -0.041 A  
HETATM   38  C   UNL     1      -5.703   7.896  62.965  1.00  0.00    -0.063 A  
HETATM   39 CL   UNL     1      -8.800  10.352  62.560  1.00  0.00    -0.230 Cl 
HETATM   40  C   UNL     1      -6.598   8.845  62.471  1.00  0.00    -0.094 A  
HETATM   41  C   UNL     1      -6.565   8.327  65.169  1.00  0.00    -0.055 A  
HETATM   42  C   UNL     1      -7.509   9.512  63.328  1.00  0.00    -0.111 A  
ENDBRANCH   1  36
TORSDOF 7
ENDMDL
MODEL       94
REMARK 921   NORMALIZED FREE ENERGY PREDICTED BY IDOCK:   -4.89 KCAL/MOL
REMARK 922        TOTAL FREE ENERGY PREDICTED BY IDOCK:   -8.34 KCAL/MOL
REMARK 923 INTER-LIGAND FREE ENERGY PREDICTED BY IDOCK:   -7.26 KCAL/MOL
REMARK 924 INTRA-LIGAND FREE ENERGY PREDICTED BY IDOCK:   -1.08 KCAL/MOL
REMARK 927      BINDING AFFINITY PREDICTED BY RF-SCORE:    0.00 PKD
ROOT
HETATM    1  C   UNL     1     -10.895  11.545  66.901  1.00  0.00    -0.284 C  
ENDROOT
BRANCH   1   2
HETATM    2  C   UNL     1     -11.399  10.456  67.973  1.00  0.00    -0.204 C  
HETATM    3  H   UNL     1     -12.198  11.803  69.308  1.00  0.00     0.000 HD 
HETATM    4  N   UNL     1     -12.068  10.806  69.137  1.00  0.00    -0.245 N  
HETATM    5  O   UNL     1     -11.103   9.273  67.811  1.00  0.00    -0.110 OA 
BRANCH   4   6
HETATM    6  C   UNL     1     -12.627   9.857  70.186  1.00  0.00     0.195 C  
HETATM    7  C   UNL     1     -12.521   8.771  72.026  1.00  0.00    -0.386 C  
HETATM    8  F   UNL     1     -11.782   8.454  73.110  1.00  0.00    -0.353 F  
HETATM    9  C   UNL     1     -11.832   8.601  70.640  1.00  0.00    -0.122 C  
HETATM   10  F   UNL     1     -13.706   8.131  72.164  1.00  0.00    -0.332 F  
HETATM   11  C   UNL     1     -12.621  10.282  71.676  1.00  0.00    -0.534 C  
ENDBRANCH   4   6
ENDBRANCH   1   2
BRANCH   1  12
HETATM   12  N   UNL     1     -10.062  12.637  67.541  1.00  0.00    -0.210 N  
HETATM   13  O   UNL     1     -11.750  14.207  67.469  1.00  0.00    -0.344 OA 
HETATM   14  C   UNL     1     -10.597  13.916  67.798  1.00  0.00    -0.246 C  
BRANCH  12  15
HETATM   15  C   UNL     1      -8.735  12.293  67.892  1.00  0.00    -0.177 A  
HETATM   16  C   UNL     1      -8.457  11.346  68.878  1.00  0.00    -0.024 A  
HETATM   17  C   UNL     1      -6.382  12.402  67.462  1.00  0.00    -0.148 A  
HETATM   18  N   UNL     1      -7.209  10.905  69.160  1.00  0.00    -0.107 NA 
HETATM   19  F   UNL     1      -5.349  12.889  66.765  1.00  0.00     0.132 F  
HETATM   20  C   UNL     1      -7.668  12.823  67.173  1.00  0.00    -0.072 A  
HETATM   21  C   UNL     1      -6.195  11.451  68.446  1.00  0.00    -0.045 A  
ENDBRANCH  12  15
BRANCH  14  22
HETATM   22  C   UNL     1      -9.714  14.949  68.589  1.00  0.00    -0.226 C  
HETATM   23  C   UNL     1     -10.703  15.157  70.764  1.00  0.00    -0.113 C  
HETATM   24  C   UNL     1      -9.564  14.470  70.031  1.00  0.00     0.767 C  
HETATM   25  N   UNL     1     -10.246  16.301  68.766  1.00  0.00    -0.235 N  
HETATM   26  O   UNL     1     -11.409  17.427  70.518  1.00  0.00     0.921 OA 
HETATM   27  C   UNL     1     -10.845  16.460  70.025  1.00  0.00    -0.305 C  
BRANCH  25  28
HETATM   28  C   UNL     1      -9.983  17.399  67.911  1.00  0.00    -0.301 A  
HETATM   29  N   UNL     1     -10.913  18.377  67.825  1.00  0.00    -0.227 NA 
HETATM   30  C   UNL     1     -10.689  19.474  67.074  1.00  0.00    -0.477 A  
HETATM   31  C   UNL     1      -9.531  19.671  66.360  1.00  0.00    -0.479 A  
HETATM   32  C   UNL     1      -8.568  18.672  66.433  1.00  0.00    -0.284 A  
HETATM   33  C   UNL     1      -8.789  17.527  67.215  1.00  0.00    -0.235 A  
HETATM   34  C   UNL     1      -7.342  18.818  65.709  1.00  0.00    -0.164 C  
HETATM   35  N   UNL     1      -6.345  18.923  65.125  1.00  0.00    -0.401 NA 
ENDBRANCH  25  28
ENDBRANCH  14  22
ENDBRANCH   1  12
BRANCH   1  36
HETATM   36  C   UNL     1     -10.404  11.264  65.456  1.00  0.00    -0.321 A  
HETATM   37  C   UNL     1     -10.618  11.965  63.086  1.00  0.00    -0.322 A  
HETATM   38  C   UNL     1      -9.857  10.893  62.666  1.00  0.00    -0.178 A  
HETATM   39 CL   UNL     1      -8.425   9.484  66.093  1.00  0.00    -0.122 Cl 
HETATM   40  C   UNL     1      -9.278  10.072  63.632  1.00  0.00    -0.314 A  
HETATM   41  C   UNL     1     -10.907  12.131  64.440  1.00  0.00    -0.372 A  
HETATM   42  C   UNL     1      -9.485  10.305  65.015  1.00  0.00    -0.257 A  
ENDBRANCH   1  36
TORSDOF 7
ENDMDL
MODEL       95
REMARK 921   NORMALIZED FREE ENERGY PREDICTED BY IDOCK:   -4.88 KCAL/MOL
REMARK 922        TOTAL FREE ENERGY PREDICTED BY IDOCK:   -8.33 KCAL/MOL
REMARK 923 INTER-LIGAND FREE ENERGY PREDICTED BY IDOCK:   -8.06 KCAL/MOL
REMARK 924 INTRA-LIGAND FREE ENERGY PREDICTED BY IDOCK:   -0.27 KCAL/MOL
REMARK 927      BINDING AFFINITY PREDICTED BY RF-SCORE:    0.00 PKD
ROOT
HETATM    1  C   UNL     1     -10.145  11.529  67.729  1.00  0.00    -0.182 C  
ENDROOT
BRANCH   1   2
HETATM    2  C   UNL     1     -10.191  10.134  68.529  1.00  0.00    -0.174 C  
HETATM    3  H   UNL     1      -9.797  10.925  70.387  1.00  0.00     0.000 HD 
HETATM    4  N   UNL     1     -10.004  10.052  69.902  1.00  0.00    -0.246 N  
HETATM    5  O   UNL     1     -10.300   9.083  67.898  1.00  0.00    -0.212 OA 
BRANCH   4   6
HETATM    6  C   UNL     1     -10.077   8.796  70.756  1.00  0.00    -0.210 C  
HETATM    7  C   UNL     1     -10.307   6.687  71.033  1.00  0.00    -0.207 C  
HETATM    8  F   UNL     1     -10.538   5.490  70.453  1.00  0.00    -0.297 F  
HETATM    9  C   UNL     1     -11.296   7.835  70.674  1.00  0.00    -0.275 C  
HETATM   10  F   UNL     1     -10.150   6.453  72.356  1.00  0.00    -0.176 F  
HETATM   11  C   UNL     1      -9.206   7.570  70.381  1.00  0.00    -0.157 C  
ENDBRANCH   4   6
ENDBRANCH   1   2
BRANCH   1  12
HETATM   12  N   UNL     1      -8.737  12.076  67.610  1.00  0.00    -0.158 N  
HETATM   13  O   UNL     1      -9.312  14.191  68.330  1.00  0.00    -0.193 OA 
HETATM   14  C   UNL     1      -8.433  13.409  67.959  1.00  0.00    -0.173 C  
BRANCH  12  15
HETATM   15  C   UNL     1      -7.745  11.172  67.163  1.00  0.00    -0.136 A  
HETATM   16  C   UNL     1      -7.310  11.155  65.837  1.00  0.00     0.112 A  
HETATM   17  C   UNL     1      -6.063   9.535  67.641  1.00  0.00    -0.053 A  
HETATM   18  N   UNL     1      -6.284  10.389  65.397  1.00  0.00    -0.124 NA 
HETATM   19  F   UNL     1      -5.422   8.748  68.511  1.00  0.00    -0.035 F  
HETATM   20  C   UNL     1      -7.100  10.343  68.075  1.00  0.00    -0.082 A  
HETATM   21  C   UNL     1      -5.686   9.588  66.313  1.00  0.00    -0.053 A  
ENDBRANCH  12  15
BRANCH  14  22
HETATM   22  C   UNL     1      -6.927  13.861  67.940  1.00  0.00    -0.160 C  
HETATM   23  C   UNL     1      -6.193  13.856  70.223  1.00  0.00    -0.110 C  
HETATM   24  C   UNL     1      -6.147  13.024  68.953  1.00  0.00    -0.083 C  
HETATM   25  N   UNL     1      -6.623  15.227  68.367  1.00  0.00    -0.105 N  
HETATM   26  O   UNL     1      -5.885  16.219  70.407  1.00  0.00    -0.154 OA 
HETATM   27  C   UNL     1      -6.200  15.268  69.704  1.00  0.00    -0.147 C  
BRANCH  25  28
HETATM   28  C   UNL     1      -6.511  16.344  67.505  1.00  0.00    -0.159 A  
HETATM   29  N   UNL     1      -5.340  16.533  66.854  1.00  0.00    -0.339 NA 
HETATM   30  C   UNL     1      -5.197  17.544  65.975  1.00  0.00    -0.153 A  
HETATM   31  C   UNL     1      -6.203  18.434  65.685  1.00  0.00    -0.297 A  
HETATM   32  C   UNL     1      -7.411  18.258  66.350  1.00  0.00    -0.284 A  
HETATM   33  C   UNL     1      -7.573  17.205  67.264  1.00  0.00    -0.192 A  
HETATM   34  C   UNL     1      -8.498  19.154  66.092  1.00  0.00    -0.232 C  
HETATM   35  N   UNL     1      -9.385  19.876  65.894  1.00  0.00    -0.339 NA 
ENDBRANCH  25  28
ENDBRANCH  14  22
ENDBRANCH   1  12
BRANCH   1  36
HETATM   36  C   UNL     1     -10.981  11.907  66.477  1.00  0.00    -0.337 A  
HETATM   37  C   UNL     1     -12.574  13.566  65.547  1.00  0.00    -0.531 A  
HETATM   38  C   UNL     1     -12.780  12.788  64.426  1.00  0.00    -0.370 A  
HETATM   39 CL   UNL     1      -9.929  10.043  64.770  1.00  0.00    -0.348 Cl 
HETATM   40  C   UNL     1     -12.014  11.634  64.270  1.00  0.00    -0.182 A  
HETATM   41  C   UNL     1     -11.720  13.125  66.559  1.00  0.00    -0.433 A  
HETATM   42  C   UNL     1     -11.067  11.242  65.249  1.00  0.00    -0.076 A  
ENDBRANCH   1  36
TORSDOF 7
ENDMDL
MODEL       96
REMARK 921   NORMALIZED FREE ENERGY PREDICTED BY IDOCK:   -4.87 KCAL/MOL
REMARK 922        TOTAL FREE ENERGY PREDICTED BY IDOCK:   -8.31 KCAL/MOL
REMARK 923 INTER-LIGAND FREE ENERGY PREDICTED BY IDOCK:   -6.11 KCAL/MOL
REMARK 924 INTRA-LIGAND FREE ENERGY PREDICTED BY IDOCK:   -2.21 KCAL/MOL
REMARK 927      BINDING AFFINITY PREDICTED BY RF-SCORE:    0.00 PKD
ROOT
HETATM    1  C   UNL     1      -6.759  11.049  67.135  1.00  0.00    -0.096 C  
ENDROOT
BRANCH   1   2
HETATM    2  C   UNL     1      -6.732  12.643  67.353  1.00  0.00    -0.142 C  
HETATM    3  H   UNL     1      -8.727  12.843  67.818  1.00  0.00     0.000 HD 
HETATM    4  N   UNL     1      -7.858  13.367  67.723  1.00  0.00    -0.143 N  
HETATM    5  O   UNL     1      -5.705  13.268  67.092  1.00  0.00    -0.323 OA 
BRANCH   4   6
HETATM    6  C   UNL     1      -7.927  14.860  68.001  1.00  0.00    -0.129 C  
HETATM    7  C   UNL     1      -8.943  16.742  68.074  1.00  0.00    -0.217 C  
HETATM    8  F   UNL     1     -10.086  17.419  67.835  1.00  0.00    -0.274 F  
HETATM    9  C   UNL     1      -8.400  15.862  66.910  1.00  0.00    -0.281 C  
HETATM   10  F   UNL     1      -8.062  17.635  68.581  1.00  0.00    -0.258 F  
HETATM   11  C   UNL     1      -9.079  15.417  68.876  1.00  0.00    -0.218 C  
ENDBRANCH   4   6
ENDBRANCH   1   2
BRANCH   1  12
HETATM   12  N   UNL     1      -7.287  10.313  68.350  1.00  0.00    -0.083 N  
HETATM   13  O   UNL     1      -5.231  10.197  69.389  1.00  0.00    -0.039 OA 
HETATM   14  C   UNL     1      -6.441   9.960  69.422  1.00  0.00    -0.046 C  
BRANCH  12  15
HETATM   15  C   UNL     1      -8.674  10.030  68.362  1.00  0.00    -0.117 A  
HETATM   16  C   UNL     1      -9.593  10.884  68.973  1.00  0.00    -0.156 A  
HETATM   17  C   UNL     1     -10.530   8.723  67.600  1.00  0.00    -0.244 A  
HETATM   18  N   UNL     1     -10.934  10.710  68.905  1.00  0.00    -0.231 NA 
HETATM   19  F   UNL     1     -11.015   7.683  66.914  1.00  0.00    -0.420 F  
HETATM   20  C   UNL     1      -9.163   8.932  67.662  1.00  0.00    -0.151 A  
HETATM   21  C   UNL     1     -11.373   9.624  68.222  1.00  0.00     0.189 A  
ENDBRANCH  12  15
BRANCH  14  22
HETATM   22  C   UNL     1      -7.089   9.322  70.705  1.00  0.00    -0.117 C  
HETATM   23  C   UNL     1      -5.278   8.443  72.008  1.00  0.00    -0.036 C  
HETATM   24  C   UNL     1      -6.209   9.639  71.913  1.00  0.00     0.253 C  
HETATM   25  N   UNL     1      -7.182   7.863  70.764  1.00  0.00    -0.052 N  
HETATM   26  O   UNL     1      -5.865   6.140  71.757  1.00  0.00    -0.030 OA 
HETATM   27  C   UNL     1      -6.131   7.308  71.510  1.00  0.00    -0.037 C  
BRANCH  25  28
HETATM   28  C   UNL     1      -8.303   7.101  70.356  1.00  0.00    -0.128 A  
HETATM   29  N   UNL     1      -8.099   6.070  69.504  1.00  0.00    -0.106 NA 
HETATM   30  C   UNL     1      -9.120   5.273  69.131  1.00  0.00    -0.108 A  
HETATM   31  C   UNL     1     -10.409   5.448  69.577  1.00  0.00    -0.350 A  
HETATM   32  C   UNL     1     -10.636   6.505  70.448  1.00  0.00    -0.282 A  
HETATM   33  C   UNL     1      -9.580   7.339  70.847  1.00  0.00    -0.170 A  
HETATM   34  C   UNL     1     -11.959   6.740  70.946  1.00  0.00    -0.383 C  
HETATM   35  N   UNL     1     -13.026   6.941  71.354  1.00  0.00    -0.329 NA 
ENDBRANCH  25  28
ENDBRANCH  14  22
ENDBRANCH   1  12
BRANCH   1  36
HETATM   36  C   UNL     1      -7.149  10.298  65.834  1.00  0.00    -0.131 A  
HETATM   37  C   UNL     1      -6.585   8.372  64.376  1.00  0.00    -0.066 A  
HETATM   38  C   UNL     1      -7.478   8.797  63.414  1.00  0.00    -0.107 A  
HETATM   39 CL   UNL     1      -9.466  11.662  65.317  1.00  0.00    -0.210 Cl 
HETATM   40  C   UNL     1      -8.285   9.897  63.698  1.00  0.00    -0.157 A  
HETATM   41  C   UNL     1      -6.404   9.117  65.542  1.00  0.00    -0.067 A  
HETATM   42  C   UNL     1      -8.176  10.590  64.930  1.00  0.00    -0.117 A  
ENDBRANCH   1  36
TORSDOF 7
ENDMDL
MODEL       97
REMARK 921   NORMALIZED FREE ENERGY PREDICTED BY IDOCK:   -4.86 KCAL/MOL
REMARK 922        TOTAL FREE ENERGY PREDICTED BY IDOCK:   -8.31 KCAL/MOL
REMARK 923 INTER-LIGAND FREE ENERGY PREDICTED BY IDOCK:   -6.80 KCAL/MOL
REMARK 924 INTRA-LIGAND FREE ENERGY PREDICTED BY IDOCK:   -1.50 KCAL/MOL
REMARK 927      BINDING AFFINITY PREDICTED BY RF-SCORE:    0.00 PKD
ROOT
HETATM    1  C   UNL     1      -8.920   6.516  66.859  1.00  0.00    -0.126 C  
ENDROOT
BRANCH   1   2
HETATM    2  C   UNL     1      -9.606   5.597  67.988  1.00  0.00    -0.120 C  
HETATM    3  H   UNL     1      -8.680   6.483  69.597  1.00  0.00     0.000 HD 
HETATM    4  N   UNL     1      -9.356   5.764  69.343  1.00  0.00    -0.124 N  
HETATM    5  O   UNL     1     -10.306   4.646  67.644  1.00  0.00    -0.050 OA 
BRANCH   4   6
HETATM    6  C   UNL     1      -9.988   4.986  70.487  1.00  0.00    -0.242 C  
HETATM    7  C   UNL     1     -10.364   4.609  72.559  1.00  0.00    -0.199 C  
HETATM    8  F   UNL     1     -10.118   4.970  73.836  1.00  0.00    -0.151 F  
HETATM    9  C   UNL     1      -9.122   4.408  71.641  1.00  0.00    -0.174 C  
HETATM   10  F   UNL     1     -11.220   3.562  72.610  1.00  0.00    -0.084 F  
HETATM   11  C   UNL     1     -10.772   5.750  71.584  1.00  0.00    -0.314 C  
ENDBRANCH   4   6
ENDBRANCH   1   2
BRANCH   1  12
HETATM   12  N   UNL     1      -8.766   7.955  67.307  1.00  0.00    -0.130 N  
HETATM   13  O   UNL     1     -10.936   8.533  66.779  1.00  0.00    -0.019 OA 
HETATM   14  C   UNL     1      -9.843   8.865  67.244  1.00  0.00    -0.199 C  
BRANCH  12  15
HETATM   15  C   UNL     1      -7.499   8.325  67.818  1.00  0.00    -0.094 A  
HETATM   16  C   UNL     1      -6.619   9.127  67.091  1.00  0.00    -0.061 A  
HETATM   17  C   UNL     1      -5.949   8.430  69.640  1.00  0.00    -0.032 A  
HETATM   18  N   UNL     1      -5.452   9.598  67.590  1.00  0.00    -0.037 NA 
HETATM   19  F   UNL     1      -5.608   8.120  70.896  1.00  0.00    -0.029 F  
HETATM   20  C   UNL     1      -7.148   7.978  69.119  1.00  0.00    -0.068 A  
HETATM   21  C   UNL     1      -5.140   9.231  68.857  1.00  0.00    -0.037 A  
ENDBRANCH  12  15
BRANCH  14  22
HETATM   22  C   UNL     1      -9.644  10.301  67.855  1.00  0.00    -0.145 C  
HETATM   23  C   UNL     1     -10.927  10.355  69.881  1.00  0.00    -0.364 C  
HETATM   24  C   UNL     1      -9.507  10.178  69.372  1.00  0.00    -0.240 C  
HETATM   25  N   UNL     1     -10.746  11.254  67.720  1.00  0.00    -0.206 N  
HETATM   26  O   UNL     1     -12.533  11.959  69.133  1.00  0.00    -0.070 OA 
HETATM   27  C   UNL     1     -11.529  11.307  68.883  1.00  0.00    -0.297 C  
BRANCH  25  28
HETATM   28  C   UNL     1     -10.882  12.199  66.674  1.00  0.00    -0.268 A  
HETATM   29  N   UNL     1     -11.640  11.862  65.605  1.00  0.00    -0.318 NA 
HETATM   30  C   UNL     1     -11.854  12.745  64.609  1.00  0.00    -0.374 A  
HETATM   31  C   UNL     1     -11.330  14.016  64.608  1.00  0.00    -0.378 A  
HETATM   32  C   UNL     1     -10.544  14.375  65.696  1.00  0.00    -0.339 A  
HETATM   33  C   UNL     1     -10.318  13.465  66.741  1.00  0.00    -0.263 A  
HETATM   34  C   UNL     1      -9.968  15.685  65.751  1.00  0.00    -0.359 C  
HETATM   35  N   UNL     1      -9.493  16.742  65.806  1.00  0.00    -0.527 NA 
ENDBRANCH  25  28
ENDBRANCH  14  22
ENDBRANCH   1  12
BRANCH   1  36
HETATM   36  C   UNL     1      -7.752   6.113  65.920  1.00  0.00    -0.093 A  
HETATM   37  C   UNL     1      -6.837   6.359  63.628  1.00  0.00    -0.045 A  
HETATM   38  C   UNL     1      -5.862   5.416  63.880  1.00  0.00    -0.021 A  
HETATM   39 CL   UNL     1      -6.174   4.915  67.809  1.00  0.00    -0.034 Cl 
HETATM   40  C   UNL     1      -5.755   4.902  65.172  1.00  0.00    -0.014 A  
HETATM   41  C   UNL     1      -7.774   6.679  64.610  1.00  0.00    -0.112 A  
HETATM   42  C   UNL     1      -6.641   5.309  66.200  1.00  0.00    -0.048 A  
ENDBRANCH   1  36
TORSDOF 7
ENDMDL
MODEL       98
REMARK 921   NORMALIZED FREE ENERGY PREDICTED BY IDOCK:   -4.86 KCAL/MOL
REMARK 922        TOTAL FREE ENERGY PREDICTED BY IDOCK:   -8.31 KCAL/MOL
REMARK 923 INTER-LIGAND FREE ENERGY PREDICTED BY IDOCK:   -6.94 KCAL/MOL
REMARK 924 INTRA-LIGAND FREE ENERGY PREDICTED BY IDOCK:   -1.37 KCAL/MOL
REMARK 927      BINDING AFFINITY PREDICTED BY RF-SCORE:    0.00 PKD
ROOT
HETATM    1  C   UNL     1      -8.608   7.398  68.382  1.00  0.00    -0.124 C  
ENDROOT
BRANCH   1   2
HETATM    2  C   UNL     1      -7.658   7.231  69.669  1.00  0.00    -0.099 C  
HETATM    3  H   UNL     1      -9.160   6.789  71.005  1.00  0.00     0.000 HD 
HETATM    4  N   UNL     1      -8.149   6.893  70.923  1.00  0.00    -0.112 N  
HETATM    5  O   UNL     1      -6.462   7.501  69.572  1.00  0.00    -0.034 OA 
BRANCH   4   6
HETATM    6  C   UNL     1      -7.335   6.663  72.186  1.00  0.00    -0.089 C  
HETATM    7  C   UNL     1      -6.706   5.494  73.864  1.00  0.00    -0.079 C  
HETATM    8  F   UNL     1      -6.842   4.341  74.552  1.00  0.00    -0.056 F  
HETATM    9  C   UNL     1      -8.019   6.258  73.523  1.00  0.00    -0.100 C  
HETATM   10  F   UNL     1      -5.765   6.221  74.509  1.00  0.00    -0.053 F  
HETATM   11  C   UNL     1      -6.503   5.362  72.328  1.00  0.00    -0.055 C  
ENDBRANCH   4   6
ENDBRANCH   1   2
BRANCH   1  12
HETATM   12  N   UNL     1      -8.275   8.640  67.580  1.00  0.00    -0.110 N  
HETATM   13  O   UNL     1      -9.208  10.090  69.113  1.00  0.00    -0.167 OA 
HETATM   14  C   UNL     1      -8.599   9.930  68.052  1.00  0.00    -0.121 C  
BRANCH  12  15
HETATM   15  C   UNL     1      -7.597   8.437  66.355  1.00  0.00    -0.084 A  
HETATM   16  C   UNL     1      -6.227   8.172  66.308  1.00  0.00    -0.046 A  
HETATM   17  C   UNL     1      -7.653   8.093  63.986  1.00  0.00    -0.130 A  
HETATM   18  N   UNL     1      -5.566   7.856  65.170  1.00  0.00    -0.036 NA 
HETATM   19  F   UNL     1      -8.334   8.026  62.837  1.00  0.00    -0.168 F  
HETATM   20  C   UNL     1      -8.314   8.391  65.164  1.00  0.00    -0.177 A  
HETATM   21  C   UNL     1      -6.297   7.830  64.029  1.00  0.00    -0.057 A  
ENDBRANCH  12  15
BRANCH  14  22
HETATM   22  C   UNL     1      -8.098  11.173  67.229  1.00  0.00    -0.137 C  
HETATM   23  C   UNL     1      -7.068  12.655  68.808  1.00  0.00    -0.087 C  
HETATM   24  C   UNL     1      -6.734  11.603  67.765  1.00  0.00    -0.072 C  
HETATM   25  N   UNL     1      -8.874  12.409  67.329  1.00  0.00    -0.184 N  
HETATM   26  O   UNL     1      -8.681  14.408  68.618  1.00  0.00    -0.177 OA 
HETATM   27  C   UNL     1      -8.309  13.301  68.254  1.00  0.00    -0.154 C  
BRANCH  25  28
HETATM   28  C   UNL     1      -9.909  12.796  66.443  1.00  0.00    -0.269 A  
HETATM   29  N   UNL     1     -10.842  11.875  66.112  1.00  0.00    -0.281 NA 
HETATM   30  C   UNL     1     -11.883  12.204  65.322  1.00  0.00    -0.295 A  
HETATM   31  C   UNL     1     -12.065  13.466  64.808  1.00  0.00    -0.448 A  
HETATM   32  C   UNL     1     -11.112  14.423  65.135  1.00  0.00    -0.365 A  
HETATM   33  C   UNL     1     -10.025  14.092  65.960  1.00  0.00    -0.340 A  
HETATM   34  C   UNL     1     -11.244  15.756  64.628  1.00  0.00    -0.363 C  
HETATM   35  N   UNL     1     -11.340  16.838  64.221  1.00  0.00    -1.111 NA 
ENDBRANCH  25  28
ENDBRANCH  14  22
ENDBRANCH   1  12
BRANCH   1  36
HETATM   36  C   UNL     1      -9.107   6.266  67.445  1.00  0.00    -0.111 A  
HETATM   37  C   UNL     1     -11.046   5.451  66.129  1.00  0.00     0.142 A  
HETATM   38  C   UNL     1     -10.402   4.262  65.856  1.00  0.00    -0.152 A  
HETATM   39 CL   UNL     1      -6.704   4.999  67.107  1.00  0.00    -0.054 Cl 
HETATM   40  C   UNL     1      -9.081   4.111  66.274  1.00  0.00    -0.134 A  
HETATM   41  C   UNL     1     -10.428   6.416  66.925  1.00  0.00    -0.340 A  
HETATM   42  C   UNL     1      -8.416   5.137  66.991  1.00  0.00    -0.106 A  
ENDBRANCH   1  36
TORSDOF 7
ENDMDL
MODEL       99
REMARK 921   NORMALIZED FREE ENERGY PREDICTED BY IDOCK:   -4.85 KCAL/MOL
REMARK 922        TOTAL FREE ENERGY PREDICTED BY IDOCK:   -8.29 KCAL/MOL
REMARK 923 INTER-LIGAND FREE ENERGY PREDICTED BY IDOCK:   -7.77 KCAL/MOL
REMARK 924 INTRA-LIGAND FREE ENERGY PREDICTED BY IDOCK:   -0.52 KCAL/MOL
REMARK 927      BINDING AFFINITY PREDICTED BY RF-SCORE:    0.00 PKD
ROOT
HETATM    1  C   UNL     1     -10.919   7.883  70.780  1.00  0.00    -0.252 C  
ENDROOT
BRANCH   1   2
HETATM    2  C   UNL     1     -11.891   9.106  71.167  1.00  0.00    -0.307 C  
HETATM    3  H   UNL     1     -11.075  10.468  69.857  1.00  0.00     0.000 HD 
HETATM    4  N   UNL     1     -11.811  10.348  70.552  1.00  0.00    -0.310 N  
HETATM    5  O   UNL     1     -12.674   8.977  72.107  1.00  0.00    -0.361 OA 
BRANCH   4   6
HETATM    6  C   UNL     1     -12.709  11.548  70.808  1.00  0.00    -0.227 C  
HETATM    7  C   UNL     1     -13.111  13.498  71.592  1.00  0.00    -0.374 C  
HETATM    8  F   UNL     1     -12.642  14.553  72.291  1.00  0.00    -0.352 F  
HETATM    9  C   UNL     1     -12.932  12.096  72.246  1.00  0.00    -0.091 C  
HETATM   10  F   UNL     1     -14.377  13.807  71.226  1.00  0.00    -0.192 F  
HETATM   11  C   UNL     1     -12.201  12.968  70.448  1.00  0.00    -0.386 C  
ENDBRANCH   4   6
ENDBRANCH   1   2
BRANCH   1  12
HETATM   12  N   UNL     1      -9.647   8.353  70.105  1.00  0.00    -0.164 N  
HETATM   13  O   UNL     1      -8.578   8.860  72.085  1.00  0.00    -0.381 OA 
HETATM   14  C   UNL     1      -8.536   8.796  70.854  1.00  0.00    -0.192 C  
BRANCH  12  15
HETATM   15  C   UNL     1      -9.624   8.293  68.692  1.00  0.00    -0.149 A  
HETATM   16  C   UNL     1     -10.597   8.921  67.914  1.00  0.00    -0.183 A  
HETATM   17  C   UNL     1      -8.495   7.723  66.658  1.00  0.00    -0.129 A  
HETATM   18  N   UNL     1     -10.546   8.987  66.562  1.00  0.00    -0.114 NA 
HETATM   19  F   UNL     1      -7.463   7.162  66.020  1.00  0.00    -0.072 F  
HETATM   20  C   UNL     1      -8.555   7.687  68.040  1.00  0.00    -0.123 A  
HETATM   21  C   UNL     1      -9.494   8.378  65.963  1.00  0.00    -0.154 A  
ENDBRANCH  12  15
BRANCH  14  22
HETATM   22  C   UNL     1      -7.206   9.136  70.087  1.00  0.00    -0.070 C  
HETATM   23  C   UNL     1      -5.523   9.455  71.765  1.00  0.00    -0.073 C  
HETATM   24  C   UNL     1      -6.042   8.426  70.776  1.00  0.00    -0.033 C  
HETATM   25  N   UNL     1      -6.762  10.530  70.086  1.00  0.00    -0.149 N  
HETATM   26  O   UNL     1      -5.198  11.790  71.373  1.00  0.00    -0.261 OA 
HETATM   27  C   UNL     1      -5.782  10.761  71.064  1.00  0.00    -0.021 C  
BRANCH  25  28
HETATM   28  C   UNL     1      -7.065  11.481  69.082  1.00  0.00    -0.105 A  
HETATM   29  N   UNL     1      -7.899  11.111  68.083  1.00  0.00    -0.112 NA 
HETATM   30  C   UNL     1      -8.270  11.993  67.134  1.00  0.00    -0.181 A  
HETATM   31  C   UNL     1      -7.838  13.298  67.114  1.00  0.00    -0.047 A  
HETATM   32  C   UNL     1      -6.976  13.693  68.130  1.00  0.00    -0.119 A  
HETATM   33  C   UNL     1      -6.586  12.783  69.125  1.00  0.00    -0.101 A  
HETATM   34  C   UNL     1      -6.490  15.040  68.161  1.00  0.00    -0.131 C  
HETATM   35  N   UNL     1      -6.087  16.127  68.196  1.00  0.00    -0.108 NA 
ENDBRANCH  25  28
ENDBRANCH  14  22
ENDBRANCH   1  12
BRANCH   1  36
HETATM   36  C   UNL     1     -10.646   6.613  71.629  1.00  0.00    -0.245 A  
HETATM   37  C   UNL     1     -10.612   5.704  73.937  1.00  0.00    -0.285 A  
HETATM   38  C   UNL     1     -10.047   4.524  73.498  1.00  0.00    -0.200 A  
HETATM   39 CL   UNL     1     -10.371   4.850  69.553  1.00  0.00    -0.250 Cl 
HETATM   40  C   UNL     1      -9.884   4.336  72.127  1.00  0.00    -0.231 A  
HETATM   41  C   UNL     1     -10.878   6.732  73.032  1.00  0.00    -0.314 A  
HETATM   42  C   UNL     1     -10.256   5.340  71.198  1.00  0.00    -0.224 A  
ENDBRANCH   1  36
TORSDOF 7
ENDMDL
MODEL      100
REMARK 921   NORMALIZED FREE ENERGY PREDICTED BY IDOCK:   -4.80 KCAL/MOL
REMARK 922        TOTAL FREE ENERGY PREDICTED BY IDOCK:   -8.23 KCAL/MOL
REMARK 923 INTER-LIGAND FREE ENERGY PREDICTED BY IDOCK:  -10.14 KCAL/MOL
REMARK 924 INTRA-LIGAND FREE ENERGY PREDICTED BY IDOCK:    1.92 KCAL/MOL
REMARK 927      BINDING AFFINITY PREDICTED BY RF-SCORE:    0.00 PKD
ROOT
HETATM    1  C   UNL     1     -10.993  11.148  67.594  1.00  0.00    -0.269 C  
ENDROOT
BRANCH   1   2
HETATM    2  C   UNL     1     -10.412  10.088  68.656  1.00  0.00    -0.204 C  
HETATM    3  H   UNL     1     -11.974   8.754  68.522  1.00  0.00     0.000 HD 
HETATM    4  N   UNL     1     -11.072   8.908  68.971  1.00  0.00     0.071 N  
HETATM    5  O   UNL     1      -9.395  10.366  69.288  1.00  0.00    -0.195 OA 
BRANCH   4   6
HETATM    6  C   UNL     1     -10.587   7.821  69.918  1.00  0.00    -0.239 C  
HETATM    7  C   UNL     1     -10.151   5.789  70.427  1.00  0.00    -0.210 C  
HETATM    8  F   UNL     1     -10.172   4.497  70.037  1.00  0.00    -0.296 F  
HETATM    9  C   UNL     1     -11.476   6.589  70.253  1.00  0.00    -0.474 C  
HETATM   10  F   UNL     1      -9.624   5.809  71.674  1.00  0.00    -0.160 F  
HETATM   11  C   UNL     1      -9.526   6.803  69.428  1.00  0.00    -0.147 C  
ENDBRANCH   4   6
ENDBRANCH   1   2
BRANCH   1  12
HETATM   12  N   UNL     1     -10.917  12.572  68.106  1.00  0.00    -0.217 N  
HETATM   13  O   UNL     1      -9.237  13.190  66.652  1.00  0.00    -0.246 OA 
HETATM   14  C   UNL     1     -10.023  13.509  67.547  1.00  0.00    -0.230 C  
BRANCH  12  15
HETATM   15  C   UNL     1     -11.811  12.916  69.148  1.00  0.00    -0.303 A  
HETATM   16  C   UNL     1     -12.156  12.007  70.150  1.00  0.00    -0.298 A  
HETATM   17  C   UNL     1     -13.079  14.566  70.333  1.00  0.00    -0.084 A  
HETATM   18  N   UNL     1     -12.912  12.332  71.225  1.00  0.00    -0.279 NA 
HETATM   19  F   UNL     1     -13.525  15.820  70.457  1.00  0.00    -0.429 F  
HETATM   20  C   UNL     1     -12.286  14.219  69.253  1.00  0.00    -0.289 A  
HETATM   21  C   UNL     1     -13.363  13.609  71.288  1.00  0.00    -0.189 A  
ENDBRANCH  12  15
BRANCH  14  22
HETATM   22  C   UNL     1     -10.101  15.001  68.039  1.00  0.00    -0.223 C  
HETATM   23  C   UNL     1     -10.639  16.320  66.110  1.00  0.00    -0.272 C  
HETATM   24  C   UNL     1     -11.271  15.691  67.340  1.00  0.00    -0.219 C  
HETATM   25  N   UNL     1      -8.980  15.883  67.711  1.00  0.00    -0.176 N  
HETATM   26  O   UNL     1      -8.558  17.489  65.999  1.00  0.00    -0.497 OA 
HETATM   27  C   UNL     1      -9.252  16.665  66.578  1.00  0.00    -0.270 C  
BRANCH  25  28
HETATM   28  C   UNL     1      -7.865  16.128  68.548  1.00  0.00    -0.172 A  
HETATM   29  N   UNL     1      -7.100  15.075  68.917  1.00  0.00    -0.111 NA 
HETATM   30  C   UNL     1      -5.992  15.257  69.663  1.00  0.00    -0.123 A  
HETATM   31  C   UNL     1      -5.571  16.494  70.091  1.00  0.00    -0.200 A  
HETATM   32  C   UNL     1      -6.349  17.586  69.725  1.00  0.00    -0.134 A  
HETATM   33  C   UNL     1      -7.503  17.408  68.945  1.00  0.00    -0.235 A  
HETATM   34  C   UNL     1      -5.964  18.900  70.142  1.00  0.00    -0.186 C  
HETATM   35  N   UNL     1      -5.664  19.970  70.477  1.00  0.00    -0.288 NA 
ENDBRANCH  25  28
ENDBRANCH  14  22
ENDBRANCH   1  12
BRANCH   1  36
HETATM   36  C   UNL     1     -10.805  11.115  66.054  1.00  0.00    -0.230 A  
HETATM   37  C   UNL     1      -9.640   9.959  64.194  1.00  0.00    -0.177 A  
HETATM   38  C   UNL     1     -10.089  10.896  63.286  1.00  0.00    -0.368 A  
HETATM   39 CL   UNL     1     -12.769  12.912  65.416  1.00  0.00    -0.450 Cl 
HETATM   40  C   UNL     1     -10.981  11.873  63.728  1.00  0.00    -0.494 A  
HETATM   41  C   UNL     1      -9.964  10.080  65.545  1.00  0.00    -0.367 A  
HETATM   42  C   UNL     1     -11.396  11.930  65.082  1.00  0.00    -0.269 A  
ENDBRANCH   1  36
TORSDOF 7
ENDMDL
MODEL      101
REMARK 921   NORMALIZED FREE ENERGY PREDICTED BY IDOCK:   -4.78 KCAL/MOL
REMARK 922        TOTAL FREE ENERGY PREDICTED BY IDOCK:   -8.20 KCAL/MOL
REMARK 923 INTER-LIGAND FREE ENERGY PREDICTED BY IDOCK:   -8.60 KCAL/MOL
REMARK 924 INTRA-LIGAND FREE ENERGY PREDICTED BY IDOCK:    0.40 KCAL/MOL
REMARK 927      BINDING AFFINITY PREDICTED BY RF-SCORE:    0.00 PKD
ROOT
HETATM    1  C   UNL     1      -8.837   7.955  70.838  1.00  0.00    -0.138 C  
ENDROOT
BRANCH   1   2
HETATM    2  C   UNL     1      -7.775   7.495  69.719  1.00  0.00    -0.095 C  
HETATM    3  H   UNL     1      -9.096   6.390  68.593  1.00  0.00     0.000 HD 
HETATM    4  N   UNL     1      -8.127   6.704  68.634  1.00  0.00    -0.118 N  
HETATM    5  O   UNL     1      -6.586   7.770  69.871  1.00  0.00    -0.037 OA 
BRANCH   4   6
HETATM    6  C   UNL     1      -7.216   6.258  67.501  1.00  0.00    -0.079 C  
HETATM    7  C   UNL     1      -6.798   5.822  65.449  1.00  0.00    -0.055 C  
HETATM    8  F   UNL     1      -7.278   5.745  64.190  1.00  0.00    -0.048 F  
HETATM    9  C   UNL     1      -7.622   5.095  66.552  1.00  0.00    -0.088 C  
HETATM   10  F   UNL     1      -5.490   5.482  65.387  1.00  0.00    -0.012 F  
HETATM   11  C   UNL     1      -7.105   7.133  66.226  1.00  0.00    -0.074 C  
ENDBRANCH   4   6
ENDBRANCH   1   2
BRANCH   1  12
HETATM   12  N   UNL     1      -9.902   8.873  70.275  1.00  0.00    -0.175 N  
HETATM   13  O   UNL     1      -8.507   9.806  68.692  1.00  0.00    -0.111 OA 
HETATM   14  C   UNL     1      -9.633   9.735  69.191  1.00  0.00    -0.188 C  
BRANCH  12  15
HETATM   15  C   UNL     1     -11.183   8.795  70.873  1.00  0.00    -0.270 A  
HETATM   16  C   UNL     1     -11.695   9.834  71.651  1.00  0.00    -0.318 A  
HETATM   17  C   UNL     1     -13.295   7.693  71.114  1.00  0.00    -0.124 A  
HETATM   18  N   UNL     1     -12.957   9.847  72.142  1.00  0.00    -0.406 NA 
HETATM   19  F   UNL     1     -14.106   6.664  70.846  1.00  0.00    -0.130 F  
HETATM   20  C   UNL     1     -12.009   7.709  70.603  1.00  0.00    -0.122 A  
HETATM   21  C   UNL     1     -13.728   8.768  71.865  1.00  0.00    -0.433 A  
ENDBRANCH  12  15
BRANCH  14  22
HETATM   22  C   UNL     1     -10.826  10.555  68.575  1.00  0.00    -0.234 C  
HETATM   23  C   UNL     1     -10.329  10.822  66.244  1.00  0.00    -0.303 C  
HETATM   24  C   UNL     1     -11.161   9.983  67.199  1.00  0.00    -0.065 C  
HETATM   25  N   UNL     1     -10.594  11.968  68.276  1.00  0.00    -0.204 N  
HETATM   26  O   UNL     1     -10.015  13.190  66.310  1.00  0.00    -0.274 OA 
HETATM   27  C   UNL     1     -10.288  12.166  66.920  1.00  0.00    -0.212 C  
BRANCH  25  28
HETATM   28  C   UNL     1     -10.884  13.045  69.148  1.00  0.00    -0.086 A  
HETATM   29  N   UNL     1     -10.092  14.141  69.094  1.00  0.00    -0.086 NA 
HETATM   30  C   UNL     1     -10.357  15.219  69.859  1.00  0.00    -0.243 A  
HETATM   31  C   UNL     1     -11.422  15.279  70.726  1.00  0.00    -0.361 A  
HETATM   32  C   UNL     1     -12.241  14.159  70.798  1.00  0.00    -0.435 A  
HETATM   33  C   UNL     1     -11.977  13.032  70.003  1.00  0.00    -0.383 A  
HETATM   34  C   UNL     1     -13.365  14.161  71.685  1.00  0.00    -0.364 C  
HETATM   35  N   UNL     1     -14.278  14.149  72.402  1.00  0.00    -0.623 NA 
ENDBRANCH  25  28
ENDBRANCH  14  22
ENDBRANCH   1  12
BRANCH   1  36
HETATM   36  C   UNL     1      -9.424   7.077  71.975  1.00  0.00    -0.149 A  
HETATM   37  C   UNL     1     -10.629   4.965  72.468  1.00  0.00    -0.271 A  
HETATM   38  C   UNL     1     -10.771   5.318  73.795  1.00  0.00    -0.343 A  
HETATM   39 CL   UNL     1      -8.390   8.485  74.082  1.00  0.00    -0.131 Cl 
HETATM   40  C   UNL     1     -10.150   6.484  74.241  1.00  0.00    -0.379 A  
HETATM   41  C   UNL     1      -9.998   5.833  71.576  1.00  0.00    -0.226 A  
HETATM   42  C   UNL     1      -9.416   7.311  73.354  1.00  0.00    -0.208 A  
ENDBRANCH   1  36
TORSDOF 7
ENDMDL
MODEL      102
REMARK 921   NORMALIZED FREE ENERGY PREDICTED BY IDOCK:   -4.76 KCAL/MOL
REMARK 922        TOTAL FREE ENERGY PREDICTED BY IDOCK:   -8.17 KCAL/MOL
REMARK 923 INTER-LIGAND FREE ENERGY PREDICTED BY IDOCK:   -7.08 KCAL/MOL
REMARK 924 INTRA-LIGAND FREE ENERGY PREDICTED BY IDOCK:   -1.09 KCAL/MOL
REMARK 927      BINDING AFFINITY PREDICTED BY RF-SCORE:    0.00 PKD
ROOT
HETATM    1  C   UNL     1      -7.319   9.709  70.598  1.00  0.00    -0.096 C  
ENDROOT
BRANCH   1   2
HETATM    2  C   UNL     1      -6.492  11.016  70.152  1.00  0.00    -0.128 C  
HETATM    3  H   UNL     1      -8.093  12.040  69.363  1.00  0.00     0.000 HD 
HETATM    4  N   UNL     1      -7.093  12.112  69.549  1.00  0.00     0.101 N  
HETATM    5  O   UNL     1      -5.266  11.016  70.259  1.00  0.00    -0.056 OA 
BRANCH   4   6
HETATM    6  C   UNL     1      -6.414  13.409  69.137  1.00  0.00    -0.105 C  
HETATM    7  C   UNL     1      -6.299  15.232  68.023  1.00  0.00    -0.143 C  
HETATM    8  F   UNL     1      -6.875  16.029  67.098  1.00  0.00    -0.181 F  
HETATM    9  C   UNL     1      -6.134  13.731  67.642  1.00  0.00    -0.096 C  
HETATM   10  F   UNL     1      -5.166  15.855  68.421  1.00  0.00    -0.089 F  
HETATM   11  C   UNL     1      -7.219  14.733  69.173  1.00  0.00    -0.148 C  
ENDBRANCH   4   6
ENDBRANCH   1   2
BRANCH   1  12
HETATM   12  N   UNL     1      -8.380   9.330  69.586  1.00  0.00    -0.129 N  
HETATM   13  O   UNL     1      -6.931   9.369  67.792  1.00  0.00    -0.078 OA 
HETATM   14  C   UNL     1      -8.070   9.165  68.219  1.00  0.00    -0.104 C  
BRANCH  12  15
HETATM   15  C   UNL     1      -9.686   9.121  70.090  1.00  0.00    -0.204 A  
HETATM   16  C   UNL     1     -10.075   7.899  70.641  1.00  0.00    -0.194 A  
HETATM   17  C   UNL     1     -11.825   9.987  70.729  1.00  0.00    -0.346 A  
HETATM   18  N   UNL     1     -11.273   7.697  71.238  1.00  0.00    -0.250 NA 
HETATM   19  F   UNL     1     -12.693  11.003  70.804  1.00  0.00    -0.382 F  
HETATM   20  C   UNL     1     -10.587  10.180  70.142  1.00  0.00    -0.337 A  
HETATM   21  C   UNL     1     -12.127   8.750  71.262  1.00  0.00    -0.296 A  
ENDBRANCH  12  15
BRANCH  14  22
HETATM   22  C   UNL     1      -9.196   8.636  67.257  1.00  0.00    -0.140 C  
HETATM   23  C   UNL     1      -8.446   6.506  66.448  1.00  0.00    -0.124 C  
HETATM   24  C   UNL     1      -9.370   7.135  67.477  1.00  0.00    -0.137 C  
HETATM   25  N   UNL     1      -8.946   8.711  65.817  1.00  0.00    -0.195 N  
HETATM   26  O   UNL     1      -8.166   7.171  64.170  1.00  0.00    -0.071 OA 
HETATM   27  C   UNL     1      -8.494   7.485  65.306  1.00  0.00    -0.063 C  
BRANCH  25  28
HETATM   28  C   UNL     1      -9.341   9.779  64.976  1.00  0.00    -0.263 A  
HETATM   29  N   UNL     1      -8.557  10.080  63.915  1.00  0.00    -0.174 NA 
HETATM   30  C   UNL     1      -8.916  11.047  63.047  1.00  0.00    -0.238 A  
HETATM   31  C   UNL     1     -10.073  11.778  63.175  1.00  0.00    -0.386 A  
HETATM   32  C   UNL     1     -10.887  11.485  64.262  1.00  0.00    -0.421 A  
HETATM   33  C   UNL     1     -10.525  10.477  65.170  1.00  0.00    -0.225 A  
HETATM   34  C   UNL     1     -12.105  12.214  64.450  1.00  0.00    -0.357 C  
HETATM   35  N   UNL     1     -13.093  12.800  64.615  1.00  0.00    -0.810 NA 
ENDBRANCH  25  28
ENDBRANCH  14  22
ENDBRANCH   1  12
BRANCH   1  36
HETATM   36  C   UNL     1      -6.747   8.442  71.286  1.00  0.00    -0.059 A  
HETATM   37  C   UNL     1      -6.348   6.009  71.010  1.00  0.00    -0.040 A  
HETATM   38  C   UNL     1      -5.955   5.891  72.328  1.00  0.00    -0.036 A  
HETATM   39 CL   UNL     1      -5.629   9.686  73.452  1.00  0.00     0.094 Cl 
HETATM   40  C   UNL     1      -5.848   7.050  73.094  1.00  0.00    -0.049 A  
HETATM   41  C   UNL     1      -6.760   7.244  70.510  1.00  0.00    -0.048 A  
HETATM   42  C   UNL     1      -6.164   8.321  72.552  1.00  0.00    -0.073 A  
ENDBRANCH   1  36
TORSDOF 7
ENDMDL
MODEL      103
REMARK 921   NORMALIZED FREE ENERGY PREDICTED BY IDOCK:   -4.64 KCAL/MOL
REMARK 922        TOTAL FREE ENERGY PREDICTED BY IDOCK:   -8.00 KCAL/MOL
REMARK 923 INTER-LIGAND FREE ENERGY PREDICTED BY IDOCK:   -6.83 KCAL/MOL
REMARK 924 INTRA-LIGAND FREE ENERGY PREDICTED BY IDOCK:   -1.17 KCAL/MOL
REMARK 927      BINDING AFFINITY PREDICTED BY RF-SCORE:    0.00 PKD
ROOT
HETATM    1  C   UNL     1      -7.853   6.628  66.512  1.00  0.00    -0.104 C  
ENDROOT
BRANCH   1   2
HETATM    2  C   UNL     1      -9.038   7.643  66.117  1.00  0.00    -0.144 C  
HETATM    3  H   UNL     1      -7.839   9.049  65.210  1.00  0.00     0.000 HD 
HETATM    4  N   UNL     1      -8.810   8.826  65.428  1.00  0.00    -0.191 N  
HETATM    5  O   UNL     1     -10.179   7.420  66.518  1.00  0.00    -0.194 OA 
BRANCH   4   6
HETATM    6  C   UNL     1      -9.859   9.825  64.965  1.00  0.00    -0.173 C  
HETATM    7  C   UNL     1     -10.478  11.723  64.195  1.00  0.00    -0.346 C  
HETATM    8  F   UNL     1     -10.103  12.955  63.789  1.00  0.00    -0.414 F  
HETATM    9  C   UNL     1      -9.938  11.252  65.578  1.00  0.00    -0.293 C  
HETATM   10  F   UNL     1     -11.822  11.659  64.047  1.00  0.00    -0.435 F  
HETATM   11  C   UNL     1      -9.688  10.527  63.593  1.00  0.00    -0.375 C  
ENDBRANCH   4   6
ENDBRANCH   1   2
BRANCH   1  12
HETATM   12  N   UNL     1      -7.799   6.363  68.003  1.00  0.00    -0.104 N  
HETATM   13  O   UNL     1      -8.638   4.221  67.828  1.00  0.00    -0.098 OA 
HETATM   14  C   UNL     1      -8.192   5.121  68.545  1.00  0.00    -0.089 C  
BRANCH  12  15
HETATM   15  C   UNL     1      -7.306   7.413  68.813  1.00  0.00    -0.095 A  
HETATM   16  C   UNL     1      -5.944   7.707  68.886  1.00  0.00    -0.031 A  
HETATM   17  C   UNL     1      -7.703   9.335  70.185  1.00  0.00    -0.120 A  
HETATM   18  N   UNL     1      -5.444   8.774  69.554  1.00  0.00    -0.034 NA 
HETATM   19  F   UNL     1      -8.547  10.161  70.812  1.00  0.00     0.059 F  
HETATM   20  C   UNL     1      -8.194   8.252  69.478  1.00  0.00    -0.119 A  
HETATM   21  C   UNL     1      -6.340   9.563  70.197  1.00  0.00    -0.063 A  
ENDBRANCH  12  15
BRANCH  14  22
HETATM   22  C   UNL     1      -7.977   4.876  70.083  1.00  0.00    -0.073 C  
HETATM   23  C   UNL     1      -8.271   2.522  70.439  1.00  0.00    -0.064 C  
HETATM   24  C   UNL     1      -7.192   3.579  70.272  1.00  0.00    -0.041 C  
HETATM   25  N   UNL     1      -9.165   4.642  70.905  1.00  0.00    -0.134 N  
HETATM   26  O   UNL     1     -10.268   2.698  71.739  1.00  0.00    -0.111 OA 
HETATM   27  C   UNL     1      -9.378   3.273  71.127  1.00  0.00    -0.140 C  
BRANCH  25  28
HETATM   28  C   UNL     1      -9.876   5.641  71.613  1.00  0.00    -0.170 A  
HETATM   29  N   UNL     1      -9.228   6.313  72.591  1.00  0.00    -0.143 NA 
HETATM   30  C   UNL     1      -9.836   7.316  73.256  1.00  0.00    -0.256 A  
HETATM   31  C   UNL     1     -11.125   7.715  72.995  1.00  0.00    -0.437 A  
HETATM   32  C   UNL     1     -11.807   7.031  71.996  1.00  0.00    -0.336 A  
HETATM   33  C   UNL     1     -11.182   5.988  71.294  1.00  0.00    -0.323 A  
HETATM   34  C   UNL     1     -13.154   7.399  71.679  1.00  0.00    -0.364 C  
HETATM   35  N   UNL     1     -14.247   7.686  71.415  1.00  0.00    -0.414 NA 
ENDBRANCH  25  28
ENDBRANCH  14  22
ENDBRANCH   1  12
BRANCH   1  36
HETATM   36  C   UNL     1      -7.410   5.370  65.721  1.00  0.00    -0.073 A  
HETATM   37  C   UNL     1      -5.465   3.949  65.126  1.00  0.00    -0.010 A  
HETATM   38  C   UNL     1      -6.226   3.227  64.229  1.00  0.00    -0.023 A  
HETATM   39 CL   UNL     1      -9.907   4.468  65.057  1.00  0.00    -0.158 Cl 
HETATM   40  C   UNL     1      -7.592   3.492  64.153  1.00  0.00    -0.075 A  
HETATM   41  C   UNL     1      -6.033   5.010  65.832  1.00  0.00    -0.023 A  
HETATM   42  C   UNL     1      -8.190   4.499  64.951  1.00  0.00    -0.107 A  
ENDBRANCH   1  36
TORSDOF 7
ENDMDL
MODEL      104
REMARK 921   NORMALIZED FREE ENERGY PREDICTED BY IDOCK:   -4.58 KCAL/MOL
REMARK 922        TOTAL FREE ENERGY PREDICTED BY IDOCK:   -7.91 KCAL/MOL
REMARK 923 INTER-LIGAND FREE ENERGY PREDICTED BY IDOCK:   -5.88 KCAL/MOL
REMARK 924 INTRA-LIGAND FREE ENERGY PREDICTED BY IDOCK:   -2.02 KCAL/MOL
REMARK 927      BINDING AFFINITY PREDICTED BY RF-SCORE:    0.00 PKD
ROOT
HETATM    1  C   UNL     1     -10.326   8.092  70.148  1.00  0.00    -0.215 C  
ENDROOT
BRANCH   1   2
HETATM    2  C   UNL     1     -10.862   9.609  70.193  1.00  0.00    -0.280 C  
HETATM    3  H   UNL     1     -10.636   9.990  68.184  1.00  0.00     0.000 HD 
HETATM    4  N   UNL     1     -10.959  10.402  69.058  1.00  0.00    -0.225 N  
HETATM    5  O   UNL     1     -11.110  10.126  71.281  1.00  0.00    -0.240 OA 
BRANCH   4   6
HETATM    6  C   UNL     1     -11.496  11.823  68.986  1.00  0.00    -0.297 C  
HETATM    7  C   UNL     1     -11.535  13.810  68.193  1.00  0.00    -0.313 C  
HETATM    8  F   UNL     1     -10.985  14.695  67.335  1.00  0.00    -0.278 F  
HETATM    9  C   UNL     1     -10.552  13.050  69.132  1.00  0.00     0.005 C  
HETATM   10  F   UNL     1     -12.549  14.454  68.817  1.00  0.00    -0.224 F  
HETATM   11  C   UNL     1     -11.896  12.415  67.610  1.00  0.00    -0.363 C  
ENDBRANCH   4   6
ENDBRANCH   1   2
BRANCH   1  12
HETATM   12  N   UNL     1      -9.060   7.956  69.326  1.00  0.00    -0.148 N  
HETATM   13  O   UNL     1      -8.049   9.809  70.258  1.00  0.00    -0.176 OA 
HETATM   14  C   UNL     1      -7.982   8.853  69.481  1.00  0.00    -0.092 C  
BRANCH  12  15
HETATM   15  C   UNL     1      -9.008   6.867  68.424  1.00  0.00    -0.121 A  
HETATM   16  C   UNL     1      -8.161   5.778  68.634  1.00  0.00    -0.105 A  
HETATM   17  C   UNL     1      -9.898   5.696  66.534  1.00  0.00    -0.168 A  
HETATM   18  N   UNL     1      -8.167   4.667  67.860  1.00  0.00    -0.099 NA 
HETATM   19  F   UNL     1     -10.756   5.622  65.511  1.00  0.00     0.138 F  
HETATM   20  C   UNL     1      -9.891   6.813  67.351  1.00  0.00    -0.174 A  
HETATM   21  C   UNL     1      -9.035   4.655  66.819  1.00  0.00    -0.112 A  
ENDBRANCH  12  15
BRANCH  14  22
HETATM   22  C   UNL     1      -6.652   8.564  68.693  1.00  0.00    -0.055 C  
HETATM   23  C   UNL     1      -5.283  10.518  68.941  1.00  0.00    -0.041 C  
HETATM   24  C   UNL     1      -5.473   9.116  69.493  1.00  0.00    -0.034 C  
HETATM   25  N   UNL     1      -6.477   9.216  67.395  1.00  0.00    -0.063 N  
HETATM   26  O   UNL     1      -5.350  11.181  66.646  1.00  0.00    -0.075 OA 
HETATM   27  C   UNL     1      -5.690  10.373  67.499  1.00  0.00    -0.044 C  
BRANCH  25  28
HETATM   28  C   UNL     1      -6.822   8.648  66.145  1.00  0.00    -0.073 A  
HETATM   29  N   UNL     1      -6.353   7.413  65.854  1.00  0.00    -0.041 NA 
HETATM   30  C   UNL     1      -6.699   6.799  64.705  1.00  0.00    -0.042 A  
HETATM   31  C   UNL     1      -7.530   7.370  63.770  1.00  0.00    -0.104 A  
HETATM   32  C   UNL     1      -8.016   8.641  64.051  1.00  0.00    -0.158 A  
HETATM   33  C   UNL     1      -7.666   9.288  65.247  1.00  0.00    -0.103 A  
HETATM   34  C   UNL     1      -8.885   9.289  63.115  1.00  0.00    -0.144 C  
HETATM   35  N   UNL     1      -9.587   9.825  62.364  1.00  0.00    -0.073 NA 
ENDBRANCH  25  28
ENDBRANCH  14  22
ENDBRANCH   1  12
BRANCH   1  36
HETATM   36  C   UNL     1     -10.325   7.075  71.319  1.00  0.00    -0.217 A  
HETATM   37  C   UNL     1     -11.198   4.881  72.080  1.00  0.00     0.089 A  
HETATM   38  C   UNL     1     -10.690   5.082  73.347  1.00  0.00    -0.330 A  
HETATM   39 CL   UNL     1      -8.391   8.280  72.836  1.00  0.00    -0.251 Cl 
HETATM   40  C   UNL     1      -9.908   6.213  73.577  1.00  0.00    -0.179 A  
HETATM   41  C   UNL     1     -11.045   5.862  71.100  1.00  0.00    -0.305 A  
HETATM   42  C   UNL     1      -9.663   7.157  72.549  1.00  0.00    -0.154 A  
ENDBRANCH   1  36
TORSDOF 7
ENDMDL
MODEL      105
REMARK 921   NORMALIZED FREE ENERGY PREDICTED BY IDOCK:   -4.56 KCAL/MOL
REMARK 922        TOTAL FREE ENERGY PREDICTED BY IDOCK:   -7.89 KCAL/MOL
REMARK 923 INTER-LIGAND FREE ENERGY PREDICTED BY IDOCK:   -7.65 KCAL/MOL
REMARK 924 INTRA-LIGAND FREE ENERGY PREDICTED BY IDOCK:   -0.24 KCAL/MOL
REMARK 927      BINDING AFFINITY PREDICTED BY RF-SCORE:    0.00 PKD
ROOT
HETATM    1  C   UNL     1      -9.774  10.454  66.951  1.00  0.00    -0.181 C  
ENDROOT
BRANCH   1   2
HETATM    2  C   UNL     1      -9.915   8.900  67.347  1.00  0.00    -0.209 C  
HETATM    3  H   UNL     1      -9.451   9.130  69.339  1.00  0.00     0.000 HD 
HETATM    4  N   UNL     1      -9.725   8.438  68.642  1.00  0.00    -0.160 N  
HETATM    5  O   UNL     1     -10.105   8.069  66.460  1.00  0.00    -0.260 OA 
BRANCH   4   6
HETATM    6  C   UNL     1      -9.882   7.006  69.128  1.00  0.00    -0.158 C  
HETATM    7  C   UNL     1     -10.014   4.892  68.825  1.00  0.00    -0.136 C  
HETATM    8  F   UNL     1     -10.035   3.877  67.936  1.00  0.00    -0.197 F  
HETATM    9  C   UNL     1     -10.987   6.076  68.552  1.00  0.00    -0.350 C  
HETATM   10  F   UNL     1     -10.115   4.333  70.053  1.00  0.00    -0.285 F  
HETATM   11  C   UNL     1      -8.868   5.929  68.662  1.00  0.00    -0.111 C  
ENDBRANCH   4   6
ENDBRANCH   1   2
BRANCH   1  12
HETATM   12  N   UNL     1      -8.364  10.971  67.152  1.00  0.00    -0.129 N  
HETATM   13  O   UNL     1      -8.987  12.580  68.684  1.00  0.00    -0.094 OA 
HETATM   14  C   UNL     1      -8.086  12.017  68.057  1.00  0.00    -0.153 C  
BRANCH  12  15
HETATM   15  C   UNL     1      -7.345  10.329  66.409  1.00  0.00    -0.114 A  
HETATM   16  C   UNL     1      -6.687  10.969  65.359  1.00  0.00     0.283 A  
HETATM   17  C   UNL     1      -5.838   8.492  66.114  1.00  0.00    -0.044 A  
HETATM   18  N   UNL     1      -5.631  10.435  64.702  1.00  0.00    -0.130 NA 
HETATM   19  F   UNL     1      -5.389   7.287  66.481  1.00  0.00    -0.020 F  
HETATM   20  C   UNL     1      -6.902   9.066  66.788  1.00  0.00    -0.080 A  
HETATM   21  C   UNL     1      -5.233   9.199  65.094  1.00  0.00    -0.037 A  
ENDBRANCH  12  15
BRANCH  14  22
HETATM   22  C   UNL     1      -6.582  12.403  68.311  1.00  0.00    -0.063 C  
HETATM   23  C   UNL     1      -5.963  11.374  70.387  1.00  0.00    -0.142 C  
HETATM   24  C   UNL     1      -5.850  11.191  68.883  1.00  0.00    -0.039 C  
HETATM   25  N   UNL     1      -6.307  13.433  69.314  1.00  0.00    -0.106 N  
HETATM   26  O   UNL     1      -5.677  13.404  71.615  1.00  0.00    -0.374 OA 
HETATM   27  C   UNL     1      -5.952  12.869  70.549  1.00  0.00    -0.075 C  
BRANCH  25  28
HETATM   28  C   UNL     1      -6.158  14.815  69.043  1.00  0.00    -0.093 A  
HETATM   29  N   UNL     1      -5.390  15.549  69.881  1.00  0.00    -0.104 NA 
HETATM   30  C   UNL     1      -5.163  16.855  69.638  1.00  0.00    -0.157 A  
HETATM   31  C   UNL     1      -5.683  17.517  68.552  1.00  0.00    -0.157 A  
HETATM   32  C   UNL     1      -6.478  16.778  67.684  1.00  0.00    -0.170 A  
HETATM   33  C   UNL     1      -6.718  15.416  67.925  1.00  0.00    -0.177 A  
HETATM   34  C   UNL     1      -7.050  17.413  66.535  1.00  0.00    -0.265 C  
HETATM   35  N   UNL     1      -7.522  17.916  65.602  1.00  0.00    -0.531 NA 
ENDBRANCH  25  28
ENDBRANCH  14  22
ENDBRANCH   1  12
BRANCH   1  36
HETATM   36  C   UNL     1     -10.448  11.168  65.750  1.00  0.00    -0.305 A  
HETATM   37  C   UNL     1     -11.899  13.072  65.097  1.00  0.00    -0.404 A  
HETATM   38  C   UNL     1     -11.976  12.610  63.799  1.00  0.00    -0.588 A  
HETATM   39 CL   UNL     1      -9.218   9.752  63.757  1.00  0.00    -0.283 Cl 
HETATM   40  C   UNL     1     -11.210  11.502  63.443  1.00  0.00    -0.342 A  
HETATM   41  C   UNL     1     -11.178  12.356  66.054  1.00  0.00    -0.374 A  
HETATM   42  C   UNL     1     -10.392  10.838  64.392  1.00  0.00    -0.335 A  
ENDBRANCH   1  36
TORSDOF 7
ENDMDL
MODEL      106
REMARK 921   NORMALIZED FREE ENERGY PREDICTED BY IDOCK:   -4.55 KCAL/MOL
REMARK 922        TOTAL FREE ENERGY PREDICTED BY IDOCK:   -7.87 KCAL/MOL
REMARK 923 INTER-LIGAND FREE ENERGY PREDICTED BY IDOCK:   -7.36 KCAL/MOL
REMARK 924 INTRA-LIGAND FREE ENERGY PREDICTED BY IDOCK:   -0.51 KCAL/MOL
REMARK 927      BINDING AFFINITY PREDICTED BY RF-SCORE:    0.00 PKD
ROOT
HETATM    1  C   UNL     1      -8.620   8.515  65.388  1.00  0.00    -0.176 C  
ENDROOT
BRANCH   1   2
HETATM    2  C   UNL     1      -8.634   6.931  65.675  1.00  0.00    -0.110 C  
HETATM    3  H   UNL     1      -7.062   6.462  64.432  1.00  0.00     0.000 HD 
HETATM    4  N   UNL     1      -7.727   6.057  65.091  1.00  0.00    -0.089 N  
HETATM    5  O   UNL     1      -9.536   6.453  66.362  1.00  0.00    -0.163 OA 
BRANCH   4   6
HETATM    6  C   UNL     1      -7.624   4.559  65.333  1.00  0.00    -0.081 C  
HETATM    7  C   UNL     1      -6.677   2.817  66.137  1.00  0.00    -0.043 C  
HETATM    8  F   UNL     1      -5.629   2.317  66.825  1.00  0.00    -0.015 F  
HETATM    9  C   UNL     1      -6.340   3.769  64.952  1.00  0.00    -0.027 C  
HETATM   10  F   UNL     1      -7.474   1.769  65.828  1.00  0.00    -0.056 F  
HETATM   11  C   UNL     1      -7.404   4.035  66.775  1.00  0.00    -0.072 C  
ENDBRANCH   4   6
ENDBRANCH   1   2
BRANCH   1  12
HETATM   12  N   UNL     1      -8.864   9.327  66.644  1.00  0.00    -0.126 N  
HETATM   13  O   UNL     1      -7.282   8.202  67.889  1.00  0.00    -0.087 OA 
HETATM   14  C   UNL     1      -8.124   9.101  67.823  1.00  0.00    -0.105 C  
BRANCH  12  15
HETATM   15  C   UNL     1      -9.849  10.340  66.558  1.00  0.00    -0.212 A  
HETATM   16  C   UNL     1     -11.018  10.295  67.319  1.00  0.00    -0.210 A  
HETATM   17  C   UNL     1     -10.545  12.496  65.781  1.00  0.00    -0.270 A  
HETATM   18  N   UNL     1     -11.926  11.299  67.353  1.00  0.00    -0.452 NA 
HETATM   19  F   UNL     1     -10.324  13.595  65.052  1.00  0.00    -0.317 F  
HETATM   20  C   UNL     1      -9.617  11.468  65.778  1.00  0.00    -0.259 A  
HETATM   21  C   UNL     1     -11.669  12.378  66.574  1.00  0.00    -0.379 A  
ENDBRANCH  12  15
BRANCH  14  22
HETATM   22  C   UNL     1      -8.340  10.075  69.039  1.00  0.00    -0.134 C  
HETATM   23  C   UNL     1      -6.187  10.383  70.048  1.00  0.00    -0.093 C  
HETATM   24  C   UNL     1      -7.169  11.054  69.103  1.00  0.00    -0.121 C  
HETATM   25  N   UNL     1      -8.334   9.495  70.382  1.00  0.00    -0.192 N  
HETATM   26  O   UNL     1      -6.696   9.274  72.102  1.00  0.00    -0.305 OA 
HETATM   27  C   UNL     1      -7.084   9.645  71.003  1.00  0.00     0.067 C  
BRANCH  25  28
HETATM   28  C   UNL     1      -9.482   9.066  71.090  1.00  0.00    -0.278 A  
HETATM   29  N   UNL     1     -10.642   9.732  70.888  1.00  0.00    -0.310 NA 
HETATM   30  C   UNL     1     -11.780   9.329  71.489  1.00  0.00    -0.380 A  
HETATM   31  C   UNL     1     -11.841   8.242  72.328  1.00  0.00    -0.451 A  
HETATM   32  C   UNL     1     -10.656   7.551  72.550  1.00  0.00    -0.321 A  
HETATM   33  C   UNL     1      -9.466   7.958  71.927  1.00  0.00    -0.220 A  
HETATM   34  C   UNL     1     -10.655   6.411  73.417  1.00  0.00    -0.276 C  
HETATM   35  N   UNL     1     -10.640   5.487  74.119  1.00  0.00    -0.264 NA 
ENDBRANCH  25  28
ENDBRANCH  14  22
ENDBRANCH   1  12
BRANCH   1  36
HETATM   36  C   UNL     1      -7.666   9.274  64.428  1.00  0.00    -0.118 A  
HETATM   37  C   UNL     1      -7.555  10.595  62.332  1.00  0.00    -0.174 A  
HETATM   38  C   UNL     1      -6.175  10.588  62.362  1.00  0.00    -0.153 A  
HETATM   39 CL   UNL     1      -5.420   9.154  65.989  1.00  0.00    -0.040 Cl 
HETATM   40  C   UNL     1      -5.539  10.029  63.469  1.00  0.00    -0.114 A  
HETATM   41  C   UNL     1      -8.281   9.932  63.322  1.00  0.00    -0.158 A  
HETATM   42  C   UNL     1      -6.282   9.451  64.529  1.00  0.00    -0.079 A  
ENDBRANCH   1  36
TORSDOF 7
ENDMDL
MODEL      107
REMARK 921   NORMALIZED FREE ENERGY PREDICTED BY IDOCK:   -4.53 KCAL/MOL
REMARK 922        TOTAL FREE ENERGY PREDICTED BY IDOCK:   -7.84 KCAL/MOL
REMARK 923 INTER-LIGAND FREE ENERGY PREDICTED BY IDOCK:   -9.00 KCAL/MOL
REMARK 924 INTRA-LIGAND FREE ENERGY PREDICTED BY IDOCK:    1.17 KCAL/MOL
REMARK 927      BINDING AFFINITY PREDICTED BY RF-SCORE:    0.00 PKD
ROOT
HETATM    1  C   UNL     1      -9.203  10.035  67.882  1.00  0.00    -0.137 C  
ENDROOT
BRANCH   1   2
HETATM    2  C   UNL     1      -8.047  10.210  66.777  1.00  0.00    -0.119 C  
HETATM    3  H   UNL     1      -8.729   8.745  65.501  1.00  0.00     0.000 HD 
HETATM    4  N   UNL     1      -8.004   9.454  65.613  1.00  0.00    -0.102 N  
HETATM    5  O   UNL     1      -7.109  10.972  67.005  1.00  0.00    -0.103 OA 
BRANCH   4   6
HETATM    6  C   UNL     1      -6.989   9.575  64.487  1.00  0.00    -0.103 C  
HETATM    7  C   UNL     1      -5.662   8.762  63.019  1.00  0.00    -0.074 C  
HETATM    8  F   UNL     1      -5.127   7.650  62.472  1.00  0.00    -0.040 F  
HETATM    9  C   UNL     1      -5.606   8.870  64.571  1.00  0.00    -0.063 C  
HETATM   10  F   UNL     1      -5.140   9.814  62.347  1.00  0.00    -0.079 F  
HETATM   11  C   UNL     1      -7.209   8.779  63.176  1.00  0.00    -0.094 C  
ENDBRANCH   4   6
ENDBRANCH   1   2
BRANCH   1  12
HETATM   12  N   UNL     1     -10.282  11.092  67.756  1.00  0.00    -0.179 N  
HETATM   13  O   UNL     1      -9.809  11.559  65.547  1.00  0.00    -0.219 OA 
HETATM   14  C   UNL     1     -10.510  11.770  66.540  1.00  0.00    -0.230 C  
BRANCH  12  15
HETATM   15  C   UNL     1     -11.062  11.336  68.911  1.00  0.00    -0.238 A  
HETATM   16  C   UNL     1     -11.094  12.589  69.525  1.00  0.00    -0.006 A  
HETATM   17  C   UNL     1     -12.738  10.630  70.470  1.00  0.00    -0.313 A  
HETATM   18  N   UNL     1     -11.915  12.895  70.557  1.00  0.00    -0.277 NA 
HETATM   19  F   UNL     1     -13.569   9.693  70.937  1.00  0.00    -0.391 F  
HETATM   20  C   UNL     1     -11.907  10.345  69.400  1.00  0.00    -0.189 A  
HETATM   21  C   UNL     1     -12.717  11.901  71.011  1.00  0.00    -0.258 A  
ENDBRANCH  12  15
BRANCH  14  22
HETATM   22  C   UNL     1     -11.736  12.752  66.452  1.00  0.00    -0.403 C  
HETATM   23  C   UNL     1     -12.280  12.942  64.124  1.00  0.00    -0.487 C  
HETATM   24  C   UNL     1     -12.710  12.232  65.396  1.00  0.00     0.450 C  
HETATM   25  N   UNL     1     -11.479  14.117  65.992  1.00  0.00    -0.334 N  
HETATM   26  O   UNL     1     -11.668  15.241  63.897  1.00  0.00    -0.244 OA 
HETATM   27  C   UNL     1     -11.775  14.267  64.629  1.00  0.00    -0.430 C  
BRANCH  25  28
HETATM   28  C   UNL     1     -11.215  15.224  66.834  1.00  0.00    -0.256 A  
HETATM   29  N   UNL     1     -11.732  15.212  68.084  1.00  0.00    -0.339 NA 
HETATM   30  C   UNL     1     -11.463  16.211  68.949  1.00  0.00    -0.331 A  
HETATM   31  C   UNL     1     -10.668  17.285  68.630  1.00  0.00    -0.280 A  
HETATM   32  C   UNL     1     -10.134  17.315  67.347  1.00  0.00    -0.307 A  
HETATM   33  C   UNL     1     -10.403  16.279  66.440  1.00  0.00    -0.319 A  
HETATM   34  C   UNL     1      -9.299  18.410  66.954  1.00  0.00    -0.290 C  
HETATM   35  N   UNL     1      -8.623  19.293  66.623  1.00  0.00    -0.307 NA 
ENDBRANCH  25  28
ENDBRANCH  14  22
ENDBRANCH   1  12
BRANCH   1  36
HETATM   36  C   UNL     1      -9.810   8.698  68.384  1.00  0.00    -0.189 A  
HETATM   37  C   UNL     1     -11.101   6.692  67.702  1.00  0.00    -0.357 A  
HETATM   38  C   UNL     1     -11.205   6.273  69.013  1.00  0.00    -0.415 A  
HETATM   39 CL   UNL     1      -8.680   8.708  70.877  1.00  0.00    -0.192 Cl 
HETATM   40  C   UNL     1     -10.525   6.992  69.995  1.00  0.00    -0.233 A  
HETATM   41  C   UNL     1     -10.447   7.886  67.398  1.00  0.00    -0.360 A  
HETATM   42  C   UNL     1      -9.770   8.146  69.670  1.00  0.00    -0.170 A  
ENDBRANCH   1  36
TORSDOF 7
ENDMDL
MODEL      108
REMARK 921   NORMALIZED FREE ENERGY PREDICTED BY IDOCK:   -4.47 KCAL/MOL
REMARK 922        TOTAL FREE ENERGY PREDICTED BY IDOCK:   -7.76 KCAL/MOL
REMARK 923 INTER-LIGAND FREE ENERGY PREDICTED BY IDOCK:   -6.09 KCAL/MOL
REMARK 924 INTRA-LIGAND FREE ENERGY PREDICTED BY IDOCK:   -1.67 KCAL/MOL
REMARK 927      BINDING AFFINITY PREDICTED BY RF-SCORE:    0.00 PKD
ROOT
HETATM    1  C   UNL     1      -9.960   7.600  69.690  1.00  0.00    -0.185 C  
ENDROOT
BRANCH   1   2
HETATM    2  C   UNL     1     -10.615   8.853  68.922  1.00  0.00    -0.165 C  
HETATM    3  H   UNL     1     -10.490  10.174  70.495  1.00  0.00     0.000 HD 
HETATM    4  N   UNL     1     -10.776  10.095  69.519  1.00  0.00    -0.232 N  
HETATM    5  O   UNL     1     -11.081   8.690  67.795  1.00  0.00     0.038 OA 
BRANCH   4   6
HETATM    6  C   UNL     1     -11.335  11.351  68.869  1.00  0.00    -0.270 C  
HETATM    7  C   UNL     1     -11.385  13.463  68.528  1.00  0.00    -0.289 C  
HETATM    8  F   UNL     1     -10.865  14.670  68.837  1.00  0.00    -0.220 F  
HETATM    9  C   UNL     1     -11.806  12.560  69.725  1.00  0.00    -0.380 C  
HETATM   10  F   UNL     1     -12.347  13.681  67.602  1.00  0.00    -0.370 F  
HETATM   11  C   UNL     1     -10.366  12.343  68.174  1.00  0.00    -0.231 C  
ENDBRANCH   4   6
ENDBRANCH   1   2
BRANCH   1  12
HETATM   12  N   UNL     1      -8.834   6.966  68.897  1.00  0.00    -0.130 N  
HETATM   13  O   UNL     1      -8.095   8.966  68.017  1.00  0.00    -0.105 OA 
HETATM   14  C   UNL     1      -7.953   7.745  68.118  1.00  0.00    -0.122 C  
BRANCH  12  15
HETATM   15  C   UNL     1      -8.699   5.562  69.007  1.00  0.00    -0.102 A  
HETATM   16  C   UNL     1      -9.608   4.687  68.412  1.00  0.00    -0.151 A  
HETATM   17  C   UNL     1      -7.410   3.647  69.644  1.00  0.00    -0.045 A  
HETATM   18  N   UNL     1      -9.449   3.342  68.394  1.00  0.00    -0.170 NA 
HETATM   19  F   UNL     1      -6.329   3.114  70.223  1.00  0.00    -0.024 F  
HETATM   20  C   UNL     1      -7.580   5.020  69.631  1.00  0.00    -0.057 A  
HETATM   21  C   UNL     1      -8.351   2.851  69.020  1.00  0.00    -0.060 A  
ENDBRANCH  12  15
BRANCH  14  22
HETATM   22  C   UNL     1      -6.729   7.031  67.437  1.00  0.00    -0.067 C  
HETATM   23  C   UNL     1      -5.765   8.632  65.934  1.00  0.00    -0.046 C  
HETATM   24  C   UNL     1      -5.579   8.029  67.315  1.00  0.00    -0.037 C  
HETATM   25  N   UNL     1      -6.892   6.576  66.056  1.00  0.00    -0.055 N  
HETATM   26  O   UNL     1      -6.317   7.469  63.920  1.00  0.00    -0.051 OA 
HETATM   27  C   UNL     1      -6.349   7.493  65.142  1.00  0.00    -0.038 C  
BRANCH  25  28
HETATM   28  C   UNL     1      -7.302   5.277  65.668  1.00  0.00    -0.076 A  
HETATM   29  N   UNL     1      -6.514   4.232  66.010  1.00  0.00    -0.039 NA 
HETATM   30  C   UNL     1      -6.885   2.968  65.720  1.00  0.00    -0.048 A  
HETATM   31  C   UNL     1      -8.058   2.661  65.073  1.00  0.00    -0.083 A  
HETATM   32  C   UNL     1      -8.876   3.724  64.710  1.00  0.00    -0.121 A  
HETATM   33  C   UNL     1      -8.502   5.044  65.010  1.00  0.00    -0.146 A  
HETATM   34  C   UNL     1     -10.110   3.468  64.031  1.00  0.00    -0.207 C  
HETATM   35  N   UNL     1     -11.111   3.274  63.478  1.00  0.00    -0.264 NA 
ENDBRANCH  25  28
ENDBRANCH  14  22
ENDBRANCH   1  12
BRANCH   1  36
HETATM   36  C   UNL     1      -9.681   7.489  71.212  1.00  0.00    -0.173 A  
HETATM   37  C   UNL     1     -10.459   6.460  73.331  1.00  0.00    -0.283 A  
HETATM   38  C   UNL     1      -9.565   7.215  74.063  1.00  0.00    -0.311 A  
HETATM   39 CL   UNL     1      -7.274   8.793  71.228  1.00  0.00    -0.091 Cl 
HETATM   40  C   UNL     1      -8.657   8.018  73.377  1.00  0.00    -0.308 A  
HETATM   41  C   UNL     1     -10.535   6.613  71.946  1.00  0.00    -0.224 A  
HETATM   42  C   UNL     1      -8.664   8.091  71.961  1.00  0.00    -0.147 A  
ENDBRANCH   1  36
TORSDOF 7
ENDMDL
MODEL      109
REMARK 921   NORMALIZED FREE ENERGY PREDICTED BY IDOCK:   -4.38 KCAL/MOL
REMARK 922        TOTAL FREE ENERGY PREDICTED BY IDOCK:   -7.63 KCAL/MOL
REMARK 923 INTER-LIGAND FREE ENERGY PREDICTED BY IDOCK:   -6.05 KCAL/MOL
REMARK 924 INTRA-LIGAND FREE ENERGY PREDICTED BY IDOCK:   -1.58 KCAL/MOL
REMARK 927      BINDING AFFINITY PREDICTED BY RF-SCORE:    0.00 PKD
ROOT
HETATM    1  C   UNL     1      -9.027  10.702  68.002  1.00  0.00    -0.140 C  
ENDROOT
BRANCH   1   2
HETATM    2  C   UNL     1     -10.127  11.718  68.590  1.00  0.00    -0.189 C  
HETATM    3  H   UNL     1     -11.382  10.277  69.353  1.00  0.00     0.000 HD 
HETATM    4  N   UNL     1     -11.256  11.286  69.271  1.00  0.00    -0.251 N  
HETATM    5  O   UNL     1     -10.022  12.920  68.352  1.00  0.00    -0.227 OA 
BRANCH   4   6
HETATM    6  C   UNL     1     -12.326  12.161  69.906  1.00  0.00    -0.060 C  
HETATM    7  C   UNL     1     -13.136  13.321  71.511  1.00  0.00    -0.328 C  
HETATM    8  F   UNL     1     -12.983  13.759  72.778  1.00  0.00    -0.475 F  
HETATM    9  C   UNL     1     -12.958  11.792  71.277  1.00  0.00    -0.353 C  
HETATM   10  F   UNL     1     -14.300  13.843  71.059  1.00  0.00    -0.095 F  
HETATM   11  C   UNL     1     -11.917  13.504  70.564  1.00  0.00    -0.344 C  
ENDBRANCH   4   6
ENDBRANCH   1   2
BRANCH   1  12
HETATM   12  N   UNL     1      -8.919   9.434  68.825  1.00  0.00    -0.131 N  
HETATM   13  O   UNL     1      -7.601  10.398  70.454  1.00  0.00    -0.180 OA 
HETATM   14  C   UNL     1      -8.203   9.404  70.040  1.00  0.00    -0.162 C  
BRANCH  12  15
HETATM   15  C   UNL     1      -9.597   8.298  68.324  1.00  0.00    -0.147 A  
HETATM   16  C   UNL     1     -10.782   7.837  68.898  1.00  0.00    -0.085 A  
HETATM   17  C   UNL     1      -9.873   6.625  66.632  1.00  0.00    -0.149 A  
HETATM   18  N   UNL     1     -11.522   6.829  68.379  1.00  0.00     0.063 NA 
HETATM   19  F   UNL     1      -9.459   6.030  65.509  1.00  0.00    -0.083 F  
HETATM   20  C   UNL     1      -9.144   7.673  67.167  1.00  0.00    -0.146 A  
HETATM   21  C   UNL     1     -11.043   6.239  67.256  1.00  0.00    -0.296 A  
ENDBRANCH  12  15
BRANCH  14  22
HETATM   22  C   UNL     1      -8.253   8.090  70.903  1.00  0.00    -0.103 C  
HETATM   23  C   UNL     1      -6.503   8.287  72.532  1.00  0.00    -0.088 C  
HETATM   24  C   UNL     1      -8.004   8.451  72.367  1.00  0.00    -0.164 C  
HETATM   25  N   UNL     1      -7.228   7.077  70.655  1.00  0.00    -0.067 N  
HETATM   26  O   UNL     1      -5.148   6.513  71.679  1.00  0.00    -0.024 OA 
HETATM   27  C   UNL     1      -6.178   7.166  71.582  1.00  0.00    -0.037 C  
BRANCH  25  28
HETATM   28  C   UNL     1      -7.365   5.977  69.774  1.00  0.00    -0.079 A  
HETATM   29  N   UNL     1      -8.376   5.106  69.994  1.00  0.00    -0.088 NA 
HETATM   30  C   UNL     1      -8.591   4.076  69.151  1.00  0.00    -0.079 A  
HETATM   31  C   UNL     1      -7.818   3.842  68.039  1.00  0.00    -0.073 A  
HETATM   32  C   UNL     1      -6.771   4.725  67.802  1.00  0.00    -0.051 A  
HETATM   33  C   UNL     1      -6.540   5.804  68.670  1.00  0.00    -0.048 A  
HETATM   34  C   UNL     1      -5.929   4.533  66.660  1.00  0.00    -0.027 C  
HETATM   35  N   UNL     1      -5.237   4.387  65.740  1.00  0.00    -0.009 NA 
ENDBRANCH  25  28
ENDBRANCH  14  22
ENDBRANCH   1  12
BRANCH   1  36
HETATM   36  C   UNL     1      -8.750  10.402  66.505  1.00  0.00    -0.143 A  
HETATM   37  C   UNL     1      -9.785  10.267  64.254  1.00  0.00    -0.373 A  
HETATM   38  C   UNL     1      -8.630   9.736  63.719  1.00  0.00    -0.208 A  
HETATM   39 CL   UNL     1      -6.022  10.243  66.672  1.00  0.00    -0.059 Cl 
HETATM   40  C   UNL     1      -7.504   9.640  64.534  1.00  0.00    -0.128 A  
HETATM   41  C   UNL     1      -9.854  10.565  65.615  1.00  0.00    -0.311 A  
HETATM   42  C   UNL     1      -7.543  10.045  65.892  1.00  0.00    -0.114 A  
ENDBRANCH   1  36
TORSDOF 7
ENDMDL
MODEL      110
REMARK 921   NORMALIZED FREE ENERGY PREDICTED BY IDOCK:   -4.24 KCAL/MOL
REMARK 922        TOTAL FREE ENERGY PREDICTED BY IDOCK:   -7.43 KCAL/MOL
REMARK 923 INTER-LIGAND FREE ENERGY PREDICTED BY IDOCK:   -6.30 KCAL/MOL
REMARK 924 INTRA-LIGAND FREE ENERGY PREDICTED BY IDOCK:   -1.13 KCAL/MOL
REMARK 927      BINDING AFFINITY PREDICTED BY RF-SCORE:    0.00 PKD
ROOT
HETATM    1  C   UNL     1      -7.473   7.250  67.959  1.00  0.00    -0.102 C  
ENDROOT
BRANCH   1   2
HETATM    2  C   UNL     1      -6.644   6.116  67.175  1.00  0.00    -0.055 C  
HETATM    3  H   UNL     1      -8.217   5.432  66.037  1.00  0.00     0.000 HD 
HETATM    4  N   UNL     1      -7.220   5.303  66.208  1.00  0.00    -0.072 N  
HETATM    5  O   UNL     1      -5.481   5.887  67.502  1.00  0.00    -0.005 OA 
BRANCH   4   6
HETATM    6  C   UNL     1      -6.517   4.241  65.377  1.00  0.00    -0.039 C  
HETATM    7  C   UNL     1      -6.323   2.982  63.658  1.00  0.00    -0.019 C  
HETATM    8  F   UNL     1      -6.859   2.580  62.486  1.00  0.00    -0.023 F  
HETATM    9  C   UNL     1      -7.268   2.968  64.896  1.00  0.00    -0.066 C  
HETATM   10  F   UNL     1      -5.164   2.301  63.808  1.00  0.00    -0.006 F  
HETATM   11  C   UNL     1      -6.223   4.518  63.881  1.00  0.00    -0.022 C  
ENDBRANCH   4   6
ENDBRANCH   1   2
BRANCH   1  12
HETATM   12  N   UNL     1      -7.417   8.591  67.256  1.00  0.00    -0.092 N  
HETATM   13  O   UNL     1      -7.862   9.807  69.165  1.00  0.00    -0.083 OA 
HETATM   14  C   UNL     1      -7.602   9.800  67.960  1.00  0.00    -0.082 C  
BRANCH  12  15
HETATM   15  C   UNL     1      -7.138   8.564  65.869  1.00  0.00    -0.076 A  
HETATM   16  C   UNL     1      -5.834   8.472  65.382  1.00  0.00    -0.044 A  
HETATM   17  C   UNL     1      -7.899   8.395  63.604  1.00  0.00    -0.152 A  
HETATM   18  N   UNL     1      -5.535   8.325  64.070  1.00  0.00    -0.055 NA 
HETATM   19  F   UNL     1      -8.896   8.333  62.715  1.00  0.00    -0.089 F  
HETATM   20  C   UNL     1      -8.184   8.522  64.953  1.00  0.00    -0.166 A  
HETATM   21  C   UNL     1      -6.580   8.297  63.207  1.00  0.00    -0.085 A  
ENDBRANCH  12  15
BRANCH  14  22
HETATM   22  C   UNL     1      -7.392  11.153  67.186  1.00  0.00    -0.121 C  
HETATM   23  C   UNL     1      -6.077  12.554  68.622  1.00  0.00    -0.066 C  
HETATM   24  C   UNL     1      -5.961  11.638  67.416  1.00  0.00    -0.096 C  
HETATM   25  N   UNL     1      -8.182  12.308  67.614  1.00  0.00    -0.154 N  
HETATM   26  O   UNL     1      -7.777  14.181  69.034  1.00  0.00    -0.114 OA 
HETATM   27  C   UNL     1      -7.450  13.148  68.467  1.00  0.00    -0.117 C  
BRANCH  25  28
HETATM   28  C   UNL     1      -9.427  12.694  67.059  1.00  0.00    -0.220 A  
HETATM   29  N   UNL     1     -10.522  11.970  67.384  1.00  0.00    -0.213 NA 
HETATM   30  C   UNL     1     -11.741  12.328  66.934  1.00  0.00    -0.334 A  
HETATM   31  C   UNL     1     -11.953  13.425  66.133  1.00  0.00    -0.460 A  
HETATM   32  C   UNL     1     -10.837  14.177  65.786  1.00  0.00    -0.297 A  
HETATM   33  C   UNL     1      -9.562  13.816  66.252  1.00  0.00    -0.265 A  
HETATM   34  C   UNL     1     -10.992  15.330  64.952  1.00  0.00    -0.430 C  
HETATM   35  N   UNL     1     -11.105  16.266  64.275  1.00  0.00    -0.750 NA 
ENDBRANCH  25  28
ENDBRANCH  14  22
ENDBRANCH   1  12
BRANCH   1  36
HETATM   36  C   UNL     1      -8.836   7.071  68.678  1.00  0.00    -0.128 A  
HETATM   37  C   UNL     1     -11.215   6.445  68.353  1.00  0.00    -0.297 A  
HETATM   38  C   UNL     1     -11.525   6.824  69.643  1.00  0.00    -0.286 A  
HETATM   39 CL   UNL     1      -7.931   7.383  71.242  1.00  0.00    -0.095 Cl 
HETATM   40  C   UNL     1     -10.487   7.219  70.486  1.00  0.00    -0.229 A  
HETATM   41  C   UNL     1      -9.913   6.590  67.873  1.00  0.00    -0.148 A  
HETATM   42  C   UNL     1      -9.146   7.264  70.029  1.00  0.00    -0.148 A  
ENDBRANCH   1  36
TORSDOF 7
ENDMDL
MODEL      111
REMARK 921   NORMALIZED FREE ENERGY PREDICTED BY IDOCK:   -4.05 KCAL/MOL
REMARK 922        TOTAL FREE ENERGY PREDICTED BY IDOCK:   -7.16 KCAL/MOL
REMARK 923 INTER-LIGAND FREE ENERGY PREDICTED BY IDOCK:   -6.36 KCAL/MOL
REMARK 924 INTRA-LIGAND FREE ENERGY PREDICTED BY IDOCK:   -0.80 KCAL/MOL
REMARK 927      BINDING AFFINITY PREDICTED BY RF-SCORE:    0.00 PKD
ROOT
HETATM    1  C   UNL     1      -9.140  11.276  67.784  1.00  0.00    -0.152 C  
ENDROOT
BRANCH   1   2
HETATM    2  C   UNL     1      -8.623  10.614  66.412  1.00  0.00    -0.149 C  
HETATM    3  H   UNL     1      -9.108   8.674  66.899  1.00  0.00     0.000 HD 
HETATM    4  N   UNL     1      -8.721   9.253  66.154  1.00  0.00    -0.143 N  
HETATM    5  O   UNL     1      -8.032  11.315  65.592  1.00  0.00     0.035 OA 
BRANCH   4   6
HETATM    6  C   UNL     1      -8.311   8.538  64.876  1.00  0.00    -0.160 C  
HETATM    7  C   UNL     1      -7.251   7.030  63.790  1.00  0.00    -0.067 C  
HETATM    8  F   UNL     1      -6.388   5.994  63.846  1.00  0.00    -0.027 F  
HETATM    9  C   UNL     1      -6.813   8.339  64.510  1.00  0.00    -0.068 C  
HETATM   10  F   UNL     1      -7.601   7.174  62.491  1.00  0.00    -0.078 F  
HETATM   11  C   UNL     1      -8.437   6.995  64.795  1.00  0.00     0.108 C  
ENDBRANCH   4   6
ENDBRANCH   1   2
BRANCH   1  12
HETATM   12  N   UNL     1      -9.823  12.609  67.556  1.00  0.00    -0.200 N  
HETATM   13  O   UNL     1     -11.249  11.797  65.935  1.00  0.00    -0.324 OA 
HETATM   14  C   UNL     1     -10.877  12.747  66.628  1.00  0.00    -0.264 C  
BRANCH  12  15
HETATM   15  C   UNL     1      -9.369  13.693  68.344  1.00  0.00    -0.181 A  
HETATM   16  C   UNL     1     -10.256  14.581  68.954  1.00  0.00    -0.229 A  
HETATM   17  C   UNL     1      -7.591  14.838  69.469  1.00  0.00    -0.092 A  
HETATM   18  N   UNL     1      -9.867  15.557  69.809  1.00  0.00    -0.287 NA 
HETATM   19  F   UNL     1      -6.291  14.970  69.754  1.00  0.00    -0.111 F  
HETATM   20  C   UNL     1      -8.012  13.832  68.616  1.00  0.00    -0.095 A  
HETATM   21  C   UNL     1      -8.536  15.666  70.041  1.00  0.00     0.464 A  
ENDBRANCH  12  15
BRANCH  14  22
HETATM   22  C   UNL     1     -11.625  14.128  66.549  1.00  0.00    -0.375 C  
HETATM   23  C   UNL     1     -13.064  14.006  64.634  1.00  0.00     0.392 C  
HETATM   24  C   UNL     1     -13.078  13.880  66.148  1.00  0.00     0.295 C  
HETATM   25  N   UNL     1     -11.181  15.082  65.533  1.00  0.00    -0.350 N  
HETATM   26  O   UNL     1     -11.921  15.657  63.339  1.00  0.00     0.090 OA 
HETATM   27  C   UNL     1     -11.993  15.034  64.389  1.00  0.00    -0.353 C  
BRANCH  25  28
HETATM   28  C   UNL     1     -10.230  16.110  65.741  1.00  0.00    -0.374 A  
HETATM   29  N   UNL     1     -10.657  17.393  65.698  1.00  0.00    -0.546 NA 
HETATM   30  C   UNL     1      -9.807  18.409  65.948  1.00  0.00    -0.009 A  
HETATM   31  C   UNL     1      -8.481  18.220  66.255  1.00  0.00    -0.216 A  
HETATM   32  C   UNL     1      -8.025  16.908  66.298  1.00  0.00    -0.350 A  
HETATM   33  C   UNL     1      -8.902  15.841  66.043  1.00  0.00    -0.260 A  
HETATM   34  C   UNL     1      -6.652  16.645  66.610  1.00  0.00    -0.122 C  
HETATM   35  N   UNL     1      -5.542  16.420  66.859  1.00  0.00    -0.350 NA 
ENDBRANCH  25  28
ENDBRANCH  14  22
ENDBRANCH   1  12
BRANCH   1  36
HETATM   36  C   UNL     1      -9.784  10.534  68.985  1.00  0.00    -0.221 A  
HETATM   37  C   UNL     1     -11.936   9.974  70.085  1.00  0.00    -0.204 A  
HETATM   38  C   UNL     1     -11.278   9.434  71.171  1.00  0.00    -0.427 A  
HETATM   39 CL   UNL     1      -7.519   9.292  69.892  1.00  0.00    -0.075 Cl 
HETATM   40  C   UNL     1      -9.888   9.338  71.124  1.00  0.00    -0.342 A  
HETATM   41  C   UNL     1     -11.210  10.535  69.034  1.00  0.00    -0.316 A  
HETATM   42  C   UNL     1      -9.156   9.810  70.005  1.00  0.00    -0.223 A  
ENDBRANCH   1  36
TORSDOF 7
ENDMDL
MODEL      112
REMARK 921   NORMALIZED FREE ENERGY PREDICTED BY IDOCK:   -3.92 KCAL/MOL
REMARK 922        TOTAL FREE ENERGY PREDICTED BY IDOCK:   -6.98 KCAL/MOL
REMARK 923 INTER-LIGAND FREE ENERGY PREDICTED BY IDOCK:   -5.32 KCAL/MOL
REMARK 924 INTRA-LIGAND FREE ENERGY PREDICTED BY IDOCK:   -1.66 KCAL/MOL
REMARK 927      BINDING AFFINITY PREDICTED BY RF-SCORE:    0.00 PKD
ROOT
HETATM    1  C   UNL     1      -7.908   9.910  67.168  1.00  0.00    -0.099 C  
ENDROOT
BRANCH   1   2
HETATM    2  C   UNL     1      -8.959  11.129  67.172  1.00  0.00    -0.145 C  
HETATM    3  H   UNL     1      -7.697  12.514  68.024  1.00  0.00     0.000 HD 
HETATM    4  N   UNL     1      -8.634  12.394  67.641  1.00  0.00    -0.161 N  
HETATM    5  O   UNL     1     -10.124  10.919  66.838  1.00  0.00    -0.198 OA 
BRANCH   4   6
HETATM    6  C   UNL     1      -9.533  13.621  67.642  1.00  0.00    -0.221 C  
HETATM    7  C   UNL     1     -10.419  15.336  68.566  1.00  0.00    -0.235 C  
HETATM    8  F   UNL     1     -10.548  16.075  69.688  1.00  0.00    -0.225 F  
HETATM    9  C   UNL     1     -10.646  13.803  68.712  1.00  0.00    -0.253 C  
HETATM   10  F   UNL     1     -11.166  15.943  67.614  1.00  0.00    -0.329 F  
HETATM   11  C   UNL     1      -8.967  14.977  68.139  1.00  0.00    -0.173 C  
ENDBRANCH   4   6
ENDBRANCH   1   2
BRANCH   1  12
HETATM   12  N   UNL     1      -8.311   8.803  68.122  1.00  0.00    -0.121 N  
HETATM   13  O   UNL     1      -7.567   9.914  70.001  1.00  0.00    -0.142 OA 
HETATM   14  C   UNL     1      -8.115   8.923  69.514  1.00  0.00    -0.101 C  
BRANCH  12  15
HETATM   15  C   UNL     1      -8.919   7.663  67.543  1.00  0.00    -0.126 A  
HETATM   16  C   UNL     1     -10.282   7.626  67.250  1.00  0.00    -0.272 A  
HETATM   17  C   UNL     1      -8.728   5.517  66.499  1.00  0.00    -0.119 A  
HETATM   18  N   UNL     1     -10.878   6.604  66.592  1.00  0.00    -0.213 NA 
HETATM   19  F   UNL     1      -7.983   4.480  66.100  1.00  0.00    -0.095 F  
HETATM   20  C   UNL     1      -8.135   6.582  67.153  1.00  0.00    -0.113 A  
HETATM   21  C   UNL     1     -10.083   5.565  66.236  1.00  0.00    -0.145 A  
ENDBRANCH  12  15
BRANCH  14  22
HETATM   22  C   UNL     1      -8.684   7.792  70.447  1.00  0.00    -0.139 C  
HETATM   23  C   UNL     1      -8.191   8.463  72.696  1.00  0.00    -0.190 C  
HETATM   24  C   UNL     1      -9.318   8.439  71.677  1.00  0.00    -0.280 C  
HETATM   25  N   UNL     1      -7.727   6.861  71.045  1.00  0.00    -0.094 N  
HETATM   26  O   UNL     1      -6.634   6.711  73.160  1.00  0.00    -0.067 OA 
HETATM   27  C   UNL     1      -7.403   7.226  72.361  1.00  0.00    -0.075 C  
BRANCH  25  28
HETATM   28  C   UNL     1      -7.356   5.610  70.496  1.00  0.00    -0.079 A  
HETATM   29  N   UNL     1      -6.037   5.340  70.358  1.00  0.00    -0.021 NA 
HETATM   30  C   UNL     1      -5.626   4.141  69.898  1.00  0.00    -0.016 A  
HETATM   31  C   UNL     1      -6.493   3.135  69.543  1.00  0.00    -0.033 A  
HETATM   32  C   UNL     1      -7.851   3.399  69.674  1.00  0.00    -0.053 A  
HETATM   33  C   UNL     1      -8.292   4.642  70.156  1.00  0.00    -0.078 A  
HETATM   34  C   UNL     1      -8.804   2.391  69.318  1.00  0.00    -0.094 C  
HETATM   35  N   UNL     1      -9.587   1.584  69.031  1.00  0.00    -0.108 NA 
ENDBRANCH  25  28
ENDBRANCH  14  22
ENDBRANCH   1  12
BRANCH   1  36
HETATM   36  C   UNL     1      -7.176   9.322  65.933  1.00  0.00    -0.091 A  
HETATM   37  C   UNL     1      -7.096   9.320  63.454  1.00  0.00    -0.090 A  
HETATM   38  C   UNL     1      -6.173   8.294  63.452  1.00  0.00    -0.073 A  
HETATM   39 CL   UNL     1      -5.142   8.082  67.282  1.00  0.00    -0.027 Cl 
HETATM   40  C   UNL     1      -5.666   7.856  64.674  1.00  0.00    -0.044 A  
HETATM   41  C   UNL     1      -7.605   9.803  64.660  1.00  0.00    -0.134 A  
HETATM   42  C   UNL     1      -6.105   8.422  65.897  1.00  0.00    -0.048 A  
ENDBRANCH   1  36
TORSDOF 7
ENDMDL
MODEL      113
REMARK 921   NORMALIZED FREE ENERGY PREDICTED BY IDOCK:   -3.92 KCAL/MOL
REMARK 922        TOTAL FREE ENERGY PREDICTED BY IDOCK:   -6.98 KCAL/MOL
REMARK 923 INTER-LIGAND FREE ENERGY PREDICTED BY IDOCK:   -7.13 KCAL/MOL
REMARK 924 INTRA-LIGAND FREE ENERGY PREDICTED BY IDOCK:    0.15 KCAL/MOL
REMARK 927      BINDING AFFINITY PREDICTED BY RF-SCORE:    0.00 PKD
ROOT
HETATM    1  C   UNL     1      -9.330  10.800  68.320  1.00  0.00    -0.161 C  
ENDROOT
BRANCH   1   2
HETATM    2  C   UNL     1     -10.540  10.932  67.267  1.00  0.00    -0.251 C  
HETATM    3  H   UNL     1      -9.503  12.028  65.868  1.00  0.00     0.000 HD 
HETATM    4  N   UNL     1     -10.406  11.591  66.053  1.00  0.00    -0.238 N  
HETATM    5  O   UNL     1     -11.656  10.520  67.580  1.00  0.00    -0.421 OA 
BRANCH   4   6
HETATM    6  C   UNL     1     -11.466  11.729  64.972  1.00  0.00    -0.188 C  
HETATM    7  C   UNL     1     -12.532  12.823  63.473  1.00  0.00    -0.379 C  
HETATM    8  F   UNL     1     -12.702  14.005  62.844  1.00  0.00    -0.084 F  
HETATM    9  C   UNL     1     -12.534  12.858  65.030  1.00  0.00    -0.553 C  
HETATM   10  F   UNL     1     -13.407  11.957  62.913  1.00  0.00    -0.334 F  
HETATM   11  C   UNL     1     -11.070  12.306  63.588  1.00  0.00    -0.537 C  
ENDBRANCH   4   6
ENDBRANCH   1   2
BRANCH   1  12
HETATM   12  N   UNL     1      -9.095   9.365  68.746  1.00  0.00    -0.131 N  
HETATM   13  O   UNL     1     -10.350   9.548  70.673  1.00  0.00    -0.263 OA 
HETATM   14  C   UNL     1      -9.671   8.842  69.923  1.00  0.00    -0.178 C  
BRANCH  12  15
HETATM   15  C   UNL     1      -8.296   8.575  67.885  1.00  0.00    -0.126 A  
HETATM   16  C   UNL     1      -7.616   7.446  68.344  1.00  0.00    -0.114 A  
HETATM   17  C   UNL     1      -7.554   8.014  65.679  1.00  0.00    -0.084 A  
HETATM   18  N   UNL     1      -6.940   6.600  67.532  1.00  0.00    -0.079 NA 
HETATM   19  F   UNL     1      -7.528   8.260  64.364  1.00  0.00    -0.083 F  
HETATM   20  C   UNL     1      -8.259   8.854  66.523  1.00  0.00    -0.114 A  
HETATM   21  C   UNL     1      -6.919   6.910  66.212  1.00  0.00    -0.069 A  
ENDBRANCH  12  15
BRANCH  14  22
HETATM   22  C   UNL     1      -9.493   7.308  70.224  1.00  0.00    -0.165 C  
HETATM   23  C   UNL     1     -11.698   6.428  70.567  1.00  0.00    -0.385 C  
HETATM   24  C   UNL     1     -10.605   6.534  69.517  1.00  0.00    -0.293 C  
HETATM   25  N   UNL     1      -9.641   6.868  71.611  1.00  0.00    -0.161 N  
HETATM   26  O   UNL     1     -11.421   5.919  72.885  1.00  0.00    -0.256 OA 
HETATM   27  C   UNL     1     -10.925   6.355  71.856  1.00  0.00    -0.253 C  
BRANCH  25  28
HETATM   28  C   UNL     1      -8.581   6.722  72.538  1.00  0.00    -0.122 A  
HETATM   29  N   UNL     1      -8.438   7.665  73.496  1.00  0.00    -0.164 NA 
HETATM   30  C   UNL     1      -7.483   7.546  74.441  1.00  0.00    -0.132 A  
HETATM   31  C   UNL     1      -6.610   6.486  74.496  1.00  0.00    -0.081 A  
HETATM   32  C   UNL     1      -6.741   5.511  73.514  1.00  0.00    -0.078 A  
HETATM   33  C   UNL     1      -7.734   5.622  72.528  1.00  0.00    -0.102 A  
HETATM   34  C   UNL     1      -5.859   4.382  73.516  1.00  0.00    -0.009 C  
HETATM   35  N   UNL     1      -5.149   3.465  73.506  1.00  0.00     0.000 NA 
ENDBRANCH  25  28
ENDBRANCH  14  22
ENDBRANCH   1  12
BRANCH   1  36
HETATM   36  C   UNL     1      -7.993  11.585  68.298  1.00  0.00    -0.142 A  
HETATM   37  C   UNL     1      -6.783  13.469  67.230  1.00  0.00     0.136 A  
HETATM   38  C   UNL     1      -5.610  13.121  67.867  1.00  0.00    -0.126 A  
HETATM   39 CL   UNL     1      -6.852  10.409  70.491  1.00  0.00    -0.078 Cl 
HETATM   40  C   UNL     1      -5.645  12.085  68.800  1.00  0.00    -0.049 A  
HETATM   41  C   UNL     1      -7.936  12.706  67.417  1.00  0.00    -0.177 A  
HETATM   42  C   UNL     1      -6.844  11.379  69.070  1.00  0.00    -0.102 A  
ENDBRANCH   1  36
TORSDOF 7
ENDMDL
MODEL      114
REMARK 921   NORMALIZED FREE ENERGY PREDICTED BY IDOCK:   -3.90 KCAL/MOL
REMARK 922        TOTAL FREE ENERGY PREDICTED BY IDOCK:   -6.95 KCAL/MOL
REMARK 923 INTER-LIGAND FREE ENERGY PREDICTED BY IDOCK:   -7.00 KCAL/MOL
REMARK 924 INTRA-LIGAND FREE ENERGY PREDICTED BY IDOCK:    0.06 KCAL/MOL
REMARK 927      BINDING AFFINITY PREDICTED BY RF-SCORE:    0.00 PKD
ROOT
HETATM    1  C   UNL     1      -9.037   8.338  67.579  1.00  0.00    -0.137 C  
ENDROOT
BRANCH   1   2
HETATM    2  C   UNL     1     -10.417   8.624  68.357  1.00  0.00    -0.176 C  
HETATM    3  H   UNL     1      -9.938   7.577  70.062  1.00  0.00     0.000 HD 
HETATM    4  N   UNL     1     -10.664   8.153  69.639  1.00  0.00    -0.222 N  
HETATM    5  O   UNL     1     -11.331   9.199  67.768  1.00  0.00     0.230 OA 
BRANCH   4   6
HETATM    6  C   UNL     1     -11.908   8.407  70.476  1.00  0.00    -0.001 C  
HETATM    7  C   UNL     1     -13.098   9.571  71.820  1.00  0.00    -0.418 C  
HETATM    8  F   UNL     1     -13.189  10.691  72.568  1.00  0.00    -0.447 F  
HETATM    9  C   UNL     1     -11.806   8.721  71.996  1.00  0.00    -0.442 C  
HETATM   10  F   UNL     1     -14.260   8.897  71.988  1.00  0.00    -0.412 F  
HETATM   11  C   UNL     1     -12.650   9.761  70.344  1.00  0.00     0.015 C  
ENDBRANCH   4   6
ENDBRANCH   1   2
BRANCH   1  12
HETATM   12  N   UNL     1      -8.493   9.580  66.903  1.00  0.00    -0.127 N  
HETATM   13  O   UNL     1      -8.580  10.870  68.813  1.00  0.00    -0.152 OA 
HETATM   14  C   UNL     1      -8.284  10.777  67.619  1.00  0.00    -0.115 C  
BRANCH  12  15
HETATM   15  C   UNL     1      -8.179   9.462  65.528  1.00  0.00    -0.126 A  
HETATM   16  C   UNL     1      -8.560  10.433  64.601  1.00  0.00    -0.185 A  
HETATM   17  C   UNL     1      -6.998   8.364  63.757  1.00  0.00    -0.080 A  
HETATM   18  N   UNL     1      -8.179  10.416  63.302  1.00  0.00    -0.161 NA 
HETATM   19  F   UNL     1      -6.214   7.372  63.324  1.00  0.00    -0.049 F  
HETATM   20  C   UNL     1      -7.380   8.412  65.087  1.00  0.00    -0.081 A  
HETATM   21  C   UNL     1      -7.408   9.373  62.908  1.00  0.00    -0.101 A  
ENDBRANCH  12  15
BRANCH  14  22
HETATM   22  C   UNL     1      -7.588  11.978  66.879  1.00  0.00    -0.060 C  
HETATM   23  C   UNL     1      -6.234  13.086  68.519  1.00  0.00    -0.078 C  
HETATM   24  C   UNL     1      -6.147  12.094  67.372  1.00  0.00    -0.143 C  
HETATM   25  N   UNL     1      -8.110  13.322  67.128  1.00  0.00    -0.135 N  
HETATM   26  O   UNL     1      -7.490  15.118  68.570  1.00  0.00    -0.113 OA 
HETATM   27  C   UNL     1      -7.350  14.001  68.092  1.00  0.00    -0.128 C  
BRANCH  25  28
HETATM   28  C   UNL     1      -9.086  13.976  66.338  1.00  0.00    -0.093 A  
HETATM   29  N   UNL     1      -9.914  13.214  65.587  1.00  0.00    -0.260 NA 
HETATM   30  C   UNL     1     -10.901  13.779  64.863  1.00  0.00    -0.391 A  
HETATM   31  C   UNL     1     -11.129  15.135  64.836  1.00  0.00    -0.425 A  
HETATM   32  C   UNL     1     -10.284  15.932  65.598  1.00  0.00    -0.406 A  
HETATM   33  C   UNL     1      -9.255  15.354  66.359  1.00  0.00    -0.339 A  
HETATM   34  C   UNL     1     -10.470  17.352  65.610  1.00  0.00    -0.165 C  
HETATM   35  N   UNL     1     -10.609  18.503  65.625  1.00  0.00    -0.589 NA 
ENDBRANCH  25  28
ENDBRANCH  14  22
ENDBRANCH   1  12
BRANCH   1  36
HETATM   36  C   UNL     1      -7.876   7.427  68.058  1.00  0.00    -0.118 A  
HETATM   37  C   UNL     1      -5.540   7.417  68.894  1.00  0.00    -0.022 A  
HETATM   38  C   UNL     1      -5.482   6.041  68.811  1.00  0.00    -0.007 A  
HETATM   39 CL   UNL     1      -9.277   5.077  68.139  1.00  0.00    -0.132 Cl 
HETATM   40  C   UNL     1      -6.641   5.348  68.464  1.00  0.00    -0.045 A  
HETATM   41  C   UNL     1      -6.695   8.095  68.502  1.00  0.00    -0.063 A  
HETATM   42  C   UNL     1      -7.846   6.033  68.169  1.00  0.00    -0.106 A  
ENDBRANCH   1  36
TORSDOF 7
ENDMDL
MODEL      115
REMARK 921   NORMALIZED FREE ENERGY PREDICTED BY IDOCK:   -3.89 KCAL/MOL
REMARK 922        TOTAL FREE ENERGY PREDICTED BY IDOCK:   -6.94 KCAL/MOL
REMARK 923 INTER-LIGAND FREE ENERGY PREDICTED BY IDOCK:   -8.90 KCAL/MOL
REMARK 924 INTRA-LIGAND FREE ENERGY PREDICTED BY IDOCK:    1.96 KCAL/MOL
REMARK 927      BINDING AFFINITY PREDICTED BY RF-SCORE:    0.00 PKD
ROOT
HETATM    1  C   UNL     1     -10.450  11.694  68.863  1.00  0.00    -0.175 C  
ENDROOT
BRANCH   1   2
HETATM    2  C   UNL     1     -11.574  12.373  69.793  1.00  0.00    -0.232 C  
HETATM    3  H   UNL     1     -10.446  13.996  70.365  1.00  0.00     0.000 HD 
HETATM    4  N   UNL     1     -11.368  13.572  70.460  1.00  0.00     0.257 N  
HETATM    5  O   UNL     1     -12.625  11.768  70.004  1.00  0.00    -0.088 OA 
BRANCH   4   6
HETATM    6  C   UNL     1     -12.377  14.319  71.319  1.00  0.00    -0.363 C  
HETATM    7  C   UNL     1     -13.047  15.186  73.157  1.00  0.00    -0.516 C  
HETATM    8  F   UNL     1     -12.787  15.406  74.463  1.00  0.00    -0.558 F  
HETATM    9  C   UNL     1     -12.898  13.720  72.656  1.00  0.00    -0.311 C  
HETATM   10  F   UNL     1     -14.240  15.768  72.896  1.00  0.00    -0.628 F  
HETATM   11  C   UNL     1     -11.907  15.536  72.158  1.00  0.00    -0.551 C  
ENDBRANCH   4   6
ENDBRANCH   1   2
BRANCH   1  12
HETATM   12  N   UNL     1      -9.725  10.567  69.570  1.00  0.00    -0.170 N  
HETATM   13  O   UNL     1      -7.662  11.112  68.694  1.00  0.00    -0.118 OA 
HETATM   14  C   UNL     1      -8.332  10.387  69.432  1.00  0.00    -0.142 C  
BRANCH  12  15
HETATM   15  C   UNL     1     -10.512   9.730  70.396  1.00  0.00    -0.297 A  
HETATM   16  C   UNL     1     -10.013   9.185  71.580  1.00  0.00    -0.287 A  
HETATM   17  C   UNL     1     -12.637   8.782  70.962  1.00  0.00    -0.077 A  
HETATM   18  N   UNL     1     -10.768   8.479  72.454  1.00  0.00    -0.342 NA 
HETATM   19  F   UNL     1     -13.933   8.589  70.692  1.00  0.00     0.050 F  
HETATM   20  C   UNL     1     -11.853   9.520  70.093  1.00  0.00    -0.036 A  
HETATM   21  C   UNL     1     -12.067   8.288  72.119  1.00  0.00    -0.367 A  
ENDBRANCH  12  15
BRANCH  14  22
HETATM   22  C   UNL     1      -7.633   9.281  70.305  1.00  0.00    -0.123 C  
HETATM   23  C   UNL     1      -5.412   9.037  69.431  1.00  0.00    -0.035 C  
HETATM   24  C   UNL     1      -6.185   9.696  70.561  1.00  0.00    -0.078 C  
HETATM   25  N   UNL     1      -7.474   7.951  69.716  1.00  0.00    -0.086 N  
HETATM   26  O   UNL     1      -5.699   6.816  68.598  1.00  0.00    -0.016 OA 
HETATM   27  C   UNL     1      -6.189   7.772  69.182  1.00  0.00    -0.035 C  
BRANCH  25  28
HETATM   28  C   UNL     1      -8.382   6.877  69.874  1.00  0.00    -0.139 A  
HETATM   29  N   UNL     1      -9.321   6.690  68.918  1.00  0.00    -0.130 NA 
HETATM   30  C   UNL     1     -10.173   5.647  68.986  1.00  0.00    -0.222 A  
HETATM   31  C   UNL     1     -10.149   4.724  70.005  1.00  0.00    -0.308 A  
HETATM   32  C   UNL     1      -9.194   4.905  70.997  1.00  0.00    -0.192 A  
HETATM   33  C   UNL     1      -8.299   5.986  70.935  1.00  0.00    -0.126 A  
HETATM   34  C   UNL     1      -9.120   3.978  72.087  1.00  0.00    -0.119 C  
HETATM   35  N   UNL     1      -9.053   3.236  72.975  1.00  0.00    -0.090 NA 
ENDBRANCH  25  28
ENDBRANCH  14  22
ENDBRANCH   1  12
BRANCH   1  36
HETATM   36  C   UNL     1     -10.559  11.399  67.344  1.00  0.00    -0.257 A  
HETATM   37  C   UNL     1     -10.026   9.748  65.570  1.00  0.00    -0.329 A  
HETATM   38  C   UNL     1     -10.426  10.628  64.585  1.00  0.00    -0.275 A  
HETATM   39 CL   UNL     1     -12.181  13.506  66.689  1.00  0.00    -0.436 Cl 
HETATM   40  C   UNL     1     -10.993  11.842  64.971  1.00  0.00    -0.357 A  
HETATM   41  C   UNL     1     -10.065  10.132  66.911  1.00  0.00    -0.279 A  
HETATM   42  C   UNL     1     -11.132  12.187  66.339  1.00  0.00    -0.314 A  
ENDBRANCH   1  36
TORSDOF 7
ENDMDL
MODEL      116
REMARK 921   NORMALIZED FREE ENERGY PREDICTED BY IDOCK:   -3.89 KCAL/MOL
REMARK 922        TOTAL FREE ENERGY PREDICTED BY IDOCK:   -6.94 KCAL/MOL
REMARK 923 INTER-LIGAND FREE ENERGY PREDICTED BY IDOCK:   -9.13 KCAL/MOL
REMARK 924 INTRA-LIGAND FREE ENERGY PREDICTED BY IDOCK:    2.19 KCAL/MOL
REMARK 927      BINDING AFFINITY PREDICTED BY RF-SCORE:    0.00 PKD
ROOT
HETATM    1  C   UNL     1     -10.446  10.683  66.922  1.00  0.00    -0.249 C  
ENDROOT
BRANCH   1   2
HETATM    2  C   UNL     1      -9.908   9.578  67.961  1.00  0.00    -0.155 C  
HETATM    3  H   UNL     1      -8.636  10.830  68.985  1.00  0.00     0.000 HD 
HETATM    4  N   UNL     1      -8.990   9.875  68.959  1.00  0.00    -0.150 N  
HETATM    5  O   UNL     1     -10.244   8.404  67.817  1.00  0.00    -0.198 OA 
BRANCH   4   6
HETATM    6  C   UNL     1      -8.458   8.921  70.017  1.00  0.00    -0.139 C  
HETATM    7  C   UNL     1      -8.040   8.353  72.037  1.00  0.00    -0.141 C  
HETATM    8  F   UNL     1      -8.079   8.703  73.340  1.00  0.00    -0.218 F  
HETATM    9  C   UNL     1      -7.401   9.383  71.060  1.00  0.00    -0.050 C  
HETATM   10  F   UNL     1      -7.517   7.106  71.987  1.00  0.00    -0.081 F  
HETATM   11  C   UNL     1      -9.353   8.554  71.229  1.00  0.00    -0.261 C  
ENDBRANCH   4   6
ENDBRANCH   1   2
BRANCH   1  12
HETATM   12  N   UNL     1     -10.393  12.084  67.496  1.00  0.00    -0.199 N  
HETATM   13  O   UNL     1      -8.916  12.866  65.906  1.00  0.00     0.147 OA 
HETATM   14  C   UNL     1      -9.616  13.097  66.894  1.00  0.00    -0.248 C  
BRANCH  12  15
HETATM   15  C   UNL     1     -11.185  12.326  68.643  1.00  0.00    -0.259 A  
HETATM   16  C   UNL     1     -11.508  13.620  69.054  1.00  0.00    -0.301 A  
HETATM   17  C   UNL     1     -12.605  11.513  70.392  1.00  0.00    -0.157 A  
HETATM   18  N   UNL     1     -12.357  13.890  70.073  1.00  0.00    -0.333 NA 
HETATM   19  F   UNL     1     -13.173  10.497  71.049  1.00  0.00    -0.415 F  
HETATM   20  C   UNL     1     -11.752  11.259  69.332  1.00  0.00    -0.409 A  
HETATM   21  C   UNL     1     -12.883  12.824  70.725  1.00  0.00    -0.030 A  
ENDBRANCH  12  15
BRANCH  14  22
HETATM   22  C   UNL     1      -9.721  14.558  67.468  1.00  0.00    -0.211 C  
HETATM   23  C   UNL     1      -9.790  16.023  65.571  1.00  0.00    -0.224 C  
HETATM   24  C   UNL     1     -10.689  15.361  66.601  1.00  0.00    -0.309 C  
HETATM   25  N   UNL     1      -8.516  15.386  67.437  1.00  0.00    -0.169 N  
HETATM   26  O   UNL     1      -7.676  17.066  65.965  1.00  0.00    -0.373 OA 
HETATM   27  C   UNL     1      -8.512  16.252  66.332  1.00  0.00    -0.330 C  
BRANCH  25  28
HETATM   28  C   UNL     1      -7.584  15.510  68.496  1.00  0.00    -0.127 A  
HETATM   29  N   UNL     1      -7.090  14.378  69.046  1.00  0.00    -0.116 NA 
HETATM   30  C   UNL     1      -6.155  14.436  70.016  1.00  0.00    -0.151 A  
HETATM   31  C   UNL     1      -5.652  15.618  70.503  1.00  0.00    -0.119 A  
HETATM   32  C   UNL     1      -6.154  16.791  69.951  1.00  0.00    -0.194 A  
HETATM   33  C   UNL     1      -7.124  16.743  68.938  1.00  0.00    -0.215 A  
HETATM   34  C   UNL     1      -5.670  18.056  70.419  1.00  0.00    -0.161 C  
HETATM   35  N   UNL     1      -5.288  19.086  70.791  1.00  0.00    -0.233 NA 
ENDBRANCH  25  28
ENDBRANCH  14  22
ENDBRANCH   1  12
BRANCH   1  36
HETATM   36  C   UNL     1     -10.196  10.713  65.391  1.00  0.00    -0.341 A  
HETATM   37  C   UNL     1      -8.827   9.758  63.556  1.00  0.00    -0.260 A  
HETATM   38  C   UNL     1      -9.352  10.658  62.652  1.00  0.00    -0.332 A  
HETATM   39 CL   UNL     1     -12.338  12.277  64.711  1.00  0.00    -0.466 Cl 
HETATM   40  C   UNL     1     -10.372  11.507  63.077  1.00  0.00    -0.293 A  
HETATM   41  C   UNL     1      -9.216   9.802  64.895  1.00  0.00    -0.314 A  
HETATM   42  C   UNL     1     -10.843  11.477  64.413  1.00  0.00    -0.342 A  
ENDBRANCH   1  36
TORSDOF 7
ENDMDL
MODEL      117
REMARK 921   NORMALIZED FREE ENERGY PREDICTED BY IDOCK:   -3.87 KCAL/MOL
REMARK 922        TOTAL FREE ENERGY PREDICTED BY IDOCK:   -6.92 KCAL/MOL
REMARK 923 INTER-LIGAND FREE ENERGY PREDICTED BY IDOCK:   -6.61 KCAL/MOL
REMARK 924 INTRA-LIGAND FREE ENERGY PREDICTED BY IDOCK:   -0.30 KCAL/MOL
REMARK 927      BINDING AFFINITY PREDICTED BY RF-SCORE:    0.00 PKD
ROOT
HETATM    1  C   UNL     1      -8.248   8.863  66.152  1.00  0.00    -0.116 C  
ENDROOT
BRANCH   1   2
HETATM    2  C   UNL     1      -8.831  10.024  65.202  1.00  0.00    -0.180 C  
HETATM    3  H   UNL     1     -10.814   9.511  65.407  1.00  0.00     0.000 HD 
HETATM    4  N   UNL     1     -10.190  10.190  64.971  1.00  0.00    -0.247 N  
HETATM    5  O   UNL     1      -8.048  10.738  64.577  1.00  0.00    -0.030 OA 
BRANCH   4   6
HETATM    6  C   UNL     1     -10.843  11.279  64.136  1.00  0.00    -0.337 C  
HETATM    7  C   UNL     1     -11.644  13.243  63.849  1.00  0.00    -0.400 C  
HETATM    8  F   UNL     1     -11.936  14.436  64.408  1.00  0.00    -0.404 F  
HETATM    9  C   UNL     1     -12.150  11.979  64.604  1.00  0.00    -0.313 C  
HETATM   10  F   UNL     1     -12.008  13.324  62.549  1.00  0.00    -0.044 F  
HETATM   11  C   UNL     1     -10.211  12.694  64.102  1.00  0.00    -0.366 C  
ENDBRANCH   4   6
ENDBRANCH   1   2
BRANCH   1  12
HETATM   12  N   UNL     1      -8.295   9.244  67.618  1.00  0.00    -0.115 N  
HETATM   13  O   UNL     1      -6.554   7.852  68.213  1.00  0.00    -0.055 OA 
HETATM   14  C   UNL     1      -7.388   8.696  68.550  1.00  0.00    -0.085 C  
BRANCH  12  15
HETATM   15  C   UNL     1      -9.272  10.197  67.991  1.00  0.00    -0.138 A  
HETATM   16  C   UNL     1     -10.584   9.826  68.287  1.00  0.00    -0.229 A  
HETATM   17  C   UNL     1      -9.852  12.429  68.635  1.00  0.00    -0.077 A  
HETATM   18  N   UNL     1     -11.515  10.688  68.760  1.00  0.00    -0.272 NA 
HETATM   19  F   UNL     1      -9.511  13.706  68.835  1.00  0.00    -0.156 F  
HETATM   20  C   UNL     1      -8.909  11.527  68.174  1.00  0.00    -0.165 A  
HETATM   21  C   UNL     1     -11.126  11.977  68.918  1.00  0.00    -0.247 A  
ENDBRANCH  12  15
BRANCH  14  22
HETATM   22  C   UNL     1      -7.411   9.244  70.024  1.00  0.00    -0.083 C  
HETATM   23  C   UNL     1      -5.190   8.960  70.883  1.00  0.00    -0.028 C  
HETATM   24  C   UNL     1      -6.114  10.008  70.287  1.00  0.00    -0.082 C  
HETATM   25  N   UNL     1      -7.421   8.265  71.111  1.00  0.00    -0.069 N  
HETATM   26  O   UNL     1      -5.749   7.314  72.523  1.00  0.00    -0.037 OA 
HETATM   27  C   UNL     1      -6.134   8.062  71.635  1.00  0.00    -0.036 C  
BRANCH  25  28
HETATM   28  C   UNL     1      -8.582   7.766  71.747  1.00  0.00    -0.116 A  
HETATM   29  N   UNL     1      -9.418   8.652  72.336  1.00  0.00    -0.284 NA 
HETATM   30  C   UNL     1     -10.569   8.238  72.904  1.00  0.00    -0.147 A  
HETATM   31  C   UNL     1     -10.964   6.922  72.925  1.00  0.00    -0.315 A  
HETATM   32  C   UNL     1     -10.114   5.999  72.329  1.00  0.00    -0.205 A  
HETATM   33  C   UNL     1      -8.915   6.418  71.732  1.00  0.00    -0.139 A  
HETATM   34  C   UNL     1     -10.470   4.612  72.322  1.00  0.00    -0.170 C  
HETATM   35  N   UNL     1     -10.746   3.485  72.311  1.00  0.00     0.120 NA 
ENDBRANCH  25  28
ENDBRANCH  14  22
ENDBRANCH   1  12
BRANCH   1  36
HETATM   36  C   UNL     1      -8.458   7.335  65.981  1.00  0.00    -0.148 A  
HETATM   37  C   UNL     1      -7.442   5.251  65.098  1.00  0.00    -0.073 A  
HETATM   38  C   UNL     1      -8.603   4.544  65.339  1.00  0.00    -0.126 A  
HETATM   39 CL   UNL     1     -10.714   7.111  67.516  1.00  0.00    -0.341 Cl 
HETATM   40  C   UNL     1      -9.648   5.190  65.998  1.00  0.00    -0.176 A  
HETATM   41  C   UNL     1      -7.380   6.615  65.384  1.00  0.00    -0.076 A  
HETATM   42  C   UNL     1      -9.543   6.550  66.386  1.00  0.00    -0.104 A  
ENDBRANCH   1  36
TORSDOF 7
ENDMDL
MODEL      118
REMARK 921   NORMALIZED FREE ENERGY PREDICTED BY IDOCK:   -3.87 KCAL/MOL
REMARK 922        TOTAL FREE ENERGY PREDICTED BY IDOCK:   -6.91 KCAL/MOL
REMARK 923 INTER-LIGAND FREE ENERGY PREDICTED BY IDOCK:   -5.79 KCAL/MOL
REMARK 924 INTRA-LIGAND FREE ENERGY PREDICTED BY IDOCK:   -1.12 KCAL/MOL
REMARK 927      BINDING AFFINITY PREDICTED BY RF-SCORE:    0.00 PKD
ROOT
HETATM    1  C   UNL     1      -7.885   9.524  70.826  1.00  0.00    -0.055 C  
ENDROOT
BRANCH   1   2
HETATM    2  C   UNL     1      -7.103  10.573  69.890  1.00  0.00    -0.145 C  
HETATM    3  H   UNL     1      -8.303  12.192  70.311  1.00  0.00     0.000 HD 
HETATM    4  N   UNL     1      -7.476  11.906  69.787  1.00  0.00     0.565 N  
HETATM    5  O   UNL     1      -6.199  10.169  69.160  1.00  0.00    -0.040 OA 
BRANCH   4   6
HETATM    6  C   UNL     1      -6.778  12.985  68.974  1.00  0.00    -0.099 C  
HETATM    7  C   UNL     1      -6.755  14.612  67.584  1.00  0.00    -0.174 C  
HETATM    8  F   UNL     1      -7.471  15.401  66.755  1.00  0.00    -0.229 F  
HETATM    9  C   UNL     1      -6.959  13.076  67.432  1.00  0.00    -0.123 C  
HETATM   10  F   UNL     1      -5.471  15.034  67.507  1.00  0.00    -0.118 F  
HETATM   11  C   UNL     1      -7.310  14.441  69.026  1.00  0.00    -0.127 C  
ENDBRANCH   4   6
ENDBRANCH   1   2
BRANCH   1  12
HETATM   12  N   UNL     1      -8.939   8.748  70.063  1.00  0.00    -0.151 N  
HETATM   13  O   UNL     1      -7.617   6.876  69.798  1.00  0.00    -0.099 OA 
HETATM   14  C   UNL     1      -8.705   7.429  69.620  1.00  0.00    -0.137 C  
BRANCH  12  15
HETATM   15  C   UNL     1     -10.174   9.406  69.848  1.00  0.00    -0.222 A  
HETATM   16  C   UNL     1     -11.080   9.624  70.885  1.00  0.00    -0.352 A  
HETATM   17  C   UNL     1     -11.628  10.674  68.430  1.00  0.00    -0.194 A  
HETATM   18  N   UNL     1     -12.215  10.350  70.746  1.00  0.00    -0.328 NA 
HETATM   19  F   UNL     1     -11.908  11.218  67.241  1.00  0.00    -0.310 F  
HETATM   20  C   UNL     1     -10.462   9.948  68.600  1.00  0.00    -0.231 A  
HETATM   21  C   UNL     1     -12.466  10.855  69.513  1.00  0.00    -0.057 A  
ENDBRANCH  12  15
BRANCH  14  22
HETATM   22  C   UNL     1      -9.895   6.643  68.956  1.00  0.00    -0.144 C  
HETATM   23  C   UNL     1     -10.453   4.866  70.466  1.00  0.00    -0.170 C  
HETATM   24  C   UNL     1     -10.897   6.255  70.042  1.00  0.00    -0.387 C  
HETATM   25  N   UNL     1      -9.593   5.352  68.337  1.00  0.00    -0.123 N  
HETATM   26  O   UNL     1      -9.760   3.079  69.039  1.00  0.00    -0.070 OA 
HETATM   27  C   UNL     1      -9.896   4.284  69.195  1.00  0.00    -0.093 C  
BRANCH  25  28
HETATM   28  C   UNL     1      -9.282   5.157  66.969  1.00  0.00    -0.117 A  
HETATM   29  N   UNL     1      -8.096   5.621  66.513  1.00  0.00    -0.105 NA 
HETATM   30  C   UNL     1      -7.722   5.410  65.235  1.00  0.00    -0.089 A  
HETATM   31  C   UNL     1      -8.498   4.728  64.329  1.00  0.00    -0.135 A  
HETATM   32  C   UNL     1      -9.722   4.250  64.781  1.00  0.00    -0.170 A  
HETATM   33  C   UNL     1     -10.121   4.460  66.111  1.00  0.00    -0.257 A  
HETATM   34  C   UNL     1     -10.577   3.533  63.883  1.00  0.00    -0.265 C  
HETATM   35  N   UNL     1     -11.279   2.953  63.165  1.00  0.00    -0.228 NA 
ENDBRANCH  25  28
ENDBRANCH  14  22
ENDBRANCH   1  12
BRANCH   1  36
HETATM   36  C   UNL     1      -7.269   8.645  71.947  1.00  0.00    -0.092 A  
HETATM   37  C   UNL     1      -5.139   7.884  72.965  1.00  0.00    -0.036 A  
HETATM   38  C   UNL     1      -5.808   6.985  73.771  1.00  0.00    -0.058 A  
HETATM   39 CL   UNL     1      -9.600   8.049  73.254  1.00  0.00    -0.344 Cl 
HETATM   40  C   UNL     1      -7.201   6.987  73.753  1.00  0.00    -0.084 A  
HETATM   41  C   UNL     1      -5.847   8.672  72.057  1.00  0.00    -0.058 A  
HETATM   42  C   UNL     1      -7.924   7.866  72.908  1.00  0.00    -0.136 A  
ENDBRANCH   1  36
TORSDOF 7
ENDMDL
MODEL      119
REMARK 921   NORMALIZED FREE ENERGY PREDICTED BY IDOCK:   -3.86 KCAL/MOL
REMARK 922        TOTAL FREE ENERGY PREDICTED BY IDOCK:   -6.90 KCAL/MOL
REMARK 923 INTER-LIGAND FREE ENERGY PREDICTED BY IDOCK:   -5.60 KCAL/MOL
REMARK 924 INTRA-LIGAND FREE ENERGY PREDICTED BY IDOCK:   -1.31 KCAL/MOL
REMARK 927      BINDING AFFINITY PREDICTED BY RF-SCORE:    0.00 PKD
ROOT
HETATM    1  C   UNL     1      -8.408   8.692  70.915  1.00  0.00    -0.157 C  
ENDROOT
BRANCH   1   2
HETATM    2  C   UNL     1      -8.507   9.726  69.687  1.00  0.00    -0.185 C  
HETATM    3  H   UNL     1      -9.749   8.574  68.519  1.00  0.00     0.000 HD 
HETATM    4  N   UNL     1      -9.271   9.474  68.556  1.00  0.00    -0.131 N  
HETATM    5  O   UNL     1      -7.808  10.738  69.696  1.00  0.00    -0.099 OA 
BRANCH   4   6
HETATM    6  C   UNL     1      -9.471  10.401  67.368  1.00  0.00    -0.149 C  
HETATM    7  C   UNL     1     -10.643  11.279  65.808  1.00  0.00    -0.248 C  
HETATM    8  F   UNL     1     -11.837  11.322  65.180  1.00  0.00    -0.059 F  
HETATM    9  C   UNL     1     -10.016   9.869  66.013  1.00  0.00    -0.338 C  
HETATM   10  F   UNL     1      -9.847  12.181  65.189  1.00  0.00    -0.256 F  
HETATM   11  C   UNL     1     -10.675  11.378  67.359  1.00  0.00    -0.274 C  
ENDBRANCH   4   6
ENDBRANCH   1   2
BRANCH   1  12
HETATM   12  N   UNL     1      -8.820   7.289  70.519  1.00  0.00    -0.152 N  
HETATM   13  O   UNL     1      -6.968   6.933  69.191  1.00  0.00    -0.072 OA 
HETATM   14  C   UNL     1      -8.015   6.495  69.674  1.00  0.00    -0.120 C  
BRANCH  12  15
HETATM   15  C   UNL     1     -10.036   6.811  71.064  1.00  0.00    -0.182 A  
HETATM   16  C   UNL     1     -10.066   6.037  72.225  1.00  0.00    -0.180 A  
HETATM   17  C   UNL     1     -12.430   6.806  71.106  1.00  0.00    -0.298 A  
HETATM   18  N   UNL     1     -11.211   5.661  72.842  1.00  0.00    -0.291 NA 
HETATM   19  F   UNL     1     -13.602   7.190  70.589  1.00  0.00    -0.259 F  
HETATM   20  C   UNL     1     -11.248   7.199  70.503  1.00  0.00    -0.321 A  
HETATM   21  C   UNL     1     -12.372   6.051  72.261  1.00  0.00     0.016 A  
ENDBRANCH  12  15
BRANCH  14  22
HETATM   22  C   UNL     1      -8.444   5.004  69.421  1.00  0.00    -0.085 C  
HETATM   23  C   UNL     1      -6.678   3.637  70.298  1.00  0.00    -0.033 C  
HETATM   24  C   UNL     1      -8.061   4.165  70.639  1.00  0.00    -0.059 C  
HETATM   25  N   UNL     1      -7.784   4.285  68.331  1.00  0.00    -0.070 N  
HETATM   26  O   UNL     1      -5.952   2.762  68.196  1.00  0.00    -0.023 OA 
HETATM   27  C   UNL     1      -6.735   3.481  68.802  1.00  0.00    -0.045 C  
BRANCH  25  28
HETATM   28  C   UNL     1      -8.272   4.188  67.005  1.00  0.00    -0.100 A  
HETATM   29  N   UNL     1      -9.209   3.249  66.738  1.00  0.00    -0.170 NA 
HETATM   30  C   UNL     1      -9.753   3.151  65.509  1.00  0.00     0.066 A  
HETATM   31  C   UNL     1      -9.404   3.976  64.466  1.00  0.00    -0.160 A  
HETATM   32  C   UNL     1      -8.439   4.942  64.723  1.00  0.00    -0.145 A  
HETATM   33  C   UNL     1      -7.868   5.056  66.000  1.00  0.00    -0.099 A  
HETATM   34  C   UNL     1      -8.031   5.830  63.676  1.00  0.00    -0.120 C  
HETATM   35  N   UNL     1      -7.690   6.554  62.836  1.00  0.00    -0.092 NA 
ENDBRANCH  25  28
ENDBRANCH  14  22
ENDBRANCH   1  12
BRANCH   1  36
HETATM   36  C   UNL     1      -7.300   8.645  72.000  1.00  0.00    -0.076 A  
HETATM   37  C   UNL     1      -6.799   7.986  74.339  1.00  0.00    -0.154 A  
HETATM   38  C   UNL     1      -5.555   8.581  74.275  1.00  0.00    -0.107 A  
HETATM   39 CL   UNL     1      -5.205   9.384  70.400  1.00  0.00    -0.027 Cl 
HETATM   40  C   UNL     1      -5.134   9.108  73.055  1.00  0.00    -0.076 A  
HETATM   41  C   UNL     1      -7.659   8.040  73.242  1.00  0.00    -0.193 A  
HETATM   42  C   UNL     1      -5.968   9.066  71.909  1.00  0.00    -0.073 A  
ENDBRANCH   1  36
TORSDOF 7
ENDMDL
MODEL      120
REMARK 921   NORMALIZED FREE ENERGY PREDICTED BY IDOCK:   -3.82 KCAL/MOL
REMARK 922        TOTAL FREE ENERGY PREDICTED BY IDOCK:   -6.85 KCAL/MOL
REMARK 923 INTER-LIGAND FREE ENERGY PREDICTED BY IDOCK:   -5.75 KCAL/MOL
REMARK 924 INTRA-LIGAND FREE ENERGY PREDICTED BY IDOCK:   -1.10 KCAL/MOL
REMARK 927      BINDING AFFINITY PREDICTED BY RF-SCORE:    0.00 PKD
ROOT
HETATM    1  C   UNL     1      -7.887   8.318  67.687  1.00  0.00    -0.106 C  
ENDROOT
BRANCH   1   2
HETATM    2  C   UNL     1      -7.465   7.323  66.495  1.00  0.00    -0.088 C  
HETATM    3  H   UNL     1      -9.340   6.534  66.184  1.00  0.00     0.000 HD 
HETATM    4  N   UNL     1      -8.378   6.505  65.845  1.00  0.00    -0.134 N  
HETATM    5  O   UNL     1      -6.276   7.205  66.204  1.00  0.00    -0.038 OA 
BRANCH   4   6
HETATM    6  C   UNL     1      -8.093   5.571  64.680  1.00  0.00    -0.127 C  
HETATM    7  C   UNL     1      -8.665   4.128  63.206  1.00  0.00    -0.112 C  
HETATM    8  F   UNL     1      -9.656   3.367  62.696  1.00  0.00    -0.093 F  
HETATM    9  C   UNL     1      -8.462   4.062  64.749  1.00  0.00    -0.107 C  
HETATM   10  F   UNL     1      -7.561   3.875  62.466  1.00  0.00    -0.051 F  
HETATM   11  C   UNL     1      -8.990   5.634  63.417  1.00  0.00     0.430 C  
ENDBRANCH   4   6
ENDBRANCH   1   2
BRANCH   1  12
HETATM   12  N   UNL     1      -7.972   9.760  67.228  1.00  0.00    -0.105 N  
HETATM   13  O   UNL     1      -7.050  10.612  69.164  1.00  0.00    -0.075 OA 
HETATM   14  C   UNL     1      -7.504  10.818  68.035  1.00  0.00    -0.090 C  
BRANCH  12  15
HETATM   15  C   UNL     1      -8.515   9.981  65.940  1.00  0.00    -0.133 A  
HETATM   16  C   UNL     1      -7.803   9.674  64.780  1.00  0.00    -0.128 A  
HETATM   17  C   UNL     1     -10.380  10.531  64.542  1.00  0.00    -0.205 A  
HETATM   18  N   UNL     1      -8.329   9.760  63.536  1.00  0.00    -0.154 NA 
HETATM   19  F   UNL     1     -11.649  10.928  64.401  1.00  0.00    -0.075 F  
HETATM   20  C   UNL     1      -9.830  10.415  65.807  1.00  0.00    -0.300 A  
HETATM   21  C   UNL     1      -9.610  10.195  63.446  1.00  0.00    -0.181 A  
ENDBRANCH  12  15
BRANCH  14  22
HETATM   22  C   UNL     1      -7.499  12.271  67.432  1.00  0.00    -0.160 C  
HETATM   23  C   UNL     1      -5.836  13.500  68.646  1.00  0.00    -0.085 C  
HETATM   24  C   UNL     1      -6.056  12.762  67.337  1.00  0.00    -0.123 C  
HETATM   25  N   UNL     1      -8.137  13.331  68.214  1.00  0.00    -0.151 N  
HETATM   26  O   UNL     1      -7.350  15.002  69.723  1.00  0.00    -0.198 OA 
HETATM   27  C   UNL     1      -7.195  14.068  68.949  1.00  0.00    -0.108 C  
BRANCH  25  28
HETATM   28  C   UNL     1      -9.481  13.752  68.073  1.00  0.00    -0.207 A  
HETATM   29  N   UNL     1      -9.927  14.056  66.833  1.00  0.00    -0.257 NA 
HETATM   30  C   UNL     1     -11.214  14.403  66.631  1.00  0.00    -0.339 A  
HETATM   31  C   UNL     1     -12.140  14.473  67.645  1.00  0.00    -0.266 A  
HETATM   32  C   UNL     1     -11.696  14.168  68.926  1.00  0.00    -0.369 A  
HETATM   33  C   UNL     1     -10.359  13.801  69.147  1.00  0.00     0.010 A  
HETATM   34  C   UNL     1     -12.613  14.225  70.025  1.00  0.00    -0.225 C  
HETATM   35  N   UNL     1     -13.346  14.270  70.923  1.00  0.00    -0.284 NA 
ENDBRANCH  25  28
ENDBRANCH  14  22
ENDBRANCH   1  12
BRANCH   1  36
HETATM   36  C   UNL     1      -8.934   8.041  68.799  1.00  0.00    -0.141 A  
HETATM   37  C   UNL     1     -11.084   8.802  69.773  1.00  0.00    -0.080 A  
HETATM   38  C   UNL     1     -10.953   7.926  70.831  1.00  0.00    -0.256 A  
HETATM   39 CL   UNL     1      -7.901   5.661  69.673  1.00  0.00    -0.090 Cl 
HETATM   40  C   UNL     1      -9.883   7.032  70.823  1.00  0.00    -0.190 A  
HETATM   41  C   UNL     1     -10.089   8.879  68.799  1.00  0.00    -0.215 A  
HETATM   42  C   UNL     1      -8.929   7.038  69.774  1.00  0.00    -0.141 A  
ENDBRANCH   1  36
TORSDOF 7
ENDMDL
MODEL      121
REMARK 921   NORMALIZED FREE ENERGY PREDICTED BY IDOCK:   -3.80 KCAL/MOL
REMARK 922        TOTAL FREE ENERGY PREDICTED BY IDOCK:   -6.81 KCAL/MOL
REMARK 923 INTER-LIGAND FREE ENERGY PREDICTED BY IDOCK:   -6.41 KCAL/MOL
REMARK 924 INTRA-LIGAND FREE ENERGY PREDICTED BY IDOCK:   -0.40 KCAL/MOL
REMARK 927      BINDING AFFINITY PREDICTED BY RF-SCORE:    0.00 PKD
ROOT
HETATM    1  C   UNL     1      -8.390  12.027  67.990  1.00  0.00    -0.162 C  
ENDROOT
BRANCH   1   2
HETATM    2  C   UNL     1      -9.423  12.269  66.781  1.00  0.00    -0.222 C  
HETATM    3  H   UNL     1     -10.437  10.490  66.989  1.00  0.00     0.000 HD 
HETATM    4  N   UNL     1     -10.413  11.355  66.448  1.00  0.00    -0.245 N  
HETATM    5  O   UNL     1      -9.281  13.253  66.056  1.00  0.00    -0.074 OA 
BRANCH   4   6
HETATM    6  C   UNL     1     -11.466  11.509  65.362  1.00  0.00    -0.009 C  
HETATM    7  C   UNL     1     -12.409  12.560  63.754  1.00  0.00    -0.502 C  
HETATM    8  F   UNL     1     -12.436  13.677  62.997  1.00  0.00    -0.530 F  
HETATM    9  C   UNL     1     -12.378  12.767  65.297  1.00  0.00    -0.546 C  
HETATM   10  F   UNL     1     -13.398  11.758  63.298  1.00  0.00    -0.526 F  
HETATM   11  C   UNL     1     -11.024  11.873  63.921  1.00  0.00    -0.473 C  
ENDBRANCH   4   6
ENDBRANCH   1   2
BRANCH   1  12
HETATM   12  N   UNL     1      -7.842  10.615  68.002  1.00  0.00    -0.103 N  
HETATM   13  O   UNL     1      -7.440  10.565  65.732  1.00  0.00    -0.143 OA 
HETATM   14  C   UNL     1      -7.376   9.995  66.824  1.00  0.00    -0.095 C  
BRANCH  12  15
HETATM   15  C   UNL     1      -7.796   9.967  69.260  1.00  0.00    -0.125 A  
HETATM   16  C   UNL     1      -6.589   9.703  69.907  1.00  0.00    -0.065 A  
HETATM   17  C   UNL     1      -8.917   9.132  71.204  1.00  0.00    -0.179 A  
HETATM   18  N   UNL     1      -6.508   9.194  71.159  1.00  0.00    -0.078 NA 
HETATM   19  F   UNL     1     -10.046   8.864  71.869  1.00  0.00    -0.333 F  
HETATM   20  C   UNL     1      -8.978   9.674  69.932  1.00  0.00    -0.243 A  
HETATM   21  C   UNL     1      -7.681   8.913  71.779  1.00  0.00     0.034 A  
ENDBRANCH  12  15
BRANCH  14  22
HETATM   22  C   UNL     1      -6.696   8.582  66.942  1.00  0.00    -0.062 C  
HETATM   23  C   UNL     1      -5.727   8.118  64.798  1.00  0.00    -0.044 C  
HETATM   24  C   UNL     1      -5.367   8.608  66.190  1.00  0.00    -0.034 C  
HETATM   25  N   UNL     1      -7.381   7.446  66.323  1.00  0.00    -0.081 N  
HETATM   26  O   UNL     1      -7.172   6.297  64.243  1.00  0.00    -0.057 OA 
HETATM   27  C   UNL     1      -6.849   7.150  65.058  1.00  0.00    -0.047 C  
BRANCH  25  28
HETATM   28  C   UNL     1      -8.284   6.579  66.985  1.00  0.00    -0.113 A  
HETATM   29  N   UNL     1      -8.147   5.247  66.791  1.00  0.00    -0.104 NA 
HETATM   30  C   UNL     1      -8.939   4.373  67.442  1.00  0.00    -0.117 A  
HETATM   31  C   UNL     1      -9.918   4.762  68.326  1.00  0.00    -0.157 A  
HETATM   32  C   UNL     1     -10.075   6.127  68.532  1.00  0.00    -0.193 A  
HETATM   33  C   UNL     1      -9.253   7.047  67.862  1.00  0.00    -0.125 A  
HETATM   34  C   UNL     1     -11.079   6.595  69.439  1.00  0.00    -0.310 C  
HETATM   35  N   UNL     1     -11.891   6.986  70.170  1.00  0.00    -0.198 NA 
ENDBRANCH  25  28
ENDBRANCH  14  22
ENDBRANCH   1  12
BRANCH   1  36
HETATM   36  C   UNL     1      -7.324  13.027  68.511  1.00  0.00    -0.115 A  
HETATM   37  C   UNL     1      -6.938  14.942  70.040  1.00  0.00    -0.095 A  
HETATM   38  C   UNL     1      -5.666  15.128  69.539  1.00  0.00    -0.102 A  
HETATM   39 CL   UNL     1      -5.140  11.861  67.341  1.00  0.00    -0.076 Cl 
HETATM   40  C   UNL     1      -5.177  14.209  68.613  1.00  0.00    -0.091 A  
HETATM   41  C   UNL     1      -7.756  13.938  69.522  1.00  0.00     0.433 A  
HETATM   42  C   UNL     1      -5.971  13.123  68.165  1.00  0.00    -0.104 A  
ENDBRANCH   1  36
TORSDOF 7
ENDMDL
MODEL      122
REMARK 921   NORMALIZED FREE ENERGY PREDICTED BY IDOCK:   -3.69 KCAL/MOL
REMARK 922        TOTAL FREE ENERGY PREDICTED BY IDOCK:   -6.65 KCAL/MOL
REMARK 923 INTER-LIGAND FREE ENERGY PREDICTED BY IDOCK:   -6.98 KCAL/MOL
REMARK 924 INTRA-LIGAND FREE ENERGY PREDICTED BY IDOCK:    0.33 KCAL/MOL
REMARK 927      BINDING AFFINITY PREDICTED BY RF-SCORE:    0.00 PKD
ROOT
HETATM    1  C   UNL     1     -10.260  14.634  67.705  1.00  0.00    -0.232 C  
ENDROOT
BRANCH   1   2
HETATM    2  C   UNL     1     -10.854  13.781  66.476  1.00  0.00    -0.287 C  
HETATM    3  H   UNL     1      -9.045  13.077  65.793  1.00  0.00     0.000 HD 
HETATM    4  N   UNL     1     -10.050  13.034  65.627  1.00  0.00    -0.280 N  
HETATM    5  O   UNL     1     -12.053  13.862  66.212  1.00  0.00    -0.405 OA 
BRANCH   4   6
HETATM    6  C   UNL     1     -10.513  12.158  64.473  1.00  0.00    -0.303 C  
HETATM    7  C   UNL     1     -10.235  10.612  63.020  1.00  0.00     0.060 C  
HETATM    8  F   UNL     1      -9.392   9.705  62.483  1.00  0.00    -0.271 F  
HETATM    9  C   UNL     1      -9.697  12.068  63.153  1.00  0.00    -0.068 C  
HETATM   10  F   UNL     1     -11.410  10.489  62.360  1.00  0.00     0.977 F  
HETATM   11  C   UNL     1     -10.344  10.620  64.571  1.00  0.00    -0.352 C  
ENDBRANCH   4   6
ENDBRANCH   1   2
BRANCH   1  12
HETATM   12  N   UNL     1      -8.973  14.045  68.243  1.00  0.00    -0.186 N  
HETATM   13  O   UNL     1      -9.897  11.976  68.675  1.00  0.00    -0.194 OA 
HETATM   14  C   UNL     1      -8.902  12.704  68.676  1.00  0.00     0.052 C  
BRANCH  12  15
HETATM   15  C   UNL     1      -7.846  14.900  68.258  1.00  0.00    -0.122 A  
HETATM   16  C   UNL     1      -7.160  15.233  67.090  1.00  0.00    -0.055 A  
HETATM   17  C   UNL     1      -6.418  16.428  69.425  1.00  0.00    -0.206 A  
HETATM   18  N   UNL     1      -6.154  16.138  67.046  1.00  0.00    -0.329 NA 
HETATM   19  F   UNL     1      -6.050  17.044  70.553  1.00  0.00    -0.150 F  
HETATM   20  C   UNL     1      -7.460  15.518  69.444  1.00  0.00    -0.219 A  
HETATM   21  C   UNL     1      -5.800  16.712  68.222  1.00  0.00    -0.118 A  
ENDBRANCH  12  15
BRANCH  14  22
HETATM   22  C   UNL     1      -7.499  12.127  69.092  1.00  0.00     0.121 C  
HETATM   23  C   UNL     1      -6.438  11.408  67.065  1.00  0.00    -0.120 C  
HETATM   24  C   UNL     1      -6.461  12.558  68.057  1.00  0.00    -0.087 C  
HETATM   25  N   UNL     1      -7.340  10.673  69.104  1.00  0.00    -0.099 N  
HETATM   26  O   UNL     1      -6.459   9.072  67.570  1.00  0.00    -0.062 OA 
HETATM   27  C   UNL     1      -6.732  10.210  67.927  1.00  0.00    -0.067 C  
BRANCH  25  28
HETATM   28  C   UNL     1      -7.524   9.842  70.235  1.00  0.00    -0.162 A  
HETATM   29  N   UNL     1      -6.439   9.527  70.979  1.00  0.00    -0.162 NA 
HETATM   30  C   UNL     1      -6.564   8.790  72.101  1.00  0.00    -0.031 A  
HETATM   31  C   UNL     1      -7.772   8.318  72.556  1.00  0.00    -0.167 A  
HETATM   32  C   UNL     1      -8.896   8.628  71.801  1.00  0.00    -0.281 A  
HETATM   33  C   UNL     1      -8.778   9.398  70.633  1.00  0.00    -0.263 A  
HETATM   34  C   UNL     1     -10.183   8.162  72.223  1.00  0.00    -0.278 C  
HETATM   35  N   UNL     1     -11.231   7.788  72.553  1.00  0.00    -0.335 NA 
ENDBRANCH  25  28
ENDBRANCH  14  22
ENDBRANCH   1  12
BRANCH   1  36
HETATM   36  C   UNL     1     -10.247  16.180  67.838  1.00  0.00    -0.261 A  
HETATM   37  C   UNL     1     -10.039  18.307  66.577  1.00  0.00    -0.396 A  
HETATM   38  C   UNL     1      -9.988  19.034  67.748  1.00  0.00    -0.426 A  
HETATM   39 CL   UNL     1     -10.985  16.318  70.470  1.00  0.00    -0.290 Cl 
HETATM   40  C   UNL     1     -10.177  18.362  68.955  1.00  0.00    -0.284 A  
HETATM   41  C   UNL     1     -10.137  16.915  66.619  1.00  0.00    -0.306 A  
HETATM   42  C   UNL     1     -10.385  16.961  68.991  1.00  0.00    -0.333 A  
ENDBRANCH   1  36
TORSDOF 7
ENDMDL
MODEL      123
REMARK 921   NORMALIZED FREE ENERGY PREDICTED BY IDOCK:   -3.68 KCAL/MOL
REMARK 922        TOTAL FREE ENERGY PREDICTED BY IDOCK:   -6.64 KCAL/MOL
REMARK 923 INTER-LIGAND FREE ENERGY PREDICTED BY IDOCK:   -6.56 KCAL/MOL
REMARK 924 INTRA-LIGAND FREE ENERGY PREDICTED BY IDOCK:   -0.08 KCAL/MOL
REMARK 927      BINDING AFFINITY PREDICTED BY RF-SCORE:    0.00 PKD
ROOT
HETATM    1  C   UNL     1     -11.447  13.961  68.426  1.00  0.00    -0.311 C  
ENDROOT
BRANCH   1   2
HETATM    2  C   UNL     1     -11.119  15.535  68.485  1.00  0.00    -0.307 C  
HETATM    3  H   UNL     1     -10.037  15.608  66.736  1.00  0.00     0.000 HD 
HETATM    4  N   UNL     1     -10.392  16.186  67.498  1.00  0.00    -0.280 N  
HETATM    5  O   UNL     1     -11.438  16.178  69.485  1.00  0.00    -0.326 OA 
BRANCH   4   6
HETATM    6  C   UNL     1     -10.072  17.671  67.434  1.00  0.00    -0.331 C  
HETATM    7  C   UNL     1      -9.967  19.638  68.270  1.00  0.00    -0.436 C  
HETATM    8  F   UNL     1     -10.212  20.426  69.338  1.00  0.00    -0.349 F  
HETATM    9  C   UNL     1     -11.144  18.742  67.782  1.00  0.00    -0.020 C  
HETATM   10  F   UNL     1      -9.412  20.430  67.323  1.00  0.00    -0.459 F  
HETATM   11  C   UNL     1      -9.207  18.311  68.551  1.00  0.00    -0.335 C  
ENDBRANCH   4   6
ENDBRANCH   1   2
BRANCH   1  12
HETATM   12  N   UNL     1     -10.367  13.177  67.709  1.00  0.00    -0.226 N  
HETATM   13  O   UNL     1     -11.710  12.628  65.916  1.00  0.00    -0.375 OA 
HETATM   14  C   UNL     1     -10.602  12.576  66.455  1.00  0.00    -0.247 C  
BRANCH  12  15
HETATM   15  C   UNL     1      -9.107  13.108  68.351  1.00  0.00    -0.134 A  
HETATM   16  C   UNL     1      -8.616  11.914  68.879  1.00  0.00     0.159 A  
HETATM   17  C   UNL     1      -7.010  14.117  68.916  1.00  0.00    -0.109 A  
HETATM   18  N   UNL     1      -7.371  11.781  69.395  1.00  0.00     0.056 NA 
HETATM   19  F   UNL     1      -6.196  15.177  68.926  1.00  0.00    -0.090 F  
HETATM   20  C   UNL     1      -8.278  14.225  68.374  1.00  0.00    -0.144 A  
HETATM   21  C   UNL     1      -6.596  12.894  69.407  1.00  0.00    -0.062 A  
ENDBRANCH  12  15
BRANCH  14  22
HETATM   22  C   UNL     1      -9.391  11.898  65.714  1.00  0.00    -0.155 C  
HETATM   23  C   UNL     1     -10.016  11.745  63.403  1.00  0.00    -0.446 C  
HETATM   24  C   UNL     1      -9.191  12.584  64.364  1.00  0.00     0.783 C  
HETATM   25  N   UNL     1      -9.533  10.493  65.329  1.00  0.00    -0.210 N  
HETATM   26  O   UNL     1     -10.141   9.360  63.320  1.00  0.00     1.539 OA 
HETATM   27  C   UNL     1      -9.910  10.361  63.984  1.00  0.00    -0.289 C  
BRANCH  25  28
HETATM   28  C   UNL     1      -9.106   9.389  66.106  1.00  0.00    -0.171 A  
HETATM   29  N   UNL     1      -7.791   9.293  66.409  1.00  0.00    -0.103 NA 
HETATM   30  C   UNL     1      -7.338   8.296  67.196  1.00  0.00    -0.088 A  
HETATM   31  C   UNL     1      -8.158   7.331  67.730  1.00  0.00    -0.115 A  
HETATM   32  C   UNL     1      -9.510   7.412  67.423  1.00  0.00    -0.170 A  
HETATM   33  C   UNL     1      -9.994   8.448  66.608  1.00  0.00    -0.354 A  
HETATM   34  C   UNL     1     -10.415   6.433  67.947  1.00  0.00    -0.222 C  
HETATM   35  N   UNL     1     -11.157   5.645  68.365  1.00  0.00     0.032 NA 
ENDBRANCH  25  28
ENDBRANCH  14  22
ENDBRANCH   1  12
BRANCH   1  36
HETATM   36  C   UNL     1     -12.083  13.105  69.552  1.00  0.00    -0.296 A  
HETATM   37  C   UNL     1     -13.252  13.202  71.738  1.00  0.00    -0.494 A  
HETATM   38  C   UNL     1     -13.167  11.832  71.881  1.00  0.00    -0.468 A  
HETATM   39 CL   UNL     1     -11.941  10.684  68.282  1.00  0.00    -0.013 Cl 
HETATM   40  C   UNL     1     -12.649  11.086  70.824  1.00  0.00    -0.463 A  
HETATM   41  C   UNL     1     -12.700  13.825  70.618  1.00  0.00    -0.330 A  
HETATM   42  C   UNL     1     -12.187  11.712  69.640  1.00  0.00    -0.206 A  
ENDBRANCH   1  36
TORSDOF 7
ENDMDL
MODEL      124
REMARK 921   NORMALIZED FREE ENERGY PREDICTED BY IDOCK:   -3.67 KCAL/MOL
REMARK 922        TOTAL FREE ENERGY PREDICTED BY IDOCK:   -6.63 KCAL/MOL
REMARK 923 INTER-LIGAND FREE ENERGY PREDICTED BY IDOCK:   -7.49 KCAL/MOL
REMARK 924 INTRA-LIGAND FREE ENERGY PREDICTED BY IDOCK:    0.86 KCAL/MOL
REMARK 927      BINDING AFFINITY PREDICTED BY RF-SCORE:    0.00 PKD
ROOT
HETATM    1  C   UNL     1      -8.737  12.149  68.208  1.00  0.00    -0.178 C  
ENDROOT
BRANCH   1   2
HETATM    2  C   UNL     1      -9.918  12.571  67.199  1.00  0.00    -0.216 C  
HETATM    3  H   UNL     1      -8.703  12.985  65.589  1.00  0.00     0.000 HD 
HETATM    4  N   UNL     1      -9.679  12.950  65.885  1.00  0.00    -0.227 N  
HETATM    5  O   UNL     1     -11.069  12.657  67.623  1.00  0.00    -0.241 OA 
BRANCH   4   6
HETATM    6  C   UNL     1     -10.721  13.317  64.841  1.00  0.00    -0.351 C  
HETATM    7  C   UNL     1     -12.346  12.864  63.525  1.00  0.00    -0.434 C  
HETATM    8  F   UNL     1     -13.172  11.915  63.034  1.00  0.00    -0.524 F  
HETATM    9  C   UNL     1     -10.823  12.543  63.496  1.00  0.00    -0.443 C  
HETATM   10  F   UNL     1     -12.702  14.029  62.937  1.00  0.00    -0.084 F  
HETATM   11  C   UNL     1     -12.202  12.920  65.072  1.00  0.00    -0.515 C  
ENDBRANCH   4   6
ENDBRANCH   1   2
BRANCH   1  12
HETATM   12  N   UNL     1      -8.398  10.675  68.109  1.00  0.00    -0.117 N  
HETATM   13  O   UNL     1      -9.932  10.037  69.709  1.00  0.00    -0.225 OA 
HETATM   14  C   UNL     1      -9.073   9.711  68.887  1.00  0.00    -0.144 C  
BRANCH  12  15
HETATM   15  C   UNL     1      -7.395  10.321  67.176  1.00  0.00    -0.091 A  
HETATM   16  C   UNL     1      -6.177   9.772  67.580  1.00  0.00    -0.059 A  
HETATM   17  C   UNL     1      -6.698   9.972  64.912  1.00  0.00    -0.126 A  
HETATM   18  N   UNL     1      -5.242   9.312  66.716  1.00  0.00    -0.038 NA 
HETATM   19  F   UNL     1      -6.940  10.040  63.598  1.00  0.00    -0.114 F  
HETATM   20  C   UNL     1      -7.651  10.416  65.812  1.00  0.00    -0.147 A  
HETATM   21  C   UNL     1      -5.524   9.430  65.395  1.00  0.00    -0.044 A  
ENDBRANCH  12  15
BRANCH  14  22
HETATM   22  C   UNL     1      -8.760   8.191  68.627  1.00  0.00    -0.134 C  
HETATM   23  C   UNL     1     -10.525   7.370  67.226  1.00  0.00    -0.385 C  
HETATM   24  C   UNL     1      -9.088   7.861  67.172  1.00  0.00    -0.158 C  
HETATM   25  N   UNL     1      -9.554   7.202  69.356  1.00  0.00    -0.153 N  
HETATM   26  O   UNL     1     -11.480   5.892  68.842  1.00  0.00    -0.095 OA 
HETATM   27  C   UNL     1     -10.606   6.704  68.572  1.00  0.00    -0.233 C  
BRANCH  25  28
HETATM   28  C   UNL     1      -9.188   6.612  70.590  1.00  0.00    -0.159 A  
HETATM   29  N   UNL     1      -8.121   7.121  71.249  1.00  0.00    -0.106 NA 
HETATM   30  C   UNL     1      -7.764   6.639  72.456  1.00  0.00    -0.098 A  
HETATM   31  C   UNL     1      -8.439   5.621  73.087  1.00  0.00    -0.117 A  
HETATM   32  C   UNL     1      -9.534   5.084  72.421  1.00  0.00    -0.166 A  
HETATM   33  C   UNL     1      -9.918   5.581  71.165  1.00  0.00    -0.253 A  
HETATM   34  C   UNL     1     -10.277   4.019  73.025  1.00  0.00    -0.159 C  
HETATM   35  N   UNL     1     -10.886   3.155  73.504  1.00  0.00    -0.204 NA 
ENDBRANCH  25  28
ENDBRANCH  14  22
ENDBRANCH   1  12
BRANCH   1  36
HETATM   36  C   UNL     1      -7.469  12.976  68.548  1.00  0.00    -0.123 A  
HETATM   37  C   UNL     1      -6.351  15.167  68.229  1.00  0.00    -0.120 A  
HETATM   38  C   UNL     1      -5.197  14.702  68.826  1.00  0.00    -0.089 A  
HETATM   39 CL   UNL     1      -6.381  11.232  70.355  1.00  0.00    -0.089 Cl 
HETATM   40  C   UNL     1      -5.207  13.424  69.382  1.00  0.00    -0.079 A  
HETATM   41  C   UNL     1      -7.448  14.320  68.068  1.00  0.00    -0.144 A  
HETATM   42  C   UNL     1      -6.360  12.601  69.313  1.00  0.00    -0.109 A  
ENDBRANCH   1  36
TORSDOF 7
ENDMDL
MODEL      125
REMARK 921   NORMALIZED FREE ENERGY PREDICTED BY IDOCK:   -3.55 KCAL/MOL
REMARK 922        TOTAL FREE ENERGY PREDICTED BY IDOCK:   -6.46 KCAL/MOL
REMARK 923 INTER-LIGAND FREE ENERGY PREDICTED BY IDOCK:   -5.81 KCAL/MOL
REMARK 924 INTRA-LIGAND FREE ENERGY PREDICTED BY IDOCK:   -0.65 KCAL/MOL
REMARK 927      BINDING AFFINITY PREDICTED BY RF-SCORE:    0.00 PKD
ROOT
HETATM    1  C   UNL     1      -8.671   9.518  69.607  1.00  0.00    -0.182 C  
ENDROOT
BRANCH   1   2
HETATM    2  C   UNL     1      -9.203  10.110  68.208  1.00  0.00    -0.130 C  
HETATM    3  H   UNL     1      -9.587  12.011  68.897  1.00  0.00     0.000 HD 
HETATM    4  N   UNL     1      -9.607  11.429  68.060  1.00  0.00    -0.177 N  
HETATM    5  O   UNL     1      -9.352   9.350  67.252  1.00  0.00    -0.129 OA 
BRANCH   4   6
HETATM    6  C   UNL     1     -10.077  12.098  66.777  1.00  0.00    -0.200 C  
HETATM    7  C   UNL     1     -11.333  13.428  65.668  1.00  0.00    -0.298 C  
HETATM    8  F   UNL     1     -12.367  14.296  65.700  1.00  0.00    -0.385 F  
HETATM    9  C   UNL     1     -11.567  12.042  66.339  1.00  0.00    -0.381 C  
HETATM   10  F   UNL     1     -10.904  13.383  64.386  1.00  0.00    -0.342 F  
HETATM   11  C   UNL     1     -10.220  13.641  66.732  1.00  0.00    -0.268 C  
ENDBRANCH   4   6
ENDBRANCH   1   2
BRANCH   1  12
HETATM   12  N   UNL     1      -8.877   8.020  69.711  1.00  0.00    -0.143 N  
HETATM   13  O   UNL     1      -7.090   7.504  68.347  1.00  0.00    -0.076 OA 
HETATM   14  C   UNL     1      -8.016   7.111  69.062  1.00  0.00    -0.120 C  
BRANCH  12  15
HETATM   15  C   UNL     1      -9.957   7.587  70.517  1.00  0.00    -0.184 A  
HETATM   16  C   UNL     1     -11.124   7.060  69.962  1.00  0.00    -0.278 A  
HETATM   17  C   UNL     1     -10.854   7.063  72.675  1.00  0.00    -0.270 A  
HETATM   18  N   UNL     1     -12.127   6.528  70.699  1.00  0.00    -0.309 NA 
HETATM   19  F   UNL     1     -10.736   7.033  74.006  1.00  0.00    -0.397 F  
HETATM   20  C   UNL     1      -9.830   7.582  71.903  1.00  0.00    -0.196 A  
HETATM   21  C   UNL     1     -11.971   6.548  72.045  1.00  0.00    -0.326 A  
ENDBRANCH  12  15
BRANCH  14  22
HETATM   22  C   UNL     1      -8.213   5.574  69.330  1.00  0.00    -0.098 C  
HETATM   23  C   UNL     1      -6.221   4.822  70.433  1.00  0.00    -0.022 C  
HETATM   24  C   UNL     1      -7.654   5.239  70.712  1.00  0.00    -0.083 C  
HETATM   25  N   UNL     1      -7.492   4.638  68.469  1.00  0.00    -0.065 N  
HETATM   26  O   UNL     1      -5.449   3.420  68.659  1.00  0.00    -0.012 OA 
HETATM   27  C   UNL     1      -6.311   4.182  69.075  1.00  0.00    -0.032 C  
BRANCH  25  28
HETATM   28  C   UNL     1      -8.011   4.049  67.290  1.00  0.00    -0.092 A  
HETATM   29  N   UNL     1      -9.166   3.350  67.382  1.00  0.00    -0.181 NA 
HETATM   30  C   UNL     1      -9.738   2.820  66.282  1.00  0.00     0.356 A  
HETATM   31  C   UNL     1      -9.202   2.947  65.023  1.00  0.00    -0.148 A  
HETATM   32  C   UNL     1      -8.013   3.657  64.913  1.00  0.00    -0.090 A  
HETATM   33  C   UNL     1      -7.410   4.217  66.050  1.00  0.00    -0.080 A  
HETATM   34  C   UNL     1      -7.404   3.822  63.627  1.00  0.00    -0.051 C  
HETATM   35  N   UNL     1      -6.900   3.960  62.591  1.00  0.00    -0.034 NA 
ENDBRANCH  25  28
ENDBRANCH  14  22
ENDBRANCH   1  12
BRANCH   1  36
HETATM   36  C   UNL     1      -7.384   9.943  70.362  1.00  0.00    -0.139 A  
HETATM   37  C   UNL     1      -5.798   9.295  72.156  1.00  0.00    -0.014 A  
HETATM   38  C   UNL     1      -5.155  10.513  72.072  1.00  0.00     0.023 A  
HETATM   39 CL   UNL     1      -6.718  12.064  68.766  1.00  0.00    -0.080 Cl 
HETATM   40  C   UNL     1      -5.544  11.401  71.070  1.00  0.00    -0.015 A  
HETATM   41  C   UNL     1      -6.900   9.027  71.344  1.00  0.00    -0.073 A  
HETATM   42  C   UNL     1      -6.595  11.082  70.174  1.00  0.00    -0.088 A  
ENDBRANCH   1  36
TORSDOF 7
ENDMDL
MODEL      126
REMARK 921   NORMALIZED FREE ENERGY PREDICTED BY IDOCK:   -3.44 KCAL/MOL
REMARK 922        TOTAL FREE ENERGY PREDICTED BY IDOCK:   -6.31 KCAL/MOL
REMARK 923 INTER-LIGAND FREE ENERGY PREDICTED BY IDOCK:   -6.71 KCAL/MOL
REMARK 924 INTRA-LIGAND FREE ENERGY PREDICTED BY IDOCK:    0.40 KCAL/MOL
REMARK 927      BINDING AFFINITY PREDICTED BY RF-SCORE:    0.00 PKD
ROOT
HETATM    1  C   UNL     1     -10.239  12.484  68.052  1.00  0.00    -0.225 C  
ENDROOT
BRANCH   1   2
HETATM    2  C   UNL     1     -11.348  13.234  68.945  1.00  0.00    -0.288 C  
HETATM    3  H   UNL     1     -10.073  13.807  70.456  1.00  0.00     0.000 HD 
HETATM    4  N   UNL     1     -11.041  13.868  70.141  1.00  0.00     0.102 N  
HETATM    5  O   UNL     1     -12.531  13.169  68.613  1.00  0.00     0.021 OA 
BRANCH   4   6
HETATM    6  C   UNL     1     -12.000  14.644  71.031  1.00  0.00    -0.339 C  
HETATM    7  C   UNL     1     -12.695  15.351  72.927  1.00  0.00    -0.427 C  
HETATM    8  F   UNL     1     -12.523  15.349  74.265  1.00  0.00    -0.595 F  
HETATM    9  C   UNL     1     -12.721  13.960  72.227  1.00  0.00    -0.304 C  
HETATM   10  F   UNL     1     -13.762  16.144  72.674  1.00  0.00    -0.546 F  
HETATM   11  C   UNL     1     -11.433  15.645  72.068  1.00  0.00    -0.495 C  
ENDBRANCH   4   6
ENDBRANCH   1   2
BRANCH   1  12
HETATM   12  N   UNL     1      -9.524  11.393  68.823  1.00  0.00    -0.161 N  
HETATM   13  O   UNL     1      -7.415  12.116  68.231  1.00  0.00    -0.092 OA 
HETATM   14  C   UNL     1      -8.116  11.320  68.862  1.00  0.00    -0.090 C  
BRANCH  12  15
HETATM   15  C   UNL     1     -10.343  10.475  69.523  1.00  0.00    -0.221 A  
HETATM   16  C   UNL     1     -11.345   9.747  68.881  1.00  0.00     0.058 A  
HETATM   17  C   UNL     1     -10.834   9.229  71.508  1.00  0.00    -0.372 A  
HETATM   18  N   UNL     1     -12.069   8.777  69.488  1.00  0.00     1.164 NA 
HETATM   19  F   UNL     1     -10.587   8.942  72.790  1.00  0.00    -0.236 F  
HETATM   20  C   UNL     1     -10.090  10.201  70.863  1.00  0.00     0.503 A  
HETATM   21  C   UNL     1     -11.799   8.545  70.796  1.00  0.00    -0.163 A  
ENDBRANCH  12  15
BRANCH  14  22
HETATM   22  C   UNL     1      -7.449  10.244  69.794  1.00  0.00    -0.165 C  
HETATM   23  C   UNL     1      -5.138  10.141  69.160  1.00  0.00    -0.035 C  
HETATM   24  C   UNL     1      -6.063  10.737  70.207  1.00  0.00    -0.133 C  
HETATM   25  N   UNL     1      -7.151   8.934  69.213  1.00  0.00    -0.057 N  
HETATM   26  O   UNL     1      -5.204   7.920  68.280  1.00  0.00    -0.029 OA 
HETATM   27  C   UNL     1      -5.808   8.838  68.818  1.00  0.00    -0.041 C  
BRANCH  25  28
HETATM   28  C   UNL     1      -8.007   7.807  69.263  1.00  0.00    -0.125 A  
HETATM   29  N   UNL     1      -8.188   7.197  70.456  1.00  0.00    -0.123 NA 
HETATM   30  C   UNL     1      -9.038   6.157  70.574  1.00  0.00    -0.154 A  
HETATM   31  C   UNL     1      -9.761   5.655  69.518  1.00  0.00    -0.206 A  
HETATM   32  C   UNL     1      -9.581   6.268  68.284  1.00  0.00    -0.119 A  
HETATM   33  C   UNL     1      -8.702   7.354  68.150  1.00  0.00    -0.122 A  
HETATM   34  C   UNL     1     -10.304   5.789  67.145  1.00  0.00    -0.240 C  
HETATM   35  N   UNL     1     -10.883   5.408  66.214  1.00  0.00    -0.199 NA 
ENDBRANCH  25  28
ENDBRANCH  14  22
ENDBRANCH   1  12
BRANCH   1  36
HETATM   36  C   UNL     1     -10.362  12.099  66.554  1.00  0.00    -0.239 A  
HETATM   37  C   UNL     1     -11.715  12.416  64.499  1.00  0.00    -0.427 A  
HETATM   38  C   UNL     1     -10.989  11.450  63.833  1.00  0.00    -0.442 A  
HETATM   39 CL   UNL     1      -7.960  10.807  66.320  1.00  0.00    -0.156 Cl 
HETATM   40  C   UNL     1      -9.887  10.887  64.475  1.00  0.00    -0.356 A  
HETATM   41  C   UNL     1     -11.428  12.713  65.832  1.00  0.00    -0.407 A  
HETATM   42  C   UNL     1      -9.531  11.268  65.793  1.00  0.00    -0.227 A  
ENDBRANCH   1  36
TORSDOF 7
ENDMDL
MODEL      127
REMARK 921   NORMALIZED FREE ENERGY PREDICTED BY IDOCK:   -3.42 KCAL/MOL
REMARK 922        TOTAL FREE ENERGY PREDICTED BY IDOCK:   -6.28 KCAL/MOL
REMARK 923 INTER-LIGAND FREE ENERGY PREDICTED BY IDOCK:   -6.54 KCAL/MOL
REMARK 924 INTRA-LIGAND FREE ENERGY PREDICTED BY IDOCK:    0.26 KCAL/MOL
REMARK 927      BINDING AFFINITY PREDICTED BY RF-SCORE:    0.00 PKD
ROOT
HETATM    1  C   UNL     1      -9.489   6.527  67.273  1.00  0.00    -0.125 C  
ENDROOT
BRANCH   1   2
HETATM    2  C   UNL     1      -9.638   6.016  68.791  1.00  0.00    -0.129 C  
HETATM    3  H   UNL     1     -10.695   7.644  69.476  1.00  0.00     0.000 HD 
HETATM    4  N   UNL     1     -10.317   6.740  69.761  1.00  0.00    -0.194 N  
HETATM    5  O   UNL     1      -9.051   4.993  69.141  1.00  0.00    -0.095 OA 
BRANCH   4   6
HETATM    6  C   UNL     1     -10.557   6.325  71.204  1.00  0.00    -0.239 C  
HETATM    7  C   UNL     1     -11.398   5.062  72.712  1.00  0.00    -0.195 C  
HETATM    8  F   UNL     1     -12.183   3.998  72.986  1.00  0.00    -0.029 F  
HETATM    9  C   UNL     1     -11.996   6.140  71.761  1.00  0.00    -0.226 C  
HETATM   10  F   UNL     1     -10.946   5.526  73.900  1.00  0.00    -0.294 F  
HETATM   11  C   UNL     1     -10.308   4.854  71.623  1.00  0.00    -0.241 C  
ENDBRANCH   4   6
ENDBRANCH   1   2
BRANCH   1  12
HETATM   12  N   UNL     1      -9.186   8.010  67.193  1.00  0.00    -0.138 N  
HETATM   13  O   UNL     1     -11.405   8.637  67.129  1.00  0.00     0.557 OA 
HETATM   14  C   UNL     1     -10.218   8.971  67.150  1.00  0.00    -0.265 C  
BRANCH  12  15
HETATM   15  C   UNL     1      -7.819   8.375  67.196  1.00  0.00    -0.100 A  
HETATM   16  C   UNL     1      -6.977   8.061  68.264  1.00  0.00    -0.073 A  
HETATM   17  C   UNL     1      -5.898   9.229  66.049  1.00  0.00    -0.054 A  
HETATM   18  N   UNL     1      -5.642   8.288  68.254  1.00  0.00    -0.033 NA 
HETATM   19  F   UNL     1      -5.342   9.781  64.966  1.00  0.00    -0.042 F  
HETATM   20  C   UNL     1      -7.257   8.968  66.071  1.00  0.00    -0.093 A  
HETATM   21  C   UNL     1      -5.133   8.875  67.143  1.00  0.00    -0.032 A  
ENDBRANCH  12  15
BRANCH  14  22
HETATM   22  C   UNL     1      -9.824  10.492  67.208  1.00  0.00    -0.177 C  
HETATM   23  C   UNL     1     -10.494  11.281  69.371  1.00  0.00    -0.089 C  
HETATM   24  C   UNL     1      -9.275  10.808  68.598  1.00  0.00    -0.184 C  
HETATM   25  N   UNL     1     -10.897  11.477  67.067  1.00  0.00    -0.259 N  
HETATM   26  O   UNL     1     -12.205  12.758  68.596  1.00  0.00    -0.189 OA 
HETATM   27  C   UNL     1     -11.326  11.955  68.315  1.00  0.00    -0.277 C  
BRANCH  25  28
HETATM   28  C   UNL     1     -11.295  12.080  65.850  1.00  0.00    -0.337 A  
HETATM   29  N   UNL     1     -11.667  11.273  64.830  1.00  0.00     0.190 NA 
HETATM   30  C   UNL     1     -12.112  11.793  63.668  1.00  0.00    -0.381 A  
HETATM   31  C   UNL     1     -12.216  13.145  63.443  1.00  0.00    -0.521 A  
HETATM   32  C   UNL     1     -11.832  13.988  64.480  1.00  0.00    -0.452 A  
HETATM   33  C   UNL     1     -11.371  13.457  65.695  1.00  0.00    -0.316 A  
HETATM   34  C   UNL     1     -11.916  15.407  64.305  1.00  0.00    -0.188 C  
HETATM   35  N   UNL     1     -11.976  16.558  64.175  1.00  0.00    -0.735 NA 
ENDBRANCH  25  28
ENDBRANCH  14  22
ENDBRANCH   1  12
BRANCH   1  36
HETATM   36  C   UNL     1      -8.805   5.770  66.104  1.00  0.00    -0.146 A  
HETATM   37  C   UNL     1      -6.616   5.156  65.111  1.00  0.00    -0.040 A  
HETATM   38  C   UNL     1      -7.233   4.634  63.993  1.00  0.00    -0.050 A  
HETATM   39 CL   UNL     1     -11.053   4.587  65.082  1.00  0.00    -0.120 Cl 
HETATM   40  C   UNL     1      -8.625   4.574  63.970  1.00  0.00    -0.133 A  
HETATM   41  C   UNL     1      -7.379   5.734  66.126  1.00  0.00    -0.078 A  
HETATM   42  C   UNL     1      -9.399   5.064  65.052  1.00  0.00    -0.014 A  
ENDBRANCH   1  36
TORSDOF 7
ENDMDL
MODEL      128
REMARK 921   NORMALIZED FREE ENERGY PREDICTED BY IDOCK:   -3.39 KCAL/MOL
REMARK 922        TOTAL FREE ENERGY PREDICTED BY IDOCK:   -6.24 KCAL/MOL
REMARK 923 INTER-LIGAND FREE ENERGY PREDICTED BY IDOCK:   -6.91 KCAL/MOL
REMARK 924 INTRA-LIGAND FREE ENERGY PREDICTED BY IDOCK:    0.67 KCAL/MOL
REMARK 927      BINDING AFFINITY PREDICTED BY RF-SCORE:    0.00 PKD
ROOT
HETATM    1  C   UNL     1      -9.632  10.949  67.428  1.00  0.00    -0.163 C  
ENDROOT
BRANCH   1   2
HETATM    2  C   UNL     1      -9.752   9.513  66.711  1.00  0.00    -0.197 C  
HETATM    3  H   UNL     1      -9.580   8.388  68.425  1.00  0.00     0.000 HD 
HETATM    4  N   UNL     1      -9.721   8.319  67.418  1.00  0.00    -0.162 N  
HETATM    5  O   UNL     1      -9.777   9.456  65.482  1.00  0.00    -0.284 OA 
BRANCH   4   6
HETATM    6  C   UNL     1      -9.875   6.919  66.844  1.00  0.00    -0.183 C  
HETATM    7  C   UNL     1      -9.657   4.792  66.920  1.00  0.00    -0.172 C  
HETATM    8  F   UNL     1      -9.202   3.727  67.613  1.00  0.00    -0.138 F  
HETATM    9  C   UNL     1      -8.655   5.965  66.710  1.00  0.00    -0.113 C  
HETATM   10  F   UNL     1     -10.223   4.307  65.791  1.00  0.00    -0.201 F  
HETATM   11  C   UNL     1     -10.526   5.811  67.711  1.00  0.00    -0.289 C  
ENDBRANCH   4   6
ENDBRANCH   1   2
BRANCH   1  12
HETATM   12  N   UNL     1      -8.195  11.415  67.541  1.00  0.00    -0.126 N  
HETATM   13  O   UNL     1      -8.720  13.300  68.763  1.00  0.00    -0.023 OA 
HETATM   14  C   UNL     1      -7.854  12.587  68.250  1.00  0.00    -0.144 C  
BRANCH  12  15
HETATM   15  C   UNL     1      -7.216  10.597  66.928  1.00  0.00    -0.110 A  
HETATM   16  C   UNL     1      -6.624  10.945  65.713  1.00  0.00    -0.005 A  
HETATM   17  C   UNL     1      -5.717   8.732  67.021  1.00  0.00    -0.045 A  
HETATM   18  N   UNL     1      -5.604  10.252  65.154  1.00  0.00    -0.107 NA 
HETATM   19  F   UNL     1      -5.240   7.655  67.655  1.00  0.00    -0.025 F  
HETATM   20  C   UNL     1      -6.744   9.467  67.587  1.00  0.00    -0.063 A  
HETATM   21  C   UNL     1      -5.177   9.153  65.822  1.00  0.00    -0.039 A  
ENDBRANCH  12  15
BRANCH  14  22
HETATM   22  C   UNL     1      -6.331  12.928  68.439  1.00  0.00    -0.080 C  
HETATM   23  C   UNL     1      -5.765  12.268  70.675  1.00  0.00    -0.135 C  
HETATM   24  C   UNL     1      -5.667  11.803  69.232  1.00  0.00    -0.062 C  
HETATM   25  N   UNL     1      -5.995  14.108  69.236  1.00  0.00    -0.092 N  
HETATM   26  O   UNL     1      -5.360  14.471  71.507  1.00  0.00    -0.144 OA 
HETATM   27  C   UNL     1      -5.668  13.765  70.557  1.00  0.00    -0.164 C  
BRANCH  25  28
HETATM   28  C   UNL     1      -5.767  15.405  68.715  1.00  0.00    -0.092 A  
HETATM   29  N   UNL     1      -5.303  15.512  67.449  1.00  0.00    -0.339 NA 
HETATM   30  C   UNL     1      -5.126  16.721  66.881  1.00  0.00    -0.076 A  
HETATM   31  C   UNL     1      -5.396  17.902  67.531  1.00  0.00    -0.142 A  
HETATM   32  C   UNL     1      -5.869  17.810  68.835  1.00  0.00    -0.188 A  
HETATM   33  C   UNL     1      -6.061  16.555  69.435  1.00  0.00    -0.182 A  
HETATM   34  C   UNL     1      -6.166  19.005  69.565  1.00  0.00    -0.266 C  
HETATM   35  N   UNL     1      -6.409  19.966  70.168  1.00  0.00    -0.344 NA 
ENDBRANCH  25  28
ENDBRANCH  14  22
ENDBRANCH   1  12
BRANCH   1  36
HETATM   36  C   UNL     1     -10.582  12.161  67.238  1.00  0.00    -0.255 A  
HETATM   37  C   UNL     1     -11.274  13.948  65.662  1.00  0.00    -0.306 A  
HETATM   38  C   UNL     1     -12.054  14.545  66.631  1.00  0.00    -0.319 A  
HETATM   39 CL   UNL     1     -12.074  11.802  69.505  1.00  0.00    -0.337 Cl 
HETATM   40  C   UNL     1     -12.193  13.902  67.860  1.00  0.00    -0.194 A  
HETATM   41  C   UNL     1     -10.535  12.804  65.964  1.00  0.00    -0.291 A  
HETATM   42  C   UNL     1     -11.526  12.681  68.130  1.00  0.00    -0.313 A  
ENDBRANCH   1  36
TORSDOF 7
ENDMDL
MODEL      129
REMARK 921   NORMALIZED FREE ENERGY PREDICTED BY IDOCK:   -3.36 KCAL/MOL
REMARK 922        TOTAL FREE ENERGY PREDICTED BY IDOCK:   -6.20 KCAL/MOL
REMARK 923 INTER-LIGAND FREE ENERGY PREDICTED BY IDOCK:   -5.51 KCAL/MOL
REMARK 924 INTRA-LIGAND FREE ENERGY PREDICTED BY IDOCK:   -0.69 KCAL/MOL
REMARK 927      BINDING AFFINITY PREDICTED BY RF-SCORE:    0.00 PKD
ROOT
HETATM    1  C   UNL     1      -8.421   8.808  70.957  1.00  0.00    -0.179 C  
ENDROOT
BRANCH   1   2
HETATM    2  C   UNL     1      -8.347   9.487  69.499  1.00  0.00    -0.145 C  
HETATM    3  H   UNL     1      -9.765  10.936  69.852  1.00  0.00     0.000 HD 
HETATM    4  N   UNL     1      -9.114  10.589  69.148  1.00  0.00    -0.181 N  
HETATM    5  O   UNL     1      -7.659   8.960  68.626  1.00  0.00    -0.093 OA 
BRANCH   4   6
HETATM    6  C   UNL     1      -9.083  11.332  67.822  1.00  0.00    -0.152 C  
HETATM    7  C   UNL     1      -9.932  12.612  66.331  1.00  0.00    -0.255 C  
HETATM    8  F   UNL     1     -11.001  13.336  65.940  1.00  0.00    -0.274 F  
HETATM    9  C   UNL     1     -10.208  11.142  66.766  1.00  0.00    -0.272 C  
HETATM   10  F   UNL     1      -8.989  12.763  65.372  1.00  0.00     0.209 F  
HETATM   11  C   UNL     1      -9.437  12.841  67.788  1.00  0.00    -0.205 C  
ENDBRANCH   4   6
ENDBRANCH   1   2
BRANCH   1  12
HETATM   12  N   UNL     1      -9.099   7.453  70.924  1.00  0.00    -0.153 N  
HETATM   13  O   UNL     1      -7.124   6.277  70.725  1.00  0.00    -0.065 OA 
HETATM   14  C   UNL     1      -8.353   6.259  70.830  1.00  0.00    -0.127 C  
BRANCH  12  15
HETATM   15  C   UNL     1     -10.510   7.452  71.025  1.00  0.00    -0.215 A  
HETATM   16  C   UNL     1     -11.295   6.530  70.331  1.00  0.00    -0.383 A  
HETATM   17  C   UNL     1     -12.515   8.234  72.074  1.00  0.00    -0.351 A  
HETATM   18  N   UNL     1     -12.635   6.421  70.490  1.00  0.00     0.345 NA 
HETATM   19  F   UNL     1     -13.134   9.044  72.940  1.00  0.00    -0.475 F  
HETATM   20  C   UNL     1     -11.143   8.315  71.913  1.00  0.00    -0.357 A  
HETATM   21  C   UNL     1     -13.217   7.284  71.358  1.00  0.00    -0.346 A  
ENDBRANCH  12  15
BRANCH  14  22
HETATM   22  C   UNL     1      -9.119   4.890  70.942  1.00  0.00    -0.142 C  
HETATM   23  C   UNL     1      -8.334   3.839  72.949  1.00  0.00    -0.094 C  
HETATM   24  C   UNL     1      -9.496   4.651  72.403  1.00  0.00    -0.172 C  
HETATM   25  N   UNL     1      -8.382   3.671  70.608  1.00  0.00    -0.067 N  
HETATM   26  O   UNL     1      -7.224   2.015  71.877  1.00  0.00    -0.033 OA 
HETATM   27  C   UNL     1      -7.895   3.031  71.759  1.00  0.00    -0.053 C  
BRANCH  25  28
HETATM   28  C   UNL     1      -8.362   3.053  69.335  1.00  0.00    -0.059 A  
HETATM   29  N   UNL     1      -9.307   2.124  69.063  1.00  0.00    -0.144 NA 
HETATM   30  C   UNL     1      -9.374   1.547  67.846  1.00  0.00    -0.150 A  
HETATM   31  C   UNL     1      -8.509   1.852  66.823  1.00  0.00    -0.097 A  
HETATM   32  C   UNL     1      -7.528   2.801  67.088  1.00  0.00    -0.065 A  
HETATM   33  C   UNL     1      -7.452   3.411  68.350  1.00  0.00    -0.050 A  
HETATM   34  C   UNL     1      -6.595   3.159  66.063  1.00  0.00    -0.040 C  
HETATM   35  N   UNL     1      -5.832   3.457  65.241  1.00  0.00    -0.018 NA 
ENDBRANCH  25  28
ENDBRANCH  14  22
ENDBRANCH   1  12
BRANCH   1  36
HETATM   36  C   UNL     1      -7.320   8.838  72.049  1.00  0.00    -0.022 A  
HETATM   37  C   UNL     1      -6.872   8.496  74.465  1.00  0.00    -0.205 A  
HETATM   38  C   UNL     1      -5.587   8.979  74.329  1.00  0.00    -0.129 A  
HETATM   39 CL   UNL     1      -5.174   9.172  70.382  1.00  0.00    -0.027 Cl 
HETATM   40  C   UNL     1      -5.126   9.286  73.050  1.00  0.00    -0.082 A  
HETATM   41  C   UNL     1      -7.725   8.452  73.362  1.00  0.00    -0.133 A  
HETATM   42  C   UNL     1      -5.960   9.139  71.913  1.00  0.00    -0.054 A  
ENDBRANCH   1  36
TORSDOF 7
ENDMDL
MODEL      130
REMARK 921   NORMALIZED FREE ENERGY PREDICTED BY IDOCK:   -3.35 KCAL/MOL
REMARK 922        TOTAL FREE ENERGY PREDICTED BY IDOCK:   -6.19 KCAL/MOL
REMARK 923 INTER-LIGAND FREE ENERGY PREDICTED BY IDOCK:   -5.14 KCAL/MOL
REMARK 924 INTRA-LIGAND FREE ENERGY PREDICTED BY IDOCK:   -1.04 KCAL/MOL
REMARK 927      BINDING AFFINITY PREDICTED BY RF-SCORE:    0.00 PKD
ROOT
HETATM    1  C   UNL     1     -11.236   9.213  69.706  1.00  0.00    -0.056 C  
ENDROOT
BRANCH   1   2
HETATM    2  C   UNL     1     -11.898  10.679  69.640  1.00  0.00    -0.286 C  
HETATM    3  H   UNL     1     -10.156  11.728  69.955  1.00  0.00     0.000 HD 
HETATM    4  N   UNL     1     -11.153  11.842  69.774  1.00  0.00    -0.046 N  
HETATM    5  O   UNL     1     -13.121  10.783  69.564  1.00  0.00    -0.013 OA 
BRANCH   4   6
HETATM    6  C   UNL     1     -11.670  13.269  69.679  1.00  0.00    -0.303 C  
HETATM    7  C   UNL     1     -11.545  15.373  70.048  1.00  0.00    -0.321 C  
HETATM    8  F   UNL     1     -10.854  16.380  70.623  1.00  0.00    -0.283 F  
HETATM    9  C   UNL     1     -11.861  14.143  70.950  1.00  0.00    -0.294 C  
HETATM   10  F   UNL     1     -12.616  15.935  69.441  1.00  0.00    -0.255 F  
HETATM   11  C   UNL     1     -10.726  14.387  69.167  1.00  0.00    -0.254 C  
ENDBRANCH   4   6
ENDBRANCH   1   2
BRANCH   1  12
HETATM   12  N   UNL     1      -9.733   9.254  69.521  1.00  0.00    -0.166 N  
HETATM   13  O   UNL     1      -9.277   9.001  71.768  1.00  0.00    -0.329 OA 
HETATM   14  C   UNL     1      -8.853   9.115  70.615  1.00  0.00    -0.232 C  
BRANCH  12  15
HETATM   15  C   UNL     1      -9.264   9.407  68.195  1.00  0.00    -0.130 A  
HETATM   16  C   UNL     1      -8.643   8.362  67.509  1.00  0.00    -0.129 A  
HETATM   17  C   UNL     1      -9.138  10.687  66.175  1.00  0.00    -0.170 A  
HETATM   18  N   UNL     1      -8.288   8.431  66.205  1.00  0.00    -0.119 NA 
HETATM   19  F   UNL     1      -9.391  11.809  65.493  1.00  0.00    -0.225 F  
HETATM   20  C   UNL     1      -9.514  10.588  67.503  1.00  0.00    -0.166 A  
HETATM   21  C   UNL     1      -8.540   9.601  65.567  1.00  0.00    -0.147 A  
ENDBRANCH  12  15
BRANCH  14  22
HETATM   22  C   UNL     1      -7.310   9.029  70.325  1.00  0.00    -0.076 C  
HETATM   23  C   UNL     1      -6.225   8.971  72.463  1.00  0.00     0.049 C  
HETATM   24  C   UNL     1      -6.671   8.068  71.326  1.00  0.00    -0.043 C  
HETATM   25  N   UNL     1      -6.516  10.245  70.513  1.00  0.00    -0.125 N  
HETATM   26  O   UNL     1      -5.153  11.099  72.274  1.00  0.00    -0.319 OA 
HETATM   27  C   UNL     1      -5.873  10.254  71.760  1.00  0.00     0.342 C  
BRANCH  25  28
HETATM   28  C   UNL     1      -6.208  11.181  69.497  1.00  0.00    -0.091 A  
HETATM   29  N   UNL     1      -6.042  12.476  69.853  1.00  0.00    -0.139 NA 
HETATM   30  C   UNL     1      -5.688  13.400  68.937  1.00  0.00    -0.074 A  
HETATM   31  C   UNL     1      -5.477  13.101  67.612  1.00  0.00    -0.073 A  
HETATM   32  C   UNL     1      -5.650  11.777  67.230  1.00  0.00    -0.115 A  
HETATM   33  C   UNL     1      -6.014  10.805  68.175  1.00  0.00    -0.049 A  
HETATM   34  C   UNL     1      -5.447  11.403  65.862  1.00  0.00     0.122 C  
HETATM   35  N   UNL     1      -5.289  11.088  64.757  1.00  0.00    -0.164 NA 
ENDBRANCH  25  28
ENDBRANCH  14  22
ENDBRANCH   1  12
BRANCH   1  36
HETATM   36  C   UNL     1     -11.635   8.059  70.663  1.00  0.00    -0.203 A  
HETATM   37  C   UNL     1     -12.719   7.526  72.830  1.00  0.00     0.523 A  
HETATM   38  C   UNL     1     -12.339   6.203  72.731  1.00  0.00     0.327 A  
HETATM   39 CL   UNL     1     -11.023   5.981  68.990  1.00  0.00    -0.413 Cl 
HETATM   40  C   UNL     1     -11.711   5.778  71.562  1.00  0.00     0.075 A  
HETATM   41  C   UNL     1     -12.353   8.436  71.837  1.00  0.00    -0.395 A  
HETATM   42  C   UNL     1     -11.435   6.683  70.506  1.00  0.00    -0.376 A  
ENDBRANCH   1  36
TORSDOF 7
ENDMDL
MODEL      131
REMARK 921   NORMALIZED FREE ENERGY PREDICTED BY IDOCK:   -3.19 KCAL/MOL
REMARK 922        TOTAL FREE ENERGY PREDICTED BY IDOCK:   -5.95 KCAL/MOL
REMARK 923 INTER-LIGAND FREE ENERGY PREDICTED BY IDOCK:   -4.98 KCAL/MOL
REMARK 924 INTRA-LIGAND FREE ENERGY PREDICTED BY IDOCK:   -0.97 KCAL/MOL
REMARK 927      BINDING AFFINITY PREDICTED BY RF-SCORE:    0.00 PKD
ROOT
HETATM    1  C   UNL     1      -7.578   7.873  71.239  1.00  0.00    -0.081 C  
ENDROOT
BRANCH   1   2
HETATM    2  C   UNL     1      -7.210   9.143  70.323  1.00  0.00    -0.075 C  
HETATM    3  H   UNL     1      -9.132   9.537  69.700  1.00  0.00     0.000 HD 
HETATM    4  N   UNL     1      -8.170   9.870  69.631  1.00  0.00    -0.155 N  
HETATM    5  O   UNL     1      -6.028   9.434  70.145  1.00  0.00    -0.033 OA 
BRANCH   4   6
HETATM    6  C   UNL     1      -7.936  11.110  68.783  1.00  0.00    -0.144 C  
HETATM    7  C   UNL     1      -8.413  12.442  67.178  1.00  0.00    -0.185 C  
HETATM    8  F   UNL     1      -9.224  12.705  66.131  1.00  0.00    -0.222 F  
HETATM    9  C   UNL     1      -7.796  11.013  67.237  1.00  0.00    -0.122 C  
HETATM   10  F   UNL     1      -7.523  13.459  67.244  1.00  0.00    -0.158 F  
HETATM   11  C   UNL     1      -9.112  12.085  68.520  1.00  0.00    -0.107 C  
ENDBRANCH   4   6
ENDBRANCH   1   2
BRANCH   1  12
HETATM   12  N   UNL     1      -8.420   6.855  70.497  1.00  0.00    -0.136 N  
HETATM   13  O   UNL     1      -6.752   6.306  69.002  1.00  0.00    -0.052 OA 
HETATM   14  C   UNL     1      -7.899   6.117  69.414  1.00  0.00    -0.100 C  
BRANCH  12  15
HETATM   15  C   UNL     1      -9.741   6.666  70.968  1.00  0.00    -0.175 A  
HETATM   16  C   UNL     1     -10.848   7.134  70.260  1.00  0.00    -0.249 A  
HETATM   17  C   UNL     1     -11.268   5.646  72.505  1.00  0.00    -0.293 A  
HETATM   18  N   UNL     1     -12.128   6.872  70.616  1.00  0.00    -0.358 NA 
HETATM   19  F   UNL     1     -11.500   4.900  73.591  1.00  0.00    -0.373 F  
HETATM   20  C   UNL     1      -9.967   5.906  72.111  1.00  0.00    -0.196 A  
HETATM   21  C   UNL     1     -12.308   6.136  71.740  1.00  0.00     0.052 A  
ENDBRANCH  12  15
BRANCH  14  22
HETATM   22  C   UNL     1      -8.790   4.983  68.785  1.00  0.00    -0.093 C  
HETATM   23  C   UNL     1      -7.849   2.902  69.517  1.00  0.00    -0.049 C  
HETATM   24  C   UNL     1      -8.978   3.873  69.817  1.00  0.00    -0.167 C  
HETATM   25  N   UNL     1      -8.249   4.253  67.639  1.00  0.00    -0.098 N  
HETATM   26  O   UNL     1      -7.115   2.172  67.363  1.00  0.00    -0.046 OA 
HETATM   27  C   UNL     1      -7.677   3.031  68.028  1.00  0.00    -0.056 C  
BRANCH  25  28
HETATM   28  C   UNL     1      -8.481   4.579  66.281  1.00  0.00    -0.113 A  
HETATM   29  N   UNL     1      -7.787   5.609  65.745  1.00  0.00    -0.099 NA 
HETATM   30  C   UNL     1      -7.923   5.925  64.441  1.00  0.00    -0.129 A  
HETATM   31  C   UNL     1      -8.755   5.243  63.587  1.00  0.00     0.015 A  
HETATM   32  C   UNL     1      -9.480   4.185  64.124  1.00  0.00    -0.156 A  
HETATM   33  C   UNL     1      -9.343   3.844  65.479  1.00  0.00    -0.160 A  
HETATM   34  C   UNL     1     -10.366   3.437  63.284  1.00  0.00    -0.212 C  
HETATM   35  N   UNL     1     -11.089   2.824  62.615  1.00  0.00    -0.155 NA 
ENDBRANCH  25  28
ENDBRANCH  14  22
ENDBRANCH   1  12
BRANCH   1  36
HETATM   36  C   UNL     1      -6.646   7.166  72.258  1.00  0.00    -0.056 A  
HETATM   37  C   UNL     1      -5.770   4.964  72.994  1.00  0.00    -0.013 A  
HETATM   38  C   UNL     1      -5.168   5.536  74.096  1.00  0.00    -0.027 A  
HETATM   39 CL   UNL     1      -5.514   9.418  73.327  1.00  0.00    -0.057 Cl 
HETATM   40  C   UNL     1      -5.203   6.923  74.227  1.00  0.00    -0.046 A  
HETATM   41  C   UNL     1      -6.513   5.752  72.114  1.00  0.00    -0.053 A  
HETATM   42  C   UNL     1      -5.867   7.734  73.273  1.00  0.00    -0.049 A  
ENDBRANCH   1  36
TORSDOF 7
ENDMDL
MODEL      132
REMARK 921   NORMALIZED FREE ENERGY PREDICTED BY IDOCK:   -3.00 KCAL/MOL
REMARK 922        TOTAL FREE ENERGY PREDICTED BY IDOCK:   -5.68 KCAL/MOL
REMARK 923 INTER-LIGAND FREE ENERGY PREDICTED BY IDOCK:   -8.88 KCAL/MOL
REMARK 924 INTRA-LIGAND FREE ENERGY PREDICTED BY IDOCK:    3.20 KCAL/MOL
REMARK 927      BINDING AFFINITY PREDICTED BY RF-SCORE:    0.00 PKD
ROOT
HETATM    1  C   UNL     1      -9.427  15.718  68.426  1.00  0.00    -0.196 C  
ENDROOT
BRANCH   1   2
HETATM    2  C   UNL     1     -10.722  15.650  69.379  1.00  0.00    -0.252 C  
HETATM    3  H   UNL     1     -10.407  13.733  70.056  1.00  0.00     0.000 HD 
HETATM    4  N   UNL     1     -11.028  14.536  70.148  1.00  0.00    -0.090 N  
HETATM    5  O   UNL     1     -11.530  16.578  69.361  1.00  0.00    -0.200 OA 
BRANCH   4   6
HETATM    6  C   UNL     1     -12.193  14.390  71.114  1.00  0.00    -0.350 C  
HETATM    7  C   UNL     1     -13.611  15.154  72.523  1.00  0.00    -0.488 C  
HETATM    8  F   UNL     1     -14.054  16.227  73.212  1.00  0.00    -0.685 F  
HETATM    9  C   UNL     1     -12.082  14.868  72.590  1.00  0.00    -0.372 C  
HETATM   10  F   UNL     1     -14.408  14.116  72.868  1.00  0.00    -0.306 F  
HETATM   11  C   UNL     1     -13.404  15.351  70.995  1.00  0.00    -0.545 C  
ENDBRANCH   4   6
ENDBRANCH   1   2
BRANCH   1  12
HETATM   12  N   UNL     1      -9.521  14.753  67.262  1.00  0.00    -0.210 N  
HETATM   13  O   UNL     1      -7.799  13.412  68.008  1.00  0.00    -0.121 OA 
HETATM   14  C   UNL     1      -8.677  13.627  67.168  1.00  0.00    -0.216 C  
BRANCH  12  15
HETATM   15  C   UNL     1     -10.519  15.027  66.295  1.00  0.00    -0.304 A  
HETATM   16  C   UNL     1     -10.260  15.816  65.174  1.00  0.00    -0.217 A  
HETATM   17  C   UNL     1     -12.697  14.614  65.390  1.00  0.00    -0.062 A  
HETATM   18  N   UNL     1     -11.149  16.003  64.171  1.00  0.00    -0.480 NA 
HETATM   19  F   UNL     1     -13.891  14.017  65.462  1.00  0.00    -0.049 F  
HETATM   20  C   UNL     1     -11.765  14.417  66.394  1.00  0.00    -0.397 A  
HETATM   21  C   UNL     1     -12.355  15.400  64.307  1.00  0.00    -0.061 A  
ENDBRANCH  12  15
BRANCH  14  22
HETATM   22  C   UNL     1      -8.928  12.600  66.004  1.00  0.00     0.215 C  
HETATM   23  C   UNL     1     -11.026  11.541  66.481  1.00  0.00    -0.346 C  
HETATM   24  C   UNL     1     -10.408  12.634  65.626  1.00  0.00    -0.293 C  
HETATM   25  N   UNL     1      -8.714  11.182  66.293  1.00  0.00    -0.179 N  
HETATM   26  O   UNL     1     -10.135   9.363  66.897  1.00  0.00    -0.211 OA 
HETATM   27  C   UNL     1      -9.920  10.527  66.589  1.00  0.00    -0.211 C  
BRANCH  25  28
HETATM   28  C   UNL     1      -7.509  10.476  66.062  1.00  0.00    -0.137 A  
HETATM   29  N   UNL     1      -6.664  10.299  67.103  1.00  0.00    -0.076 NA 
HETATM   30  C   UNL     1      -5.531   9.583  66.956  1.00  0.00    -0.046 A  
HETATM   31  C   UNL     1      -5.163   8.998  65.767  1.00  0.00    -0.040 A  
HETATM   32  C   UNL     1      -6.018   9.176  64.686  1.00  0.00    -0.065 A  
HETATM   33  C   UNL     1      -7.202   9.916  64.829  1.00  0.00    -0.136 A  
HETATM   34  C   UNL     1      -5.687   8.593  63.420  1.00  0.00    -0.076 C  
HETATM   35  N   UNL     1      -5.430   8.128  62.389  1.00  0.00    -0.065 NA 
ENDBRANCH  25  28
ENDBRANCH  14  22
ENDBRANCH   1  12
BRANCH   1  36
HETATM   36  C   UNL     1      -8.647  16.994  68.012  1.00  0.00    -0.217 A  
HETATM   37  C   UNL     1      -8.859  19.224  66.947  1.00  0.00    -0.334 A  
HETATM   38  C   UNL     1      -7.489  19.394  66.957  1.00  0.00    -0.242 A  
HETATM   39 CL   UNL     1      -6.282  16.381  69.246  1.00  0.00    -0.165 Cl 
HETATM   40  C   UNL     1      -6.705  18.429  67.587  1.00  0.00    -0.198 A  
HETATM   41  C   UNL     1      -9.422  18.045  67.435  1.00  0.00    -0.262 A  
HETATM   42  C   UNL     1      -7.288  17.281  68.179  1.00  0.00    -0.199 A  
ENDBRANCH   1  36
TORSDOF 7
ENDMDL
MODEL      133
REMARK 921   NORMALIZED FREE ENERGY PREDICTED BY IDOCK:   -2.81 KCAL/MOL
REMARK 922        TOTAL FREE ENERGY PREDICTED BY IDOCK:   -5.42 KCAL/MOL
REMARK 923 INTER-LIGAND FREE ENERGY PREDICTED BY IDOCK:   -4.50 KCAL/MOL
REMARK 924 INTRA-LIGAND FREE ENERGY PREDICTED BY IDOCK:   -0.91 KCAL/MOL
REMARK 927      BINDING AFFINITY PREDICTED BY RF-SCORE:    0.00 PKD
ROOT
HETATM    1  C   UNL     1      -6.079  10.064  68.703  1.00  0.00    -0.044 C  
ENDROOT
BRANCH   1   2
HETATM    2  C   UNL     1      -6.140  11.672  68.710  1.00  0.00    -0.050 C  
HETATM    3  H   UNL     1      -8.169  11.821  69.020  1.00  0.00     0.000 HD 
HETATM    4  N   UNL     1      -7.320  12.375  68.912  1.00  0.00    -0.074 N  
HETATM    5  O   UNL     1      -5.127  12.313  68.434  1.00  0.00    -0.051 OA 
BRANCH   4   6
HETATM    6  C   UNL     1      -7.477  13.886  68.986  1.00  0.00    -0.032 C  
HETATM    7  C   UNL     1      -6.868  15.891  68.554  1.00  0.00    -0.124 C  
HETATM    8  F   UNL     1      -5.948  16.693  67.977  1.00  0.00    -0.109 F  
HETATM    9  C   UNL     1      -6.327  14.790  69.513  1.00  0.00    -0.127 C  
HETATM   10  F   UNL     1      -7.814  16.703  69.081  1.00  0.00    -0.227 F  
HETATM   11  C   UNL     1      -7.409  14.722  67.683  1.00  0.00    -0.206 C  
ENDBRANCH   4   6
ENDBRANCH   1   2
BRANCH   1  12
HETATM   12  N   UNL     1      -6.996   9.451  69.741  1.00  0.00    -0.060 N  
HETATM   13  O   UNL     1      -5.327   9.188  71.312  1.00  0.00    -0.035 OA 
HETATM   14  C   UNL     1      -6.519   9.074  71.014  1.00  0.00    -0.068 C  
BRANCH  12  15
HETATM   15  C   UNL     1      -8.356   9.307  69.376  1.00  0.00    -0.127 A  
HETATM   16  C   UNL     1      -9.373   9.986  70.047  1.00  0.00    -0.119 A  
HETATM   17  C   UNL     1     -10.019   8.506  67.851  1.00  0.00    -0.181 A  
HETATM   18  N   UNL     1     -10.669   9.967  69.655  1.00  0.00    -0.237 NA 
HETATM   19  F   UNL     1     -10.358   7.805  66.764  1.00  0.00    -0.320 F  
HETATM   20  C   UNL     1      -8.697   8.557  68.255  1.00  0.00    -0.143 A  
HETATM   21  C   UNL     1     -10.964   9.218  68.564  1.00  0.00     0.011 A  
ENDBRANCH  12  15
BRANCH  14  22
HETATM   22  C   UNL     1      -7.558   8.573  72.083  1.00  0.00    -0.077 C  
HETATM   23  C   UNL     1      -6.309   7.321  73.704  1.00  0.00    -0.065 C  
HETATM   24  C   UNL     1      -6.933   8.687  73.472  1.00  0.00     0.002 C  
HETATM   25  N   UNL     1      -7.954   7.165  72.036  1.00  0.00    -0.092 N  
HETATM   26  O   UNL     1      -7.275   5.195  73.197  1.00  0.00    -0.085 OA 
HETATM   27  C   UNL     1      -7.236   6.395  72.964  1.00  0.00    -0.082 C  
BRANCH  25  28
HETATM   28  C   UNL     1      -9.082   6.658  71.347  1.00  0.00    -0.143 A  
HETATM   29  N   UNL     1      -8.875   5.760  70.357  1.00  0.00    -0.140 NA 
HETATM   30  C   UNL     1      -9.915   5.199  69.709  1.00  0.00    -0.243 A  
HETATM   31  C   UNL     1     -11.226   5.493  69.998  1.00  0.00     0.191 A  
HETATM   32  C   UNL     1     -11.456   6.419  71.009  1.00  0.00    -0.394 A  
HETATM   33  C   UNL     1     -10.381   7.006  71.694  1.00  0.00    -0.216 A  
HETATM   34  C   UNL     1     -12.801   6.769  71.355  1.00  0.00    -0.229 C  
HETATM   35  N   UNL     1     -13.886   7.062  71.642  1.00  0.00    -0.308 NA 
ENDBRANCH  25  28
ENDBRANCH  14  22
ENDBRANCH   1  12
BRANCH   1  36
HETATM   36  C   UNL     1      -5.982   9.147  67.455  1.00  0.00    -0.050 A  
HETATM   37  C   UNL     1      -5.938   9.121  64.975  1.00  0.00    -0.063 A  
HETATM   38  C   UNL     1      -6.011   7.743  64.955  1.00  0.00    -0.038 A  
HETATM   39 CL   UNL     1      -5.415   6.815  68.771  1.00  0.00    -0.016 Cl 
HETATM   40  C   UNL     1      -5.957   7.059  66.169  1.00  0.00    -0.035 A  
HETATM   41  C   UNL     1      -5.952   9.807  66.190  1.00  0.00    -0.064 A  
HETATM   42  C   UNL     1      -5.862   7.754  67.400  1.00  0.00    -0.037 A  
ENDBRANCH   1  36
TORSDOF 7
ENDMDL
MODEL      134
REMARK 921   NORMALIZED FREE ENERGY PREDICTED BY IDOCK:   -2.60 KCAL/MOL
REMARK 922        TOTAL FREE ENERGY PREDICTED BY IDOCK:   -5.13 KCAL/MOL
REMARK 923 INTER-LIGAND FREE ENERGY PREDICTED BY IDOCK:   -5.29 KCAL/MOL
REMARK 924 INTRA-LIGAND FREE ENERGY PREDICTED BY IDOCK:    0.16 KCAL/MOL
REMARK 927      BINDING AFFINITY PREDICTED BY RF-SCORE:    0.00 PKD
ROOT
HETATM    1  C   UNL     1      -8.476  10.729  68.698  1.00  0.00    -0.143 C  
ENDROOT
BRANCH   1   2
HETATM    2  C   UNL     1      -9.993  10.265  68.967  1.00  0.00    -0.213 C  
HETATM    3  H   UNL     1      -9.600   9.177  70.669  1.00  0.00     0.000 HD 
HETATM    4  N   UNL     1     -10.354   9.483  70.055  1.00  0.00    -0.228 N  
HETATM    5  O   UNL     1     -10.858  10.528  68.133  1.00  0.00    -0.214 OA 
BRANCH   4   6
HETATM    6  C   UNL     1     -11.759   9.033  70.425  1.00  0.00    -0.062 C  
HETATM    7  C   UNL     1     -13.420   8.873  71.764  1.00  0.00    -0.397 C  
HETATM    8  F   UNL     1     -13.909   9.135  72.994  1.00  0.00    -0.444 F  
HETATM    9  C   UNL     1     -12.024   8.187  71.702  1.00  0.00    -0.340 C  
HETATM   10  F   UNL     1     -14.405   8.243  71.082  1.00  0.00    -0.405 F  
HETATM   11  C   UNL     1     -12.755  10.064  71.017  1.00  0.00    -0.455 C  
ENDBRANCH   4   6
ENDBRANCH   1   2
BRANCH   1  12
HETATM   12  N   UNL     1      -8.379  11.763  67.595  1.00  0.00    -0.138 N  
HETATM   13  O   UNL     1      -8.899  13.537  68.974  1.00  0.00     0.152 OA 
HETATM   14  C   UNL     1      -8.586  13.135  67.851  1.00  0.00    -0.185 C  
BRANCH  12  15
HETATM   15  C   UNL     1      -8.041  11.282  66.308  1.00  0.00    -0.108 A  
HETATM   16  C   UNL     1      -6.714  11.085  65.922  1.00  0.00     0.028 A  
HETATM   17  C   UNL     1      -8.698  10.328  64.212  1.00  0.00    -0.206 A  
HETATM   18  N   UNL     1      -6.355  10.518  64.746  1.00  0.00    -0.064 NA 
HETATM   19  F   UNL     1      -9.653   9.928  63.366  1.00  0.00    -0.317 F  
HETATM   20  C   UNL     1      -9.045  10.889  65.428  1.00  0.00    -0.218 A  
HETATM   21  C   UNL     1      -7.361  10.156  63.912  1.00  0.00    -0.111 A  
ENDBRANCH  12  15
BRANCH  14  22
HETATM   22  C   UNL     1      -8.333  14.159  66.684  1.00  0.00     0.240 C  
HETATM   23  C   UNL     1      -7.486  16.154  67.710  1.00  0.00    -0.150 C  
HETATM   24  C   UNL     1      -7.033  14.913  66.962  1.00  0.00     0.378 C  
HETATM   25  N   UNL     1      -9.294  15.249  66.518  1.00  0.00    -0.260 N  
HETATM   26  O   UNL     1      -9.371  17.533  67.202  1.00  0.00    -0.242 OA 
HETATM   27  C   UNL     1      -8.840  16.434  67.116  1.00  0.00    -0.195 C  
BRANCH  25  28
HETATM   28  C   UNL     1     -10.418  15.220  65.658  1.00  0.00    -0.358 A  
HETATM   29  N   UNL     1     -10.782  16.370  65.045  1.00  0.00    -0.681 NA 
HETATM   30  C   UNL     1     -11.806  16.388  64.168  1.00  0.00     0.547 A  
HETATM   31  C   UNL     1     -12.536  15.269  63.844  1.00  0.00     0.320 A  
HETATM   32  C   UNL     1     -12.178  14.081  64.470  1.00  0.00    -0.463 A  
HETATM   33  C   UNL     1     -11.111  14.049  65.381  1.00  0.00    -0.318 A  
HETATM   34  C   UNL     1     -12.903  12.881  64.176  1.00  0.00    -0.052 C  
HETATM   35  N   UNL     1     -13.483  11.903  63.947  1.00  0.00    -0.397 NA 
ENDBRANCH  25  28
ENDBRANCH  14  22
ENDBRANCH   1  12
BRANCH   1  36
HETATM   36  C   UNL     1      -7.378  10.973  69.768  1.00  0.00     0.051 A  
HETATM   37  C   UNL     1      -5.863  12.677  70.744  1.00  0.00    -0.030 A  
HETATM   38  C   UNL     1      -5.217  11.718  71.498  1.00  0.00     0.027 A  
HETATM   39 CL   UNL     1      -7.575   8.555  71.037  1.00  0.00    -0.080 Cl 
HETATM   40  C   UNL     1      -5.712  10.415  71.478  1.00  0.00     0.159 A  
HETATM   41  C   UNL     1      -6.897  12.311  69.882  1.00  0.00     0.332 A  
HETATM   42  C   UNL     1      -6.832  10.066  70.683  1.00  0.00    -0.047 A  
ENDBRANCH   1  36
TORSDOF 7
ENDMDL
MODEL      135
REMARK 921   NORMALIZED FREE ENERGY PREDICTED BY IDOCK:   -2.60 KCAL/MOL
REMARK 922        TOTAL FREE ENERGY PREDICTED BY IDOCK:   -5.12 KCAL/MOL
REMARK 923 INTER-LIGAND FREE ENERGY PREDICTED BY IDOCK:   -7.82 KCAL/MOL
REMARK 924 INTRA-LIGAND FREE ENERGY PREDICTED BY IDOCK:    2.71 KCAL/MOL
REMARK 927      BINDING AFFINITY PREDICTED BY RF-SCORE:    0.00 PKD
ROOT
HETATM    1  C   UNL     1      -9.981   9.849  66.817  1.00  0.00    -0.214 C  
ENDROOT
BRANCH   1   2
HETATM    2  C   UNL     1      -9.130   8.597  67.363  1.00  0.00    -0.133 C  
HETATM    3  H   UNL     1      -7.277   9.462  67.129  1.00  0.00     0.000 HD 
HETATM    4  N   UNL     1      -7.746   8.618  67.459  1.00  0.00    -0.097 N  
HETATM    5  O   UNL     1      -9.710   7.542  67.618  1.00  0.00    -0.139 OA 
BRANCH   4   6
HETATM    6  C   UNL     1      -6.855   7.513  68.005  1.00  0.00    -0.067 C  
HETATM    7  C   UNL     1      -5.903   5.600  67.894  1.00  0.00    -0.017 C  
HETATM    8  F   UNL     1      -5.732   4.463  67.188  1.00  0.00    -0.018 F  
HETATM    9  C   UNL     1      -7.373   6.053  68.137  1.00  0.00    -0.085 C  
HETATM   10  F   UNL     1      -5.142   5.484  69.007  1.00  0.00     0.000 F  
HETATM   11  C   UNL     1      -5.730   6.932  67.110  1.00  0.00    -0.017 C  
ENDBRANCH   4   6
ENDBRANCH   1   2
BRANCH   1  12
HETATM   12  N   UNL     1     -10.091  10.958  67.843  1.00  0.00    -0.173 N  
HETATM   13  O   UNL     1      -8.991  12.510  66.538  1.00  0.00    -0.207 OA 
HETATM   14  C   UNL     1      -9.584  12.250  67.588  1.00  0.00    -0.191 C  
BRANCH  12  15
HETATM   15  C   UNL     1     -10.755  10.637  69.050  1.00  0.00    -0.221 A  
HETATM   16  C   UNL     1     -10.167   9.821  70.018  1.00  0.00    -0.263 A  
HETATM   17  C   UNL     1     -12.572  10.978  70.572  1.00  0.00    -0.304 A  
HETATM   18  N   UNL     1     -10.717   9.586  71.232  1.00  0.00    -0.343 NA 
HETATM   19  F   UNL     1     -13.741  11.551  70.876  1.00  0.00     0.250 F  
HETATM   20  C   UNL     1     -11.981  11.223  69.345  1.00  0.00    -0.410 A  
HETATM   21  C   UNL     1     -11.917  10.168  71.479  1.00  0.00    -0.317 A  
ENDBRANCH  12  15
BRANCH  14  22
HETATM   22  C   UNL     1      -9.859  13.382  68.645  1.00  0.00    -0.112 C  
HETATM   23  C   UNL     1     -11.312  14.963  67.577  1.00  0.00    -0.351 C  
HETATM   24  C   UNL     1     -11.326  13.799  68.553  1.00  0.00    -0.318 C  
HETATM   25  N   UNL     1      -9.163  14.657  68.470  1.00  0.00    -0.189 N  
HETATM   26  O   UNL     1      -9.740  16.761  67.506  1.00  0.00    -0.245 OA 
HETATM   27  C   UNL     1      -9.977  15.608  67.836  1.00  0.00    -0.223 C  
BRANCH  25  28
HETATM   28  C   UNL     1      -7.930  15.002  69.075  1.00  0.00    -0.180 A  
HETATM   29  N   UNL     1      -7.193  14.013  69.631  1.00  0.00     0.084 NA 
HETATM   30  C   UNL     1      -5.984  14.274  70.167  1.00  0.00    -0.151 A  
HETATM   31  C   UNL     1      -5.428  15.531  70.186  1.00  0.00    -0.138 A  
HETATM   32  C   UNL     1      -6.175  16.559  69.624  1.00  0.00    -0.220 A  
HETATM   33  C   UNL     1      -7.434  16.298  69.059  1.00  0.00    -0.220 A  
HETATM   34  C   UNL     1      -5.651  17.892  69.616  1.00  0.00    -0.217 C  
HETATM   35  N   UNL     1      -5.238  18.976  69.606  1.00  0.00    -0.182 NA 
ENDBRANCH  25  28
ENDBRANCH  14  22
ENDBRANCH   1  12
BRANCH   1  36
HETATM   36  C   UNL     1      -9.945  10.438  65.382  1.00  0.00    -0.362 A  
HETATM   37  C   UNL     1      -8.842  10.273  63.166  1.00  0.00    -0.226 A  
HETATM   38  C   UNL     1      -9.487  11.410  62.724  1.00  0.00    -0.314 A  
HETATM   39 CL   UNL     1     -12.160  12.032  65.595  1.00  0.00    -0.195 Cl 
HETATM   40  C   UNL     1     -10.439  11.998  63.555  1.00  0.00    -0.505 A  
HETATM   41  C   UNL     1      -9.043   9.815  64.468  1.00  0.00    -0.297 A  
HETATM   42  C   UNL     1     -10.721  11.468  64.839  1.00  0.00    -0.297 A  
ENDBRANCH   1  36
TORSDOF 7
ENDMDL
MODEL      136
REMARK 921   NORMALIZED FREE ENERGY PREDICTED BY IDOCK:   -2.46 KCAL/MOL
REMARK 922        TOTAL FREE ENERGY PREDICTED BY IDOCK:   -4.92 KCAL/MOL
REMARK 923 INTER-LIGAND FREE ENERGY PREDICTED BY IDOCK:   -5.17 KCAL/MOL
REMARK 924 INTRA-LIGAND FREE ENERGY PREDICTED BY IDOCK:    0.25 KCAL/MOL
REMARK 927      BINDING AFFINITY PREDICTED BY RF-SCORE:    0.00 PKD
ROOT
HETATM    1  C   UNL     1      -8.267  14.270  69.120  1.00  0.00     0.097 C  
ENDROOT
BRANCH   1   2
HETATM    2  C   UNL     1      -8.235  15.711  68.404  1.00  0.00    -0.146 C  
HETATM    3  H   UNL     1     -10.196  16.200  68.789  1.00  0.00     0.000 HD 
HETATM    4  N   UNL     1      -9.337  16.553  68.367  1.00  0.00    -0.214 N  
HETATM    5  O   UNL     1      -7.230  16.049  67.780  1.00  0.00    -0.124 OA 
BRANCH   4   6
HETATM    6  C   UNL     1      -9.397  17.947  67.763  1.00  0.00    -0.262 C  
HETATM    7  C   UNL     1      -9.837  20.040  67.832  1.00  0.00    -0.406 C  
HETATM    8  F   UNL     1     -10.333  21.066  68.555  1.00  0.00    -0.145 F  
HETATM    9  C   UNL     1     -10.721  18.761  67.744  1.00  0.00    -0.406 C  
HETATM   10  F   UNL     1      -9.446  20.555  66.644  1.00  0.00    -0.469 F  
HETATM   11  C   UNL     1      -8.786  19.140  68.542  1.00  0.00    -0.406 C  
ENDBRANCH   4   6
ENDBRANCH   1   2
BRANCH   1  12
HETATM   12  N   UNL     1      -9.042  13.247  68.316  1.00  0.00    -0.198 N  
HETATM   13  O   UNL     1      -7.278  12.759  66.911  1.00  0.00     0.033 OA 
HETATM   14  C   UNL     1      -8.442  12.538  67.253  1.00  0.00    -0.185 C  
BRANCH  12  15
HETATM   15  C   UNL     1     -10.383  13.021  68.707  1.00  0.00    -0.129 A  
HETATM   16  C   UNL     1     -11.024  11.806  68.466  1.00  0.00    -0.227 A  
HETATM   17  C   UNL     1     -12.337  13.712  69.907  1.00  0.00    -0.249 A  
HETATM   18  N   UNL     1     -12.263  11.510  68.928  1.00  0.00    -0.419 NA 
HETATM   19  F   UNL     1     -12.993  14.623  70.634  1.00  0.00    -0.374 F  
HETATM   20  C   UNL     1     -11.062  13.986  69.445  1.00  0.00    -0.246 A  
HETATM   21  C   UNL     1     -12.895  12.478  69.635  1.00  0.00     0.881 A  
ENDBRANCH  12  15
BRANCH  14  22
HETATM   22  C   UNL     1      -9.270  11.396  66.557  1.00  0.00    -0.189 C  
HETATM   23  C   UNL     1      -7.673   9.968  65.478  1.00  0.00    -0.135 C  
HETATM   24  C   UNL     1      -8.527  10.072  66.730  1.00  0.00    -0.125 C  
HETATM   25  N   UNL     1      -9.439  11.469  65.106  1.00  0.00    -0.206 N  
HETATM   26  O   UNL     1      -8.335  10.476  63.239  1.00  0.00    -0.164 OA 
HETATM   27  C   UNL     1      -8.513  10.655  64.436  1.00  0.00    -0.070 C  
BRANCH  25  28
HETATM   28  C   UNL     1     -10.539  12.065  64.443  1.00  0.00    -0.318 A  
HETATM   29  N   UNL     1     -11.402  11.257  63.786  1.00  0.00    -0.222 NA 
HETATM   30  C   UNL     1     -12.499  11.764  63.189  1.00  0.00    -0.147 A  
HETATM   31  C   UNL     1     -12.810  13.103  63.203  1.00  0.00     0.452 A  
HETATM   32  C   UNL     1     -11.930  13.947  63.869  1.00  0.00    -0.372 A  
HETATM   33  C   UNL     1     -10.786  13.430  64.498  1.00  0.00    -0.419 A  
HETATM   34  C   UNL     1     -12.198  15.353  63.916  1.00  0.00     0.213 C  
HETATM   35  N   UNL     1     -12.403  16.494  63.959  1.00  0.00    -0.111 NA 
ENDBRANCH  25  28
ENDBRANCH  14  22
ENDBRANCH   1  12
BRANCH   1  36
HETATM   36  C   UNL     1      -7.101  13.590  69.884  1.00  0.00     0.481 A  
HETATM   37  C   UNL     1      -6.078  11.405  70.464  1.00  0.00    -0.045 A  
HETATM   38  C   UNL     1      -5.195  12.012  71.334  1.00  0.00    -0.046 A  
HETATM   39 CL   UNL     1      -5.703  15.862  70.498  1.00  0.00    -0.112 Cl 
HETATM   40  C   UNL     1      -5.182  13.404  71.401  1.00  0.00    -0.186 A  
HETATM   41  C   UNL     1      -7.024  12.168  69.779  1.00  0.00     0.311 A  
HETATM   42  C   UNL     1      -6.072  14.186  70.623  1.00  0.00    -0.170 A  
ENDBRANCH   1  36
TORSDOF 7
ENDMDL
MODEL      137
REMARK 921   NORMALIZED FREE ENERGY PREDICTED BY IDOCK:   -2.30 KCAL/MOL
REMARK 922        TOTAL FREE ENERGY PREDICTED BY IDOCK:   -4.70 KCAL/MOL
REMARK 923 INTER-LIGAND FREE ENERGY PREDICTED BY IDOCK:   -4.78 KCAL/MOL
REMARK 924 INTRA-LIGAND FREE ENERGY PREDICTED BY IDOCK:    0.08 KCAL/MOL
REMARK 927      BINDING AFFINITY PREDICTED BY RF-SCORE:    0.00 PKD
ROOT
HETATM    1  C   UNL     1      -8.447   7.132  68.887  1.00  0.00    -0.126 C  
ENDROOT
BRANCH   1   2
HETATM    2  C   UNL     1      -8.556   5.877  67.885  1.00  0.00    -0.105 C  
HETATM    3  H   UNL     1     -10.410   6.352  67.128  1.00  0.00     0.000 HD 
HETATM    4  N   UNL     1      -9.649   5.678  67.052  1.00  0.00    -0.128 N  
HETATM    5  O   UNL     1      -7.690   5.005  67.918  1.00  0.00    -0.083 OA 
BRANCH   4   6
HETATM    6  C   UNL     1      -9.827   4.559  66.038  1.00  0.00    -0.229 C  
HETATM    7  C   UNL     1     -10.477   3.775  64.156  1.00  0.00    -0.257 C  
HETATM    8  F   UNL     1     -11.097   4.021  62.983  1.00  0.00    -0.199 F  
HETATM    9  C   UNL     1     -11.225   4.223  65.446  1.00  0.00     0.618 C  
HETATM   10  F   UNL     1     -10.099   2.476  64.130  1.00  0.00    -0.149 F  
HETATM   11  C   UNL     1      -9.366   4.779  64.574  1.00  0.00    -0.018 C  
ENDBRANCH   4   6
ENDBRANCH   1   2
BRANCH   1  12
HETATM   12  N   UNL     1      -7.912   8.371  68.199  1.00  0.00    -0.117 N  
HETATM   13  O   UNL     1      -7.922   9.652  70.116  1.00  0.00    -0.146 OA 
HETATM   14  C   UNL     1      -7.666   9.562  68.913  1.00  0.00    -0.076 C  
BRANCH  12  15
HETATM   15  C   UNL     1      -7.644   8.256  66.814  1.00  0.00    -0.091 A  
HETATM   16  C   UNL     1      -6.652   7.405  66.325  1.00  0.00    -0.049 A  
HETATM   17  C   UNL     1      -8.239   8.722  64.541  1.00  0.00    -0.167 A  
HETATM   18  N   UNL     1      -6.445   7.179  65.006  1.00  0.00    -0.040 NA 
HETATM   19  F   UNL     1      -9.018   9.340  63.648  1.00  0.00    -0.228 F  
HETATM   20  C   UNL     1      -8.449   8.921  65.895  1.00  0.00    -0.147 A  
HETATM   21  C   UNL     1      -7.244   7.852  64.141  1.00  0.00    -0.079 A  
ENDBRANCH  12  15
BRANCH  14  22
HETATM   22  C   UNL     1      -6.982  10.759  68.156  1.00  0.00    -0.072 C  
HETATM   23  C   UNL     1      -5.134  11.451  69.519  1.00  0.00    -0.045 C  
HETATM   24  C   UNL     1      -5.466  10.625  68.288  1.00  0.00    -0.036 C  
HETATM   25  N   UNL     1      -7.220  12.109  68.667  1.00  0.00    -0.106 N  
HETATM   26  O   UNL     1      -6.018  13.595  70.094  1.00  0.00    -0.132 OA 
HETATM   27  C   UNL     1      -6.164  12.547  69.481  1.00  0.00    -0.120 C  
BRANCH  25  28
HETATM   28  C   UNL     1      -8.238  12.983  68.216  1.00  0.00    -0.150 A  
HETATM   29  N   UNL     1      -8.377  13.168  66.883  1.00  0.00    -0.077 NA 
HETATM   30  C   UNL     1      -9.367  13.941  66.396  1.00  0.00    -0.205 A  
HETATM   31  C   UNL     1     -10.283  14.582  67.197  1.00  0.00    -0.260 A  
HETATM   32  C   UNL     1     -10.151  14.406  68.569  1.00  0.00    -0.244 A  
HETATM   33  C   UNL     1      -9.125  13.600  69.088  1.00  0.00     0.476 A  
HETATM   34  C   UNL     1     -11.073  15.050  69.456  1.00  0.00    -0.277 C  
HETATM   35  N   UNL     1     -11.812  15.567  70.185  1.00  0.00    -0.329 NA 
ENDBRANCH  25  28
ENDBRANCH  14  22
ENDBRANCH   1  12
BRANCH   1  36
HETATM   36  C   UNL     1      -9.459   7.522  69.996  1.00  0.00    -0.161 A  
HETATM   37  C   UNL     1      -9.897   7.450  72.437  1.00  0.00    -0.207 A  
HETATM   38  C   UNL     1     -11.179   7.926  72.254  1.00  0.00    -0.389 A  
HETATM   39 CL   UNL     1     -11.131   9.028  68.438  1.00  0.00     0.055 Cl 
HETATM   40  C   UNL     1     -11.569   8.306  70.971  1.00  0.00    -0.301 A  
HETATM   41  C   UNL     1      -9.069   7.226  71.337  1.00  0.00    -0.144 A  
HETATM   42  C   UNL     1     -10.688   8.180  69.868  1.00  0.00    -0.241 A  
ENDBRANCH   1  36
TORSDOF 7
ENDMDL
MODEL      138
REMARK 921   NORMALIZED FREE ENERGY PREDICTED BY IDOCK:   -2.20 KCAL/MOL
REMARK 922        TOTAL FREE ENERGY PREDICTED BY IDOCK:   -4.55 KCAL/MOL
REMARK 923 INTER-LIGAND FREE ENERGY PREDICTED BY IDOCK:   -5.01 KCAL/MOL
REMARK 924 INTRA-LIGAND FREE ENERGY PREDICTED BY IDOCK:    0.46 KCAL/MOL
REMARK 927      BINDING AFFINITY PREDICTED BY RF-SCORE:    0.00 PKD
ROOT
HETATM    1  C   UNL     1      -8.578   8.734  70.366  1.00  0.00    -0.163 C  
ENDROOT
BRANCH   1   2
HETATM    2  C   UNL     1      -9.741   9.630  69.707  1.00  0.00    -0.224 C  
HETATM    3  H   UNL     1      -8.492  10.919  68.700  1.00  0.00     0.000 HD 
HETATM    4  N   UNL     1      -9.474  10.698  68.861  1.00  0.00    -0.186 N  
HETATM    5  O   UNL     1     -10.911   9.430  70.032  1.00  0.00    -0.223 OA 
BRANCH   4   6
HETATM    6  C   UNL     1     -10.496  11.572  68.151  1.00  0.00    -0.193 C  
HETATM    7  C   UNL     1     -11.350  13.460  67.617  1.00  0.00    -0.290 C  
HETATM    8  F   UNL     1     -11.303  14.802  67.759  1.00  0.00    -0.278 F  
HETATM    9  C   UNL     1     -11.339  12.621  68.929  1.00  0.00    -0.345 C  
HETATM   10  F   UNL     1     -12.372  13.195  66.771  1.00  0.00    -0.412 F  
HETATM   11  C   UNL     1     -10.007  12.754  67.275  1.00  0.00    -0.219 C  
ENDBRANCH   4   6
ENDBRANCH   1   2
BRANCH   1  12
HETATM   12  N   UNL     1      -8.266   7.502  69.541  1.00  0.00    -0.128 N  
HETATM   13  O   UNL     1      -9.590   8.143  67.764  1.00  0.00    -0.146 OA 
HETATM   14  C   UNL     1      -8.807   7.324  68.250  1.00  0.00    -0.127 C  
BRANCH  12  15
HETATM   15  C   UNL     1      -7.383   6.562  70.122  1.00  0.00    -0.089 A  
HETATM   16  C   UNL     1      -6.110   6.329  69.600  1.00  0.00    -0.026 A  
HETATM   17  C   UNL     1      -6.820   5.078  71.916  1.00  0.00    -0.053 A  
HETATM   18  N   UNL     1      -5.194   5.527  70.193  1.00  0.00    -0.004 NA 
HETATM   19  F   UNL     1      -7.137   4.471  73.064  1.00  0.00    -0.065 F  
HETATM   20  C   UNL     1      -7.733   5.920  71.305  1.00  0.00    -0.110 A  
HETATM   21  C   UNL     1      -5.576   4.912  71.340  1.00  0.00    -0.012 A  
ENDBRANCH  12  15
BRANCH  14  22
HETATM   22  C   UNL     1      -8.327   6.088  67.404  1.00  0.00    -0.105 C  
HETATM   23  C   UNL     1      -9.374   6.294  65.256  1.00  0.00     0.464 C  
HETATM   24  C   UNL     1      -8.057   6.544  65.971  1.00  0.00    -0.121 C  
HETATM   25  N   UNL     1      -9.275   4.992  67.207  1.00  0.00    -0.118 N  
HETATM   26  O   UNL     1     -10.779   4.372  65.462  1.00  0.00    -0.256 OA 
HETATM   27  C   UNL     1      -9.919   5.082  65.963  1.00  0.00    -0.199 C  
BRANCH  25  28
HETATM   28  C   UNL     1      -9.369   3.838  68.023  1.00  0.00    -0.179 A  
HETATM   29  N   UNL     1      -9.202   2.629  67.439  1.00  0.00    -0.174 NA 
HETATM   30  C   UNL     1      -9.220   1.501  68.178  1.00  0.00    -0.170 A  
HETATM   31  C   UNL     1      -9.406   1.499  69.540  1.00  0.00    -0.159 A  
HETATM   32  C   UNL     1      -9.584   2.733  70.153  1.00  0.00    -0.117 A  
HETATM   33  C   UNL     1      -9.564   3.915  69.395  1.00  0.00    -0.239 A  
HETATM   34  C   UNL     1      -9.785   2.796  71.570  1.00  0.00    -0.155 C  
HETATM   35  N   UNL     1      -9.951   2.860  72.716  1.00  0.00    -0.133 NA 
ENDBRANCH  25  28
ENDBRANCH  14  22
ENDBRANCH   1  12
BRANCH   1  36
HETATM   36  C   UNL     1      -7.298   9.253  71.072  1.00  0.00    -0.091 A  
HETATM   37  C   UNL     1      -6.023   9.227  73.200  1.00  0.00     0.160 A  
HETATM   38  C   UNL     1      -5.145  10.179  72.724  1.00  0.00     0.055 A  
HETATM   39 CL   UNL     1      -6.094  10.345  68.870  1.00  0.00    -0.040 Cl 
HETATM   40  C   UNL     1      -5.266  10.588  71.397  1.00  0.00    -0.074 A  
HETATM   41  C   UNL     1      -7.087   8.796  72.408  1.00  0.00     0.042 A  
HETATM   42  C   UNL     1      -6.284  10.068  70.558  1.00  0.00    -0.109 A  
ENDBRANCH   1  36
TORSDOF 7
ENDMDL
MODEL      139
REMARK 921   NORMALIZED FREE ENERGY PREDICTED BY IDOCK:   -2.15 KCAL/MOL
REMARK 922        TOTAL FREE ENERGY PREDICTED BY IDOCK:   -4.49 KCAL/MOL
REMARK 923 INTER-LIGAND FREE ENERGY PREDICTED BY IDOCK:   -4.10 KCAL/MOL
REMARK 924 INTRA-LIGAND FREE ENERGY PREDICTED BY IDOCK:   -0.39 KCAL/MOL
REMARK 927      BINDING AFFINITY PREDICTED BY RF-SCORE:    0.00 PKD
ROOT
HETATM    1  C   UNL     1     -10.032  12.410  67.168  1.00  0.00    -0.207 C  
ENDROOT
BRANCH   1   2
HETATM    2  C   UNL     1     -10.736  12.814  68.558  1.00  0.00    -0.253 C  
HETATM    3  H   UNL     1     -12.541  11.905  68.171  1.00  0.00     0.000 HD 
HETATM    4  N   UNL     1     -12.031  12.432  68.879  1.00  0.00    -0.285 N  
HETATM    5  O   UNL     1     -10.148  13.569  69.331  1.00  0.00     0.242 OA 
BRANCH   4   6
HETATM    6  C   UNL     1     -12.767  12.717  70.179  1.00  0.00     0.230 C  
HETATM    7  C   UNL     1     -13.085  13.809  71.991  1.00  0.00    -0.396 C  
HETATM    8  F   UNL     1     -12.662  14.803  72.801  1.00  0.00    -0.367 F  
HETATM    9  C   UNL     1     -12.011  12.778  71.536  1.00  0.00     0.930 C  
HETATM   10  F   UNL     1     -14.186  13.279  72.572  1.00  0.00    -0.609 F  
HETATM   11  C   UNL     1     -13.236  14.163  70.484  1.00  0.00    -0.016 C  
ENDBRANCH   4   6
ENDBRANCH   1   2
BRANCH   1  12
HETATM   12  N   UNL     1      -8.929  11.389  67.360  1.00  0.00    -0.152 N  
HETATM   13  O   UNL     1      -7.741  12.068  65.502  1.00  0.00     1.121 OA 
HETATM   14  C   UNL     1      -7.825  11.325  66.484  1.00  0.00    -0.133 C  
BRANCH  12  15
HETATM   15  C   UNL     1      -9.052  10.530  68.478  1.00  0.00    -0.154 A  
HETATM   16  C   UNL     1      -8.139  10.561  69.533  1.00  0.00    -0.094 A  
HETATM   17  C   UNL     1     -10.320   8.939  69.740  1.00  0.00    -0.207 A  
HETATM   18  N   UNL     1      -8.287   9.842  70.670  1.00  0.00    -0.194 NA 
HETATM   19  F   UNL     1     -11.393   8.153  69.875  1.00  0.00    -0.218 F  
HETATM   20  C   UNL     1     -10.162   9.700  68.595  1.00  0.00    -0.209 A  
HETATM   21  C   UNL     1      -9.376   9.039  70.744  1.00  0.00    -0.249 A  
ENDBRANCH  12  15
BRANCH  14  22
HETATM   22  C   UNL     1      -6.655  10.331  66.828  1.00  0.00    -0.075 C  
HETATM   23  C   UNL     1      -5.179  10.346  64.938  1.00  0.00    -0.130 C  
HETATM   24  C   UNL     1      -5.338  10.927  66.332  1.00  0.00    -0.099 C  
HETATM   25  N   UNL     1      -6.666   9.020  66.180  1.00  0.00    -0.069 N  
HETATM   26  O   UNL     1      -5.591   8.090  64.264  1.00  0.00    -0.043 OA 
HETATM   27  C   UNL     1      -5.822   8.990  65.059  1.00  0.00    -0.059 C  
BRANCH  25  28
HETATM   28  C   UNL     1      -7.235   7.845  66.727  1.00  0.00    -0.088 A  
HETATM   29  N   UNL     1      -6.546   7.192  67.691  1.00  0.00    -0.054 NA 
HETATM   30  C   UNL     1      -7.067   6.102  68.290  1.00  0.00    -0.082 A  
HETATM   31  C   UNL     1      -8.303   5.590  67.972  1.00  0.00    -0.099 A  
HETATM   32  C   UNL     1      -9.021   6.246  66.980  1.00  0.00    -0.115 A  
HETATM   33  C   UNL     1      -8.490   7.384  66.352  1.00  0.00    -0.129 A  
HETATM   34  C   UNL     1     -10.313   5.759  66.602  1.00  0.00    -0.243 C  
HETATM   35  N   UNL     1     -11.360   5.372  66.286  1.00  0.00     0.354 NA 
ENDBRANCH  25  28
ENDBRANCH  14  22
ENDBRANCH   1  12
BRANCH   1  36
HETATM   36  C   UNL     1     -10.735  12.199  65.801  1.00  0.00    -0.303 A  
HETATM   37  C   UNL     1     -10.855  10.730  63.806  1.00  0.00     0.190 A  
HETATM   38  C   UNL     1     -11.691  11.620  63.161  1.00  0.00    -0.101 A  
HETATM   39 CL   UNL     1     -12.637  14.149  66.075  1.00  0.00    -0.474 Cl 
HETATM   40  C   UNL     1     -12.140  12.736  63.864  1.00  0.00    -0.562 A  
HETATM   41  C   UNL     1     -10.367  11.024  65.079  1.00  0.00    -0.360 A  
HETATM   42  C   UNL     1     -11.728  12.979  65.199  1.00  0.00    -0.343 A  
ENDBRANCH   1  36
TORSDOF 7
ENDMDL
MODEL      140
REMARK 921   NORMALIZED FREE ENERGY PREDICTED BY IDOCK:   -1.98 KCAL/MOL
REMARK 922        TOTAL FREE ENERGY PREDICTED BY IDOCK:   -4.25 KCAL/MOL
REMARK 923 INTER-LIGAND FREE ENERGY PREDICTED BY IDOCK:   -8.97 KCAL/MOL
REMARK 924 INTRA-LIGAND FREE ENERGY PREDICTED BY IDOCK:    4.72 KCAL/MOL
REMARK 927      BINDING AFFINITY PREDICTED BY RF-SCORE:    0.00 PKD
ROOT
HETATM    1  C   UNL     1      -9.212   9.909  68.070  1.00  0.00    -0.124 C  
ENDROOT
BRANCH   1   2
HETATM    2  C   UNL     1      -8.099   9.941  66.908  1.00  0.00    -0.113 C  
HETATM    3  H   UNL     1      -8.997   8.541  65.695  1.00  0.00     0.000 HD 
HETATM    4  N   UNL     1      -8.196   9.169  65.759  1.00  0.00    -0.111 N  
HETATM    5  O   UNL     1      -7.074  10.599  67.077  1.00  0.00    -0.091 OA 
BRANCH   4   6
HETATM    6  C   UNL     1      -7.230   9.162  64.584  1.00  0.00    -0.098 C  
HETATM    7  C   UNL     1      -5.929  10.116  63.178  1.00  0.00    -0.139 C  
HETATM    8  F   UNL     1      -5.418  11.278  62.720  1.00  0.00    -0.176 F  
HETATM    9  C   UNL     1      -7.478  10.050  63.332  1.00  0.00    -0.139 C  
HETATM   10  F   UNL     1      -5.381   9.130  62.431  1.00  0.00    -0.079 F  
HETATM   11  C   UNL     1      -5.869   9.893  64.715  1.00  0.00    -0.096 C  
ENDBRANCH   4   6
ENDBRANCH   1   2
BRANCH   1  12
HETATM   12  N   UNL     1     -10.219  11.032  67.931  1.00  0.00    -0.178 N  
HETATM   13  O   UNL     1      -9.571  11.581  65.787  1.00  0.00    -0.224 OA 
HETATM   14  C   UNL     1     -10.325  11.783  66.742  1.00  0.00    -0.219 C  
BRANCH  12  15
HETATM   15  C   UNL     1     -11.062  11.264  69.044  1.00  0.00    -0.244 A  
HETATM   16  C   UNL     1     -10.962  12.424  69.813  1.00  0.00     0.308 A  
HETATM   17  C   UNL     1     -12.970  10.665  70.361  1.00  0.00    -0.145 A  
HETATM   18  N   UNL     1     -11.823  12.737  70.810  1.00  0.00     0.009 NA 
HETATM   19  F   UNL     1     -13.977   9.828  70.634  1.00  0.00    -0.310 F  
HETATM   20  C   UNL     1     -12.092  10.375  69.331  1.00  0.00    -0.085 A  
HETATM   21  C   UNL     1     -12.808  11.842  71.065  1.00  0.00    -0.215 A  
ENDBRANCH  12  15
BRANCH  14  22
HETATM   22  C   UNL     1     -11.485  12.839  66.626  1.00  0.00    -0.350 C  
HETATM   23  C   UNL     1     -11.722  13.327  64.290  1.00  0.00    -0.454 C  
HETATM   24  C   UNL     1     -12.341  12.502  65.406  1.00  0.00    -0.426 C  
HETATM   25  N   UNL     1     -11.113  14.230  66.370  1.00  0.00    -0.319 N  
HETATM   26  O   UNL     1     -10.986  15.597  64.419  1.00  0.00    -0.335 OA 
HETATM   27  C   UNL     1     -11.227  14.553  65.009  1.00  0.00    -0.382 C  
BRANCH  25  28
HETATM   28  C   UNL     1     -10.909  15.216  67.365  1.00  0.00    -0.302 A  
HETATM   29  N   UNL     1     -10.178  16.307  67.042  1.00  0.00    -0.275 NA 
HETATM   30  C   UNL     1     -10.004  17.306  67.931  1.00  0.00    -0.297 A  
HETATM   31  C   UNL     1     -10.541  17.286  69.196  1.00  0.00    -0.209 A  
HETATM   32  C   UNL     1     -11.290  16.169  69.546  1.00  0.00    -0.321 A  
HETATM   33  C   UNL     1     -11.482  15.125  68.627  1.00  0.00    -0.341 A  
HETATM   34  C   UNL     1     -11.873  16.089  70.851  1.00  0.00    -0.373 C  
HETATM   35  N   UNL     1     -12.349  16.011  71.907  1.00  0.00    -0.466 NA 
ENDBRANCH  25  28
ENDBRANCH  14  22
ENDBRANCH   1  12
BRANCH   1  36
HETATM   36  C   UNL     1      -9.886   8.647  68.672  1.00  0.00    -0.180 A  
HETATM   37  C   UNL     1     -10.884   7.688  70.731  1.00  0.00    -0.246 A  
HETATM   38  C   UNL     1     -10.982   6.443  70.143  1.00  0.00    -0.395 A  
HETATM   39 CL   UNL     1     -10.165   7.244  66.338  1.00  0.00    -0.111 Cl 
HETATM   40  C   UNL     1     -10.642   6.318  68.797  1.00  0.00    -0.313 A  
HETATM   41  C   UNL     1     -10.325   8.754  70.026  1.00  0.00    -0.213 A  
HETATM   42  C   UNL     1     -10.176   7.428  68.049  1.00  0.00    -0.191 A  
ENDBRANCH   1  36
TORSDOF 7
ENDMDL
MODEL      141
REMARK 921   NORMALIZED FREE ENERGY PREDICTED BY IDOCK:   -1.98 KCAL/MOL
REMARK 922        TOTAL FREE ENERGY PREDICTED BY IDOCK:   -4.24 KCAL/MOL
REMARK 923 INTER-LIGAND FREE ENERGY PREDICTED BY IDOCK:   -6.60 KCAL/MOL
REMARK 924 INTRA-LIGAND FREE ENERGY PREDICTED BY IDOCK:    2.36 KCAL/MOL
REMARK 927      BINDING AFFINITY PREDICTED BY RF-SCORE:    0.00 PKD
ROOT
HETATM    1  C   UNL     1      -9.949  10.215  66.570  1.00  0.00    -0.224 C  
ENDROOT
BRANCH   1   2
HETATM    2  C   UNL     1      -8.991   9.029  67.084  1.00  0.00    -0.130 C  
HETATM    3  H   UNL     1     -10.487   7.653  67.406  1.00  0.00     0.000 HD 
HETATM    4  N   UNL     1      -9.476   7.779  67.445  1.00  0.00    -0.139 N  
HETATM    5  O   UNL     1      -7.794   9.255  67.257  1.00  0.00    -0.098 OA 
BRANCH   4   6
HETATM    6  C   UNL     1      -8.655   6.581  67.894  1.00  0.00    -0.117 C  
HETATM    7  C   UNL     1      -8.328   4.826  69.074  1.00  0.00    -0.081 C  
HETATM    8  F   UNL     1      -8.800   4.008  70.038  1.00  0.00    -0.094 F  
HETATM    9  C   UNL     1      -8.321   6.349  69.395  1.00  0.00    -0.122 C  
HETATM   10  F   UNL     1      -7.139   4.313  68.679  1.00  0.00    -0.049 F  
HETATM   11  C   UNL     1      -9.312   5.177  67.922  1.00  0.00    -0.139 C  
ENDBRANCH   4   6
ENDBRANCH   1   2
BRANCH   1  12
HETATM   12  N   UNL     1     -10.023  11.361  67.558  1.00  0.00    -0.181 N  
HETATM   13  O   UNL     1      -8.610  12.725  66.348  1.00  0.00     0.005 OA 
HETATM   14  C   UNL     1      -9.334  12.572  67.335  1.00  0.00    -0.187 C  
BRANCH  12  15
HETATM   15  C   UNL     1     -10.841  11.161  68.696  1.00  0.00    -0.209 A  
HETATM   16  C   UNL     1     -12.190  11.520  68.703  1.00  0.00     0.054 A  
HETATM   17  C   UNL     1     -11.173  10.218  70.872  1.00  0.00    -0.233 A  
HETATM   18  N   UNL     1     -13.032  11.239  69.725  1.00  0.00     0.132 NA 
HETATM   19  F   UNL     1     -10.703   9.561  71.937  1.00  0.00    -0.409 F  
HETATM   20  C   UNL     1     -10.334  10.495  69.807  1.00  0.00    -0.211 A  
HETATM   21  C   UNL     1     -12.499  10.597  70.794  1.00  0.00    -0.385 A  
ENDBRANCH  12  15
BRANCH  14  22
HETATM   22  C   UNL     1      -9.571  13.761  68.336  1.00  0.00    -0.206 C  
HETATM   23  C   UNL     1     -11.831  14.490  67.995  1.00  0.00    -0.350 C  
HETATM   24  C   UNL     1     -10.977  13.642  68.922  1.00  0.00    -0.281 C  
HETATM   25  N   UNL     1      -9.578  15.118  67.788  1.00  0.00    -0.202 N  
HETATM   26  O   UNL     1     -11.283  16.637  67.100  1.00  0.00     0.014 OA 
HETATM   27  C   UNL     1     -10.885  15.578  67.563  1.00  0.00    -0.306 C  
BRANCH  25  28
HETATM   28  C   UNL     1      -8.454  15.977  67.724  1.00  0.00    -0.161 A  
HETATM   29  N   UNL     1      -7.667  15.916  66.626  1.00  0.00    -0.213 NA 
HETATM   30  C   UNL     1      -6.619  16.752  66.484  1.00  0.00    -0.102 A  
HETATM   31  C   UNL     1      -6.283  17.700  67.421  1.00  0.00    -0.166 A  
HETATM   32  C   UNL     1      -7.079  17.771  68.559  1.00  0.00    -0.245 A  
HETATM   33  C   UNL     1      -8.175  16.908  68.715  1.00  0.00    -0.244 A  
HETATM   34  C   UNL     1      -6.778  18.736  69.573  1.00  0.00    -0.167 C  
HETATM   35  N   UNL     1      -6.543  19.512  70.403  1.00  0.00    -0.024 NA 
ENDBRANCH  25  28
ENDBRANCH  14  22
ENDBRANCH   1  12
BRANCH   1  36
HETATM   36  C   UNL     1     -10.070  10.744  65.116  1.00  0.00    -0.363 A  
HETATM   37  C   UNL     1      -9.137  10.562  62.825  1.00  0.00    -0.299 A  
HETATM   38  C   UNL     1      -9.898  11.631  62.395  1.00  0.00     0.713 A  
HETATM   39 CL   UNL     1     -12.375  12.183  65.452  1.00  0.00    -0.183 Cl 
HETATM   40  C   UNL     1     -10.822  12.185  63.280  1.00  0.00    -0.381 A  
HETATM   41  C   UNL     1      -9.200  10.148  64.155  1.00  0.00    -0.314 A  
HETATM   42  C   UNL     1     -10.962  11.692  64.601  1.00  0.00    -0.301 A  
ENDBRANCH   1  36
TORSDOF 7
ENDMDL
MODEL      142
REMARK 921   NORMALIZED FREE ENERGY PREDICTED BY IDOCK:   -1.97 KCAL/MOL
REMARK 922        TOTAL FREE ENERGY PREDICTED BY IDOCK:   -4.23 KCAL/MOL
REMARK 923 INTER-LIGAND FREE ENERGY PREDICTED BY IDOCK:   -7.66 KCAL/MOL
REMARK 924 INTRA-LIGAND FREE ENERGY PREDICTED BY IDOCK:    3.43 KCAL/MOL
REMARK 927      BINDING AFFINITY PREDICTED BY RF-SCORE:    0.00 PKD
ROOT
HETATM    1  C   UNL     1     -12.063  13.421  69.134  1.00  0.00    -0.261 C  
ENDROOT
BRANCH   1   2
HETATM    2  C   UNL     1     -11.311  14.275  67.997  1.00  0.00    -0.294 C  
HETATM    3  H   UNL     1     -10.072  15.311  69.273  1.00  0.00     0.000 HD 
HETATM    4  N   UNL     1     -10.299  15.180  68.287  1.00  0.00    -0.229 N  
HETATM    5  O   UNL     1     -11.703  14.202  66.833  1.00  0.00    -0.372 OA 
BRANCH   4   6
HETATM    6  C   UNL     1      -9.495  15.997  67.288  1.00  0.00    -0.215 C  
HETATM    7  C   UNL     1      -8.975  17.817  66.290  1.00  0.00    -0.174 C  
HETATM    8  F   UNL     1      -9.230  19.133  66.136  1.00  0.00    -0.329 F  
HETATM    9  C   UNL     1     -10.198  16.857  66.200  1.00  0.00    -0.352 C  
HETATM   10  F   UNL     1      -7.946  17.521  65.462  1.00  0.00    -0.111 F  
HETATM   11  C   UNL     1      -8.815  17.310  67.751  1.00  0.00    -0.234 C  
ENDBRANCH   4   6
ENDBRANCH   1   2
BRANCH   1  12
HETATM   12  N   UNL     1     -11.526  12.008  69.239  1.00  0.00    -0.282 N  
HETATM   13  O   UNL     1     -12.723  11.509  71.147  1.00  0.00    -0.393 OA 
HETATM   14  C   UNL     1     -11.941  11.136  70.268  1.00  0.00    -0.373 C  
BRANCH  12  15
HETATM   15  C   UNL     1     -10.613  11.604  68.236  1.00  0.00    -0.205 A  
HETATM   16  C   UNL     1     -10.953  10.654  67.272  1.00  0.00    -0.284 A  
HETATM   17  C   UNL     1      -8.536  11.901  67.081  1.00  0.00    -0.172 A  
HETATM   18  N   UNL     1     -10.154  10.329  66.229  1.00  0.00    -0.232 NA 
HETATM   19  F   UNL     1      -7.355  12.514  66.953  1.00  0.00    -0.123 F  
HETATM   20  C   UNL     1      -9.378  12.235  68.127  1.00  0.00    -0.205 A  
HETATM   21  C   UNL     1      -8.955  10.959  66.162  1.00  0.00    -0.183 A  
ENDBRANCH  12  15
BRANCH  14  22
HETATM   22  C   UNL     1     -11.444   9.645  70.229  1.00  0.00    -0.233 C  
HETATM   23  C   UNL     1     -12.843   8.428  71.751  1.00  0.00    -0.371 C  
HETATM   24  C   UNL     1     -12.658   8.718  70.271  1.00  0.00     0.805 C  
HETATM   25  N   UNL     1     -10.649   9.165  71.359  1.00  0.00    -0.317 N  
HETATM   26  O   UNL     1     -11.131   7.933  73.344  1.00  0.00    -0.277 OA 
HETATM   27  C   UNL     1     -11.434   8.456  72.281  1.00  0.00    -0.384 C  
BRANCH  25  28
HETATM   28  C   UNL     1      -9.234   9.172  71.421  1.00  0.00    -0.138 A  
HETATM   29  N   UNL     1      -8.643   8.716  72.549  1.00  0.00    -0.406 NA 
HETATM   30  C   UNL     1      -7.300   8.643  72.640  1.00  0.00     0.063 A  
HETATM   31  C   UNL     1      -6.457   9.017  71.620  1.00  0.00    -0.054 A  
HETATM   32  C   UNL     1      -7.049   9.493  70.457  1.00  0.00    -0.130 A  
HETATM   33  C   UNL     1      -8.447   9.570  70.349  1.00  0.00    -0.238 A  
HETATM   34  C   UNL     1      -6.224   9.902  69.359  1.00  0.00    -0.044 C  
HETATM   35  N   UNL     1      -5.567  10.238  68.465  1.00  0.00    -0.038 NA 
ENDBRANCH  25  28
ENDBRANCH  14  22
ENDBRANCH   1  12
BRANCH   1  36
HETATM   36  C   UNL     1     -12.521  13.932  70.526  1.00  0.00    -0.422 A  
HETATM   37  C   UNL     1     -14.323  13.798  72.225  1.00  0.00    -0.462 A  
HETATM   38  C   UNL     1     -13.747  14.813  72.963  1.00  0.00    -0.238 A  
HETATM   39 CL   UNL     1     -10.205  15.221  71.211  1.00  0.00     0.624 Cl 
HETATM   40  C   UNL     1     -12.511  15.311  72.554  1.00  0.00    -0.449 A  
HETATM   41  C   UNL     1     -13.742  13.388  71.025  1.00  0.00     0.402 A  
HETATM   42  C   UNL     1     -11.868  14.817  71.391  1.00  0.00    -0.335 A  
ENDBRANCH   1  36
TORSDOF 7
ENDMDL
MODEL      143
REMARK 921   NORMALIZED FREE ENERGY PREDICTED BY IDOCK:   -1.91 KCAL/MOL
REMARK 922        TOTAL FREE ENERGY PREDICTED BY IDOCK:   -4.15 KCAL/MOL
REMARK 923 INTER-LIGAND FREE ENERGY PREDICTED BY IDOCK:   -3.50 KCAL/MOL
REMARK 924 INTRA-LIGAND FREE ENERGY PREDICTED BY IDOCK:   -0.65 KCAL/MOL
REMARK 927      BINDING AFFINITY PREDICTED BY RF-SCORE:    0.00 PKD
ROOT
HETATM    1  C   UNL     1      -8.643   8.933  69.527  1.00  0.00    -0.134 C  
ENDROOT
BRANCH   1   2
HETATM    2  C   UNL     1      -9.815   9.891  68.980  1.00  0.00    -0.190 C  
HETATM    3  H   UNL     1      -8.845  11.669  69.345  1.00  0.00     0.000 HD 
HETATM    4  N   UNL     1      -9.703  11.274  68.959  1.00  0.00    -0.116 N  
HETATM    5  O   UNL     1     -10.893   9.395  68.654  1.00  0.00    -0.195 OA 
BRANCH   4   6
HETATM    6  C   UNL     1     -10.726  12.262  68.420  1.00  0.00    -0.234 C  
HETATM    7  C   UNL     1     -11.438  14.237  68.007  1.00  0.00    -0.314 C  
HETATM    8  F   UNL     1     -11.214  15.564  68.113  1.00  0.00    -0.287 F  
HETATM    9  C   UNL     1     -11.294  13.401  69.313  1.00  0.00    -0.314 C  
HETATM   10  F   UNL     1     -12.615  14.093  67.356  1.00  0.00    -0.325 F  
HETATM   11  C   UNL     1     -10.265  13.381  67.451  1.00  0.00    -0.237 C  
ENDBRANCH   4   6
ENDBRANCH   1   2
BRANCH   1  12
HETATM   12  N   UNL     1      -7.937   8.196  68.408  1.00  0.00    -0.121 N  
HETATM   13  O   UNL     1      -8.261   9.875  66.861  1.00  0.00    -0.119 OA 
HETATM   14  C   UNL     1      -7.784   8.770  67.128  1.00  0.00    -0.096 C  
BRANCH  12  15
HETATM   15  C   UNL     1      -7.415   6.919  68.726  1.00  0.00    -0.099 A  
HETATM   16  C   UNL     1      -6.048   6.709  68.907  1.00  0.00    -0.026 A  
HETATM   17  C   UNL     1      -7.761   4.641  69.378  1.00  0.00    -0.059 A  
HETATM   18  N   UNL     1      -5.522   5.533  69.326  1.00  0.00    -0.007 NA 
HETATM   19  F   UNL     1      -8.582   3.618  69.637  1.00  0.00    -0.075 F  
HETATM   20  C   UNL     1      -8.280   5.858  68.971  1.00  0.00    -0.103 A  
HETATM   21  C   UNL     1      -6.395   4.520  69.546  1.00  0.00    -0.028 A  
ENDBRANCH  12  15
BRANCH  14  22
HETATM   22  C   UNL     1      -6.920   8.000  66.063  1.00  0.00    -0.058 C  
HETATM   23  C   UNL     1      -7.152   9.210  64.005  1.00  0.00    -0.096 C  
HETATM   24  C   UNL     1      -6.205   9.019  65.177  1.00  0.00    -0.060 C  
HETATM   25  N   UNL     1      -7.629   7.179  65.081  1.00  0.00    -0.094 N  
HETATM   26  O   UNL     1      -8.350   7.508  62.831  1.00  0.00    -0.054 OA 
HETATM   27  C   UNL     1      -7.795   7.857  63.863  1.00  0.00    -0.141 C  
BRANCH  25  28
HETATM   28  C   UNL     1      -7.896   5.795  65.216  1.00  0.00    -0.106 A  
HETATM   29  N   UNL     1      -7.075   5.061  66.003  1.00  0.00    -0.070 NA 
HETATM   30  C   UNL     1      -7.317   3.752  66.216  1.00  0.00    -0.075 A  
HETATM   31  C   UNL     1      -8.385   3.087  65.663  1.00  0.00    -0.098 A  
HETATM   32  C   UNL     1      -9.234   3.825  64.848  1.00  0.00    -0.148 A  
HETATM   33  C   UNL     1      -8.995   5.190  64.622  1.00  0.00    -0.034 A  
HETATM   34  C   UNL     1     -10.363   3.187  64.241  1.00  0.00    -0.068 C  
HETATM   35  N   UNL     1     -11.280   2.681  63.741  1.00  0.00    -0.118 NA 
ENDBRANCH  25  28
ENDBRANCH  14  22
ENDBRANCH   1  12
BRANCH   1  36
HETATM   36  C   UNL     1      -7.654   9.247  70.680  1.00  0.00    -0.161 A  
HETATM   37  C   UNL     1      -7.062   8.705  73.027  1.00  0.00     0.024 A  
HETATM   38  C   UNL     1      -6.129   9.721  73.061  1.00  0.00     0.712 A  
HETATM   39 CL   UNL     1      -5.908  10.789  69.241  1.00  0.00    -0.041 Cl 
HETATM   40  C   UNL     1      -5.873  10.426  71.886  1.00  0.00     0.482 A  
HETATM   41  C   UNL     1      -7.824   8.491  71.878  1.00  0.00    -0.157 A  
HETATM   42  C   UNL     1      -6.573  10.136  70.688  1.00  0.00    -0.064 A  
ENDBRANCH   1  36
TORSDOF 7
ENDMDL
MODEL      144
REMARK 921   NORMALIZED FREE ENERGY PREDICTED BY IDOCK:   -1.82 KCAL/MOL
REMARK 922        TOTAL FREE ENERGY PREDICTED BY IDOCK:   -4.03 KCAL/MOL
REMARK 923 INTER-LIGAND FREE ENERGY PREDICTED BY IDOCK:   -5.36 KCAL/MOL
REMARK 924 INTRA-LIGAND FREE ENERGY PREDICTED BY IDOCK:    1.33 KCAL/MOL
REMARK 927      BINDING AFFINITY PREDICTED BY RF-SCORE:    0.00 PKD
ROOT
HETATM    1  C   UNL     1      -8.786   7.972  65.464  1.00  0.00    -0.102 C  
ENDROOT
BRANCH   1   2
HETATM    2  C   UNL     1      -8.828   6.398  65.793  1.00  0.00    -0.099 C  
HETATM    3  H   UNL     1      -6.924   6.276  66.565  1.00  0.00     0.000 HD 
HETATM    4  N   UNL     1      -7.763   5.728  66.380  1.00  0.00    -0.098 N  
HETATM    5  O   UNL     1      -9.797   5.733  65.429  1.00  0.00     0.273 OA 
BRANCH   4   6
HETATM    6  C   UNL     1      -7.720   4.260  66.776  1.00  0.00    -0.093 C  
HETATM    7  C   UNL     1      -7.577   2.672  68.203  1.00  0.00    -0.055 C  
HETATM    8  F   UNL     1      -7.422   2.328  69.499  1.00  0.00    -0.043 F  
HETATM    9  C   UNL     1      -6.550   3.689  67.625  1.00  0.00    -0.042 C  
HETATM   10  F   UNL     1      -7.701   1.518  67.508  1.00  0.00    -0.055 F  
HETATM   11  C   UNL     1      -8.659   3.747  67.899  1.00  0.00    -0.113 C  
ENDBRANCH   4   6
ENDBRANCH   1   2
BRANCH   1  12
HETATM   12  N   UNL     1      -9.274   8.814  66.625  1.00  0.00    -0.165 N  
HETATM   13  O   UNL     1      -9.064   7.115  68.171  1.00  0.00    -0.134 OA 
HETATM   14  C   UNL     1      -9.350   8.291  67.933  1.00  0.00    -0.138 C  
BRANCH  12  15
HETATM   15  C   UNL     1      -9.619  10.155  66.331  1.00  0.00    -0.191 A  
HETATM   16  C   UNL     1      -8.771  11.217  66.643  1.00  0.00    -0.174 A  
HETATM   17  C   UNL     1     -11.056  11.737  65.250  1.00  0.00    -0.276 A  
HETATM   18  N   UNL     1      -9.010  12.498  66.273  1.00  0.00    -0.078 NA 
HETATM   19  F   UNL     1     -12.159  12.014  64.547  1.00  0.00    -0.414 F  
HETATM   20  C   UNL     1     -10.781  10.431  65.618  1.00  0.00     0.005 A  
HETATM   21  C   UNL     1     -10.156  12.729  65.588  1.00  0.00    -0.270 A  
ENDBRANCH  12  15
BRANCH  14  22
HETATM   22  C   UNL     1      -9.735   9.267  69.106  1.00  0.00    -0.164 C  
HETATM   23  C   UNL     1      -7.683   9.839  70.207  1.00  0.00    -0.187 C  
HETATM   24  C   UNL     1      -8.683  10.371  69.195  1.00  0.00    -0.173 C  
HETATM   25  N   UNL     1      -9.733   8.726  70.465  1.00  0.00    -0.179 N  
HETATM   26  O   UNL     1      -8.172   8.734  72.269  1.00  0.00    -0.360 OA 
HETATM   27  C   UNL     1      -8.542   9.031  71.141  1.00  0.00    -0.190 C  
BRANCH  25  28
HETATM   28  C   UNL     1     -10.862   8.189  71.130  1.00  0.00    -0.232 A  
HETATM   29  N   UNL     1     -11.993   8.931  71.166  1.00  0.00    -0.294 NA 
HETATM   30  C   UNL     1     -13.116   8.444  71.733  1.00  0.00    -0.351 A  
HETATM   31  C   UNL     1     -13.189   7.194  72.299  1.00  0.00     0.105 A  
HETATM   32  C   UNL     1     -12.034   6.422  72.275  1.00  0.00    -0.289 A  
HETATM   33  C   UNL     1     -10.860   6.916  71.685  1.00  0.00    -0.252 A  
HETATM   34  C   UNL     1     -12.047   5.112  72.852  1.00  0.00     0.131 C  
HETATM   35  N   UNL     1     -12.044   4.049  73.318  1.00  0.00     0.221 NA 
ENDBRANCH  25  28
ENDBRANCH  14  22
ENDBRANCH   1  12
BRANCH   1  36
HETATM   36  C   UNL     1      -7.681   8.724  64.675  1.00  0.00    -0.119 A  
HETATM   37  C   UNL     1      -5.239   9.134  64.527  1.00  0.00    -0.050 A  
HETATM   38  C   UNL     1      -5.427  10.106  63.566  1.00  0.00    -0.123 A  
HETATM   39 CL   UNL     1      -9.261   9.637  62.634  1.00  0.00    -0.272 Cl 
HETATM   40  C   UNL     1      -6.716  10.314  63.076  1.00  0.00    -0.126 A  
HETATM   41  C   UNL     1      -6.337   8.480  65.087  1.00  0.00    -0.056 A  
HETATM   42  C   UNL     1      -7.818   9.572  63.570  1.00  0.00    -0.134 A  
ENDBRANCH   1  36
TORSDOF 7
ENDMDL
MODEL      145
REMARK 921   NORMALIZED FREE ENERGY PREDICTED BY IDOCK:   -1.64 KCAL/MOL
REMARK 922        TOTAL FREE ENERGY PREDICTED BY IDOCK:   -3.77 KCAL/MOL
REMARK 923 INTER-LIGAND FREE ENERGY PREDICTED BY IDOCK:  -10.14 KCAL/MOL
REMARK 924 INTRA-LIGAND FREE ENERGY PREDICTED BY IDOCK:    6.37 KCAL/MOL
REMARK 927      BINDING AFFINITY PREDICTED BY RF-SCORE:    0.00 PKD
ROOT
HETATM    1  C   UNL     1     -11.153   9.028  70.564  1.00  0.00    -0.254 C  
ENDROOT
BRANCH   1   2
HETATM    2  C   UNL     1     -12.041  10.312  70.954  1.00  0.00    -0.368 C  
HETATM    3  H   UNL     1     -11.098  11.633  69.688  1.00  0.00     0.000 HD 
HETATM    4  N   UNL     1     -11.858  11.555  70.365  1.00  0.00    -0.348 N  
HETATM    5  O   UNL     1     -12.853  10.224  71.874  1.00  0.00    -0.425 OA 
BRANCH   4   6
HETATM    6  C   UNL     1     -12.671  12.814  70.624  1.00  0.00    -0.077 C  
HETATM    7  C   UNL     1     -13.281  14.479  71.821  1.00  0.00    -0.351 C  
HETATM    8  F   UNL     1     -13.166  15.124  73.002  1.00  0.00    -0.437 F  
HETATM    9  C   UNL     1     -13.564  12.949  71.890  1.00  0.00    -0.382 C  
HETATM   10  F   UNL     1     -14.150  15.194  71.072  1.00  0.00    -0.468 F  
HETATM   11  C   UNL     1     -11.951  14.097  71.110  1.00  0.00    -0.316 C  
ENDBRANCH   4   6
ENDBRANCH   1   2
BRANCH   1  12
HETATM   12  N   UNL     1     -10.254   9.292  69.373  1.00  0.00    -0.202 N  
HETATM   13  O   UNL     1     -11.432  11.149  68.677  1.00  0.00    -0.246 OA 
HETATM   14  C   UNL     1     -10.473  10.390  68.515  1.00  0.00    -0.186 C  
BRANCH  12  15
HETATM   15  C   UNL     1      -9.172   8.399  69.190  1.00  0.00    -0.150 A  
HETATM   16  C   UNL     1      -7.997   8.504  69.935  1.00  0.00    -0.106 A  
HETATM   17  C   UNL     1      -8.276   6.396  68.229  1.00  0.00    -0.116 A  
HETATM   18  N   UNL     1      -6.990   7.602  69.873  1.00  0.00    -0.053 NA 
HETATM   19  F   UNL     1      -8.399   5.342  67.416  1.00  0.00    -0.106 F  
HETATM   20  C   UNL     1      -9.305   7.318  68.324  1.00  0.00    -0.135 A  
HETATM   21  C   UNL     1      -7.151   6.568  69.012  1.00  0.00    -0.085 A  
ENDBRANCH  12  15
BRANCH  14  22
HETATM   22  C   UNL     1      -9.418  10.675  67.384  1.00  0.00    -0.154 C  
HETATM   23  C   UNL     1      -7.601  11.836  68.435  1.00  0.00    -0.123 C  
HETATM   24  C   UNL     1      -8.016  10.458  67.950  1.00  0.00    -0.102 C  
HETATM   25  N   UNL     1      -9.333  12.041  66.864  1.00  0.00    -0.194 N  
HETATM   26  O   UNL     1      -7.927  13.916  67.305  1.00  0.00    -0.176 OA 
HETATM   27  C   UNL     1      -8.287  12.758  67.464  1.00  0.00    -0.179 C  
BRANCH  25  28
HETATM   28  C   UNL     1     -10.027  12.524  65.729  1.00  0.00    -0.259 A  
HETATM   29  N   UNL     1     -10.473  11.624  64.823  1.00  0.00    -0.279 NA 
HETATM   30  C   UNL     1     -11.191  12.023  63.754  1.00  0.00    -0.440 A  
HETATM   31  C   UNL     1     -11.512  13.338  63.514  1.00  0.00    -0.200 A  
HETATM   32  C   UNL     1     -11.057  14.275  64.433  1.00  0.00    -0.235 A  
HETATM   33  C   UNL     1     -10.311  13.871  65.552  1.00  0.00    -0.347 A  
HETATM   34  C   UNL     1     -11.357  15.662  64.237  1.00  0.00    -0.171 C  
HETATM   35  N   UNL     1     -11.591  16.788  64.087  1.00  0.00    -1.057 NA 
ENDBRANCH  25  28
ENDBRANCH  14  22
ENDBRANCH   1  12
BRANCH   1  36
HETATM   36  C   UNL     1     -10.474   8.039  71.548  1.00  0.00    -0.265 A  
HETATM   37  C   UNL     1      -9.115   7.874  73.617  1.00  0.00    -0.337 A  
HETATM   38  C   UNL     1      -8.955   6.514  73.443  1.00  0.00    -0.135 A  
HETATM   39 CL   UNL     1     -11.530   5.732  70.521  1.00  0.00    -0.108 Cl 
HETATM   40  C   UNL     1      -9.637   5.895  72.396  1.00  0.00    -0.168 A  
HETATM   41  C   UNL     1      -9.830   8.621  72.681  1.00  0.00    -0.184 A  
HETATM   42  C   UNL     1     -10.452   6.641  71.508  1.00  0.00    -0.215 A  
ENDBRANCH   1  36
TORSDOF 7
ENDMDL
MODEL      146
REMARK 921   NORMALIZED FREE ENERGY PREDICTED BY IDOCK:   -1.62 KCAL/MOL
REMARK 922        TOTAL FREE ENERGY PREDICTED BY IDOCK:   -3.74 KCAL/MOL
REMARK 923 INTER-LIGAND FREE ENERGY PREDICTED BY IDOCK:   -2.31 KCAL/MOL
REMARK 924 INTRA-LIGAND FREE ENERGY PREDICTED BY IDOCK:   -1.43 KCAL/MOL
REMARK 927      BINDING AFFINITY PREDICTED BY RF-SCORE:    0.00 PKD
ROOT
HETATM    1  C   UNL     1      -7.825   9.959  67.646  1.00  0.00    -0.098 C  
ENDROOT
BRANCH   1   2
HETATM    2  C   UNL     1      -8.819  11.162  68.038  1.00  0.00    -0.142 C  
HETATM    3  H   UNL     1      -9.741  10.194  69.603  1.00  0.00     0.000 HD 
HETATM    4  N   UNL     1      -9.713  11.078  69.096  1.00  0.00    -0.134 N  
HETATM    5  O   UNL     1      -8.865  12.161  67.322  1.00  0.00    -0.171 OA 
BRANCH   4   6
HETATM    6  C   UNL     1     -10.656  12.170  69.578  1.00  0.00     0.335 C  
HETATM    7  C   UNL     1     -11.809  13.952  69.307  1.00  0.00    -0.348 C  
HETATM    8  F   UNL     1     -12.166  14.951  68.472  1.00  0.00    -0.303 F  
HETATM    9  C   UNL     1     -10.283  13.673  69.445  1.00  0.00     0.350 C  
HETATM   10  F   UNL     1     -12.464  14.168  70.471  1.00  0.00    -0.347 F  
HETATM   11  C   UNL     1     -11.918  12.507  68.743  1.00  0.00    -0.283 C  
ENDBRANCH   4   6
ENDBRANCH   1   2
BRANCH   1  12
HETATM   12  N   UNL     1      -8.222   8.650  68.298  1.00  0.00    -0.121 N  
HETATM   13  O   UNL     1      -6.977   9.021  70.204  1.00  0.00    -0.039 OA 
HETATM   14  C   UNL     1      -7.760   8.298  69.584  1.00  0.00    -0.100 C  
BRANCH  12  15
HETATM   15  C   UNL     1      -9.103   7.822  67.563  1.00  0.00    -0.129 A  
HETATM   16  C   UNL     1     -10.489   7.964  67.648  1.00  0.00    -0.234 A  
HETATM   17  C   UNL     1      -9.467   6.173  65.865  1.00  0.00     0.063 A  
HETATM   18  N   UNL     1     -11.359   7.273  66.875  1.00  0.00     0.290 NA 
HETATM   19  F   UNL     1      -8.989   5.304  64.968  1.00  0.00    -0.157 F  
HETATM   20  C   UNL     1      -8.593   6.906  66.649  1.00  0.00    -0.124 A  
HETATM   21  C   UNL     1     -10.825   6.385  66.002  1.00  0.00     1.032 A  
ENDBRANCH  12  15
BRANCH  14  22
HETATM   22  C   UNL     1      -8.326   6.989  70.248  1.00  0.00    -0.133 C  
HETATM   23  C   UNL     1      -8.350   7.390  72.612  1.00  0.00    -0.131 C  
HETATM   24  C   UNL     1      -9.257   7.380  71.394  1.00  0.00    -0.148 C  
HETATM   25  N   UNL     1      -7.374   6.099  70.912  1.00  0.00    -0.078 N  
HETATM   26  O   UNL     1      -6.674   5.780  73.170  1.00  0.00    -0.071 OA 
HETATM   27  C   UNL     1      -7.349   6.310  72.299  1.00  0.00    -0.092 C  
BRANCH  25  28
HETATM   28  C   UNL     1      -6.738   4.988  70.306  1.00  0.00    -0.036 A  
HETATM   29  N   UNL     1      -6.324   3.977  71.104  1.00  0.00    -0.018 NA 
HETATM   30  C   UNL     1      -5.767   2.869  70.576  1.00  0.00    -0.017 A  
HETATM   31  C   UNL     1      -5.584   2.692  69.226  1.00  0.00    -0.018 A  
HETATM   32  C   UNL     1      -5.999   3.724  68.393  1.00  0.00    -0.027 A  
HETATM   33  C   UNL     1      -6.583   4.882  68.931  1.00  0.00    -0.045 A  
HETATM   34  C   UNL     1      -5.832   3.600  66.976  1.00  0.00    -0.023 C  
HETATM   35  N   UNL     1      -5.701   3.512  65.826  1.00  0.00    -0.018 NA 
ENDBRANCH  25  28
ENDBRANCH  14  22
ENDBRANCH   1  12
BRANCH   1  36
HETATM   36  C   UNL     1      -7.187   9.700  66.256  1.00  0.00    -0.094 A  
HETATM   37  C   UNL     1      -5.164   8.854  65.096  1.00  0.00    -0.038 A  
HETATM   38  C   UNL     1      -5.650   9.272  63.874  1.00  0.00    -0.070 A  
HETATM   39 CL   UNL     1      -9.407  10.224  64.743  1.00  0.00    -0.281 Cl 
HETATM   40  C   UNL     1      -6.939   9.799  63.818  1.00  0.00    -0.119 A  
HETATM   41  C   UNL     1      -5.898   9.086  66.259  1.00  0.00    -0.058 A  
HETATM   42  C   UNL     1      -7.728   9.936  64.987  1.00  0.00    -0.133 A  
ENDBRANCH   1  36
TORSDOF 7
ENDMDL
MODEL      147
REMARK 921   NORMALIZED FREE ENERGY PREDICTED BY IDOCK:   -1.49 KCAL/MOL
REMARK 922        TOTAL FREE ENERGY PREDICTED BY IDOCK:   -3.55 KCAL/MOL
REMARK 923 INTER-LIGAND FREE ENERGY PREDICTED BY IDOCK:   -9.77 KCAL/MOL
REMARK 924 INTRA-LIGAND FREE ENERGY PREDICTED BY IDOCK:    6.22 KCAL/MOL
REMARK 927      BINDING AFFINITY PREDICTED BY RF-SCORE:    0.00 PKD
ROOT
HETATM    1  C   UNL     1      -9.975  10.816  66.632  1.00  0.00    -0.206 C  
ENDROOT
BRANCH   1   2
HETATM    2  C   UNL     1      -9.984  10.128  68.087  1.00  0.00    -0.147 C  
HETATM    3  H   UNL     1     -11.797  10.895  68.688  1.00  0.00     0.000 HD 
HETATM    4  N   UNL     1     -11.034  10.285  68.981  1.00  0.00    -0.222 N  
HETATM    5  O   UNL     1      -8.988   9.517  68.468  1.00  0.00    -0.127 OA 
BRANCH   4   6
HETATM    6  C   UNL     1     -11.162   9.642  70.354  1.00  0.00    -0.283 C  
HETATM    7  C   UNL     1     -12.136   8.392  71.791  1.00  0.00    -0.328 C  
HETATM    8  F   UNL     1     -13.190   7.595  72.065  1.00  0.00    -0.314 F  
HETATM    9  C   UNL     1     -12.461   9.794  71.195  1.00  0.00    -0.443 C  
HETATM   10  F   UNL     1     -11.359   8.401  72.898  1.00  0.00    -0.427 F  
HETATM   11  C   UNL     1     -11.386   8.112  70.458  1.00  0.00    -0.222 C  
ENDBRANCH   4   6
ENDBRANCH   1   2
BRANCH   1  12
HETATM   12  N   UNL     1     -10.445  12.255  66.674  1.00  0.00    -0.220 N  
HETATM   13  O   UNL     1     -12.376  11.843  65.482  1.00  0.00    -0.352 OA 
HETATM   14  C   UNL     1     -11.667  12.649  66.090  1.00  0.00    -0.406 C  
BRANCH  12  15
HETATM   15  C   UNL     1      -9.609  13.171  67.357  1.00  0.00    -0.219 A  
HETATM   16  C   UNL     1      -9.623  13.284  68.747  1.00  0.00     0.066 A  
HETATM   17  C   UNL     1      -7.791  14.729  67.339  1.00  0.00    -0.200 A  
HETATM   18  N   UNL     1      -8.759  14.060  69.443  1.00  0.00     0.457 NA 
HETATM   19  F   UNL     1      -6.868  15.431  66.672  1.00  0.00     0.014 F  
HETATM   20  C   UNL     1      -8.668  13.912  66.649  1.00  0.00    -0.038 A  
HETATM   21  C   UNL     1      -7.863  14.773  68.718  1.00  0.00    -0.146 A  
ENDBRANCH  12  15
BRANCH  14  22
HETATM   22  C   UNL     1     -12.150  14.131  66.296  1.00  0.00    -0.442 C  
HETATM   23  C   UNL     1     -10.796  15.488  64.854  1.00  0.00    -0.447 C  
HETATM   24  C   UNL     1     -12.167  14.839  64.942  1.00  0.00    -0.304 C  
HETATM   25  N   UNL     1     -11.303  15.015  67.097  1.00  0.00    -0.339 N  
HETATM   26  O   UNL     1      -9.642  16.652  66.593  1.00  0.00    -0.240 OA 
HETATM   27  C   UNL     1     -10.485  15.820  66.288  1.00  0.00    -0.309 C  
BRANCH  25  28
HETATM   28  C   UNL     1     -11.446  15.241  68.487  1.00  0.00    -0.342 A  
HETATM   29  N   UNL     1     -10.903  16.364  69.010  1.00  0.00    -0.311 NA 
HETATM   30  C   UNL     1     -11.060  16.661  70.316  1.00  0.00    -0.025 A  
HETATM   31  C   UNL     1     -11.764  15.863  71.186  1.00  0.00    -0.490 A  
HETATM   32  C   UNL     1     -12.323  14.703  70.666  1.00  0.00    -0.398 A  
HETATM   33  C   UNL     1     -12.169  14.386  69.307  1.00  0.00    -0.274 A  
HETATM   34  C   UNL     1     -13.066  13.829  71.524  1.00  0.00    -0.357 C  
HETATM   35  N   UNL     1     -13.668  13.113  72.209  1.00  0.00    -0.572 NA 
ENDBRANCH  25  28
ENDBRANCH  14  22
ENDBRANCH   1  12
BRANCH   1  36
HETATM   36  C   UNL     1      -8.904  10.627  65.525  1.00  0.00    -0.202 A  
HETATM   37  C   UNL     1      -8.559  10.359  63.083  1.00  0.00    -0.191 A  
HETATM   38  C   UNL     1      -7.218  10.091  63.269  1.00  0.00    -0.134 A  
HETATM   39 CL   UNL     1      -6.697  11.018  67.097  1.00  0.00    -0.089 Cl 
HETATM   40  C   UNL     1      -6.692  10.198  64.556  1.00  0.00    -0.117 A  
HETATM   41  C   UNL     1      -9.386  10.593  64.182  1.00  0.00    -0.297 A  
HETATM   42  C   UNL     1      -7.513  10.542  65.659  1.00  0.00    -0.129 A  
ENDBRANCH   1  36
TORSDOF 7
ENDMDL
MODEL      148
REMARK 921   NORMALIZED FREE ENERGY PREDICTED BY IDOCK:   -1.43 KCAL/MOL
REMARK 922        TOTAL FREE ENERGY PREDICTED BY IDOCK:   -3.48 KCAL/MOL
REMARK 923 INTER-LIGAND FREE ENERGY PREDICTED BY IDOCK:   -8.63 KCAL/MOL
REMARK 924 INTRA-LIGAND FREE ENERGY PREDICTED BY IDOCK:    5.15 KCAL/MOL
REMARK 927      BINDING AFFINITY PREDICTED BY RF-SCORE:    0.00 PKD
ROOT
HETATM    1  C   UNL     1      -9.515  15.659  68.411  1.00  0.00    -0.196 C  
ENDROOT
BRANCH   1   2
HETATM    2  C   UNL     1     -10.793  15.622  69.388  1.00  0.00    -0.264 C  
HETATM    3  H   UNL     1     -10.239  13.931  70.422  1.00  0.00     0.000 HD 
HETATM    4  N   UNL     1     -10.957  14.653  70.369  1.00  0.00    -0.067 N  
HETATM    5  O   UNL     1     -11.711  16.420  69.207  1.00  0.00    -0.195 OA 
BRANCH   4   6
HETATM    6  C   UNL     1     -12.096  14.558  71.371  1.00  0.00    -0.354 C  
HETATM    7  C   UNL     1     -13.527  15.402  72.719  1.00  0.00    -0.538 C  
HETATM    8  F   UNL     1     -14.015  16.522  73.293  1.00  0.00    -0.543 F  
HETATM    9  C   UNL     1     -11.984  15.203  72.781  1.00  0.00    -0.482 C  
HETATM   10  F   UNL     1     -14.263  14.371  73.195  1.00  0.00    -0.108 F  
HETATM   11  C   UNL     1     -13.358  15.436  71.174  1.00  0.00    -0.580 C  
ENDBRANCH   4   6
ENDBRANCH   1   2
BRANCH   1  12
HETATM   12  N   UNL     1      -9.531  14.528  67.403  1.00  0.00    -0.198 N  
HETATM   13  O   UNL     1      -7.757  13.412  68.367  1.00  0.00    -0.127 OA 
HETATM   14  C   UNL     1      -8.625  13.450  67.492  1.00  0.00    -0.200 C  
BRANCH  12  15
HETATM   15  C   UNL     1     -10.519  14.598  66.392  1.00  0.00    -0.295 A  
HETATM   16  C   UNL     1     -11.679  13.824  66.444  1.00  0.00    -0.379 A  
HETATM   17  C   UNL     1     -11.421  15.658  64.443  1.00  0.00    -0.262 A  
HETATM   18  N   UNL     1     -12.699  13.947  65.562  1.00  0.00    -0.611 NA 
HETATM   19  F   UNL     1     -11.327  16.565  63.466  1.00  0.00     0.319 F  
HETATM   20  C   UNL     1     -10.399  15.532  65.368  1.00  0.00    -0.422 A  
HETATM   21  C   UNL     1     -12.542  14.862  64.574  1.00  0.00    -0.046 A  
ENDBRANCH  12  15
BRANCH  14  22
HETATM   22  C   UNL     1      -8.795  12.248  66.491  1.00  0.00    -0.128 C  
HETATM   23  C   UNL     1     -10.999  11.376  66.853  1.00  0.00    -0.355 C  
HETATM   24  C   UNL     1     -10.211  12.278  65.919  1.00  0.00    -0.274 C  
HETATM   25  N   UNL     1      -8.710  10.894  67.037  1.00  0.00    -0.139 N  
HETATM   26  O   UNL     1     -10.308   9.268  67.740  1.00  0.00    -0.209 OA 
HETATM   27  C   UNL     1      -9.982  10.351  67.274  1.00  0.00    -0.188 C  
BRANCH  25  28
HETATM   28  C   UNL     1      -7.532  10.109  67.090  1.00  0.00    -0.091 A  
HETATM   29  N   UNL     1      -6.761  10.040  65.981  1.00  0.00    -0.093 NA 
HETATM   30  C   UNL     1      -5.599   9.357  65.993  1.00  0.00    -0.045 A  
HETATM   31  C   UNL     1      -5.127   8.699  67.103  1.00  0.00    -0.033 A  
HETATM   32  C   UNL     1      -5.910   8.755  68.249  1.00  0.00    -0.042 A  
HETATM   33  C   UNL     1      -7.121   9.467  68.250  1.00  0.00    -0.076 A  
HETATM   34  C   UNL     1      -5.473   8.087  69.438  1.00  0.00    -0.026 C  
HETATM   35  N   UNL     1      -5.131   7.548  70.407  1.00  0.00    -0.023 NA 
ENDBRANCH  25  28
ENDBRANCH  14  22
ENDBRANCH   1  12
BRANCH   1  36
HETATM   36  C   UNL     1      -8.854  16.922  67.799  1.00  0.00    -0.217 A  
HETATM   37  C   UNL     1      -6.692  17.938  67.129  1.00  0.00    -0.200 A  
HETATM   38  C   UNL     1      -7.302  19.151  66.881  1.00  0.00    -0.220 A  
HETATM   39 CL   UNL     1     -11.157  18.210  67.068  1.00  0.00     0.032 Cl 
HETATM   40  C   UNL     1      -8.690  19.228  66.980  1.00  0.00    -0.319 A  
HETATM   41  C   UNL     1      -7.442  16.861  67.602  1.00  0.00    -0.176 A  
HETATM   42  C   UNL     1      -9.464  18.102  67.357  1.00  0.00    -0.255 A  
ENDBRANCH   1  36
TORSDOF 7
ENDMDL
MODEL      149
REMARK 921   NORMALIZED FREE ENERGY PREDICTED BY IDOCK:   -1.35 KCAL/MOL
REMARK 922        TOTAL FREE ENERGY PREDICTED BY IDOCK:   -3.35 KCAL/MOL
REMARK 923 INTER-LIGAND FREE ENERGY PREDICTED BY IDOCK:   -4.89 KCAL/MOL
REMARK 924 INTRA-LIGAND FREE ENERGY PREDICTED BY IDOCK:    1.54 KCAL/MOL
REMARK 927      BINDING AFFINITY PREDICTED BY RF-SCORE:    0.00 PKD
ROOT
HETATM    1  C   UNL     1      -7.328  10.056  70.554  1.00  0.00     0.013 C  
ENDROOT
BRANCH   1   2
HETATM    2  C   UNL     1      -6.597  11.330  69.896  1.00  0.00    -0.108 C  
HETATM    3  H   UNL     1      -8.316  12.334  69.374  1.00  0.00     0.000 HD 
HETATM    4  N   UNL     1      -7.299  12.403  69.364  1.00  0.00     0.209 N  
HETATM    5  O   UNL     1      -5.373  11.321  69.768  1.00  0.00    -0.048 OA 
BRANCH   4   6
HETATM    6  C   UNL     1      -6.707  13.670  68.767  1.00  0.00    -0.104 C  
HETATM    7  C   UNL     1      -6.849  15.652  67.973  1.00  0.00    -0.132 C  
HETATM    8  F   UNL     1      -7.659  16.675  67.626  1.00  0.00    -0.144 F  
HETATM    9  C   UNL     1      -7.229  14.247  67.421  1.00  0.00    -0.137 C  
HETATM   10  F   UNL     1      -5.584  16.053  67.710  1.00  0.00    -0.108 F  
HETATM   11  C   UNL     1      -7.071  15.044  69.387  1.00  0.00    -0.186 C  
ENDBRANCH   4   6
ENDBRANCH   1   2
BRANCH   1  12
HETATM   12  N   UNL     1      -8.372   9.456  69.635  1.00  0.00    -0.132 N  
HETATM   13  O   UNL     1      -6.833   8.341  68.328  1.00  0.00    -0.063 OA 
HETATM   14  C   UNL     1      -8.014   8.598  68.574  1.00  0.00    -0.116 C  
BRANCH  12  15
HETATM   15  C   UNL     1      -9.721   9.779  69.918  1.00  0.00    -0.238 A  
HETATM   16  C   UNL     1     -10.473   9.051  70.841  1.00  0.00    -0.254 A  
HETATM   17  C   UNL     1     -11.583  11.270  69.713  1.00  0.00    -0.333 A  
HETATM   18  N   UNL     1     -11.723   9.398  71.225  1.00  0.00    -0.331 NA 
HETATM   19  F   UNL     1     -12.142  12.367  69.190  1.00  0.00    -0.317 F  
HETATM   20  C   UNL     1     -10.297  10.911  69.350  1.00  0.00    -0.174 A  
HETATM   21  C   UNL     1     -12.254  10.501  70.644  1.00  0.00    -0.352 A  
ENDBRANCH  12  15
BRANCH  14  22
HETATM   22  C   UNL     1      -9.163   7.907  67.752  1.00  0.00    -0.137 C  
HETATM   23  C   UNL     1      -9.807   5.961  68.998  1.00  0.00    -0.193 C  
HETATM   24  C   UNL     1     -10.226   7.395  68.723  1.00  0.00    -0.199 C  
HETATM   25  N   UNL     1      -8.826   6.700  66.997  1.00  0.00    -0.112 N  
HETATM   26  O   UNL     1      -9.033   4.359  67.403  1.00  0.00    -0.108 OA 
HETATM   27  C   UNL     1      -9.177   5.537  67.699  1.00  0.00    -0.110 C  
BRANCH  25  28
HETATM   28  C   UNL     1      -8.437   6.672  65.636  1.00  0.00    -0.144 A  
HETATM   29  N   UNL     1      -8.233   7.852  65.007  1.00  0.00    -0.143 NA 
HETATM   30  C   UNL     1      -7.803   7.885  63.729  1.00  0.00    -0.141 A  
HETATM   31  C   UNL     1      -7.549   6.752  62.994  1.00  0.00    -0.088 A  
HETATM   32  C   UNL     1      -7.758   5.531  63.625  1.00  0.00    -0.089 A  
HETATM   33  C   UNL     1      -8.202   5.485  64.956  1.00  0.00    -0.139 A  
HETATM   34  C   UNL     1      -7.513   4.315  62.911  1.00  0.00    -0.049 C  
HETATM   35  N   UNL     1      -7.320   3.322  62.342  1.00  0.00    -0.040 NA 
ENDBRANCH  25  28
ENDBRANCH  14  22
ENDBRANCH   1  12
BRANCH   1  36
HETATM   36  C   UNL     1      -6.663   8.950  71.415  1.00  0.00    -0.085 A  
HETATM   37  C   UNL     1      -6.362   6.500  71.661  1.00  0.00    -0.042 A  
HETATM   38  C   UNL     1      -5.740   6.666  72.882  1.00  0.00    -0.038 A  
HETATM   39 CL   UNL     1      -5.150  10.593  72.999  1.00  0.00     0.163 Cl 
HETATM   40  C   UNL     1      -5.476   7.963  73.321  1.00  0.00    -0.045 A  
HETATM   41  C   UNL     1      -6.836   7.609  70.960  1.00  0.00    -0.049 A  
HETATM   42  C   UNL     1      -5.863   9.091  72.555  1.00  0.00    -0.049 A  
ENDBRANCH   1  36
TORSDOF 7
ENDMDL
MODEL      150
REMARK 921   NORMALIZED FREE ENERGY PREDICTED BY IDOCK:   -1.34 KCAL/MOL
REMARK 922        TOTAL FREE ENERGY PREDICTED BY IDOCK:   -3.34 KCAL/MOL
REMARK 923 INTER-LIGAND FREE ENERGY PREDICTED BY IDOCK:   -5.69 KCAL/MOL
REMARK 924 INTRA-LIGAND FREE ENERGY PREDICTED BY IDOCK:    2.35 KCAL/MOL
REMARK 927      BINDING AFFINITY PREDICTED BY RF-SCORE:    0.00 PKD
ROOT
HETATM    1  C   UNL     1      -7.362  13.984  69.092  1.00  0.00    -0.037 C  
ENDROOT
BRANCH   1   2
HETATM    2  C   UNL     1      -6.926  15.380  68.420  1.00  0.00    -0.111 C  
HETATM    3  H   UNL     1      -8.678  16.382  68.820  1.00  0.00     0.000 HD 
HETATM    4  N   UNL     1      -7.751  16.495  68.410  1.00  0.00    -0.180 N  
HETATM    5  O   UNL     1      -5.861  15.444  67.807  1.00  0.00    -0.138 OA 
BRANCH   4   6
HETATM    6  C   UNL     1      -7.417  17.869  67.848  1.00  0.00    -0.216 C  
HETATM    7  C   UNL     1      -7.914  19.872  67.285  1.00  0.00    -0.302 C  
HETATM    8  F   UNL     1      -8.879  20.809  67.179  1.00  0.00    -0.420 F  
HETATM    9  C   UNL     1      -8.229  18.476  66.670  1.00  0.00    -0.288 C  
HETATM   10  F   UNL     1      -6.766  20.447  66.855  1.00  0.00    -0.223 F  
HETATM   11  C   UNL     1      -7.814  19.134  68.650  1.00  0.00    -0.390 C  
ENDBRANCH   4   6
ENDBRANCH   1   2
BRANCH   1  12
HETATM   12  N   UNL     1      -8.117  13.094  68.126  1.00  0.00    -0.147 N  
HETATM   13  O   UNL     1      -6.230  11.982  67.403  1.00  0.00    -0.103 OA 
HETATM   14  C   UNL     1      -7.455  12.116  67.354  1.00  0.00    -0.156 C  
BRANCH  12  15
HETATM   15  C   UNL     1      -9.519  13.276  68.065  1.00  0.00    -0.219 A  
HETATM   16  C   UNL     1     -10.369  12.776  69.051  1.00  0.00     0.069 A  
HETATM   17  C   UNL     1     -11.434  14.314  67.069  1.00  0.00    -0.361 A  
HETATM   18  N   UNL     1     -11.699  13.029  69.091  1.00  0.00    -0.310 NA 
HETATM   19  F   UNL     1     -11.976  15.084  66.120  1.00  0.00    -0.268 F  
HETATM   20  C   UNL     1     -10.073  14.062  67.059  1.00  0.00    -0.255 A  
HETATM   21  C   UNL     1     -12.203  13.791  68.090  1.00  0.00    -0.143 A  
ENDBRANCH  12  15
BRANCH  14  22
HETATM   22  C   UNL     1      -8.324  11.141  66.478  1.00  0.00    -0.166 C  
HETATM   23  C   UNL     1      -9.140   9.446  67.966  1.00  0.00    -0.131 C  
HETATM   24  C   UNL     1      -9.562  10.731  67.276  1.00  0.00    -0.182 C  
HETATM   25  N   UNL     1      -7.742   9.847  66.123  1.00  0.00    -0.104 N  
HETATM   26  O   UNL     1      -7.905   7.638  67.009  1.00  0.00    -0.108 OA 
HETATM   27  C   UNL     1      -8.186   8.828  66.980  1.00  0.00    -0.103 C  
BRANCH  25  28
HETATM   28  C   UNL     1      -7.029   9.573  64.931  1.00  0.00    -0.106 A  
HETATM   29  N   UNL     1      -6.522  10.618  64.237  1.00  0.00     0.078 NA 
HETATM   30  C   UNL     1      -5.784  10.414  63.128  1.00  0.00    -0.150 A  
HETATM   31  C   UNL     1      -5.502   9.162  62.635  1.00  0.00    -0.084 A  
HETATM   32  C   UNL     1      -6.020   8.078  63.334  1.00  0.00    -0.067 A  
HETATM   33  C   UNL     1      -6.787   8.279  64.492  1.00  0.00    -0.068 A  
HETATM   34  C   UNL     1      -5.763   6.748  62.868  1.00  0.00    -0.035 C  
HETATM   35  N   UNL     1      -5.563   5.666  62.500  1.00  0.00    -0.014 NA 
ENDBRANCH  25  28
ENDBRANCH  14  22
ENDBRANCH   1  12
BRANCH   1  36
HETATM   36  C   UNL     1      -6.522  13.127  70.076  1.00  0.00     0.079 A  
HETATM   37  C   UNL     1      -5.867  10.810  70.672  1.00  0.00    -0.111 A  
HETATM   38  C   UNL     1      -5.242  11.248  71.822  1.00  0.00     0.129 A  
HETATM   39 CL   UNL     1      -5.218  15.188  71.318  1.00  0.00    -0.133 Cl 
HETATM   40  C   UNL     1      -5.155  12.621  72.047  1.00  0.00     0.016 A  
HETATM   41  C   UNL     1      -6.514  11.720  69.836  1.00  0.00    -0.063 A  
HETATM   42  C   UNL     1      -5.720  13.552  71.140  1.00  0.00    -0.172 A  
ENDBRANCH   1  36
TORSDOF 7
ENDMDL
MODEL      151
REMARK 921   NORMALIZED FREE ENERGY PREDICTED BY IDOCK:   -0.86 KCAL/MOL
REMARK 922        TOTAL FREE ENERGY PREDICTED BY IDOCK:   -2.66 KCAL/MOL
REMARK 923 INTER-LIGAND FREE ENERGY PREDICTED BY IDOCK:   -4.85 KCAL/MOL
REMARK 924 INTRA-LIGAND FREE ENERGY PREDICTED BY IDOCK:    2.19 KCAL/MOL
REMARK 927      BINDING AFFINITY PREDICTED BY RF-SCORE:    0.00 PKD
ROOT
HETATM    1  C   UNL     1     -10.577  15.097  67.686  1.00  0.00    -0.263 C  
ENDROOT
BRANCH   1   2
HETATM    2  C   UNL     1     -11.232  14.290  66.457  1.00  0.00    -0.332 C  
HETATM    3  H   UNL     1      -9.613  13.071  66.098  1.00  0.00     0.000 HD 
HETATM    4  N   UNL     1     -10.566  13.269  65.794  1.00  0.00    -0.279 N  
HETATM    5  O   UNL     1     -12.325  14.645  66.020  1.00  0.00    -0.256 OA 
BRANCH   4   6
HETATM    6  C   UNL     1     -11.111  12.414  64.660  1.00  0.00    -0.307 C  
HETATM    7  C   UNL     1     -12.513  11.977  63.104  1.00  0.00    -0.263 C  
HETATM    8  F   UNL     1     -13.640  12.350  62.461  1.00  0.00     0.669 F  
HETATM    9  C   UNL     1     -12.586  11.923  64.658  1.00  0.00     0.070 C  
HETATM   10  F   UNL     1     -12.083  10.843  62.505  1.00  0.00     0.538 F  
HETATM   11  C   UNL     1     -11.430  13.077  63.295  1.00  0.00    -0.142 C  
ENDBRANCH   4   6
ENDBRANCH   1   2
BRANCH   1  12
HETATM   12  N   UNL     1      -9.339  14.412  68.228  1.00  0.00    -0.200 N  
HETATM   13  O   UNL     1     -10.451  12.474  68.801  1.00  0.00    -0.213 OA 
HETATM   14  C   UNL     1      -9.389  13.097  68.736  1.00  0.00     0.130 C  
BRANCH  12  15
HETATM   15  C   UNL     1      -8.133  15.149  68.167  1.00  0.00    -0.137 A  
HETATM   16  C   UNL     1      -7.596  15.581  66.953  1.00  0.00    -0.127 A  
HETATM   17  C   UNL     1      -6.384  16.358  69.268  1.00  0.00    -0.186 A  
HETATM   18  N   UNL     1      -6.511  16.386  66.860  1.00  0.00    -0.264 NA 
HETATM   19  F   UNL     1      -5.784  16.771  70.390  1.00  0.00    -0.204 F  
HETATM   20  C   UNL     1      -7.507  15.554  69.341  1.00  0.00    -0.219 A  
HETATM   21  C   UNL     1      -5.924  16.752  68.026  1.00  0.00    -0.126 A  
ENDBRANCH  12  15
BRANCH  14  22
HETATM   22  C   UNL     1      -8.038  12.406  69.152  1.00  0.00     0.460 C  
HETATM   23  C   UNL     1      -6.901  11.866  67.111  1.00  0.00    -0.144 C  
HETATM   24  C   UNL     1      -6.927  12.897  68.226  1.00  0.00    -0.099 C  
HETATM   25  N   UNL     1      -7.946  10.954  69.005  1.00  0.00    -0.141 N  
HETATM   26  O   UNL     1      -7.055   9.492  67.343  1.00  0.00    -0.084 OA 
HETATM   27  C   UNL     1      -7.296  10.595  67.814  1.00  0.00    -0.089 C  
BRANCH  25  28
HETATM   28  C   UNL     1      -8.230  10.012  70.023  1.00  0.00    -0.116 A  
HETATM   29  N   UNL     1      -9.525   9.794  70.347  1.00  0.00    -0.214 NA 
HETATM   30  C   UNL     1      -9.857   8.865  71.266  1.00  0.00    -0.291 A  
HETATM   31  C   UNL     1      -8.928   8.094  71.923  1.00  0.00    -0.225 A  
HETATM   32  C   UNL     1      -7.592   8.310  71.605  1.00  0.00    -0.112 A  
HETATM   33  C   UNL     1      -7.235   9.272  70.647  1.00  0.00    -0.120 A  
HETATM   34  C   UNL     1      -6.576   7.539  72.258  1.00  0.00    -0.055 C  
HETATM   35  N   UNL     1      -5.744   6.923  72.781  1.00  0.00    -0.038 NA 
ENDBRANCH  25  28
ENDBRANCH  14  22
ENDBRANCH   1  12
BRANCH   1  36
HETATM   36  C   UNL     1     -10.446  16.638  67.816  1.00  0.00    -0.316 A  
HETATM   37  C   UNL     1     -10.184  18.506  69.427  1.00  0.00     0.185 A  
HETATM   38  C   UNL     1     -10.369  19.438  68.426  1.00  0.00    -0.461 A  
HETATM   39 CL   UNL     1     -10.193  17.200  65.149  1.00  0.00     0.215 Cl 
HETATM   40  C   UNL     1     -10.480  18.987  67.112  1.00  0.00    -0.522 A  
HETATM   41  C   UNL     1     -10.249  17.143  69.136  1.00  0.00    -0.284 A  
HETATM   42  C   UNL     1     -10.437  17.604  66.804  1.00  0.00    -0.289 A  
ENDBRANCH   1  36
TORSDOF 7
ENDMDL
MODEL      152
REMARK 921   NORMALIZED FREE ENERGY PREDICTED BY IDOCK:   -0.75 KCAL/MOL
REMARK 922        TOTAL FREE ENERGY PREDICTED BY IDOCK:   -2.52 KCAL/MOL
REMARK 923 INTER-LIGAND FREE ENERGY PREDICTED BY IDOCK:   -9.17 KCAL/MOL
REMARK 924 INTRA-LIGAND FREE ENERGY PREDICTED BY IDOCK:    6.66 KCAL/MOL
REMARK 927      BINDING AFFINITY PREDICTED BY RF-SCORE:    0.00 PKD
ROOT
HETATM    1  C   UNL     1     -10.799   9.708  68.840  1.00  0.00    -0.174 C  
ENDROOT
BRANCH   1   2
HETATM    2  C   UNL     1     -10.412  10.954  67.898  1.00  0.00    -0.195 C  
HETATM    3  H   UNL     1     -12.208  11.048  66.898  1.00  0.00     0.000 HD 
HETATM    4  N   UNL     1     -11.298  11.500  66.979  1.00  0.00    -0.301 N  
HETATM    5  O   UNL     1      -9.261  11.386  67.917  1.00  0.00    -0.155 OA 
BRANCH   4   6
HETATM    6  C   UNL     1     -11.050  12.702  66.081  1.00  0.00    -0.292 C  
HETATM    7  C   UNL     1     -11.691  14.285  64.793  1.00  0.00    -0.415 C  
HETATM    8  F   UNL     1     -12.728  14.891  64.177  1.00  0.00    -0.463 F  
HETATM    9  C   UNL     1     -11.586  12.741  64.622  1.00  0.00    -0.384 C  
HETATM   10  F   UNL     1     -10.580  14.981  64.456  1.00  0.00    -0.392 F  
HETATM   11  C   UNL     1     -11.860  14.003  66.313  1.00  0.00    -0.428 C  
ENDBRANCH   4   6
ENDBRANCH   1   2
BRANCH   1  12
HETATM   12  N   UNL     1      -9.651   8.731  68.999  1.00  0.00    -0.160 N  
HETATM   13  O   UNL     1      -8.631   9.934  70.682  1.00  0.00    -0.130 OA 
HETATM   14  C   UNL     1      -8.642   8.931  69.964  1.00  0.00    -0.142 C  
BRANCH  12  15
HETATM   15  C   UNL     1      -9.667   7.598  68.151  1.00  0.00    -0.153 A  
HETATM   16  C   UNL     1     -10.418   6.462  68.456  1.00  0.00    -0.224 A  
HETATM   17  C   UNL     1      -9.112   6.561  66.065  1.00  0.00    -0.086 A  
HETATM   18  N   UNL     1     -10.552   5.408  67.617  1.00  0.00    -0.161 NA 
HETATM   19  F   UNL     1      -8.498   6.595  64.878  1.00  0.00    -0.138 F  
HETATM   20  C   UNL     1      -9.006   7.638  66.928  1.00  0.00    -0.156 A  
HETATM   21  C   UNL     1      -9.887   5.480  66.438  1.00  0.00    -0.167 A  
ENDBRANCH  12  15
BRANCH  14  22
HETATM   22  C   UNL     1      -7.562   7.804  70.159  1.00  0.00    -0.085 C  
HETATM   23  C   UNL     1      -6.200   7.825  68.186  1.00  0.00    -0.045 C  
HETATM   24  C   UNL     1      -6.221   8.306  69.626  1.00  0.00    -0.032 C  
HETATM   25  N   UNL     1      -7.743   6.556  69.418  1.00  0.00    -0.099 N  
HETATM   26  O   UNL     1      -6.877   5.681  67.375  1.00  0.00    -0.057 OA 
HETATM   27  C   UNL     1      -6.970   6.533  68.247  1.00  0.00    -0.080 C  
BRANCH  25  28
HETATM   28  C   UNL     1      -8.398   5.402  69.912  1.00  0.00    -0.100 A  
HETATM   29  N   UNL     1      -8.154   4.220  69.302  1.00  0.00    -0.063 NA 
HETATM   30  C   UNL     1      -8.703   3.080  69.768  1.00  0.00    -0.074 A  
HETATM   31  C   UNL     1      -9.528   3.039  70.866  1.00  0.00    -0.229 A  
HETATM   32  C   UNL     1      -9.793   4.246  71.501  1.00  0.00    -0.260 A  
HETATM   33  C   UNL     1      -9.224   5.439  71.027  1.00  0.00    -0.179 A  
HETATM   34  C   UNL     1     -10.648   4.268  72.650  1.00  0.00    -0.140 C  
HETATM   35  N   UNL     1     -11.341   4.300  73.579  1.00  0.00    -0.272 NA 
ENDBRANCH  25  28
ENDBRANCH  14  22
ENDBRANCH   1  12
BRANCH   1  36
HETATM   36  C   UNL     1     -11.653   9.756  70.134  1.00  0.00    -0.239 A  
HETATM   37  C   UNL     1     -12.553   8.395  72.003  1.00  0.00    -0.400 A  
HETATM   38  C   UNL     1     -13.319   9.453  72.449  1.00  0.00    -0.503 A  
HETATM   39 CL   UNL     1     -11.912  12.476  70.290  1.00  0.00    -0.410 Cl 
HETATM   40  C   UNL     1     -13.175  10.687  71.817  1.00  0.00    -0.526 A  
HETATM   41  C   UNL     1     -11.763   8.532  70.861  1.00  0.00    -0.274 A  
HETATM   42  C   UNL     1     -12.290  10.854  70.723  1.00  0.00    -0.390 A  
ENDBRANCH   1  36
TORSDOF 7
ENDMDL
MODEL      153
REMARK 921   NORMALIZED FREE ENERGY PREDICTED BY IDOCK:   -0.61 KCAL/MOL
REMARK 922        TOTAL FREE ENERGY PREDICTED BY IDOCK:   -2.32 KCAL/MOL
REMARK 923 INTER-LIGAND FREE ENERGY PREDICTED BY IDOCK:   -4.36 KCAL/MOL
REMARK 924 INTRA-LIGAND FREE ENERGY PREDICTED BY IDOCK:    2.05 KCAL/MOL
REMARK 927      BINDING AFFINITY PREDICTED BY RF-SCORE:    0.00 PKD
ROOT
HETATM    1  C   UNL     1      -9.394   9.930  69.005  1.00  0.00    -0.174 C  
ENDROOT
BRANCH   1   2
HETATM    2  C   UNL     1     -10.661  10.542  69.788  1.00  0.00    -0.227 C  
HETATM    3  H   UNL     1     -10.219  12.519  69.424  1.00  0.00     0.000 HD 
HETATM    4  N   UNL     1     -10.906  11.906  69.862  1.00  0.00     0.277 N  
HETATM    5  O   UNL     1     -11.393   9.789  70.427  1.00  0.00    -0.262 OA 
BRANCH   4   6
HETATM    6  C   UNL     1     -12.093  12.581  70.531  1.00  0.00    -0.274 C  
HETATM    7  C   UNL     1     -12.982  14.036  71.823  1.00  0.00    -0.353 C  
HETATM    8  F   UNL     1     -12.780  15.051  72.690  1.00  0.00    -0.351 F  
HETATM    9  C   UNL     1     -12.169  12.733  72.076  1.00  0.00     0.874 C  
HETATM   10  F   UNL     1     -14.322  13.872  71.725  1.00  0.00    -0.462 F  
HETATM   11  C   UNL     1     -12.225  14.125  70.468  1.00  0.00    -0.431 C  
ENDBRANCH   4   6
ENDBRANCH   1   2
BRANCH   1  12
HETATM   12  N   UNL     1      -8.853  10.881  67.958  1.00  0.00    -0.131 N  
HETATM   13  O   UNL     1      -8.376  12.554  69.472  1.00  0.00     0.907 OA 
HETATM   14  C   UNL     1      -8.351  12.153  68.306  1.00  0.00    -0.172 C  
BRANCH  12  15
HETATM   15  C   UNL     1      -8.852  10.413  66.622  1.00  0.00    -0.134 A  
HETATM   16  C   UNL     1     -10.012   9.944  66.006  1.00  0.00    -0.268 A  
HETATM   17  C   UNL     1      -7.736  10.145  64.520  1.00  0.00    -0.138 A  
HETATM   18  N   UNL     1     -10.077   9.599  64.699  1.00  0.00     0.298 NA 
HETATM   19  F   UNL     1      -6.638  10.256  63.765  1.00  0.00    -0.128 F  
HETATM   20  C   UNL     1      -7.697  10.514  65.853  1.00  0.00    -0.148 A  
HETATM   21  C   UNL     1      -8.930   9.703  63.984  1.00  0.00    -0.223 A  
ENDBRANCH  12  15
BRANCH  14  22
HETATM   22  C   UNL     1      -7.681  13.025  67.182  1.00  0.00    -0.039 C  
HETATM   23  C   UNL     1      -5.377  13.271  67.802  1.00  0.00    -0.088 C  
HETATM   24  C   UNL     1      -6.289  12.469  66.889  1.00  0.00     0.283 C  
HETATM   25  N   UNL     1      -7.397  14.427  67.490  1.00  0.00    -0.184 N  
HETATM   26  O   UNL     1      -5.464  15.623  68.216  1.00  0.00    -0.100 OA 
HETATM   27  C   UNL     1      -6.058  14.611  67.869  1.00  0.00    -0.150 C  
BRANCH  25  28
HETATM   28  C   UNL     1      -8.258  15.514  67.207  1.00  0.00    -0.197 A  
HETATM   29  N   UNL     1      -9.577  15.259  67.049  1.00  0.00    -0.219 NA 
HETATM   30  C   UNL     1     -10.451  16.264  66.838  1.00  0.00    -0.302 A  
HETATM   31  C   UNL     1     -10.074  17.584  66.770  1.00  0.00    -0.320 A  
HETATM   32  C   UNL     1      -8.721  17.862  66.924  1.00  0.00    -0.258 A  
HETATM   33  C   UNL     1      -7.802  16.824  67.148  1.00  0.00    -0.208 A  
HETATM   34  C   UNL     1      -8.266  19.218  66.860  1.00  0.00    -0.277 C  
HETATM   35  N   UNL     1      -7.885  20.313  66.808  1.00  0.00    -0.300 NA 
ENDBRANCH  25  28
ENDBRANCH  14  22
ENDBRANCH   1  12
BRANCH   1  36
HETATM   36  C   UNL     1      -8.245   9.088  69.619  1.00  0.00    -0.116 A  
HETATM   37  C   UNL     1      -6.030   8.069  69.161  1.00  0.00    -0.038 A  
HETATM   38  C   UNL     1      -6.046   7.409  70.372  1.00  0.00    -0.031 A  
HETATM   39 CL   UNL     1      -9.145   9.089  72.205  1.00  0.00    -0.054 Cl 
HETATM   40  C   UNL     1      -7.094   7.668  71.254  1.00  0.00    -0.054 A  
HETATM   41  C   UNL     1      -7.112   8.865  68.781  1.00  0.00    -0.067 A  
HETATM   42  C   UNL     1      -8.140   8.561  70.911  1.00  0.00    -0.127 A  
ENDBRANCH   1  36
TORSDOF 7
ENDMDL
MODEL      154
REMARK 921   NORMALIZED FREE ENERGY PREDICTED BY IDOCK:   -0.59 KCAL/MOL
REMARK 922        TOTAL FREE ENERGY PREDICTED BY IDOCK:   -2.28 KCAL/MOL
REMARK 923 INTER-LIGAND FREE ENERGY PREDICTED BY IDOCK:   -8.70 KCAL/MOL
REMARK 924 INTRA-LIGAND FREE ENERGY PREDICTED BY IDOCK:    6.42 KCAL/MOL
REMARK 927      BINDING AFFINITY PREDICTED BY RF-SCORE:    0.00 PKD
ROOT
HETATM    1  C   UNL     1      -9.462  12.134  67.261  1.00  0.00    -0.184 C  
ENDROOT
BRANCH   1   2
HETATM    2  C   UNL     1      -9.870  13.369  68.207  1.00  0.00    -0.235 C  
HETATM    3  H   UNL     1     -11.542  12.489  69.022  1.00  0.00     0.000 HD 
HETATM    4  N   UNL     1     -10.970  13.333  69.052  1.00  0.00    -0.235 N  
HETATM    5  O   UNL     1      -9.246  14.426  68.118  1.00  0.00    -0.185 OA 
BRANCH   4   6
HETATM    6  C   UNL     1     -11.412  14.421  70.018  1.00  0.00    -0.238 C  
HETATM    7  C   UNL     1     -12.890  15.535  71.092  1.00  0.00    -0.489 C  
HETATM    8  F   UNL     1     -14.203  15.733  71.330  1.00  0.00    -0.498 F  
HETATM    9  C   UNL     1     -12.451  15.498  69.598  1.00  0.00    -0.137 C  
HETATM   10  F   UNL     1     -12.218  16.416  71.869  1.00  0.00    -0.483 F  
HETATM   11  C   UNL     1     -12.387  14.066  71.170  1.00  0.00    -0.443 C  
ENDBRANCH   4   6
ENDBRANCH   1   2
BRANCH   1  12
HETATM   12  N   UNL     1      -9.426  10.820  68.015  1.00  0.00    -0.157 N  
HETATM   13  O   UNL     1     -11.709  10.502  67.916  1.00  0.00    -0.453 OA 
HETATM   14  C   UNL     1     -10.603  10.082  68.264  1.00  0.00    -0.226 C  
BRANCH  12  15
HETATM   15  C   UNL     1      -8.151  10.364  68.426  1.00  0.00    -0.112 A  
HETATM   16  C   UNL     1      -7.312   9.654  67.567  1.00  0.00    -0.090 A  
HETATM   17  C   UNL     1      -6.375  10.344  70.032  1.00  0.00    -0.111 A  
HETATM   18  N   UNL     1      -6.043   9.304  67.882  1.00  0.00    -0.049 NA 
HETATM   19  F   UNL     1      -5.884  10.689  71.227  1.00  0.00    -0.077 F  
HETATM   20  C   UNL     1      -7.662  10.712  69.681  1.00  0.00    -0.080 A  
HETATM   21  C   UNL     1      -5.605   9.653  69.116  1.00  0.00    -0.035 A  
ENDBRANCH  12  15
BRANCH  14  22
HETATM   22  C   UNL     1     -10.467   8.664  68.931  1.00  0.00    -0.192 C  
HETATM   23  C   UNL     1      -9.879   9.052  71.224  1.00  0.00    -0.376 C  
HETATM   24  C   UNL     1     -11.065   8.719  70.336  1.00  0.00    -0.261 C  
HETATM   25  N   UNL     1      -9.116   8.163  69.189  1.00  0.00    -0.148 N  
HETATM   26  O   UNL     1      -7.680   8.124  71.094  1.00  0.00    -0.080 OA 
HETATM   27  C   UNL     1      -8.730   8.382  70.521  1.00  0.00    -0.147 C  
BRANCH  25  28
HETATM   28  C   UNL     1      -8.373   7.335  68.314  1.00  0.00    -0.125 A  
HETATM   29  N   UNL     1      -7.357   6.608  68.832  1.00  0.00    -0.091 NA 
HETATM   30  C   UNL     1      -6.655   5.758  68.057  1.00  0.00    -0.052 A  
HETATM   31  C   UNL     1      -6.914   5.574  66.719  1.00  0.00    -0.065 A  
HETATM   32  C   UNL     1      -7.952   6.317  66.171  1.00  0.00    -0.112 A  
HETATM   33  C   UNL     1      -8.692   7.204  66.969  1.00  0.00    -0.123 A  
HETATM   34  C   UNL     1      -8.268   6.172  64.781  1.00  0.00    -0.112 C  
HETATM   35  N   UNL     1      -8.533   6.064  63.657  1.00  0.00     0.061 NA 
ENDBRANCH  25  28
ENDBRANCH  14  22
ENDBRANCH   1  12
BRANCH   1  36
HETATM   36  C   UNL     1      -9.910  11.904  65.793  1.00  0.00    -0.262 A  
HETATM   37  C   UNL     1      -9.382  10.693  63.694  1.00  0.00    -0.315 A  
HETATM   38  C   UNL     1     -10.346  11.400  63.004  1.00  0.00    -0.275 A  
HETATM   39 CL   UNL     1     -12.293  13.244  65.935  1.00  0.00    -0.487 Cl 
HETATM   40  C   UNL     1     -11.165  12.273  63.718  1.00  0.00    -0.510 A  
HETATM   41  C   UNL     1      -9.150  10.957  65.044  1.00  0.00    -0.209 A  
HETATM   42  C   UNL     1     -11.000  12.460  65.114  1.00  0.00    -0.302 A  
ENDBRANCH   1  36
TORSDOF 7
ENDMDL
MODEL      155
REMARK 921   NORMALIZED FREE ENERGY PREDICTED BY IDOCK:   -0.58 KCAL/MOL
REMARK 922        TOTAL FREE ENERGY PREDICTED BY IDOCK:   -2.28 KCAL/MOL
REMARK 923 INTER-LIGAND FREE ENERGY PREDICTED BY IDOCK:   -8.22 KCAL/MOL
REMARK 924 INTRA-LIGAND FREE ENERGY PREDICTED BY IDOCK:    5.94 KCAL/MOL
REMARK 927      BINDING AFFINITY PREDICTED BY RF-SCORE:    0.00 PKD
ROOT
HETATM    1  C   UNL     1      -8.124  11.424  67.139  1.00  0.00    -0.155 C  
ENDROOT
BRANCH   1   2
HETATM    2  C   UNL     1      -9.215  12.584  67.376  1.00  0.00    -0.186 C  
HETATM    3  H   UNL     1      -9.788  11.974  69.256  1.00  0.00     0.000 HD 
HETATM    4  N   UNL     1      -9.946  12.693  68.551  1.00  0.00    -0.199 N  
HETATM    5  O   UNL     1      -9.487  13.350  66.454  1.00  0.00    -0.262 OA 
BRANCH   4   6
HETATM    6  C   UNL     1     -10.960  13.774  68.893  1.00  0.00    -0.252 C  
HETATM    7  C   UNL     1     -11.824  15.235  70.195  1.00  0.00    -0.323 C  
HETATM    8  F   UNL     1     -11.801  15.820  71.412  1.00  0.00    -0.326 F  
HETATM    9  C   UNL     1     -11.839  13.678  70.172  1.00  0.00    -0.351 C  
HETATM   10  F   UNL     1     -12.818  15.832  69.498  1.00  0.00    -0.162 F  
HETATM   11  C   UNL     1     -10.463  15.132  69.452  1.00  0.00    -0.259 C  
ENDBRANCH   4   6
ENDBRANCH   1   2
BRANCH   1  12
HETATM   12  N   UNL     1      -8.191  10.347  68.203  1.00  0.00    -0.113 N  
HETATM   13  O   UNL     1      -6.867  11.499  69.699  1.00  0.00    -0.114 OA 
HETATM   14  C   UNL     1      -7.547  10.501  69.448  1.00  0.00    -0.145 C  
BRANCH  12  15
HETATM   15  C   UNL     1      -8.957   9.199  67.890  1.00  0.00    -0.128 A  
HETATM   16  C   UNL     1     -10.343   9.174  68.050  1.00  0.00    -0.222 A  
HETATM   17  C   UNL     1      -9.121   7.018  66.915  1.00  0.00    -0.140 A  
HETATM   18  N   UNL     1     -11.123   8.141  67.653  1.00  0.00     0.172 NA 
HETATM   19  F   UNL     1      -8.547   5.958  66.335  1.00  0.00    -0.115 F  
HETATM   20  C   UNL     1      -8.345   8.095  67.307  1.00  0.00    -0.121 A  
HETATM   21  C   UNL     1     -10.489   7.079  67.098  1.00  0.00    -0.312 A  
ENDBRANCH  12  15
BRANCH  14  22
HETATM   22  C   UNL     1      -7.778   9.402  70.549  1.00  0.00    -0.161 C  
HETATM   23  C   UNL     1      -6.575   7.458  69.823  1.00  0.00    -0.039 C  
HETATM   24  C   UNL     1      -6.471   8.642  70.770  1.00  0.00    -0.043 C  
HETATM   25  N   UNL     1      -8.717   8.322  70.242  1.00  0.00    -0.137 N  
HETATM   26  O   UNL     1      -8.494   6.087  69.438  1.00  0.00    -0.113 OA 
HETATM   27  C   UNL     1      -8.051   7.168  69.802  1.00  0.00    -0.129 C  
BRANCH  25  28
HETATM   28  C   UNL     1     -10.092   8.318  70.577  1.00  0.00    -0.195 A  
HETATM   29  N   UNL     1     -10.756   7.141  70.534  1.00  0.00    -0.232 NA 
HETATM   30  C   UNL     1     -12.051   7.067  70.901  1.00  0.00    -0.357 A  
HETATM   31  C   UNL     1     -12.771   8.156  71.334  1.00  0.00    -0.283 A  
HETATM   32  C   UNL     1     -12.104   9.374  71.379  1.00  0.00    -0.442 A  
HETATM   33  C   UNL     1     -10.755   9.462  71.002  1.00  0.00    -0.407 A  
HETATM   34  C   UNL     1     -12.801  10.546  71.818  1.00  0.00    -0.454 C  
HETATM   35  N   UNL     1     -13.356  11.502  72.170  1.00  0.00    -0.374 NA 
ENDBRANCH  25  28
ENDBRANCH  14  22
ENDBRANCH   1  12
BRANCH   1  36
HETATM   36  C   UNL     1      -7.702  10.815  65.776  1.00  0.00    -0.094 A  
HETATM   37  C   UNL     1      -5.772   9.995  64.450  1.00  0.00    -0.113 A  
HETATM   38  C   UNL     1      -6.559   9.866  63.324  1.00  0.00    -0.125 A  
HETATM   39 CL   UNL     1     -10.216  10.370  64.790  1.00  0.00    -0.388 Cl 
HETATM   40  C   UNL     1      -7.928  10.099  63.441  1.00  0.00    -0.160 A  
HETATM   41  C   UNL     1      -6.321  10.483  65.636  1.00  0.00    -0.126 A  
HETATM   42  C   UNL     1      -8.504  10.492  64.676  1.00  0.00    -0.139 A  
ENDBRANCH   1  36
TORSDOF 7
ENDMDL
MODEL      156
REMARK 921   NORMALIZED FREE ENERGY PREDICTED BY IDOCK:   -0.35 KCAL/MOL
REMARK 922        TOTAL FREE ENERGY PREDICTED BY IDOCK:   -1.96 KCAL/MOL
REMARK 923 INTER-LIGAND FREE ENERGY PREDICTED BY IDOCK:   -8.81 KCAL/MOL
REMARK 924 INTRA-LIGAND FREE ENERGY PREDICTED BY IDOCK:    6.85 KCAL/MOL
REMARK 927      BINDING AFFINITY PREDICTED BY RF-SCORE:    0.00 PKD
ROOT
HETATM    1  C   UNL     1     -10.756  13.919  67.980  1.00  0.00    -0.247 C  
ENDROOT
BRANCH   1   2
HETATM    2  C   UNL     1     -10.522  15.253  67.111  1.00  0.00    -0.280 C  
HETATM    3  H   UNL     1      -9.589  16.331  68.595  1.00  0.00     0.000 HD 
HETATM    4  N   UNL     1      -9.880  16.374  67.619  1.00  0.00    -0.240 N  
HETATM    5  O   UNL     1     -11.009  15.329  65.983  1.00  0.00    -0.332 OA 
BRANCH   4   6
HETATM    6  C   UNL     1      -9.565  17.659  66.869  1.00  0.00    -0.286 C  
HETATM    7  C   UNL     1      -9.440  19.788  66.702  1.00  0.00    -0.389 C  
HETATM    8  F   UNL     1      -9.654  20.983  67.294  1.00  0.00    -0.590 F  
HETATM    9  C   UNL     1     -10.629  18.783  66.716  1.00  0.00    -0.458 C  
HETATM   10  F   UNL     1      -8.917  20.049  65.482  1.00  0.00    -0.280 F  
HETATM   11  C   UNL     1      -8.669  18.731  67.541  1.00  0.00    -0.292 C  
ENDBRANCH   4   6
ENDBRANCH   1   2
BRANCH   1  12
HETATM   12  N   UNL     1      -9.542  13.013  67.978  1.00  0.00    -0.219 N  
HETATM   13  O   UNL     1      -8.391  14.263  69.538  1.00  0.00     0.228 OA 
HETATM   14  C   UNL     1      -8.432  13.267  68.811  1.00  0.00     0.123 C  
BRANCH  12  15
HETATM   15  C   UNL     1      -9.598  11.887  67.122  1.00  0.00    -0.186 A  
HETATM   16  C   UNL     1     -10.188  10.688  67.523  1.00  0.00    -0.199 A  
HETATM   17  C   UNL     1      -9.303  10.914  64.954  1.00  0.00    -0.224 A  
HETATM   18  N   UNL     1     -10.365   9.630  66.696  1.00  0.00    -0.230 NA 
HETATM   19  F   UNL     1      -8.897  11.008  63.684  1.00  0.00    -0.181 F  
HETATM   20  C   UNL     1      -9.152  11.992  65.809  1.00  0.00     0.008 A  
HETATM   21  C   UNL     1      -9.910   9.767  65.427  1.00  0.00    -0.295 A  
ENDBRANCH  12  15
BRANCH  14  22
HETATM   22  C   UNL     1      -7.272  12.206  68.853  1.00  0.00    -0.079 C  
HETATM   23  C   UNL     1      -6.201  12.294  66.709  1.00  0.00     0.244 C  
HETATM   24  C   UNL     1      -6.050  12.781  68.139  1.00  0.00    -0.085 C  
HETATM   25  N   UNL     1      -7.481  10.944  68.141  1.00  0.00    -0.088 N  
HETATM   26  O   UNL     1      -6.857  10.109  65.996  1.00  0.00    -0.098 OA 
HETATM   27  C   UNL     1      -6.878  10.960  66.874  1.00  0.00    -0.114 C  
BRANCH  25  28
HETATM   28  C   UNL     1      -7.992   9.757  68.720  1.00  0.00    -0.087 A  
HETATM   29  N   UNL     1      -7.584   8.573  68.209  1.00  0.00    -0.096 NA 
HETATM   30  C   UNL     1      -7.991   7.411  68.759  1.00  0.00    -0.123 A  
HETATM   31  C   UNL     1      -8.828   7.349  69.848  1.00  0.00    -0.141 A  
HETATM   32  C   UNL     1      -9.260   8.558  70.380  1.00  0.00    -0.173 A  
HETATM   33  C   UNL     1      -8.840   9.774  69.818  1.00  0.00    -0.241 A  
HETATM   34  C   UNL     1     -10.136   8.559  71.514  1.00  0.00    -0.245 C  
HETATM   35  N   UNL     1     -10.847   8.573  72.430  1.00  0.00    -0.345 NA 
ENDBRANCH  25  28
ENDBRANCH  14  22
ENDBRANCH   1  12
BRANCH   1  36
HETATM   36  C   UNL     1     -11.509  13.816  69.333  1.00  0.00    -0.341 A  
HETATM   37  C   UNL     1     -12.620  12.250  70.903  1.00  0.00    -0.334 A  
HETATM   38  C   UNL     1     -13.081  13.298  71.674  1.00  0.00    -0.453 A  
HETATM   39 CL   UNL     1     -11.088  16.388  70.171  1.00  0.00    -0.348 Cl 
HETATM   40  C   UNL     1     -12.672  14.590  71.349  1.00  0.00    -0.407 A  
HETATM   41  C   UNL     1     -11.878  12.502  69.749  1.00  0.00    -0.380 A  
HETATM   42  C   UNL     1     -11.828  14.836  70.237  1.00  0.00    -0.302 A  
ENDBRANCH   1  36
TORSDOF 7
ENDMDL
MODEL      157
REMARK 921   NORMALIZED FREE ENERGY PREDICTED BY IDOCK:   -0.29 KCAL/MOL
REMARK 922        TOTAL FREE ENERGY PREDICTED BY IDOCK:   -1.87 KCAL/MOL
REMARK 923 INTER-LIGAND FREE ENERGY PREDICTED BY IDOCK:   -8.76 KCAL/MOL
REMARK 924 INTRA-LIGAND FREE ENERGY PREDICTED BY IDOCK:    6.89 KCAL/MOL
REMARK 927      BINDING AFFINITY PREDICTED BY RF-SCORE:    0.00 PKD
ROOT
HETATM    1  C   UNL     1      -9.569  11.337  67.137  1.00  0.00    -0.177 C  
ENDROOT
BRANCH   1   2
HETATM    2  C   UNL     1     -10.882  11.937  67.847  1.00  0.00    -0.213 C  
HETATM    3  H   UNL     1      -9.924  12.665  69.517  1.00  0.00     0.000 HD 
HETATM    4  N   UNL     1     -10.836  12.603  69.065  1.00  0.00    -0.192 N  
HETATM    5  O   UNL     1     -11.986  11.722  67.349  1.00  0.00    -0.617 OA 
BRANCH   4   6
HETATM    6  C   UNL     1     -12.005  13.247  69.794  1.00  0.00    -0.324 C  
HETATM    7  C   UNL     1     -12.907  14.204  71.481  1.00  0.00    -0.354 C  
HETATM    8  F   UNL     1     -12.752  14.643  72.748  1.00  0.00    -0.384 F  
HETATM    9  C   UNL     1     -12.460  12.741  71.191  1.00  0.00    -0.335 C  
HETATM   10  F   UNL     1     -14.177  14.503  71.121  1.00  0.00    -0.428 F  
HETATM   11  C   UNL     1     -11.812  14.632  70.463  1.00  0.00    -0.367 C  
ENDBRANCH   4   6
ENDBRANCH   1   2
BRANCH   1  12
HETATM   12  N   UNL     1      -8.928  10.234  67.954  1.00  0.00    -0.131 N  
HETATM   13  O   UNL     1      -7.307  11.606  68.855  1.00  0.00    -0.113 OA 
HETATM   14  C   UNL     1      -7.822  10.487  68.792  1.00  0.00    -0.116 C  
BRANCH  12  15
HETATM   15  C   UNL     1      -9.517   8.951  67.853  1.00  0.00    -0.142 A  
HETATM   16  C   UNL     1     -10.597   8.574  68.653  1.00  0.00    -0.118 A  
HETATM   17  C   UNL     1      -9.743   6.857  66.715  1.00  0.00    -0.177 A  
HETATM   18  N   UNL     1     -11.262   7.403  68.506  1.00  0.00     0.206 NA 
HETATM   19  F   UNL     1      -9.357   6.007  65.757  1.00  0.00    -0.168 F  
HETATM   20  C   UNL     1      -9.092   8.068  66.866  1.00  0.00    -0.182 A  
HETATM   21  C   UNL     1     -10.812   6.566  67.540  1.00  0.00    -0.352 A  
ENDBRANCH  12  15
BRANCH  14  22
HETATM   22  C   UNL     1      -7.301   9.322  69.712  1.00  0.00    -0.072 C  
HETATM   23  C   UNL     1      -6.488   7.613  68.238  1.00  0.00    -0.049 C  
HETATM   24  C   UNL     1      -6.012   8.759  69.114  1.00  0.00    -0.042 C  
HETATM   25  N   UNL     1      -8.136   8.126  69.829  1.00  0.00    -0.114 N  
HETATM   26  O   UNL     1      -8.151   5.984  68.779  1.00  0.00    -0.102 OA 
HETATM   27  C   UNL     1      -7.698   7.104  68.973  1.00  0.00    -0.109 C  
BRANCH  25  28
HETATM   28  C   UNL     1      -9.099   7.902  70.842  1.00  0.00    -0.151 A  
HETATM   29  N   UNL     1      -9.791   8.965  71.312  1.00  0.00    -0.263 NA 
HETATM   30  C   UNL     1     -10.762   8.802  72.232  1.00  0.00    -0.252 A  
HETATM   31  C   UNL     1     -11.110   7.575  72.746  1.00  0.00    -0.416 A  
HETATM   32  C   UNL     1     -10.405   6.473  72.278  1.00  0.00    -0.212 A  
HETATM   33  C   UNL     1      -9.394   6.631  71.317  1.00  0.00    -0.159 A  
HETATM   34  C   UNL     1     -10.719   5.168  72.777  1.00  0.00    -0.241 C  
HETATM   35  N   UNL     1     -10.963   4.106  73.176  1.00  0.00    -0.201 NA 
ENDBRANCH  25  28
ENDBRANCH  14  22
ENDBRANCH   1  12
BRANCH   1  36
HETATM   36  C   UNL     1      -9.377  11.071  65.620  1.00  0.00    -0.239 A  
HETATM   37  C   UNL     1     -10.489  11.161  63.404  1.00  0.00    -0.382 A  
HETATM   38  C   UNL     1      -9.424  10.517  62.808  1.00  0.00    -0.353 A  
HETATM   39 CL   UNL     1      -6.686  10.573  65.685  1.00  0.00    -0.126 Cl 
HETATM   40  C   UNL     1      -8.295  10.248  63.579  1.00  0.00    -0.169 A  
HETATM   41  C   UNL     1     -10.479  11.407  64.778  1.00  0.00    -0.366 A  
HETATM   42  C   UNL     1      -8.243  10.596  64.952  1.00  0.00    -0.057 A  
ENDBRANCH   1  36
TORSDOF 7
ENDMDL
MODEL      158
REMARK 921   NORMALIZED FREE ENERGY PREDICTED BY IDOCK:   -0.24 KCAL/MOL
REMARK 922        TOTAL FREE ENERGY PREDICTED BY IDOCK:   -1.79 KCAL/MOL
REMARK 923 INTER-LIGAND FREE ENERGY PREDICTED BY IDOCK:   -7.98 KCAL/MOL
REMARK 924 INTRA-LIGAND FREE ENERGY PREDICTED BY IDOCK:    6.19 KCAL/MOL
REMARK 927      BINDING AFFINITY PREDICTED BY RF-SCORE:    0.00 PKD
ROOT
HETATM    1  C   UNL     1      -7.291   8.940  68.848  1.00  0.00    -0.075 C  
ENDROOT
BRANCH   1   2
HETATM    2  C   UNL     1      -8.009  10.257  68.264  1.00  0.00    -0.106 C  
HETATM    3  H   UNL     1      -8.955   9.322  66.693  1.00  0.00     0.000 HD 
HETATM    4  N   UNL     1      -8.843  10.224  67.154  1.00  0.00    -0.136 N  
HETATM    5  O   UNL     1      -7.743  11.354  68.753  1.00  0.00    -0.132 OA 
BRANCH   4   6
HETATM    6  C   UNL     1      -9.605  11.396  66.555  1.00  0.00    -0.198 C  
HETATM    7  C   UNL     1     -11.315  12.284  65.625  1.00  0.00    -0.350 C  
HETATM    8  F   UNL     1     -12.550  12.094  65.116  1.00  0.00    -0.435 F  
HETATM    9  C   UNL     1     -10.200  11.321  65.121  1.00  0.00    -0.344 C  
HETATM   10  F   UNL     1     -11.041  13.603  65.495  1.00  0.00    -0.292 F  
HETATM   11  C   UNL     1     -11.050  11.688  67.036  1.00  0.00    -0.359 C  
ENDBRANCH   4   6
ENDBRANCH   1   2
BRANCH   1  12
HETATM   12  N   UNL     1      -8.082   8.308  69.975  1.00  0.00    -0.113 N  
HETATM   13  O   UNL     1      -6.912   9.394  71.639  1.00  0.00    -0.316 OA 
HETATM   14  C   UNL     1      -7.823   8.625  71.325  1.00  0.00    -0.128 C  
BRANCH  12  15
HETATM   15  C   UNL     1      -9.110   7.411  69.598  1.00  0.00    -0.140 A  
HETATM   16  C   UNL     1     -10.373   7.860  69.213  1.00  0.00    -0.220 A  
HETATM   17  C   UNL     1      -9.825   5.196  69.035  1.00  0.00    -0.176 A  
HETATM   18  N   UNL     1     -11.342   7.045  68.734  1.00  0.00     0.068 NA 
HETATM   19  F   UNL     1      -9.573   3.888  68.917  1.00  0.00    -0.212 F  
HETATM   20  C   UNL     1      -8.840   6.049  69.500  1.00  0.00    -0.125 A  
HETATM   21  C   UNL     1     -11.046   5.724  68.662  1.00  0.00     0.013 A  
ENDBRANCH  12  15
BRANCH  14  22
HETATM   22  C   UNL     1      -8.776   8.033  72.427  1.00  0.00    -0.167 C  
HETATM   23  C   UNL     1      -8.308   5.683  72.531  1.00  0.00    -0.114 C  
HETATM   24  C   UNL     1      -8.007   6.993  73.239  1.00  0.00    -0.110 C  
HETATM   25  N   UNL     1      -9.943   7.273  71.977  1.00  0.00    -0.162 N  
HETATM   26  O   UNL     1     -10.425   4.954  71.695  1.00  0.00    -0.193 OA 
HETATM   27  C   UNL     1      -9.705   5.891  72.013  1.00  0.00    -0.153 C  
BRANCH  25  28
HETATM   28  C   UNL     1     -11.237   7.812  71.774  1.00  0.00    -0.256 A  
HETATM   29  N   UNL     1     -12.270   6.951  71.626  1.00  0.00    -0.345 NA 
HETATM   30  C   UNL     1     -13.531   7.407  71.491  1.00  0.00    -0.372 A  
HETATM   31  C   UNL     1     -13.849   8.745  71.491  1.00  0.00    -0.391 A  
HETATM   32  C   UNL     1     -12.798   9.642  71.636  1.00  0.00    -0.499 A  
HETATM   33  C   UNL     1     -11.481   9.178  71.782  1.00  0.00    -0.452 A  
HETATM   34  C   UNL     1     -13.065  11.049  71.641  1.00  0.00    -0.438 C  
HETATM   35  N   UNL     1     -13.268  12.191  71.645  1.00  0.00    -0.356 NA 
ENDBRANCH  25  28
ENDBRANCH  14  22
ENDBRANCH   1  12
BRANCH   1  36
HETATM   36  C   UNL     1      -6.546   7.853  68.031  1.00  0.00    -0.056 A  
HETATM   37  C   UNL     1      -6.082   7.021  65.740  1.00  0.00    -0.036 A  
HETATM   38  C   UNL     1      -5.458   5.896  66.239  1.00  0.00    -0.013 A  
HETATM   39 CL   UNL     1      -5.126   6.762  70.102  1.00  0.00    -0.014 Cl 
HETATM   40  C   UNL     1      -5.276   5.796  67.617  1.00  0.00    -0.004 A  
HETATM   41  C   UNL     1      -6.636   7.960  66.611  1.00  0.00    -0.058 A  
HETATM   42  C   UNL     1      -5.744   6.804  68.496  1.00  0.00    -0.017 A  
ENDBRANCH   1  36
TORSDOF 7
ENDMDL
MODEL      159
REMARK 921   NORMALIZED FREE ENERGY PREDICTED BY IDOCK:   -0.13 KCAL/MOL
REMARK 922        TOTAL FREE ENERGY PREDICTED BY IDOCK:   -1.63 KCAL/MOL
REMARK 923 INTER-LIGAND FREE ENERGY PREDICTED BY IDOCK:   -8.39 KCAL/MOL
REMARK 924 INTRA-LIGAND FREE ENERGY PREDICTED BY IDOCK:    6.76 KCAL/MOL
REMARK 927      BINDING AFFINITY PREDICTED BY RF-SCORE:    0.00 PKD
ROOT
HETATM    1  C   UNL     1      -9.035  10.789  67.562  1.00  0.00    -0.132 C  
ENDROOT
BRANCH   1   2
HETATM    2  C   UNL     1      -8.660  10.070  66.172  1.00  0.00    -0.133 C  
HETATM    3  H   UNL     1      -8.591   8.154  66.919  1.00  0.00     0.000 HD 
HETATM    4  N   UNL     1      -8.497   8.696  66.061  1.00  0.00    -0.133 N  
HETATM    5  O   UNL     1      -8.413  10.762  65.185  1.00  0.00    -0.171 OA 
BRANCH   4   6
HETATM    6  C   UNL     1      -8.194   7.917  64.791  1.00  0.00    -0.108 C  
HETATM    7  C   UNL     1      -7.108   6.462  63.658  1.00  0.00    -0.054 C  
HETATM    8  F   UNL     1      -6.101   5.562  63.644  1.00  0.00    -0.020 F  
HETATM    9  C   UNL     1      -6.761   7.885  64.188  1.00  0.00    -0.061 C  
HETATM   10  F   UNL     1      -7.677   6.425  62.432  1.00  0.00    -0.063 F  
HETATM   11  C   UNL     1      -8.100   6.370  64.852  1.00  0.00    -0.120 C  
ENDBRANCH   4   6
ENDBRANCH   1   2
BRANCH   1  12
HETATM   12  N   UNL     1      -9.896  12.019  67.358  1.00  0.00    -0.184 N  
HETATM   13  O   UNL     1     -11.661  10.844  66.448  1.00  0.00    -0.055 OA 
HETATM   14  C   UNL     1     -11.196  11.925  66.817  1.00  0.00    -0.327 C  
BRANCH  12  15
HETATM   15  C   UNL     1      -9.339  13.254  67.766  1.00  0.00    -0.209 A  
HETATM   16  C   UNL     1      -9.396  13.683  69.092  1.00  0.00     0.447 A  
HETATM   17  C   UNL     1      -7.998  15.180  67.294  1.00  0.00    -0.205 A  
HETATM   18  N   UNL     1      -8.775  14.798  69.544  1.00  0.00     0.031 NA 
HETATM   19  F   UNL     1      -7.287  15.920  66.436  1.00  0.00    -0.203 F  
HETATM   20  C   UNL     1      -8.621  14.025  66.858  1.00  0.00    -0.148 A  
HETATM   21  C   UNL     1      -8.092  15.528  68.628  1.00  0.00    -0.159 A  
ENDBRANCH  12  15
BRANCH  14  22
HETATM   22  C   UNL     1     -12.078  13.227  66.765  1.00  0.00    -0.345 C  
HETATM   23  C   UNL     1     -11.158  14.594  65.023  1.00  0.00    -0.401 C  
HETATM   24  C   UNL     1     -12.290  13.622  65.304  1.00  0.00    -0.498 C  
HETATM   25  N   UNL     1     -11.516  14.450  67.338  1.00  0.00    -0.340 N  
HETATM   26  O   UNL     1     -10.383  16.350  66.447  1.00  0.00    -0.299 OA 
HETATM   27  C   UNL     1     -10.956  15.274  66.350  1.00  0.00    -0.299 C  
BRANCH  25  28
HETATM   28  C   UNL     1     -11.720  14.896  68.666  1.00  0.00    -0.330 A  
HETATM   29  N   UNL     1     -11.408  16.178  68.964  1.00  0.00    -0.346 NA 
HETATM   30  C   UNL     1     -11.638  16.673  70.196  1.00  0.00     0.395 A  
HETATM   31  C   UNL     1     -12.191  15.930  71.212  1.00  0.00    -0.473 A  
HETATM   32  C   UNL     1     -12.512  14.609  70.924  1.00  0.00    -0.406 A  
HETATM   33  C   UNL     1     -12.281  14.084  69.643  1.00  0.00    -0.383 A  
HETATM   34  C   UNL     1     -13.089  13.784  71.942  1.00  0.00    -0.388 C  
HETATM   35  N   UNL     1     -13.555  13.104  72.759  1.00  0.00    -0.568 NA 
ENDBRANCH  25  28
ENDBRANCH  14  22
ENDBRANCH   1  12
BRANCH   1  36
HETATM   36  C   UNL     1      -9.396  10.089  68.899  1.00  0.00    -0.172 A  
HETATM   37  C   UNL     1     -11.221   9.686  70.530  1.00  0.00    -0.359 A  
HETATM   38  C   UNL     1     -10.344   9.089  71.413  1.00  0.00    -0.396 A  
HETATM   39 CL   UNL     1      -7.073   8.672  69.197  1.00  0.00    -0.062 Cl 
HETATM   40  C   UNL     1      -9.026   8.888  71.005  1.00  0.00    -0.298 A  
HETATM   41  C   UNL     1     -10.756  10.198  69.319  1.00  0.00    -0.259 A  
HETATM   42  C   UNL     1      -8.580   9.312  69.728  1.00  0.00    -0.159 A  
ENDBRANCH   1  36
TORSDOF 7
ENDMDL
MODEL      160
REMARK 921   NORMALIZED FREE ENERGY PREDICTED BY IDOCK:    0.10 KCAL/MOL
REMARK 922        TOTAL FREE ENERGY PREDICTED BY IDOCK:   -1.32 KCAL/MOL
REMARK 923 INTER-LIGAND FREE ENERGY PREDICTED BY IDOCK:   -8.15 KCAL/MOL
REMARK 924 INTRA-LIGAND FREE ENERGY PREDICTED BY IDOCK:    6.82 KCAL/MOL
REMARK 927      BINDING AFFINITY PREDICTED BY RF-SCORE:    0.00 PKD
ROOT
HETATM    1  C   UNL     1      -8.903  11.465  66.843  1.00  0.00    -0.173 C  
ENDROOT
BRANCH   1   2
HETATM    2  C   UNL     1      -9.196  12.988  67.273  1.00  0.00    -0.213 C  
HETATM    3  H   UNL     1     -10.041  13.570  65.489  1.00  0.00     0.000 HD 
HETATM    4  N   UNL     1      -9.810  13.900  66.426  1.00  0.00    -0.287 N  
HETATM    5  O   UNL     1      -8.779  13.397  68.356  1.00  0.00    -0.176 OA 
BRANCH   4   6
HETATM    6  C   UNL     1     -10.175  15.340  66.752  1.00  0.00    -0.272 C  
HETATM    7  C   UNL     1      -9.998  17.457  66.498  1.00  0.00    -0.311 C  
HETATM    8  F   UNL     1      -9.371  18.471  65.864  1.00  0.00    -0.247 F  
HETATM    9  C   UNL     1      -9.087  16.376  67.151  1.00  0.00    -0.220 C  
HETATM   10  F   UNL     1     -10.908  18.021  67.325  1.00  0.00    -0.381 F  
HETATM   11  C   UNL     1     -10.541  16.310  65.599  1.00  0.00    -0.360 C  
ENDBRANCH   4   6
ENDBRANCH   1   2
BRANCH   1  12
HETATM   12  N   UNL     1      -9.542  10.469  67.789  1.00  0.00    -0.155 N  
HETATM   13  O   UNL     1     -11.687  11.235  67.424  1.00  0.00    -0.580 OA 
HETATM   14  C   UNL     1     -10.939  10.429  67.983  1.00  0.00    -0.291 C  
BRANCH  12  15
HETATM   15  C   UNL     1      -8.667   9.566  68.438  1.00  0.00    -0.124 A  
HETATM   16  C   UNL     1      -8.290   8.357  67.852  1.00  0.00    -0.131 A  
HETATM   17  C   UNL     1      -7.144   9.074  70.220  1.00  0.00    -0.055 A  
HETATM   18  N   UNL     1      -7.367   7.524  68.387  1.00  0.00    -0.096 NA 
HETATM   19  F   UNL     1      -6.551   9.414  71.369  1.00  0.00    -0.086 F  
HETATM   20  C   UNL     1      -8.074   9.923  69.645  1.00  0.00    -0.171 A  
HETATM   21  C   UNL     1      -6.817   7.901  69.567  1.00  0.00    -0.047 A  
ENDBRANCH  12  15
BRANCH  14  22
HETATM   22  C   UNL     1     -11.536   9.278  68.873  1.00  0.00     0.490 C  
HETATM   23  C   UNL     1     -10.688   9.632  71.089  1.00  0.00    -0.365 C  
HETATM   24  C   UNL     1     -11.923   9.856  70.233  1.00  0.00    -0.209 C  
HETATM   25  N   UNL     1     -10.646   8.178  69.246  1.00  0.00    -0.211 N  
HETATM   26  O   UNL     1      -9.333   7.665  71.171  1.00  0.00    -0.153 OA 
HETATM   27  C   UNL     1     -10.119   8.354  70.535  1.00  0.00    -0.190 C  
BRANCH  25  28
HETATM   28  C   UNL     1     -10.513   6.960  68.537  1.00  0.00    -0.203 A  
HETATM   29  N   UNL     1     -10.800   6.959  67.214  1.00  0.00    -0.343 NA 
HETATM   30  C   UNL     1     -10.634   5.843  66.477  1.00  0.00    -0.201 A  
HETATM   31  C   UNL     1     -10.175   4.658  67.002  1.00  0.00    -0.174 A  
HETATM   32  C   UNL     1      -9.881   4.642  68.360  1.00  0.00    -0.169 A  
HETATM   33  C   UNL     1     -10.047   5.799  69.137  1.00  0.00    -0.257 A  
HETATM   34  C   UNL     1      -9.402   3.436  68.966  1.00  0.00    -0.169 C  
HETATM   35  N   UNL     1      -9.015   2.465  69.469  1.00  0.00    -0.093 NA 
ENDBRANCH  25  28
ENDBRANCH  14  22
ENDBRANCH   1  12
BRANCH   1  36
HETATM   36  C   UNL     1      -8.875  10.901  65.398  1.00  0.00    -0.192 A  
HETATM   37  C   UNL     1     -10.134  10.768  63.264  1.00  0.00    -0.314 A  
HETATM   38  C   UNL     1      -9.231   9.861  62.750  1.00  0.00    -0.292 A  
HETATM   39 CL   UNL     1      -6.294   9.990  65.421  1.00  0.00    -0.093 Cl 
HETATM   40  C   UNL     1      -8.096   9.556  63.500  1.00  0.00    -0.151 A  
HETATM   41  C   UNL     1      -9.978  11.253  64.563  1.00  0.00    -0.334 A  
HETATM   42  C   UNL     1      -7.883  10.134  64.777  1.00  0.00    -0.146 A  
ENDBRANCH   1  36
TORSDOF 7
ENDMDL
MODEL      161
REMARK 921   NORMALIZED FREE ENERGY PREDICTED BY IDOCK:    0.11 KCAL/MOL
REMARK 922        TOTAL FREE ENERGY PREDICTED BY IDOCK:   -1.30 KCAL/MOL
REMARK 923 INTER-LIGAND FREE ENERGY PREDICTED BY IDOCK:   -7.86 KCAL/MOL
REMARK 924 INTRA-LIGAND FREE ENERGY PREDICTED BY IDOCK:    6.56 KCAL/MOL
REMARK 927      BINDING AFFINITY PREDICTED BY RF-SCORE:    0.00 PKD
ROOT
HETATM    1  C   UNL     1      -9.219   6.481  66.297  1.00  0.00    -0.133 C  
ENDROOT
BRANCH   1   2
HETATM    2  C   UNL     1     -10.354   6.471  67.437  1.00  0.00    -0.208 C  
HETATM    3  H   UNL     1      -9.129   5.859  68.973  1.00  0.00     0.000 HD 
HETATM    4  N   UNL     1     -10.086   6.137  68.758  1.00  0.00    -0.157 N  
HETATM    5  O   UNL     1     -11.526   6.672  67.120  1.00  0.00    -0.230 OA 
BRANCH   4   6
HETATM    6  C   UNL     1     -11.071   6.145  69.916  1.00  0.00    -0.410 C  
HETATM    7  C   UNL     1     -11.741   6.775  71.848  1.00  0.00    -0.310 C  
HETATM    8  F   UNL     1     -11.477   7.506  72.952  1.00  0.00    -0.342 F  
HETATM    9  C   UNL     1     -10.614   5.814  71.365  1.00  0.00    -0.313 C  
HETATM   10  F   UNL     1     -12.948   6.197  72.045  1.00  0.00    -0.322 F  
HETATM   11  C   UNL     1     -11.568   7.499  70.483  1.00  0.00    -0.224 C  
ENDBRANCH   4   6
ENDBRANCH   1   2
BRANCH   1  12
HETATM   12  N   UNL     1      -8.585   7.847  66.132  1.00  0.00    -0.142 N  
HETATM   13  O   UNL     1      -8.023   7.510  63.920  1.00  0.00    -0.134 OA 
HETATM   14  C   UNL     1      -8.042   8.262  64.897  1.00  0.00    -0.150 C  
BRANCH  12  15
HETATM   15  C   UNL     1      -8.596   8.689  67.269  1.00  0.00    -0.125 A  
HETATM   16  C   UNL     1      -9.692   9.497  67.574  1.00  0.00    -0.155 A  
HETATM   17  C   UNL     1      -7.611   9.401  69.332  1.00  0.00    -0.083 A  
HETATM   18  N   UNL     1      -9.789  10.226  68.711  1.00  0.00    -0.172 NA 
HETATM   19  F   UNL     1      -6.612   9.353  70.220  1.00  0.00    -0.043 F  
HETATM   20  C   UNL     1      -7.541   8.646  68.174  1.00  0.00    -0.097 A  
HETATM   21  C   UNL     1      -8.738  10.165  69.565  1.00  0.00    -0.174 A  
ENDBRANCH  12  15
BRANCH  14  22
HETATM   22  C   UNL     1      -7.527   9.743  64.769  1.00  0.00    -0.130 C  
HETATM   23  C   UNL     1      -5.589   9.907  66.172  1.00  0.00    -0.057 C  
HETATM   24  C   UNL     1      -6.001   9.733  64.720  1.00  0.00    -0.090 C  
HETATM   25  N   UNL     1      -7.796  10.653  65.882  1.00  0.00    -0.155 N  
HETATM   26  O   UNL     1      -6.544  11.409  67.766  1.00  0.00    -0.064 OA 
HETATM   27  C   UNL     1      -6.687  10.768  66.735  1.00  0.00    -0.110 C  
BRANCH  25  28
HETATM   28  C   UNL     1      -8.914  11.517  65.977  1.00  0.00    -0.176 A  
HETATM   29  N   UNL     1      -8.868  12.523  66.880  1.00  0.00    -0.210 NA 
HETATM   30  C   UNL     1      -9.878  13.411  66.972  1.00  0.00    -0.250 A  
HETATM   31  C   UNL     1     -10.998  13.358  66.176  1.00  0.00    -0.285 A  
HETATM   32  C   UNL     1     -11.063  12.327  65.247  1.00  0.00    -0.359 A  
HETATM   33  C   UNL     1     -10.015  11.399  65.140  1.00  0.00    -0.310 A  
HETATM   34  C   UNL     1     -12.206  12.218  64.391  1.00  0.00    -0.402 C  
HETATM   35  N   UNL     1     -13.127  12.117  63.693  1.00  0.00    -0.755 NA 
ENDBRANCH  25  28
ENDBRANCH  14  22
ENDBRANCH   1  12
BRANCH   1  36
HETATM   36  C   UNL     1      -8.181   5.363  66.014  1.00  0.00    -0.116 A  
HETATM   37  C   UNL     1      -5.891   4.564  66.538  1.00  0.00    -0.022 A  
HETATM   38  C   UNL     1      -5.979   3.579  65.574  1.00  0.00    -0.023 A  
HETATM   39 CL   UNL     1      -9.830   3.694  64.604  1.00  0.00    -0.176 Cl 
HETATM   40  C   UNL     1      -7.193   3.408  64.910  1.00  0.00    -0.066 A  
HETATM   41  C   UNL     1      -6.951   5.450  66.733  1.00  0.00    -0.065 A  
HETATM   42  C   UNL     1      -8.306   4.241  65.187  1.00  0.00    -0.114 A  
ENDBRANCH   1  36
TORSDOF 7
ENDMDL
MODEL      162
REMARK 921   NORMALIZED FREE ENERGY PREDICTED BY IDOCK:    0.20 KCAL/MOL
REMARK 922        TOTAL FREE ENERGY PREDICTED BY IDOCK:   -1.17 KCAL/MOL
REMARK 923 INTER-LIGAND FREE ENERGY PREDICTED BY IDOCK:   -7.76 KCAL/MOL
REMARK 924 INTRA-LIGAND FREE ENERGY PREDICTED BY IDOCK:    6.59 KCAL/MOL
REMARK 927      BINDING AFFINITY PREDICTED BY RF-SCORE:    0.00 PKD
ROOT
HETATM    1  C   UNL     1      -8.951  11.558  66.819  1.00  0.00    -0.181 C  
ENDROOT
BRANCH   1   2
HETATM    2  C   UNL     1      -9.454  12.989  67.357  1.00  0.00    -0.210 C  
HETATM    3  H   UNL     1      -9.229  13.993  65.575  1.00  0.00     0.000 HD 
HETATM    4  N   UNL     1      -9.539  14.107  66.540  1.00  0.00    -0.286 N  
HETATM    5  O   UNL     1      -9.685  13.132  68.557  1.00  0.00    -0.211 OA 
BRANCH   4   6
HETATM    6  C   UNL     1     -10.045  15.486  66.935  1.00  0.00    -0.262 C  
HETATM    7  C   UNL     1     -10.022  17.624  66.851  1.00  0.00    -0.323 C  
HETATM    8  F   UNL     1      -9.430  18.728  66.349  1.00  0.00    -0.300 F  
HETATM    9  C   UNL     1      -9.081  16.566  67.501  1.00  0.00    -0.200 C  
HETATM   10  F   UNL     1     -11.039  18.051  67.634  1.00  0.00    -0.373 F  
HETATM   11  C   UNL     1     -10.394  16.514  65.828  1.00  0.00    -0.359 C  
ENDBRANCH   4   6
ENDBRANCH   1   2
BRANCH   1  12
HETATM   12  N   UNL     1      -9.166  10.455  67.835  1.00  0.00    -0.138 N  
HETATM   13  O   UNL     1     -11.458  10.424  67.576  1.00  0.00    -0.386 OA 
HETATM   14  C   UNL     1     -10.454   9.952  68.116  1.00  0.00    -0.215 C  
BRANCH  12  15
HETATM   15  C   UNL     1      -8.005   9.940  68.461  1.00  0.00    -0.086 A  
HETATM   16  C   UNL     1      -7.233   8.940  67.869  1.00  0.00    -0.083 A  
HETATM   17  C   UNL     1      -6.359  10.060  70.195  1.00  0.00    -0.093 A  
HETATM   18  N   UNL     1      -6.056   8.505  68.377  1.00  0.00    -0.049 NA 
HETATM   19  F   UNL     1      -5.897  10.609  71.324  1.00  0.00    -0.077 F  
HETATM   20  C   UNL     1      -7.548  10.506  69.647  1.00  0.00    -0.134 A  
HETATM   21  C   UNL     1      -5.648   9.074  69.538  1.00  0.00    -0.034 A  
ENDBRANCH  12  15
BRANCH  14  22
HETATM   22  C   UNL     1     -10.579   8.716  69.080  1.00  0.00    -0.160 C  
HETATM   23  C   UNL     1     -10.107   9.531  71.286  1.00  0.00    -0.196 C  
HETATM   24  C   UNL     1     -11.262   9.163  70.371  1.00  0.00    -0.279 C  
HETATM   25  N   UNL     1      -9.340   8.116  69.577  1.00  0.00    -0.155 N  
HETATM   26  O   UNL     1      -8.067   8.322  71.584  1.00  0.00    -0.111 OA 
HETATM   27  C   UNL     1      -9.023   8.577  70.864  1.00  0.00    -0.172 C  
BRANCH  25  28
HETATM   28  C   UNL     1      -8.667   7.023  68.979  1.00  0.00    -0.128 A  
HETATM   29  N   UNL     1      -7.803   6.312  69.740  1.00  0.00    -0.108 NA 
HETATM   30  C   UNL     1      -7.181   5.226  69.241  1.00  0.00    -0.057 A  
HETATM   31  C   UNL     1      -7.373   4.775  67.956  1.00  0.00    -0.070 A  
HETATM   32  C   UNL     1      -8.254   5.497  67.160  1.00  0.00    -0.101 A  
HETATM   33  C   UNL     1      -8.911   6.628  67.670  1.00  0.00    -0.116 A  
HETATM   34  C   UNL     1      -8.494   5.078  65.812  1.00  0.00    -0.124 C  
HETATM   35  N   UNL     1      -8.696   4.751  64.717  1.00  0.00    -0.149 NA 
ENDBRANCH  25  28
ENDBRANCH  14  22
ENDBRANCH   1  12
BRANCH   1  36
HETATM   36  C   UNL     1      -9.105  11.004  65.377  1.00  0.00    -0.213 A  
HETATM   37  C   UNL     1      -8.147   9.436  63.711  1.00  0.00    -0.155 A  
HETATM   38  C   UNL     1      -8.987   9.916  62.727  1.00  0.00    -0.272 A  
HETATM   39 CL   UNL     1     -11.517  12.165  64.805  1.00  0.00    -0.376 Cl 
HETATM   40  C   UNL     1      -9.957  10.852  63.082  1.00  0.00    -0.368 A  
HETATM   41  C   UNL     1      -8.184   9.983  64.994  1.00  0.00    -0.148 A  
HETATM   42  C   UNL     1     -10.065  11.330  64.413  1.00  0.00    -0.303 A  
ENDBRANCH   1  36
TORSDOF 7
ENDMDL
MODEL      163
REMARK 921   NORMALIZED FREE ENERGY PREDICTED BY IDOCK:    0.21 KCAL/MOL
REMARK 922        TOTAL FREE ENERGY PREDICTED BY IDOCK:   -1.17 KCAL/MOL
REMARK 923 INTER-LIGAND FREE ENERGY PREDICTED BY IDOCK:   -7.68 KCAL/MOL
REMARK 924 INTRA-LIGAND FREE ENERGY PREDICTED BY IDOCK:    6.51 KCAL/MOL
REMARK 927      BINDING AFFINITY PREDICTED BY RF-SCORE:    0.00 PKD
ROOT
HETATM    1  C   UNL     1      -8.436   8.538  68.887  1.00  0.00    -0.123 C  
ENDROOT
BRANCH   1   2
HETATM    2  C   UNL     1      -8.625  10.136  68.905  1.00  0.00    -0.141 C  
HETATM    3  H   UNL     1     -10.626  10.134  68.425  1.00  0.00     0.000 HD 
HETATM    4  N   UNL     1      -9.846  10.748  68.658  1.00  0.00    -0.176 N  
HETATM    5  O   UNL     1      -7.638  10.856  69.048  1.00  0.00    -0.117 OA 
BRANCH   4   6
HETATM    6  C   UNL     1     -10.141  12.239  68.700  1.00  0.00    -0.144 C  
HETATM    7  C   UNL     1     -11.296  13.971  68.203  1.00  0.00    -0.292 C  
HETATM    8  F   UNL     1     -12.358  14.466  67.535  1.00  0.00    -0.393 F  
HETATM    9  C   UNL     1     -10.327  13.060  67.392  1.00  0.00    -0.234 C  
HETATM   10  F   UNL     1     -10.713  15.016  68.835  1.00  0.00    -0.213 F  
HETATM   11  C   UNL     1     -11.560  12.723  69.093  1.00  0.00    -0.373 C  
ENDBRANCH   4   6
ENDBRANCH   1   2
BRANCH   1  12
HETATM   12  N   UNL     1      -9.340   7.843  69.885  1.00  0.00    -0.157 N  
HETATM   13  O   UNL     1     -11.187   7.886  68.504  1.00  0.00     0.253 OA 
HETATM   14  C   UNL     1     -10.685   7.547  69.579  1.00  0.00    -0.217 C  
BRANCH  12  15
HETATM   15  C   UNL     1      -8.754   7.481  71.121  1.00  0.00    -0.136 A  
HETATM   16  C   UNL     1      -8.061   6.282  71.283  1.00  0.00    -0.118 A  
HETATM   17  C   UNL     1      -8.106   8.053  73.355  1.00  0.00    -0.192 A  
HETATM   18  N   UNL     1      -7.387   5.954  72.411  1.00  0.00    -0.090 NA 
HETATM   19  F   UNL     1      -8.095   8.915  74.377  1.00  0.00    -0.189 F  
HETATM   20  C   UNL     1      -8.768   8.379  72.184  1.00  0.00    -0.272 A  
HETATM   21  C   UNL     1      -7.432   6.850  73.428  1.00  0.00    -0.080 A  
ENDBRANCH  12  15
BRANCH  14  22
HETATM   22  C   UNL     1     -11.518   6.703  70.612  1.00  0.00    -0.364 C  
HETATM   23  C   UNL     1     -11.780   8.084  72.555  1.00  0.00    -0.446 C  
HETATM   24  C   UNL     1     -12.518   7.622  71.310  1.00  0.00    -0.324 C  
HETATM   25  N   UNL     1     -10.798   6.113  71.741  1.00  0.00    -0.245 N  
HETATM   26  O   UNL     1     -10.444   6.744  74.015  1.00  0.00    -0.364 OA 
HETATM   27  C   UNL     1     -10.918   6.899  72.898  1.00  0.00    -0.281 C  
BRANCH  25  28
HETATM   28  C   UNL     1     -10.262   4.803  71.771  1.00  0.00    -0.188 A  
HETATM   29  N   UNL     1     -10.187   4.172  72.966  1.00  0.00    -0.153 NA 
HETATM   30  C   UNL     1      -9.741   2.902  73.045  1.00  0.00    -0.109 A  
HETATM   31  C   UNL     1      -9.341   2.178  71.948  1.00  0.00    -0.170 A  
HETATM   32  C   UNL     1      -9.406   2.814  70.714  1.00  0.00    -0.221 A  
HETATM   33  C   UNL     1      -9.873   4.135  70.619  1.00  0.00    -0.249 A  
HETATM   34  C   UNL     1      -9.000   2.112  69.534  1.00  0.00    -0.098 C  
HETATM   35  N   UNL     1      -8.672   1.555  68.570  1.00  0.00    -0.063 NA 
ENDBRANCH  25  28
ENDBRANCH  14  22
ENDBRANCH   1  12
BRANCH   1  36
HETATM   36  C   UNL     1      -8.220   7.645  67.637  1.00  0.00    -0.121 A  
HETATM   37  C   UNL     1      -7.329   5.468  66.849  1.00  0.00    -0.079 A  
HETATM   38  C   UNL     1      -7.504   5.836  65.531  1.00  0.00    -0.077 A  
HETATM   39 CL   UNL     1      -9.652   9.161  65.864  1.00  0.00    -0.338 Cl 
HETATM   40  C   UNL     1      -8.134   7.050  65.259  1.00  0.00    -0.134 A  
HETATM   41  C   UNL     1      -7.651   6.358  67.874  1.00  0.00    -0.102 A  
HETATM   42  C   UNL     1      -8.559   7.907  66.305  1.00  0.00    -0.149 A  
ENDBRANCH   1  36
TORSDOF 7
ENDMDL
MODEL      164
REMARK 921   NORMALIZED FREE ENERGY PREDICTED BY IDOCK:    0.22 KCAL/MOL
REMARK 922        TOTAL FREE ENERGY PREDICTED BY IDOCK:   -1.15 KCAL/MOL
REMARK 923 INTER-LIGAND FREE ENERGY PREDICTED BY IDOCK:   -8.16 KCAL/MOL
REMARK 924 INTRA-LIGAND FREE ENERGY PREDICTED BY IDOCK:    7.01 KCAL/MOL
REMARK 927      BINDING AFFINITY PREDICTED BY RF-SCORE:    0.00 PKD
ROOT
HETATM    1  C   UNL     1      -8.605  11.848  66.802  1.00  0.00    -0.181 C  
ENDROOT
BRANCH   1   2
HETATM    2  C   UNL     1      -9.406  13.123  67.370  1.00  0.00    -0.213 C  
HETATM    3  H   UNL     1      -8.189  14.551  66.522  1.00  0.00     0.000 HD 
HETATM    4  N   UNL     1      -9.030  14.429  67.086  1.00  0.00    -0.220 N  
HETATM    5  O   UNL     1     -10.330  12.948  68.163  1.00  0.00    -0.226 OA 
BRANCH   4   6
HETATM    6  C   UNL     1      -9.744  15.697  67.529  1.00  0.00    -0.222 C  
HETATM    7  C   UNL     1      -9.938  17.822  67.684  1.00  0.00    -0.322 C  
HETATM    8  F   UNL     1      -9.393  19.029  67.422  1.00  0.00    -0.300 F  
HETATM    9  C   UNL     1      -9.015  16.777  68.377  1.00  0.00    -0.233 C  
HETATM   10  F   UNL     1     -11.115  18.056  68.309  1.00  0.00    -0.250 F  
HETATM   11  C   UNL     1     -10.007  16.822  66.495  1.00  0.00    -0.308 C  
ENDBRANCH   4   6
ENDBRANCH   1   2
BRANCH   1  12
HETATM   12  N   UNL     1      -8.410  10.778  67.856  1.00  0.00    -0.116 N  
HETATM   13  O   UNL     1      -7.157  12.128  69.245  1.00  0.00    -0.063 OA 
HETATM   14  C   UNL     1      -7.692  11.035  69.043  1.00  0.00    -0.132 C  
BRANCH  12  15
HETATM   15  C   UNL     1      -9.011   9.523  67.599  1.00  0.00    -0.117 A  
HETATM   16  C   UNL     1     -10.361   9.286  67.863  1.00  0.00    -0.227 A  
HETATM   17  C   UNL     1      -8.909   7.333  66.634  1.00  0.00    -0.139 A  
HETATM   18  N   UNL     1     -10.999   8.142  67.524  1.00  0.00    -0.015 NA 
HETATM   19  F   UNL     1      -8.224   6.369  66.010  1.00  0.00    -0.105 F  
HETATM   20  C   UNL     1      -8.281   8.520  66.970  1.00  0.00    -0.107 A  
HETATM   21  C   UNL     1     -10.253   7.185  66.920  1.00  0.00    -0.260 A  
ENDBRANCH  12  15
BRANCH  14  22
HETATM   22  C   UNL     1      -7.651   9.917  70.148  1.00  0.00    -0.175 C  
HETATM   23  C   UNL     1      -6.235   8.179  69.297  1.00  0.00    -0.038 C  
HETATM   24  C   UNL     1      -6.229   9.367  70.243  1.00  0.00    -0.056 C  
HETATM   25  N   UNL     1      -8.437   8.705  69.916  1.00  0.00    -0.125 N  
HETATM   26  O   UNL     1      -7.948   6.528  69.071  1.00  0.00    -0.108 OA 
HETATM   27  C   UNL     1      -7.645   7.665  69.405  1.00  0.00    -0.095 C  
BRANCH  25  28
HETATM   28  C   UNL     1      -9.760   8.491  70.373  1.00  0.00    -0.175 A  
HETATM   29  N   UNL     1     -10.207   7.217  70.460  1.00  0.00    -0.196 NA 
HETATM   30  C   UNL     1     -11.436   6.951  70.946  1.00  0.00    -0.323 A  
HETATM   31  C   UNL     1     -12.300   7.930  71.375  1.00  0.00    -0.334 A  
HETATM   32  C   UNL     1     -11.858   9.244  71.287  1.00  0.00    -0.415 A  
HETATM   33  C   UNL     1     -10.579   9.533  70.786  1.00  0.00    -0.387 A  
HETATM   34  C   UNL     1     -12.715  10.309  71.716  1.00  0.00    -0.433 C  
HETATM   35  N   UNL     1     -13.401  11.180  72.058  1.00  0.00    -0.401 NA 
ENDBRANCH  25  28
ENDBRANCH  14  22
ENDBRANCH   1  12
BRANCH   1  36
HETATM   36  C   UNL     1      -8.763  11.205  65.399  1.00  0.00    -0.061 A  
HETATM   37  C   UNL     1      -7.559  10.020  63.581  1.00  0.00    -0.143 A  
HETATM   38  C   UNL     1      -8.659  10.106  62.753  1.00  0.00    -0.196 A  
HETATM   39 CL   UNL     1     -11.491  11.363  65.239  1.00  0.00    -0.085 Cl 
HETATM   40  C   UNL     1      -9.841  10.635  63.271  1.00  0.00    -0.364 A  
HETATM   41  C   UNL     1      -7.599  10.579  64.859  1.00  0.00    -0.006 A  
HETATM   42  C   UNL     1      -9.912  11.104  64.606  1.00  0.00    -0.292 A  
ENDBRANCH   1  36
TORSDOF 7
ENDMDL
MODEL      165
REMARK 921   NORMALIZED FREE ENERGY PREDICTED BY IDOCK:    0.40 KCAL/MOL
REMARK 922        TOTAL FREE ENERGY PREDICTED BY IDOCK:   -0.90 KCAL/MOL
REMARK 923 INTER-LIGAND FREE ENERGY PREDICTED BY IDOCK:   -6.59 KCAL/MOL
REMARK 924 INTRA-LIGAND FREE ENERGY PREDICTED BY IDOCK:    5.69 KCAL/MOL
REMARK 927      BINDING AFFINITY PREDICTED BY RF-SCORE:    0.00 PKD
ROOT
HETATM    1  C   UNL     1      -9.563  16.406  67.455  1.00  0.00    -0.231 C  
ENDROOT
BRANCH   1   2
HETATM    2  C   UNL     1     -10.156  15.579  66.209  1.00  0.00    -0.295 C  
HETATM    3  H   UNL     1      -8.856  13.990  66.350  1.00  0.00     0.000 HD 
HETATM    4  N   UNL     1      -9.655  14.343  65.824  1.00  0.00    -0.236 N  
HETATM    5  O   UNL     1     -11.024  16.094  65.505  1.00  0.00    -0.275 OA 
BRANCH   4   6
HETATM    6  C   UNL     1     -10.174  13.462  64.698  1.00  0.00    -0.315 C  
HETATM    7  C   UNL     1     -11.634  12.187  63.791  1.00  0.00    -0.470 C  
HETATM    8  F   UNL     1     -12.827  11.570  63.915  1.00  0.00    -0.377 F  
HETATM    9  C   UNL     1     -10.628  11.999  64.965  1.00  0.00    -0.332 C  
HETATM   10  F   UNL     1     -11.158  11.869  62.565  1.00  0.00     0.178 F  
HETATM   11  C   UNL     1     -11.600  13.702  64.141  1.00  0.00    -0.386 C  
ENDBRANCH   4   6
ENDBRANCH   1   2
BRANCH   1  12
HETATM   12  N   UNL     1      -8.444  15.662  68.156  1.00  0.00    -0.146 N  
HETATM   13  O   UNL     1      -9.570  13.649  68.190  1.00  0.00    -0.210 OA 
HETATM   14  C   UNL     1      -8.547  14.286  68.451  1.00  0.00    -0.175 C  
BRANCH  12  15
HETATM   15  C   UNL     1      -7.286  16.414  68.468  1.00  0.00    -0.181 A  
HETATM   16  C   UNL     1      -6.228  16.542  67.567  1.00  0.00    -0.154 A  
HETATM   17  C   UNL     1      -6.132  17.945  69.903  1.00  0.00    -0.166 A  
HETATM   18  N   UNL     1      -5.159  17.345  67.780  1.00  0.00    -0.116 NA 
HETATM   19  F   UNL     1      -6.073  18.660  71.031  1.00  0.00    -0.042 F  
HETATM   20  C   UNL     1      -7.227  17.136  69.656  1.00  0.00     0.279 A  
HETATM   21  C   UNL     1      -5.133  18.026  68.952  1.00  0.00    -0.177 A  
ENDBRANCH  12  15
BRANCH  14  22
HETATM   22  C   UNL     1      -7.291  13.557  69.055  1.00  0.00     0.004 C  
HETATM   23  C   UNL     1      -5.611  13.578  67.343  1.00  0.00     0.184 C  
HETATM   24  C   UNL     1      -6.029  14.298  68.614  1.00  0.00    -0.085 C  
HETATM   25  N   UNL     1      -7.020  12.191  68.607  1.00  0.00    -0.091 N  
HETATM   26  O   UNL     1      -5.586  11.218  66.968  1.00  0.00    -0.062 OA 
HETATM   27  C   UNL     1      -6.048  12.161  67.595  1.00  0.00    -0.110 C  
BRANCH  25  28
HETATM   28  C   UNL     1      -7.466  11.016  69.260  1.00  0.00    -0.100 A  
HETATM   29  N   UNL     1      -6.776  10.586  70.341  1.00  0.00    -0.290 NA 
HETATM   30  C   UNL     1      -7.190   9.508  71.038  1.00  0.00     0.024 A  
HETATM   31  C   UNL     1      -8.314   8.788  70.707  1.00  0.00    -0.185 A  
HETATM   32  C   UNL     1      -9.031   9.214  69.596  1.00  0.00    -0.158 A  
HETATM   33  C   UNL     1      -8.611  10.337  68.865  1.00  0.00    -0.150 A  
HETATM   34  C   UNL     1     -10.209   8.504  69.199  1.00  0.00    -0.211 C  
HETATM   35  N   UNL     1     -11.164   7.935  68.867  1.00  0.00     0.295 NA 
ENDBRANCH  25  28
ENDBRANCH  14  22
ENDBRANCH   1  12
BRANCH   1  36
HETATM   36  C   UNL     1      -9.320  17.937  67.519  1.00  0.00    -0.253 A  
HETATM   37  C   UNL     1      -9.830  20.004  68.792  1.00  0.00    -0.335 A  
HETATM   38  C   UNL     1      -9.232  20.786  67.826  1.00  0.00    -0.176 A  
HETATM   39 CL   UNL     1      -7.418  18.078  65.555  1.00  0.00     0.046 Cl 
HETATM   40  C   UNL     1      -8.582  20.152  66.768  1.00  0.00    -0.378 A  
HETATM   41  C   UNL     1      -9.898  18.620  68.631  1.00  0.00    -0.427 A  
HETATM   42  C   UNL     1      -8.559  18.739  66.661  1.00  0.00    -0.302 A  
ENDBRANCH   1  36
TORSDOF 7
ENDMDL
MODEL      166
REMARK 921   NORMALIZED FREE ENERGY PREDICTED BY IDOCK:    0.50 KCAL/MOL
REMARK 922        TOTAL FREE ENERGY PREDICTED BY IDOCK:   -0.76 KCAL/MOL
REMARK 923 INTER-LIGAND FREE ENERGY PREDICTED BY IDOCK:   -9.08 KCAL/MOL
REMARK 924 INTRA-LIGAND FREE ENERGY PREDICTED BY IDOCK:    8.32 KCAL/MOL
REMARK 927      BINDING AFFINITY PREDICTED BY RF-SCORE:    0.00 PKD
ROOT
HETATM    1  C   UNL     1      -8.922  13.484  66.331  1.00  0.00     0.034 C  
ENDROOT
BRANCH   1   2
HETATM    2  C   UNL     1      -8.500  14.925  66.909  1.00  0.00    -0.223 C  
HETATM    3  H   UNL     1     -10.359  15.436  67.628  1.00  0.00     0.000 HD 
HETATM    4  N   UNL     1      -9.395  15.762  67.560  1.00  0.00    -0.209 N  
HETATM    5  O   UNL     1      -7.368  15.353  66.687  1.00  0.00    -0.064 OA 
BRANCH   4   6
HETATM    6  C   UNL     1      -9.087  17.114  68.184  1.00  0.00    -0.247 C  
HETATM    7  C   UNL     1      -9.591  19.118  68.739  1.00  0.00    -0.416 C  
HETATM    8  F   UNL     1     -10.519  20.098  68.714  1.00  0.00    -0.545 F  
HETATM    9  C   UNL     1      -9.269  18.432  67.379  1.00  0.00    -0.275 C  
HETATM   10  F   UNL     1      -8.522  19.614  69.403  1.00  0.00    -0.337 F  
HETATM   11  C   UNL     1     -10.076  17.719  69.214  1.00  0.00    -0.135 C  
ENDBRANCH   4   6
ENDBRANCH   1   2
BRANCH   1  12
HETATM   12  N   UNL     1      -8.405  12.348  67.191  1.00  0.00    -0.181 N  
HETATM   13  O   UNL     1      -7.565  13.738  68.828  1.00  0.00    -0.132 OA 
HETATM   14  C   UNL     1      -7.766  12.590  68.425  1.00  0.00    -0.136 C  
BRANCH  12  15
HETATM   15  C   UNL     1      -8.626  11.038  66.703  1.00  0.00    -0.157 A  
HETATM   16  C   UNL     1      -9.787  10.326  67.007  1.00  0.00    -0.193 A  
HETATM   17  C   UNL     1      -8.000   9.228  65.265  1.00  0.00    -0.107 A  
HETATM   18  N   UNL     1     -10.088   9.122  66.467  1.00  0.00    -0.289 NA 
HETATM   19  F   UNL     1      -7.150   8.678  64.391  1.00  0.00    -0.080 F  
HETATM   20  C   UNL     1      -7.722  10.469  65.811  1.00  0.00    -0.145 A  
HETATM   21  C   UNL     1      -9.179   8.595  65.609  1.00  0.00    -0.139 A  
ENDBRANCH  12  15
BRANCH  14  22
HETATM   22  C   UNL     1      -7.382  11.356  69.321  1.00  0.00    -0.042 C  
HETATM   23  C   UNL     1      -5.674  10.165  68.132  1.00  0.00    -0.038 C  
HETATM   24  C   UNL     1      -5.869  11.157  69.266  1.00  0.00    -0.044 C  
HETATM   25  N   UNL     1      -7.883  10.042  68.917  1.00  0.00    -0.089 N  
HETATM   26  O   UNL     1      -6.971   8.207  67.696  1.00  0.00    -0.075 OA 
HETATM   27  C   UNL     1      -6.914   9.317  68.206  1.00  0.00    -0.072 C  
BRANCH  25  28
HETATM   28  C   UNL     1      -9.081   9.448  69.382  1.00  0.00    -0.161 A  
HETATM   29  N   UNL     1      -9.218   8.108  69.258  1.00  0.00    -0.151 NA 
HETATM   30  C   UNL     1     -10.310   7.481  69.738  1.00  0.00    -0.221 A  
HETATM   31  C   UNL     1     -11.336   8.142  70.371  1.00  0.00    -0.181 A  
HETATM   32  C   UNL     1     -11.213   9.519  70.501  1.00  0.00    -0.345 A  
HETATM   33  C   UNL     1     -10.078  10.183  70.008  1.00  0.00    -0.241 A  
HETATM   34  C   UNL     1     -12.251  10.264  71.149  1.00  0.00    -0.397 C  
HETATM   35  N   UNL     1     -13.086  10.879  71.670  1.00  0.00    -0.443 NA 
ENDBRANCH  25  28
ENDBRANCH  14  22
ENDBRANCH   1  12
BRANCH   1  36
HETATM   36  C   UNL     1     -10.285  13.105  65.694  1.00  0.00    -0.294 A  
HETATM   37  C   UNL     1     -11.386  12.334  63.608  1.00  0.00    -0.547 A  
HETATM   38  C   UNL     1     -12.637  12.520  64.161  1.00  0.00    -0.474 A  
HETATM   39 CL   UNL     1     -11.779  13.160  67.987  1.00  0.00    -0.373 Cl 
HETATM   40  C   UNL     1     -12.720  12.887  65.503  1.00  0.00    -0.212 A  
HETATM   41  C   UNL     1     -10.241  12.645  64.343  1.00  0.00    -0.344 A  
HETATM   42  C   UNL     1     -11.555  13.098  66.282  1.00  0.00    -0.356 A  
ENDBRANCH   1  36
TORSDOF 7
ENDMDL
MODEL      167
REMARK 921   NORMALIZED FREE ENERGY PREDICTED BY IDOCK:    0.52 KCAL/MOL
REMARK 922        TOTAL FREE ENERGY PREDICTED BY IDOCK:   -0.72 KCAL/MOL
REMARK 923 INTER-LIGAND FREE ENERGY PREDICTED BY IDOCK:   -7.78 KCAL/MOL
REMARK 924 INTRA-LIGAND FREE ENERGY PREDICTED BY IDOCK:    7.06 KCAL/MOL
REMARK 927      BINDING AFFINITY PREDICTED BY RF-SCORE:    0.00 PKD
ROOT
HETATM    1  C   UNL     1      -9.071  12.273  66.588  1.00  0.00    -0.203 C  
ENDROOT
BRANCH   1   2
HETATM    2  C   UNL     1      -9.295  13.158  67.913  1.00  0.00    -0.215 C  
HETATM    3  H   UNL     1     -11.342  13.294  67.751  1.00  0.00     0.000 HD 
HETATM    4  N   UNL     1     -10.553  13.558  68.341  1.00  0.00    -0.242 N  
HETATM    5  O   UNL     1      -8.316  13.582  68.525  1.00  0.00    -0.155 OA 
BRANCH   4   6
HETATM    6  C   UNL     1     -10.877  14.350  69.598  1.00  0.00    -0.111 C  
HETATM    7  C   UNL     1     -12.202  15.429  70.886  1.00  0.00    -0.373 C  
HETATM    8  F   UNL     1     -13.449  15.908  71.078  1.00  0.00    -0.528 F  
HETATM    9  C   UNL     1     -11.534  15.757  69.518  1.00  0.00    -0.356 C  
HETATM   10  F   UNL     1     -11.481  15.774  71.978  1.00  0.00    -0.421 F  
HETATM   11  C   UNL     1     -12.093  13.936  70.466  1.00  0.00    -0.426 C  
ENDBRANCH   4   6
ENDBRANCH   1   2
BRANCH   1  12
HETATM   12  N   UNL     1      -8.379  10.958  66.887  1.00  0.00    -0.129 N  
HETATM   13  O   UNL     1      -6.344  11.636  66.040  1.00  0.00     0.085 OA 
HETATM   14  C   UNL     1      -7.014  10.761  66.593  1.00  0.00    -0.129 C  
BRANCH  12  15
HETATM   15  C   UNL     1      -9.168   9.957  67.503  1.00  0.00    -0.134 A  
HETATM   16  C   UNL     1      -9.424   9.962  68.874  1.00  0.00    -0.170 A  
HETATM   17  C   UNL     1     -10.646   8.082  67.326  1.00  0.00    -0.290 A  
HETATM   18  N   UNL     1     -10.266   9.093  69.481  1.00  0.00    -0.196 NA 
HETATM   19  F   UNL     1     -11.275   7.163  66.584  1.00  0.00    -0.382 F  
HETATM   20  C   UNL     1      -9.799   8.994  66.722  1.00  0.00    -0.300 A  
HETATM   21  C   UNL     1     -10.855   8.164  68.688  1.00  0.00     0.083 A  
ENDBRANCH  12  15
BRANCH  14  22
HETATM   22  C   UNL     1      -6.336   9.420  67.059  1.00  0.00    -0.066 C  
HETATM   23  C   UNL     1      -7.218   7.693  65.648  1.00  0.00    -0.065 C  
HETATM   24  C   UNL     1      -5.999   8.582  65.827  1.00  0.00    -0.048 C  
HETATM   25  N   UNL     1      -7.142   8.493  67.854  1.00  0.00    -0.085 N  
HETATM   26  O   UNL     1      -8.422   6.541  67.361  1.00  0.00    -0.119 OA 
HETATM   27  C   UNL     1      -7.687   7.472  67.061  1.00  0.00    -0.111 C  
BRANCH  25  28
HETATM   28  C   UNL     1      -7.179   8.451  69.268  1.00  0.00    -0.063 A  
HETATM   29  N   UNL     1      -6.735   9.532  69.950  1.00  0.00    -0.056 NA 
HETATM   30  C   UNL     1      -6.803   9.572  71.296  1.00  0.00     0.088 A  
HETATM   31  C   UNL     1      -7.313   8.543  72.052  1.00  0.00    -0.110 A  
HETATM   32  C   UNL     1      -7.768   7.423  71.367  1.00  0.00    -0.086 A  
HETATM   33  C   UNL     1      -7.706   7.372  69.965  1.00  0.00    -0.095 A  
HETATM   34  C   UNL     1      -8.309   6.317  72.099  1.00  0.00    -0.109 C  
HETATM   35  N   UNL     1      -8.746   5.414  72.680  1.00  0.00    -0.124 NA 
ENDBRANCH  25  28
ENDBRANCH  14  22
ENDBRANCH   1  12
BRANCH   1  36
HETATM   36  C   UNL     1     -10.062  12.107  65.406  1.00  0.00    -0.282 A  
HETATM   37  C   UNL     1     -12.288  12.774  64.538  1.00  0.00    -0.515 A  
HETATM   38  C   UNL     1     -12.187  11.877  63.494  1.00  0.00    -0.591 A  
HETATM   39 CL   UNL     1      -8.385  10.749  63.722  1.00  0.00    -0.024 Cl 
HETATM   40  C   UNL     1     -10.991  11.178  63.335  1.00  0.00    -0.129 A  
HETATM   41  C   UNL     1     -11.267  12.868  65.484  1.00  0.00    -0.319 A  
HETATM   42  C   UNL     1      -9.911  11.354  64.236  1.00  0.00    -0.283 A  
ENDBRANCH   1  36
TORSDOF 7
ENDMDL
MODEL      168
REMARK 921   NORMALIZED FREE ENERGY PREDICTED BY IDOCK:    0.61 KCAL/MOL
REMARK 922        TOTAL FREE ENERGY PREDICTED BY IDOCK:   -0.59 KCAL/MOL
REMARK 923 INTER-LIGAND FREE ENERGY PREDICTED BY IDOCK:   -6.98 KCAL/MOL
REMARK 924 INTRA-LIGAND FREE ENERGY PREDICTED BY IDOCK:    6.39 KCAL/MOL
REMARK 927      BINDING AFFINITY PREDICTED BY RF-SCORE:    0.00 PKD
ROOT
HETATM    1  C   UNL     1     -10.638   9.535  68.620  1.00  0.00    -0.210 C  
ENDROOT
BRANCH   1   2
HETATM    2  C   UNL     1     -10.934  11.017  68.068  1.00  0.00    -0.258 C  
HETATM    3  H   UNL     1      -9.115  11.823  68.594  1.00  0.00     0.000 HD 
HETATM    4  N   UNL     1     -10.000  12.041  68.138  1.00  0.00    -0.197 N  
HETATM    5  O   UNL     1     -12.060  11.289  67.653  1.00  0.00    -0.600 OA 
BRANCH   4   6
HETATM    6  C   UNL     1     -10.161  13.456  67.603  1.00  0.00    -0.228 C  
HETATM    7  C   UNL     1      -9.499  15.166  66.501  1.00  0.00    -0.283 C  
HETATM    8  F   UNL     1      -8.513  15.726  65.768  1.00  0.00    -0.266 F  
HETATM    9  C   UNL     1      -9.083  14.544  67.867  1.00  0.00    -0.191 C  
HETATM   10  F   UNL     1     -10.500  16.074  66.562  1.00  0.00    -0.283 F  
HETATM   11  C   UNL     1      -9.932  13.729  66.095  1.00  0.00    -0.318 C  
ENDBRANCH   4   6
ENDBRANCH   1   2
BRANCH   1  12
HETATM   12  N   UNL     1      -9.171   9.168  68.521  1.00  0.00    -0.136 N  
HETATM   13  O   UNL     1      -8.703   9.732  70.708  1.00  0.00    -0.162 OA 
HETATM   14  C   UNL     1      -8.306   9.284  69.629  1.00  0.00    -0.140 C  
BRANCH  12  15
HETATM   15  C   UNL     1      -8.727   8.677  67.270  1.00  0.00    -0.129 A  
HETATM   16  C   UNL     1      -8.825   7.326  66.934  1.00  0.00    -0.132 A  
HETATM   17  C   UNL     1      -7.940   9.080  65.045  1.00  0.00    -0.123 A  
HETATM   18  N   UNL     1      -8.522   6.837  65.709  1.00  0.00    -0.146 NA 
HETATM   19  F   UNL     1      -7.525   9.924  64.094  1.00  0.00    -0.119 F  
HETATM   20  C   UNL     1      -8.277   9.563  66.297  1.00  0.00    -0.115 A  
HETATM   21  C   UNL     1      -8.078   7.730  64.790  1.00  0.00    -0.131 A  
ENDBRANCH  12  15
BRANCH  14  22
HETATM   22  C   UNL     1      -6.832   8.754  69.485  1.00  0.00    -0.048 C  
HETATM   23  C   UNL     1      -5.722  10.254  67.978  1.00  0.00    -0.041 C  
HETATM   24  C   UNL     1      -5.879   9.948  69.457  1.00  0.00    -0.037 C  
HETATM   25  N   UNL     1      -6.483   8.050  68.251  1.00  0.00    -0.053 N  
HETATM   26  O   UNL     1      -5.426   8.678  66.206  1.00  0.00    -0.034 OA 
HETATM   27  C   UNL     1      -5.840   8.898  67.336  1.00  0.00    -0.043 C  
BRANCH  25  28
HETATM   28  C   UNL     1      -6.536   6.647  68.070  1.00  0.00    -0.062 A  
HETATM   29  N   UNL     1      -5.727   6.093  67.138  1.00  0.00    -0.016 NA 
HETATM   30  C   UNL     1      -5.692   4.756  66.966  1.00  0.00    -0.018 A  
HETATM   31  C   UNL     1      -6.457   3.884  67.704  1.00  0.00    -0.038 A  
HETATM   32  C   UNL     1      -7.297   4.438  68.662  1.00  0.00    -0.060 A  
HETATM   33  C   UNL     1      -7.339   5.829  68.853  1.00  0.00    -0.083 A  
HETATM   34  C   UNL     1      -8.120   3.582  69.462  1.00  0.00    -0.053 C  
HETATM   35  N   UNL     1      -8.794   2.898  70.114  1.00  0.00    -0.076 NA 
ENDBRANCH  25  28
ENDBRANCH  14  22
ENDBRANCH   1  12
BRANCH   1  36
HETATM   36  C   UNL     1     -11.282   8.863  69.862  1.00  0.00    -0.076 A  
HETATM   37  C   UNL     1     -12.493   9.297  71.983  1.00  0.00    -0.451 A  
HETATM   38  C   UNL     1     -12.390   7.970  72.351  1.00  0.00    -0.299 A  
HETATM   39 CL   UNL     1     -11.078   6.269  69.010  1.00  0.00    -0.434 Cl 
HETATM   40  C   UNL     1     -11.840   7.070  71.440  1.00  0.00    -0.359 A  
HETATM   41  C   UNL     1     -11.930   9.737  70.785  1.00  0.00    -0.382 A  
HETATM   42  C   UNL     1     -11.365   7.502  70.176  1.00  0.00    -0.151 A  
ENDBRANCH   1  36
TORSDOF 7
ENDMDL
MODEL      169
REMARK 921   NORMALIZED FREE ENERGY PREDICTED BY IDOCK:    0.66 KCAL/MOL
REMARK 922        TOTAL FREE ENERGY PREDICTED BY IDOCK:   -0.52 KCAL/MOL
REMARK 923 INTER-LIGAND FREE ENERGY PREDICTED BY IDOCK:   -8.25 KCAL/MOL
REMARK 924 INTRA-LIGAND FREE ENERGY PREDICTED BY IDOCK:    7.73 KCAL/MOL
REMARK 927      BINDING AFFINITY PREDICTED BY RF-SCORE:    0.00 PKD
ROOT
HETATM    1  C   UNL     1      -9.923  10.683  67.250  1.00  0.00    -0.188 C  
ENDROOT
BRANCH   1   2
HETATM    2  C   UNL     1      -9.796   9.741  68.548  1.00  0.00    -0.156 C  
HETATM    3  H   UNL     1     -11.740   9.067  68.530  1.00  0.00     0.000 HD 
HETATM    4  N   UNL     1     -10.853   8.977  69.024  1.00  0.00    -0.131 N  
HETATM    5  O   UNL     1      -8.757   9.762  69.206  1.00  0.00    -0.140 OA 
BRANCH   4   6
HETATM    6  C   UNL     1     -10.823   8.021  70.206  1.00  0.00    -0.241 C  
HETATM    7  C   UNL     1     -11.743   6.695  71.610  1.00  0.00    -0.316 C  
HETATM    8  F   UNL     1     -12.890   6.141  72.057  1.00  0.00    -0.347 F  
HETATM    9  C   UNL     1     -11.737   8.243  71.444  1.00  0.00    -0.327 C  
HETATM   10  F   UNL     1     -10.746   6.191  72.374  1.00  0.00    -0.223 F  
HETATM   11  C   UNL     1     -11.498   6.631  70.076  1.00  0.00    -0.434 C  
ENDBRANCH   4   6
ENDBRANCH   1   2
BRANCH   1  12
HETATM   12  N   UNL     1      -9.383  12.077  67.498  1.00  0.00    -0.175 N  
HETATM   13  O   UNL     1      -7.251  11.568  66.781  1.00  0.00    -0.141 OA 
HETATM   14  C   UNL     1      -8.044  12.412  67.206  1.00  0.00    -0.182 C  
BRANCH  12  15
HETATM   15  C   UNL     1     -10.301  13.027  68.007  1.00  0.00    -0.234 A  
HETATM   16  C   UNL     1     -11.158  13.742  67.171  1.00  0.00    -0.302 A  
HETATM   17  C   UNL     1     -11.411  14.047  69.868  1.00  0.00    -0.145 A  
HETATM   18  N   UNL     1     -12.128  14.570  67.626  1.00  0.00    -0.304 NA 
HETATM   19  F   UNL     1     -11.569  14.197  71.187  1.00  0.00    -0.325 F  
HETATM   20  C   UNL     1     -10.441  13.189  69.382  1.00  0.00     0.314 A  
HETATM   21  C   UNL     1     -12.227  14.709  68.971  1.00  0.00    -0.164 A  
ENDBRANCH  12  15
BRANCH  14  22
HETATM   22  C   UNL     1      -7.598  13.912  67.363  1.00  0.00    -0.142 C  
HETATM   23  C   UNL     1      -7.586  14.370  69.717  1.00  0.00     0.242 C  
HETATM   24  C   UNL     1      -6.660  14.026  68.562  1.00  0.00    -0.097 C  
HETATM   25  N   UNL     1      -8.632  14.896  67.683  1.00  0.00    -0.165 N  
HETATM   26  O   UNL     1      -9.397  15.928  69.693  1.00  0.00    -0.249 OA 
HETATM   27  C   UNL     1      -8.665  15.184  69.056  1.00  0.00    -0.215 C  
BRANCH  25  28
HETATM   28  C   UNL     1      -9.345  15.667  66.733  1.00  0.00    -0.246 A  
HETATM   29  N   UNL     1      -9.822  15.042  65.632  1.00  0.00    -0.347 NA 
HETATM   30  C   UNL     1     -10.560  15.713  64.725  1.00  0.00    -0.183 A  
HETATM   31  C   UNL     1     -10.871  17.047  64.850  1.00  0.00     0.085 A  
HETATM   32  C   UNL     1     -10.383  17.705  65.973  1.00  0.00    -0.305 A  
HETATM   33  C   UNL     1      -9.617  17.015  66.926  1.00  0.00    -0.263 A  
HETATM   34  C   UNL     1     -10.671  19.095  66.158  1.00  0.00    -0.354 C  
HETATM   35  N   UNL     1     -10.896  20.222  66.318  1.00  0.00    -0.005 NA 
ENDBRANCH  25  28
ENDBRANCH  14  22
ENDBRANCH   1  12
BRANCH   1  36
HETATM   36  C   UNL     1      -9.686  10.265  65.774  1.00  0.00    -0.297 A  
HETATM   37  C   UNL     1      -8.510   8.648  64.306  1.00  0.00    -0.101 A  
HETATM   38  C   UNL     1      -8.889   9.347  63.178  1.00  0.00    -0.207 A  
HETATM   39 CL   UNL     1     -11.547  11.916  64.633  1.00  0.00    -0.349 Cl 
HETATM   40  C   UNL     1      -9.750  10.433  63.328  1.00  0.00    -0.308 A  
HETATM   41  C   UNL     1      -8.874   9.108  65.571  1.00  0.00    -0.229 A  
HETATM   42  C   UNL     1     -10.207  10.836  64.608  1.00  0.00    -0.350 A  
ENDBRANCH   1  36
TORSDOF 7
ENDMDL
MODEL      170
REMARK 921   NORMALIZED FREE ENERGY PREDICTED BY IDOCK:    0.69 KCAL/MOL
REMARK 922        TOTAL FREE ENERGY PREDICTED BY IDOCK:   -0.48 KCAL/MOL
REMARK 923 INTER-LIGAND FREE ENERGY PREDICTED BY IDOCK:   -8.68 KCAL/MOL
REMARK 924 INTRA-LIGAND FREE ENERGY PREDICTED BY IDOCK:    8.20 KCAL/MOL
REMARK 927      BINDING AFFINITY PREDICTED BY RF-SCORE:    0.00 PKD
ROOT
HETATM    1  C   UNL     1      -9.372  10.934  68.583  1.00  0.00    -0.187 C  
ENDROOT
BRANCH   1   2
HETATM    2  C   UNL     1     -10.383  11.436  67.437  1.00  0.00    -0.202 C  
HETATM    3  H   UNL     1      -8.935  12.071  66.120  1.00  0.00     0.000 HD 
HETATM    4  N   UNL     1      -9.944  11.973  66.235  1.00  0.00    -0.221 N  
HETATM    5  O   UNL     1     -11.593  11.438  67.661  1.00  0.00    -0.474 OA 
BRANCH   4   6
HETATM    6  C   UNL     1     -10.811  12.430  65.072  1.00  0.00    -0.295 C  
HETATM    7  C   UNL     1     -12.100  13.823  64.085  1.00  0.00    -0.433 C  
HETATM    8  F   UNL     1     -12.751  15.004  64.153  1.00  0.00    -0.471 F  
HETATM    9  C   UNL     1     -12.291  12.853  65.288  1.00  0.00    -0.544 C  
HETATM   10  F   UNL     1     -12.377  13.298  62.869  1.00  0.00    -0.577 F  
HETATM   11  C   UNL     1     -10.594  13.842  64.471  1.00  0.00    -0.375 C  
ENDBRANCH   4   6
ENDBRANCH   1   2
BRANCH   1  12
HETATM   12  N   UNL     1      -9.373   9.425  68.727  1.00  0.00    -0.145 N  
HETATM   13  O   UNL     1      -8.334   9.058  66.700  1.00  0.00    -0.116 OA 
HETATM   14  C   UNL     1      -8.808   8.591  67.739  1.00  0.00    -0.137 C  
BRANCH  12  15
HETATM   15  C   UNL     1      -9.940   8.905  69.915  1.00  0.00    -0.188 A  
HETATM   16  C   UNL     1      -9.194   8.766  71.086  1.00  0.00    -0.237 A  
HETATM   17  C   UNL     1     -11.861   8.206  71.162  1.00  0.00    -0.279 A  
HETATM   18  N   UNL     1      -9.728   8.385  72.270  1.00  0.00    -0.291 NA 
HETATM   19  F   UNL     1     -13.171   7.946  71.230  1.00  0.00    -0.329 F  
HETATM   20  C   UNL     1     -11.300   8.619  69.966  1.00  0.00    -0.022 A  
HETATM   21  C   UNL     1     -11.054   8.106  72.278  1.00  0.00    -0.344 A  
ENDBRANCH  12  15
BRANCH  14  22
HETATM   22  C   UNL     1      -8.724   7.047  68.025  1.00  0.00    -0.126 C  
HETATM   23  C   UNL     1     -10.980   6.234  68.006  1.00  0.00    -0.418 C  
HETATM   24  C   UNL     1      -9.737   6.324  67.139  1.00  0.00    -0.164 C  
HETATM   25  N   UNL     1      -9.096   6.584  69.362  1.00  0.00    -0.141 N  
HETATM   26  O   UNL     1     -11.077   5.669  70.326  1.00  0.00    -0.278 OA 
HETATM   27  C   UNL     1     -10.416   6.110  69.396  1.00  0.00    -0.256 C  
BRANCH  25  28
HETATM   28  C   UNL     1      -8.195   6.384  70.436  1.00  0.00    -0.121 A  
HETATM   29  N   UNL     1      -7.073   7.140  70.476  1.00  0.00    -0.062 NA 
HETATM   30  C   UNL     1      -6.210   7.036  71.506  1.00  0.00    -0.037 A  
HETATM   31  C   UNL     1      -6.402   6.176  72.561  1.00  0.00    -0.054 A  
HETATM   32  C   UNL     1      -7.547   5.388  72.532  1.00  0.00    -0.098 A  
HETATM   33  C   UNL     1      -8.455   5.491  71.466  1.00  0.00    -0.127 A  
HETATM   34  C   UNL     1      -7.801   4.470  73.601  1.00  0.00    -0.090 C  
HETATM   35  N   UNL     1      -8.017   3.721  74.460  1.00  0.00    -0.080 NA 
ENDBRANCH  25  28
ENDBRANCH  14  22
ENDBRANCH   1  12
BRANCH   1  36
HETATM   36  C   UNL     1      -7.965  11.508  68.894  1.00  0.00    -0.057 A  
HETATM   37  C   UNL     1      -5.780  11.013  69.959  1.00  0.00    -0.089 A  
HETATM   38  C   UNL     1      -5.365  12.318  69.789  1.00  0.00    -0.084 A  
HETATM   39 CL   UNL     1      -8.174  13.791  67.398  1.00  0.00    -0.188 Cl 
HETATM   40  C   UNL     1      -6.189  13.189  69.079  1.00  0.00    -0.094 A  
HETATM   41  C   UNL     1      -7.055  10.624  69.549  1.00  0.00    -0.127 A  
HETATM   42  C   UNL     1      -7.441  12.764  68.568  1.00  0.00    -0.120 A  
ENDBRANCH   1  36
TORSDOF 7
ENDMDL
MODEL      171
REMARK 921   NORMALIZED FREE ENERGY PREDICTED BY IDOCK:    0.80 KCAL/MOL
REMARK 922        TOTAL FREE ENERGY PREDICTED BY IDOCK:   -0.34 KCAL/MOL
REMARK 923 INTER-LIGAND FREE ENERGY PREDICTED BY IDOCK:   -6.53 KCAL/MOL
REMARK 924 INTRA-LIGAND FREE ENERGY PREDICTED BY IDOCK:    6.19 KCAL/MOL
REMARK 927      BINDING AFFINITY PREDICTED BY RF-SCORE:    0.00 PKD
ROOT
HETATM    1  C   UNL     1      -6.866   7.940  69.653  1.00  0.00    -0.042 C  
ENDROOT
BRANCH   1   2
HETATM    2  C   UNL     1      -7.169   9.177  68.669  1.00  0.00    -0.075 C  
HETATM    3  H   UNL     1      -7.375  10.596  70.145  1.00  0.00     0.000 HD 
HETATM    4  N   UNL     1      -7.382  10.467  69.134  1.00  0.00    -0.097 N  
HETATM    5  O   UNL     1      -7.313   8.966  67.466  1.00  0.00    -0.080 OA 
BRANCH   4   6
HETATM    6  C   UNL     1      -7.626  11.709  68.290  1.00  0.00    -0.120 C  
HETATM    7  C   UNL     1      -8.429  13.664  67.960  1.00  0.00    -0.174 C  
HETATM    8  F   UNL     1      -9.164  14.683  68.456  1.00  0.00    -0.170 F  
HETATM    9  C   UNL     1      -9.064  12.245  68.042  1.00  0.00    -0.191 C  
HETATM   10  F   UNL     1      -8.022  14.045  66.727  1.00  0.00    -0.120 F  
HETATM   11  C   UNL     1      -7.310  13.106  68.884  1.00  0.00    -0.019 C  
ENDBRANCH   4   6
ENDBRANCH   1   2
BRANCH   1  12
HETATM   12  N   UNL     1      -7.906   7.809  70.746  1.00  0.00    -0.097 N  
HETATM   13  O   UNL     1      -6.760   9.144  72.237  1.00  0.00    -0.305 OA 
HETATM   14  C   UNL     1      -7.762   8.470  71.984  1.00  0.00    -0.096 C  
BRANCH  12  15
HETATM   15  C   UNL     1      -9.039   7.015  70.446  1.00  0.00    -0.156 A  
HETATM   16  C   UNL     1     -10.137   7.531  69.758  1.00  0.00    -0.194 A  
HETATM   17  C   UNL     1     -10.104   4.872  70.356  1.00  0.00    -0.245 A  
HETATM   18  N   UNL     1     -11.185   6.777  69.350  1.00  0.00    -0.257 NA 
HETATM   19  F   UNL     1     -10.101   3.561  70.619  1.00  0.00    -0.224 F  
HETATM   20  C   UNL     1      -9.032   5.656  70.745  1.00  0.00    -0.154 A  
HETATM   21  C   UNL     1     -11.146   5.460  69.666  1.00  0.00     0.350 A  
ENDBRANCH  12  15
BRANCH  14  22
HETATM   22  C   UNL     1      -8.949   8.396  73.013  1.00  0.00    -0.172 C  
HETATM   23  C   UNL     1      -9.038   6.123  73.774  1.00  0.00    -0.131 C  
HETATM   24  C   UNL     1      -8.536   7.498  74.179  1.00  0.00    -0.276 C  
HETATM   25  N   UNL     1     -10.194   7.771  72.567  1.00  0.00    -0.237 N  
HETATM   26  O   UNL     1     -11.149   5.596  72.786  1.00  0.00    -0.254 OA 
HETATM   27  C   UNL     1     -10.280   6.434  72.984  1.00  0.00    -0.199 C  
BRANCH  25  28
HETATM   28  C   UNL     1     -11.300   8.462  72.014  1.00  0.00    -0.342 A  
HETATM   29  N   UNL     1     -12.509   7.857  72.043  1.00  0.00    -0.311 NA 
HETATM   30  C   UNL     1     -13.607   8.493  71.586  1.00  0.00    -0.361 A  
HETATM   31  C   UNL     1     -13.576   9.766  71.070  1.00  0.00    -0.170 A  
HETATM   32  C   UNL     1     -12.340  10.399  71.028  1.00  0.00    -0.490 A  
HETATM   33  C   UNL     1     -11.190   9.749  71.505  1.00  0.00    -0.291 A  
HETATM   34  C   UNL     1     -12.242  11.727  70.499  1.00  0.00    -0.347 C  
HETATM   35  N   UNL     1     -12.150  12.801  70.071  1.00  0.00    -0.318 NA 
ENDBRANCH  25  28
ENDBRANCH  14  22
ENDBRANCH   1  12
BRANCH   1  36
HETATM   36  C   UNL     1      -6.327   6.543  69.245  1.00  0.00    -0.035 A  
HETATM   37  C   UNL     1      -5.989   4.995  67.336  1.00  0.00    -0.026 A  
HETATM   38  C   UNL     1      -5.602   3.980  68.186  1.00  0.00    -0.020 A  
HETATM   39 CL   UNL     1      -5.181   5.890  71.644  1.00  0.00    -0.019 Cl 
HETATM   40  C   UNL     1      -5.467   4.266  69.544  1.00  0.00    -0.012 A  
HETATM   41  C   UNL     1      -6.369   6.235  67.852  1.00  0.00    -0.033 A  
HETATM   42  C   UNL     1      -5.750   5.558  70.054  1.00  0.00    -0.016 A  
ENDBRANCH   1  36
TORSDOF 7
ENDMDL
MODEL      172
REMARK 921   NORMALIZED FREE ENERGY PREDICTED BY IDOCK:    0.82 KCAL/MOL
REMARK 922        TOTAL FREE ENERGY PREDICTED BY IDOCK:   -0.30 KCAL/MOL
REMARK 923 INTER-LIGAND FREE ENERGY PREDICTED BY IDOCK:   -3.30 KCAL/MOL
REMARK 924 INTRA-LIGAND FREE ENERGY PREDICTED BY IDOCK:    3.00 KCAL/MOL
REMARK 927      BINDING AFFINITY PREDICTED BY RF-SCORE:    0.00 PKD
ROOT
HETATM    1  C   UNL     1     -10.208  12.809  68.284  1.00  0.00    -0.244 C  
ENDROOT
BRANCH   1   2
HETATM    2  C   UNL     1     -11.094  12.433  66.995  1.00  0.00    -0.278 C  
HETATM    3  H   UNL     1     -10.957  14.271  66.081  1.00  0.00     0.000 HD 
HETATM    4  N   UNL     1     -11.339  13.332  65.967  1.00  0.00    -0.299 N  
HETATM    5  O   UNL     1     -11.660  11.341  66.952  1.00  0.00    -0.464 OA 
BRANCH   4   6
HETATM    6  C   UNL     1     -12.117  13.063  64.688  1.00  0.00    -0.409 C  
HETATM    7  C   UNL     1     -12.694  11.844  63.027  1.00  0.00     0.088 C  
HETATM    8  F   UNL     1     -12.533  10.673  62.375  1.00  0.00     1.142 F  
HETATM    9  C   UNL     1     -11.395  12.626  63.383  1.00  0.00    -0.456 C  
HETATM   10  F   UNL     1     -13.620  12.548  62.337  1.00  0.00     0.998 F  
HETATM   11  C   UNL     1     -12.937  11.754  64.560  1.00  0.00     0.609 C  
ENDBRANCH   4   6
ENDBRANCH   1   2
BRANCH   1  12
HETATM   12  N   UNL     1      -9.217  11.718  68.637  1.00  0.00    -0.134 N  
HETATM   13  O   UNL     1     -10.761  10.447  69.786  1.00  0.00    -0.251 OA 
HETATM   14  C   UNL     1      -9.608  10.577  69.368  1.00  0.00    -0.148 C  
BRANCH  12  15
HETATM   15  C   UNL     1      -7.893  11.894  68.169  1.00  0.00    -0.134 A  
HETATM   16  C   UNL     1      -6.885  12.403  68.988  1.00  0.00    -0.093 A  
HETATM   17  C   UNL     1      -6.225  11.543  66.487  1.00  0.00    -0.072 A  
HETATM   18  N   UNL     1      -5.586  12.476  68.616  1.00  0.00    -0.054 NA 
HETATM   19  F   UNL     1      -5.873  11.107  65.273  1.00  0.00    -0.101 F  
HETATM   20  C   UNL     1      -7.545  11.456  66.896  1.00  0.00    -0.151 A  
HETATM   21  C   UNL     1      -5.286  12.047  67.365  1.00  0.00    -0.112 A  
ENDBRANCH  12  15
BRANCH  14  22
HETATM   22  C   UNL     1      -8.556   9.427  69.575  1.00  0.00    -0.158 C  
HETATM   23  C   UNL     1      -8.424   8.250  67.490  1.00  0.00    -0.130 C  
HETATM   24  C   UNL     1      -7.703   9.303  68.313  1.00  0.00    -0.087 C  
HETATM   25  N   UNL     1      -9.063   8.064  69.741  1.00  0.00    -0.149 N  
HETATM   26  O   UNL     1      -9.367   6.202  68.282  1.00  0.00    -0.118 OA 
HETATM   27  C   UNL     1      -9.014   7.344  68.537  1.00  0.00    -0.128 C  
BRANCH  25  28
HETATM   28  C   UNL     1      -9.333   7.441  70.983  1.00  0.00    -0.157 A  
HETATM   29  N   UNL     1      -9.624   8.229  72.043  1.00  0.00    -0.221 NA 
HETATM   30  C   UNL     1      -9.948   7.688  73.234  1.00  0.00    -0.320 A  
HETATM   31  C   UNL     1     -10.004   6.332  73.451  1.00  0.00    -0.194 A  
HETATM   32  C   UNL     1      -9.703   5.508  72.373  1.00  0.00    -0.177 A  
HETATM   33  C   UNL     1      -9.368   6.060  71.127  1.00  0.00    -0.174 A  
HETATM   34  C   UNL     1      -9.742   4.086  72.538  1.00  0.00    -0.150 C  
HETATM   35  N   UNL     1      -9.767   2.932  72.659  1.00  0.00    -0.119 NA 
ENDBRANCH  25  28
ENDBRANCH  14  22
ENDBRANCH   1  12
BRANCH   1  36
HETATM   36  C   UNL     1      -9.626  14.204  68.633  1.00  0.00    -0.179 A  
HETATM   37  C   UNL     1      -7.964  15.918  67.957  1.00  0.00    -0.141 A  
HETATM   38  C   UNL     1      -8.208  16.652  69.100  1.00  0.00    -0.126 A  
HETATM   39 CL   UNL     1     -11.442  14.873  70.569  1.00  0.00    -0.307 Cl 
HETATM   40  C   UNL     1      -9.229  16.234  69.952  1.00  0.00     0.571 A  
HETATM   41  C   UNL     1      -8.634  14.712  67.742  1.00  0.00    -0.175 A  
HETATM   42  C   UNL     1      -9.983  15.066  69.677  1.00  0.00    -0.103 A  
ENDBRANCH   1  36
TORSDOF 7
ENDMDL
MODEL      173
REMARK 921   NORMALIZED FREE ENERGY PREDICTED BY IDOCK:    0.86 KCAL/MOL
REMARK 922        TOTAL FREE ENERGY PREDICTED BY IDOCK:   -0.25 KCAL/MOL
REMARK 923 INTER-LIGAND FREE ENERGY PREDICTED BY IDOCK:   -6.81 KCAL/MOL
REMARK 924 INTRA-LIGAND FREE ENERGY PREDICTED BY IDOCK:    6.56 KCAL/MOL
REMARK 927      BINDING AFFINITY PREDICTED BY RF-SCORE:    0.00 PKD
ROOT
HETATM    1  C   UNL     1      -6.937   7.367  69.712  1.00  0.00    -0.056 C  
ENDROOT
BRANCH   1   2
HETATM    2  C   UNL     1      -7.113   8.520  68.603  1.00  0.00    -0.072 C  
HETATM    3  H   UNL     1      -9.073   8.096  68.144  1.00  0.00     0.000 HD 
HETATM    4  N   UNL     1      -8.307   8.734  67.929  1.00  0.00    -0.118 N  
HETATM    5  O   UNL     1      -6.132   9.180  68.262  1.00  0.00    -0.051 OA 
BRANCH   4   6
HETATM    6  C   UNL     1      -8.591   9.821  66.905  1.00  0.00    -0.124 C  
HETATM    7  C   UNL     1      -9.461  10.555  65.093  1.00  0.00    -0.233 C  
HETATM    8  F   UNL     1     -10.182  10.269  63.989  1.00  0.00    -0.383 F  
HETATM    9  C   UNL     1      -8.257   9.617  65.400  1.00  0.00    -0.129 C  
HETATM   10  F   UNL     1      -9.164  11.874  65.030  1.00  0.00    -0.138 F  
HETATM   11  C   UNL     1     -10.051  10.073  66.448  1.00  0.00    -0.307 C  
ENDBRANCH   4   6
ENDBRANCH   1   2
BRANCH   1  12
HETATM   12  N   UNL     1      -7.922   7.516  70.854  1.00  0.00    -0.095 N  
HETATM   13  O   UNL     1      -6.749   9.220  71.874  1.00  0.00    -0.293 OA 
HETATM   14  C   UNL     1      -7.741   8.487  71.861  1.00  0.00    -0.104 C  
BRANCH  12  15
HETATM   15  C   UNL     1      -9.043   6.652  70.836  1.00  0.00    -0.154 A  
HETATM   16  C   UNL     1     -10.205   6.970  70.132  1.00  0.00    -0.193 A  
HETATM   17  C   UNL     1     -10.032   4.529  71.332  1.00  0.00    -0.189 A  
HETATM   18  N   UNL     1     -11.250   6.122  69.994  1.00  0.00    -0.395 NA 
HETATM   19  F   UNL     1      -9.962   3.317  71.893  1.00  0.00    -0.220 F  
HETATM   20  C   UNL     1      -8.965   5.403  71.442  1.00  0.00    -0.151 A  
HETATM   21  C   UNL     1     -11.141   4.917  70.606  1.00  0.00     0.915 A  
ENDBRANCH  12  15
BRANCH  14  22
HETATM   22  C   UNL     1      -8.876   8.671  72.934  1.00  0.00     0.065 C  
HETATM   23  C   UNL     1      -9.042   6.584  74.104  1.00  0.00    -0.185 C  
HETATM   24  C   UNL     1      -8.451   7.977  74.227  1.00  0.00    -0.251 C  
HETATM   25  N   UNL     1     -10.173   8.050  72.662  1.00  0.00    -0.291 N  
HETATM   26  O   UNL     1     -11.224   6.011  73.316  1.00  0.00    -0.209 OA 
HETATM   27  C   UNL     1     -10.305   6.818  73.321  1.00  0.00    -0.269 C  
BRANCH  25  28
HETATM   28  C   UNL     1     -11.268   8.693  72.036  1.00  0.00    -0.364 A  
HETATM   29  N   UNL     1     -12.513   8.422  72.492  1.00  0.00    -0.338 NA 
HETATM   30  C   UNL     1     -13.587   9.050  71.975  1.00  0.00    -0.445 A  
HETATM   31  C   UNL     1     -13.497   9.986  70.972  1.00  0.00    -0.253 A  
HETATM   32  C   UNL     1     -12.227  10.272  70.488  1.00  0.00    -0.390 A  
HETATM   33  C   UNL     1     -11.100   9.626  71.022  1.00  0.00    -0.438 A  
HETATM   34  C   UNL     1     -12.068  11.236  69.441  1.00  0.00    -0.315 C  
HETATM   35  N   UNL     1     -11.928  12.014  68.592  1.00  0.00    -0.336 NA 
ENDBRANCH  25  28
ENDBRANCH  14  22
ENDBRANCH   1  12
BRANCH   1  36
HETATM   36  C   UNL     1      -6.631   5.869  69.451  1.00  0.00    -0.047 A  
HETATM   37  C   UNL     1      -5.290   3.926  70.213  1.00  0.00    -0.008 A  
HETATM   38  C   UNL     1      -5.700   3.177  69.129  1.00  0.00    -0.022 A  
HETATM   39 CL   UNL     1      -8.599   5.422  67.601  1.00  0.00    -0.105 Cl 
HETATM   40  C   UNL     1      -6.654   3.720  68.270  1.00  0.00    -0.045 A  
HETATM   41  C   UNL     1      -5.720   5.246  70.356  1.00  0.00    -0.016 A  
HETATM   42  C   UNL     1      -7.173   5.022  68.477  1.00  0.00    -0.062 A  
ENDBRANCH   1  36
TORSDOF 7
ENDMDL
MODEL      174
REMARK 921   NORMALIZED FREE ENERGY PREDICTED BY IDOCK:    0.88 KCAL/MOL
REMARK 922        TOTAL FREE ENERGY PREDICTED BY IDOCK:   -0.22 KCAL/MOL
REMARK 923 INTER-LIGAND FREE ENERGY PREDICTED BY IDOCK:   -6.90 KCAL/MOL
REMARK 924 INTRA-LIGAND FREE ENERGY PREDICTED BY IDOCK:    6.68 KCAL/MOL
REMARK 927      BINDING AFFINITY PREDICTED BY RF-SCORE:    0.00 PKD
ROOT
HETATM    1  C   UNL     1     -10.774   9.323  68.922  1.00  0.00    -0.156 C  
ENDROOT
BRANCH   1   2
HETATM    2  C   UNL     1     -10.522  10.624  68.008  1.00  0.00    -0.196 C  
HETATM    3  H   UNL     1      -9.099  11.482  69.222  1.00  0.00     0.000 HD 
HETATM    4  N   UNL     1      -9.597  11.603  68.340  1.00  0.00    -0.194 N  
HETATM    5  O   UNL     1     -11.238  10.815  67.026  1.00  0.00    -0.288 OA 
BRANCH   4   6
HETATM    6  C   UNL     1      -9.249  12.839  67.524  1.00  0.00    -0.191 C  
HETATM    7  C   UNL     1      -8.408  14.791  67.283  1.00  0.00    -0.212 C  
HETATM    8  F   UNL     1      -7.791  15.837  67.874  1.00  0.00    -0.128 F  
HETATM    9  C   UNL     1      -9.693  14.257  67.981  1.00  0.00    -0.223 C  
HETATM   10  F   UNL     1      -8.551  15.114  65.977  1.00  0.00    -0.246 F  
HETATM   11  C   UNL     1      -7.799  13.387  67.556  1.00  0.00    -0.181 C  
ENDBRANCH   4   6
ENDBRANCH   1   2
BRANCH   1  12
HETATM   12  N   UNL     1      -9.523   8.484  69.083  1.00  0.00    -0.154 N  
HETATM   13  O   UNL     1      -8.808   9.598  70.972  1.00  0.00    -0.195 OA 
HETATM   14  C   UNL     1      -8.628   8.693  70.153  1.00  0.00    -0.138 C  
BRANCH  12  15
HETATM   15  C   UNL     1      -9.320   7.465  68.122  1.00  0.00    -0.135 A  
HETATM   16  C   UNL     1      -9.885   6.197  68.265  1.00  0.00    -0.125 A  
HETATM   17  C   UNL     1      -8.526   6.770  65.972  1.00  0.00    -0.142 A  
HETATM   18  N   UNL     1      -9.813   5.235  67.314  1.00  0.00    -0.149 NA 
HETATM   19  F   UNL     1      -7.883   7.034  64.830  1.00  0.00    -0.098 F  
HETATM   20  C   UNL     1      -8.631   7.747  66.947  1.00  0.00    -0.130 A  
HETATM   21  C   UNL     1      -9.126   5.544  66.187  1.00  0.00    -0.150 A  
ENDBRANCH  12  15
BRANCH  14  22
HETATM   22  C   UNL     1      -7.427   7.693  70.328  1.00  0.00    -0.083 C  
HETATM   23  C   UNL     1      -5.981   8.039  68.446  1.00  0.00    -0.040 C  
HETATM   24  C   UNL     1      -6.135   8.395  69.915  1.00  0.00    -0.031 C  
HETATM   25  N   UNL     1      -7.413   6.496  69.485  1.00  0.00    -0.091 N  
HETATM   26  O   UNL     1      -6.342   5.903  67.438  1.00  0.00    -0.038 OA 
HETATM   27  C   UNL     1      -6.585   6.663  68.364  1.00  0.00    -0.059 C  
BRANCH  25  28
HETATM   28  C   UNL     1      -7.942   5.235  69.852  1.00  0.00    -0.083 A  
HETATM   29  N   UNL     1      -7.552   4.150  69.144  1.00  0.00    -0.054 NA 
HETATM   30  C   UNL     1      -7.976   2.917  69.487  1.00  0.00    -0.044 A  
HETATM   31  C   UNL     1      -8.814   2.681  70.551  1.00  0.00    -0.144 A  
HETATM   32  C   UNL     1      -9.228   3.786  71.285  1.00  0.00    -0.197 A  
HETATM   33  C   UNL     1      -8.789   5.074  70.940  1.00  0.00    -0.156 A  
HETATM   34  C   UNL     1     -10.103   3.605  72.404  1.00  0.00    -0.163 C  
HETATM   35  N   UNL     1     -10.814   3.471  73.311  1.00  0.00    -0.194 NA 
ENDBRANCH  25  28
ENDBRANCH  14  22
ENDBRANCH   1  12
BRANCH   1  36
HETATM   36  C   UNL     1     -11.647   9.246  70.203  1.00  0.00    -0.078 A  
HETATM   37  C   UNL     1     -12.902  10.592  71.866  1.00  0.00    -0.487 A  
HETATM   38  C   UNL     1     -13.120   9.479  72.652  1.00  0.00    -0.178 A  
HETATM   39 CL   UNL     1     -11.942   6.526  70.270  1.00  0.00    -0.388 Cl 
HETATM   40  C   UNL     1     -12.706   8.237  72.171  1.00  0.00    -0.366 A  
HETATM   41  C   UNL     1     -12.162  10.486  70.689  1.00  0.00    -0.446 A  
HETATM   42  C   UNL     1     -12.049   8.115  70.922  1.00  0.00    -0.148 A  
ENDBRANCH   1  36
TORSDOF 7
ENDMDL
MODEL      175
REMARK 921   NORMALIZED FREE ENERGY PREDICTED BY IDOCK:    0.88 KCAL/MOL
REMARK 922        TOTAL FREE ENERGY PREDICTED BY IDOCK:   -0.21 KCAL/MOL
REMARK 923 INTER-LIGAND FREE ENERGY PREDICTED BY IDOCK:   -4.02 KCAL/MOL
REMARK 924 INTRA-LIGAND FREE ENERGY PREDICTED BY IDOCK:    3.81 KCAL/MOL
REMARK 927      BINDING AFFINITY PREDICTED BY RF-SCORE:    0.00 PKD
ROOT
HETATM    1  C   UNL     1      -9.914   7.844  68.150  1.00  0.00    -0.180 C  
ENDROOT
BRANCH   1   2
HETATM    2  C   UNL     1     -10.226   7.531  69.697  1.00  0.00    -0.205 C  
HETATM    3  H   UNL     1      -9.691   5.545  69.640  1.00  0.00     0.000 HD 
HETATM    4  N   UNL     1     -10.020   6.281  70.264  1.00  0.00    -0.171 N  
HETATM    5  O   UNL     1     -10.756   8.399  70.390  1.00  0.00    -0.223 OA 
BRANCH   4   6
HETATM    6  C   UNL     1     -10.235   5.896  71.719  1.00  0.00    -0.203 C  
HETATM    7  C   UNL     1     -10.026   4.584  73.397  1.00  0.00    -0.150 C  
HETATM    8  F   UNL     1      -9.570   3.399  73.854  1.00  0.00    -0.099 F  
HETATM    9  C   UNL     1     -10.896   4.543  72.106  1.00  0.00     0.020 C  
HETATM   10  F   UNL     1     -10.589   5.217  74.452  1.00  0.00    -0.275 F  
HETATM   11  C   UNL     1      -9.023   5.438  72.571  1.00  0.00    -0.136 C  
ENDBRANCH   4   6
ENDBRANCH   1   2
BRANCH   1  12
HETATM   12  N   UNL     1      -9.831   9.331  67.870  1.00  0.00    -0.160 N  
HETATM   13  O   UNL     1     -11.145   9.919  69.673  1.00  0.00    -0.240 OA 
HETATM   14  C   UNL     1     -10.463  10.274  68.708  1.00  0.00    -0.203 C  
BRANCH  12  15
HETATM   15  C   UNL     1      -9.064   9.720  66.747  1.00  0.00    -0.146 A  
HETATM   16  C   UNL     1      -7.798  10.291  66.883  1.00  0.00    -0.112 A  
HETATM   17  C   UNL     1      -8.716   9.733  64.378  1.00  0.00    -0.206 A  
HETATM   18  N   UNL     1      -6.986  10.567  65.836  1.00  0.00    -0.131 NA 
HETATM   19  F   UNL     1      -9.134   9.448  63.140  1.00  0.00    -0.250 F  
HETATM   20  C   UNL     1      -9.521   9.437  65.464  1.00  0.00    -0.328 A  
HETATM   21  C   UNL     1      -7.470  10.285  64.601  1.00  0.00    -0.093 A  
ENDBRANCH  12  15
BRANCH  14  22
HETATM   22  C   UNL     1     -10.216  11.802  68.431  1.00  0.00    -0.206 C  
HETATM   23  C   UNL     1     -11.226  12.989  70.254  1.00  0.00     0.522 C  
HETATM   24  C   UNL     1      -9.881  12.496  69.750  1.00  0.00     1.872 C  
HETATM   25  N   UNL     1     -11.346  12.594  67.943  1.00  0.00    -0.268 N  
HETATM   26  O   UNL     1     -12.948  14.034  68.968  1.00  0.00     0.664 OA 
HETATM   27  C   UNL     1     -11.973  13.297  68.984  1.00  0.00    -0.293 C  
BRANCH  25  28
HETATM   28  C   UNL     1     -11.637  12.845  66.581  1.00  0.00    -0.372 A  
HETATM   29  N   UNL     1     -12.086  11.818  65.824  1.00  0.00    -0.250 NA 
HETATM   30  C   UNL     1     -12.436  12.013  64.537  1.00  0.00    -0.172 A  
HETATM   31  C   UNL     1     -12.362  13.238  63.918  1.00  0.00    -0.422 A  
HETATM   32  C   UNL     1     -11.897  14.303  64.680  1.00  0.00    -0.459 A  
HETATM   33  C   UNL     1     -11.534  14.112  66.022  1.00  0.00    -0.343 A  
HETATM   34  C   UNL     1     -11.795  15.604  64.090  1.00  0.00    -0.068 C  
HETATM   35  N   UNL     1     -11.705  16.662  63.622  1.00  0.00    -0.248 NA 
ENDBRANCH  25  28
ENDBRANCH  14  22
ENDBRANCH   1  12
BRANCH   1  36
HETATM   36  C   UNL     1      -8.944   7.063  67.225  1.00  0.00    -0.119 A  
HETATM   37  C   UNL     1      -8.785   5.742  65.131  1.00  0.00    -0.070 A  
HETATM   38  C   UNL     1      -7.477   5.402  65.406  1.00  0.00    -0.077 A  
HETATM   39 CL   UNL     1      -6.612   7.786  68.463  1.00  0.00    -0.055 Cl 
HETATM   40  C   UNL     1      -6.863   5.973  66.520  1.00  0.00    -0.062 A  
HETATM   41  C   UNL     1      -9.509   6.527  66.029  1.00  0.00     0.008 A  
HETATM   42  C   UNL     1      -7.567   6.859  67.373  1.00  0.00    -0.109 A  
ENDBRANCH   1  36
TORSDOF 7
ENDMDL
MODEL      176
REMARK 921   NORMALIZED FREE ENERGY PREDICTED BY IDOCK:    0.91 KCAL/MOL
REMARK 922        TOTAL FREE ENERGY PREDICTED BY IDOCK:   -0.18 KCAL/MOL
REMARK 923 INTER-LIGAND FREE ENERGY PREDICTED BY IDOCK:   -6.97 KCAL/MOL
REMARK 924 INTRA-LIGAND FREE ENERGY PREDICTED BY IDOCK:    6.79 KCAL/MOL
REMARK 927      BINDING AFFINITY PREDICTED BY RF-SCORE:    0.00 PKD
ROOT
HETATM    1  C   UNL     1      -9.826  10.548  67.103  1.00  0.00    -0.176 C  
ENDROOT
BRANCH   1   2
HETATM    2  C   UNL     1      -9.330   9.568  68.279  1.00  0.00    -0.133 C  
HETATM    3  H   UNL     1     -10.914   8.259  68.167  1.00  0.00     0.000 HD 
HETATM    4  N   UNL     1     -10.034   8.432  68.652  1.00  0.00    -0.179 N  
HETATM    5  O   UNL     1      -8.342   9.878  68.943  1.00  0.00    -0.112 OA 
BRANCH   4   6
HETATM    6  C   UNL     1      -9.629   7.418  69.711  1.00  0.00    -0.163 C  
HETATM    7  C   UNL     1      -9.237   6.818  71.727  1.00  0.00    -0.147 C  
HETATM    8  F   UNL     1      -9.168   7.188  73.023  1.00  0.00    -0.145 F  
HETATM    9  C   UNL     1      -8.472   7.712  70.707  1.00  0.00    -0.125 C  
HETATM   10  F   UNL     1      -8.930   5.500  71.683  1.00  0.00    -0.132 F  
HETATM   11  C   UNL     1     -10.527   7.223  70.960  1.00  0.00    -0.226 C  
ENDBRANCH   4   6
ENDBRANCH   1   2
BRANCH   1  12
HETATM   12  N   UNL     1     -10.301  11.885  67.633  1.00  0.00    -0.198 N  
HETATM   13  O   UNL     1      -9.041  13.119  66.145  1.00  0.00    -0.067 OA 
HETATM   14  C   UNL     1      -9.863  13.100  67.065  1.00  0.00    -0.244 C  
BRANCH  12  15
HETATM   15  C   UNL     1     -11.227  11.846  68.703  1.00  0.00    -0.257 A  
HETATM   16  C   UNL     1     -11.369  10.718  69.511  1.00  0.00    -0.289 A  
HETATM   17  C   UNL     1     -12.775  12.965  70.147  1.00  0.00     0.201 A  
HETATM   18  N   UNL     1     -12.155  10.683  70.612  1.00  0.00    -0.332 NA 
HETATM   19  F   UNL     1     -13.458  14.062  70.492  1.00  0.00    -0.237 F  
HETATM   20  C   UNL     1     -11.948  12.988  69.038  1.00  0.00    -0.312 A  
HETATM   21  C   UNL     1     -12.849  11.811  70.902  1.00  0.00    -0.152 A  
ENDBRANCH  12  15
BRANCH  14  22
HETATM   22  C   UNL     1     -10.507  14.440  67.580  1.00  0.00    -0.252 C  
HETATM   23  C   UNL     1     -12.033  15.154  65.873  1.00  0.00     0.181 C  
HETATM   24  C   UNL     1     -11.991  14.447  67.216  1.00  0.00    -0.409 C  
HETATM   25  N   UNL     1     -10.036  15.691  66.985  1.00  0.00    -0.248 N  
HETATM   26  O   UNL     1     -10.824  17.117  65.243  1.00  0.00    -0.562 OA 
HETATM   27  C   UNL     1     -10.898  16.138  65.971  1.00  0.00    -0.154 C  
BRANCH  25  28
HETATM   28  C   UNL     1      -9.001  16.503  67.508  1.00  0.00    -0.196 A  
HETATM   29  N   UNL     1      -7.954  15.893  68.109  1.00  0.00    -0.135 NA 
HETATM   30  C   UNL     1      -6.912  16.612  68.571  1.00  0.00    -0.161 A  
HETATM   31  C   UNL     1      -6.841  17.981  68.468  1.00  0.00    -0.237 A  
HETATM   32  C   UNL     1      -7.912  18.624  67.858  1.00  0.00    -0.278 A  
HETATM   33  C   UNL     1      -9.001  17.884  67.370  1.00  0.00    -0.245 A  
HETATM   34  C   UNL     1      -7.898  20.049  67.723  1.00  0.00    -0.295 C  
HETATM   35  N   UNL     1      -7.899  21.204  67.610  1.00  0.00    -0.154 NA 
ENDBRANCH  25  28
ENDBRANCH  14  22
ENDBRANCH   1  12
BRANCH   1  36
HETATM   36  C   UNL     1      -9.176  10.718  65.704  1.00  0.00    -0.226 A  
HETATM   37  C   UNL     1      -7.144  10.255  64.359  1.00  0.00    -0.064 A  
HETATM   38  C   UNL     1      -7.619  11.024  63.316  1.00  0.00     0.459 A  
HETATM   39 CL   UNL     1     -11.383  11.681  64.401  1.00  0.00    -0.364 Cl 
HETATM   40  C   UNL     1      -8.907  11.547  63.411  1.00  0.00     0.197 A  
HETATM   41  C   UNL     1      -7.888  10.128  65.532  1.00  0.00    -0.147 A  
HETATM   42  C   UNL     1      -9.707  11.327  64.561  1.00  0.00    -0.253 A  
ENDBRANCH   1  36
TORSDOF 7
ENDMDL
MODEL      177
REMARK 921   NORMALIZED FREE ENERGY PREDICTED BY IDOCK:    0.94 KCAL/MOL
REMARK 922        TOTAL FREE ENERGY PREDICTED BY IDOCK:   -0.14 KCAL/MOL
REMARK 923 INTER-LIGAND FREE ENERGY PREDICTED BY IDOCK:   -6.68 KCAL/MOL
REMARK 924 INTRA-LIGAND FREE ENERGY PREDICTED BY IDOCK:    6.55 KCAL/MOL
REMARK 927      BINDING AFFINITY PREDICTED BY RF-SCORE:    0.00 PKD
ROOT
HETATM    1  C   UNL     1      -8.424   8.669  68.039  1.00  0.00    -0.127 C  
ENDROOT
BRANCH   1   2
HETATM    2  C   UNL     1      -9.176  10.089  67.956  1.00  0.00    -0.134 C  
HETATM    3  H   UNL     1      -9.183  10.224  65.903  1.00  0.00     0.000 HD 
HETATM    4  N   UNL     1      -9.487  10.702  66.750  1.00  0.00    -0.160 N  
HETATM    5  O   UNL     1      -9.403  10.709  68.994  1.00  0.00    -0.184 OA 
BRANCH   4   6
HETATM    6  C   UNL     1     -10.236  12.012  66.563  1.00  0.00    -0.206 C  
HETATM    7  C   UNL     1     -11.554  13.322  65.502  1.00  0.00    -0.326 C  
HETATM    8  F   UNL     1     -12.320  13.510  64.407  1.00  0.00    -0.408 F  
HETATM    9  C   UNL     1     -10.093  12.841  65.256  1.00  0.00    -0.263 C  
HETATM   10  F   UNL     1     -11.675  14.439  66.256  1.00  0.00    -0.347 F  
HETATM   11  C   UNL     1     -11.757  11.983  66.266  1.00  0.00    -0.319 C  
ENDBRANCH   4   6
ENDBRANCH   1   2
BRANCH   1  12
HETATM   12  N   UNL     1      -9.169   7.675  68.907  1.00  0.00    -0.140 N  
HETATM   13  O   UNL     1     -11.177   7.955  67.806  1.00  0.00     0.180 OA 
HETATM   14  C   UNL     1     -10.531   7.380  68.686  1.00  0.00    -0.189 C  
BRANCH  12  15
HETATM   15  C   UNL     1      -8.419   7.041  69.925  1.00  0.00    -0.140 A  
HETATM   16  C   UNL     1      -7.681   5.882  69.682  1.00  0.00    -0.096 A  
HETATM   17  C   UNL     1      -7.500   7.053  72.137  1.00  0.00    -0.090 A  
HETATM   18  N   UNL     1      -6.859   5.314  70.595  1.00  0.00    -0.049 NA 
HETATM   19  F   UNL     1      -7.377   7.622  73.341  1.00  0.00    -0.091 F  
HETATM   20  C   UNL     1      -8.317   7.631  71.181  1.00  0.00    -0.111 A  
HETATM   21  C   UNL     1      -6.793   5.912  71.810  1.00  0.00    -0.068 A  
ENDBRANCH  12  15
BRANCH  14  22
HETATM   22  C   UNL     1     -11.195   6.238  69.539  1.00  0.00    -0.430 C  
HETATM   23  C   UNL     1     -11.210   7.015  71.808  1.00  0.00    -0.278 C  
HETATM   24  C   UNL     1     -12.105   6.872  70.590  1.00  0.00    -0.363 C  
HETATM   25  N   UNL     1     -10.315   5.403  70.356  1.00  0.00    -0.269 N  
HETATM   26  O   UNL     1      -9.659   5.403  72.649  1.00  0.00    -0.150 OA 
HETATM   27  C   UNL     1     -10.287   5.832  71.692  1.00  0.00    -0.214 C  
BRANCH  25  28
HETATM   28  C   UNL     1      -9.755   4.167  69.949  1.00  0.00    -0.210 A  
HETATM   29  N   UNL     1      -9.513   3.233  70.897  1.00  0.00    -0.155 NA 
HETATM   30  C   UNL     1      -9.038   2.018  70.559  1.00  0.00    -0.096 A  
HETATM   31  C   UNL     1      -8.771   1.651  69.261  1.00  0.00    -0.108 A  
HETATM   32  C   UNL     1      -9.009   2.601  68.276  1.00  0.00    -0.195 A  
HETATM   33  C   UNL     1      -9.508   3.869  68.616  1.00  0.00    -0.217 A  
HETATM   34  C   UNL     1      -8.748   2.280  66.905  1.00  0.00    -0.124 C  
HETATM   35  N   UNL     1      -8.539   2.032  65.791  1.00  0.00    -0.106 NA 
ENDBRANCH  25  28
ENDBRANCH  14  22
ENDBRANCH   1  12
BRANCH   1  36
HETATM   36  C   UNL     1      -7.696   7.938  66.880  1.00  0.00    -0.099 A  
HETATM   37  C   UNL     1      -7.808   5.996  65.339  1.00  0.00    -0.104 A  
HETATM   38  C   UNL     1      -6.534   6.249  64.875  1.00  0.00    -0.038 A  
HETATM   39 CL   UNL     1      -5.770   9.828  66.421  1.00  0.00    -0.052 Cl 
HETATM   40  C   UNL     1      -5.882   7.398  65.320  1.00  0.00    -0.037 A  
HETATM   41  C   UNL     1      -8.364   6.800  66.335  1.00  0.00    -0.121 A  
HETATM   42  C   UNL     1      -6.492   8.275  66.252  1.00  0.00    -0.047 A  
ENDBRANCH   1  36
TORSDOF 7
ENDMDL
MODEL      178
REMARK 921   NORMALIZED FREE ENERGY PREDICTED BY IDOCK:    1.15 KCAL/MOL
REMARK 922        TOTAL FREE ENERGY PREDICTED BY IDOCK:    0.16 KCAL/MOL
REMARK 923 INTER-LIGAND FREE ENERGY PREDICTED BY IDOCK:   -8.30 KCAL/MOL
REMARK 924 INTRA-LIGAND FREE ENERGY PREDICTED BY IDOCK:    8.46 KCAL/MOL
REMARK 927      BINDING AFFINITY PREDICTED BY RF-SCORE:    0.00 PKD
ROOT
HETATM    1  C   UNL     1     -10.888   7.595  70.253  1.00  0.00    -0.246 C  
ENDROOT
BRANCH   1   2
HETATM    2  C   UNL     1     -11.644   8.889  70.840  1.00  0.00    -0.283 C  
HETATM    3  H   UNL     1     -11.735   9.925  69.064  1.00  0.00     0.000 HD 
HETATM    4  N   UNL     1     -12.005   9.969  70.047  1.00  0.00    -0.136 N  
HETATM    5  O   UNL     1     -11.829   8.977  72.053  1.00  0.00    -0.358 OA 
BRANCH   4   6
HETATM    6  C   UNL     1     -12.761  11.211  70.491  1.00  0.00    -0.218 C  
HETATM    7  C   UNL     1     -13.072  12.901  71.766  1.00  0.00    -0.360 C  
HETATM    8  F   UNL     1     -12.654  13.594  72.846  1.00  0.00    -0.267 F  
HETATM    9  C   UNL     1     -13.264  11.368  71.954  1.00  0.00    -0.485 C  
HETATM   10  F   UNL     1     -14.146  13.561  71.274  1.00  0.00    -0.169 F  
HETATM   11  C   UNL     1     -11.984  12.534  70.717  1.00  0.00    -0.078 C  
ENDBRANCH   4   6
ENDBRANCH   1   2
BRANCH   1  12
HETATM   12  N   UNL     1     -10.052   7.924  69.033  1.00  0.00    -0.195 N  
HETATM   13  O   UNL     1     -11.321   6.635  67.601  1.00  0.00    -0.246 OA 
HETATM   14  C   UNL     1     -10.374   7.409  67.759  1.00  0.00    -0.213 C  
BRANCH  12  15
HETATM   15  C   UNL     1      -8.957   8.796  69.236  1.00  0.00    -0.144 A  
HETATM   16  C   UNL     1      -9.106  10.183  69.206  1.00  0.00    -0.198 A  
HETATM   17  C   UNL     1      -6.675   9.146  69.873  1.00  0.00    -0.048 A  
HETATM   18  N   UNL     1      -8.110  11.049  69.510  1.00  0.00     0.079 NA 
HETATM   19  F   UNL     1      -5.480   8.661  70.225  1.00  0.00    -0.022 F  
HETATM   20  C   UNL     1      -7.712   8.278  69.580  1.00  0.00    -0.100 A  
HETATM   21  C   UNL     1      -6.910  10.506  69.833  1.00  0.00    -0.149 A  
ENDBRANCH  12  15
BRANCH  14  22
HETATM   22  C   UNL     1      -9.541   7.906  66.521  1.00  0.00    -0.212 C  
HETATM   23  C   UNL     1      -7.247   7.399  67.005  1.00  0.00    -0.089 C  
HETATM   24  C   UNL     1      -8.443   6.886  66.222  1.00  0.00    -0.131 C  
HETATM   25  N   UNL     1      -8.779   9.146  66.671  1.00  0.00    -0.126 N  
HETATM   26  O   UNL     1      -6.507   9.665  67.179  1.00  0.00    -0.068 OA 
HETATM   27  C   UNL     1      -7.431   8.892  66.966  1.00  0.00    -0.087 C  
BRANCH  25  28
HETATM   28  C   UNL     1      -9.244  10.436  66.318  1.00  0.00    -0.166 A  
HETATM   29  N   UNL     1      -8.506  11.506  66.694  1.00  0.00    -0.171 NA 
HETATM   30  C   UNL     1      -8.869  12.753  66.333  1.00  0.00     0.046 A  
HETATM   31  C   UNL     1      -9.987  13.020  65.579  1.00  0.00    -0.226 A  
HETATM   32  C   UNL     1     -10.759  11.932  65.189  1.00  0.00    -0.339 A  
HETATM   33  C   UNL     1     -10.388  10.629  65.555  1.00  0.00    -0.297 A  
HETATM   34  C   UNL     1     -11.937  12.147  64.403  1.00  0.00    -0.361 C  
HETATM   35  N   UNL     1     -12.894  12.307  63.768  1.00  0.00    -0.777 NA 
ENDBRANCH  25  28
ENDBRANCH  14  22
ENDBRANCH   1  12
BRANCH   1  36
HETATM   36  C   UNL     1     -10.226   6.457  71.073  1.00  0.00    -0.227 A  
HETATM   37  C   UNL     1      -9.860   4.006  71.183  1.00  0.00    -0.236 A  
HETATM   38  C   UNL     1      -9.295   4.114  72.437  1.00  0.00    -0.164 A  
HETATM   39 CL   UNL     1      -8.834   8.041  72.819  1.00  0.00    -0.250 Cl 
HETATM   40  C   UNL     1      -9.091   5.387  72.966  1.00  0.00    -0.128 A  
HETATM   41  C   UNL     1     -10.338   5.142  70.530  1.00  0.00    -0.314 A  
HETATM   42  C   UNL     1      -9.480   6.549  72.254  1.00  0.00    -0.143 A  
ENDBRANCH   1  36
TORSDOF 7
ENDMDL
MODEL      179
REMARK 921   NORMALIZED FREE ENERGY PREDICTED BY IDOCK:    1.37 KCAL/MOL
REMARK 922        TOTAL FREE ENERGY PREDICTED BY IDOCK:    0.47 KCAL/MOL
REMARK 923 INTER-LIGAND FREE ENERGY PREDICTED BY IDOCK:   -6.28 KCAL/MOL
REMARK 924 INTRA-LIGAND FREE ENERGY PREDICTED BY IDOCK:    6.75 KCAL/MOL
REMARK 927      BINDING AFFINITY PREDICTED BY RF-SCORE:    0.00 PKD
ROOT
HETATM    1  C   UNL     1      -8.681   9.276  68.614  1.00  0.00    -0.132 C  
ENDROOT
BRANCH   1   2
HETATM    2  C   UNL     1      -9.496  10.663  68.589  1.00  0.00    -0.176 C  
HETATM    3  H   UNL     1      -8.261  11.629  67.257  1.00  0.00     0.000 HD 
HETATM    4  N   UNL     1      -9.115  11.741  67.802  1.00  0.00    -0.171 N  
HETATM    5  O   UNL     1     -10.439  10.820  69.364  1.00  0.00    -0.218 OA 
BRANCH   4   6
HETATM    6  C   UNL     1      -9.839  13.071  67.669  1.00  0.00    -0.212 C  
HETATM    7  C   UNL     1     -10.735  14.651  66.538  1.00  0.00    -0.312 C  
HETATM    8  F   UNL     1     -11.014  15.147  65.314  1.00  0.00    -0.312 F  
HETATM    9  C   UNL     1      -9.261  14.219  66.794  1.00  0.00    -0.282 C  
HETATM   10  F   UNL     1     -11.245  15.526  67.436  1.00  0.00    -0.315 F  
HETATM   11  C   UNL     1     -11.107  13.161  66.781  1.00  0.00    -0.314 C  
ENDBRANCH   4   6
ENDBRANCH   1   2
BRANCH   1  12
HETATM   12  N   UNL     1      -9.431   8.184  69.349  1.00  0.00    -0.162 N  
HETATM   13  O   UNL     1     -11.008   7.908  67.688  1.00  0.00    -0.104 OA 
HETATM   14  C   UNL     1     -10.561   7.557  68.783  1.00  0.00    -0.156 C  
BRANCH  12  15
HETATM   15  C   UNL     1      -8.918   7.809  70.614  1.00  0.00    -0.145 A  
HETATM   16  C   UNL     1      -7.911   6.852  70.745  1.00  0.00    -0.106 A  
HETATM   17  C   UNL     1      -8.760   8.167  72.976  1.00  0.00    -0.243 A  
HETATM   18  N   UNL     1      -7.314   6.552  71.922  1.00  0.00    -0.090 NA 
HETATM   19  F   UNL     1      -9.145   8.813  74.082  1.00  0.00     0.140 F  
HETATM   20  C   UNL     1      -9.342   8.475  71.759  1.00  0.00    -0.323 A  
HETATM   21  C   UNL     1      -7.760   7.215  73.017  1.00  0.00    -0.089 A  
ENDBRANCH  12  15
BRANCH  14  22
HETATM   22  C   UNL     1     -11.200   6.340  69.547  1.00  0.00    -0.430 C  
HETATM   23  C   UNL     1     -12.036   7.209  71.621  1.00  0.00    -0.353 C  
HETATM   24  C   UNL     1     -12.487   6.804  70.228  1.00  0.00     0.186 C  
HETATM   25  N   UNL     1     -10.447   5.769  70.664  1.00  0.00    -0.246 N  
HETATM   26  O   UNL     1     -10.506   6.037  73.034  1.00  0.00    -0.201 OA 
HETATM   27  C   UNL     1     -10.899   6.262  71.898  1.00  0.00    -0.242 C  
BRANCH  25  28
HETATM   28  C   UNL     1      -9.554   4.674  70.571  1.00  0.00    -0.198 A  
HETATM   29  N   UNL     1      -9.019   4.389  69.361  1.00  0.00    -0.091 NA 
HETATM   30  C   UNL     1      -8.117   3.397  69.225  1.00  0.00    -0.052 A  
HETATM   31  C   UNL     1      -7.689   2.623  70.277  1.00  0.00    -0.044 A  
HETATM   32  C   UNL     1      -8.234   2.899  71.526  1.00  0.00    -0.072 A  
HETATM   33  C   UNL     1      -9.171   3.933  71.680  1.00  0.00    -0.188 A  
HETATM   34  C   UNL     1      -7.830   2.125  72.661  1.00  0.00    -0.053 C  
HETATM   35  N   UNL     1      -7.512   1.504  73.588  1.00  0.00    -0.028 NA 
ENDBRANCH  25  28
ENDBRANCH  14  22
ENDBRANCH   1  12
BRANCH   1  36
HETATM   36  C   UNL     1      -7.843   8.674  67.456  1.00  0.00    -0.102 A  
HETATM   37  C   UNL     1      -7.863   8.108  65.040  1.00  0.00    -0.128 A  
HETATM   38  C   UNL     1      -6.652   7.455  65.150  1.00  0.00    -0.044 A  
HETATM   39 CL   UNL     1      -5.462   8.495  68.795  1.00  0.00    -0.036 Cl 
HETATM   40  C   UNL     1      -5.981   7.502  66.371  1.00  0.00    -0.037 A  
HETATM   41  C   UNL     1      -8.457   8.677  66.167  1.00  0.00    -0.140 A  
HETATM   42  C   UNL     1      -6.536   8.175  67.489  1.00  0.00    -0.058 A  
ENDBRANCH   1  36
TORSDOF 7
ENDMDL
MODEL      180
REMARK 921   NORMALIZED FREE ENERGY PREDICTED BY IDOCK:    1.49 KCAL/MOL
REMARK 922        TOTAL FREE ENERGY PREDICTED BY IDOCK:    0.65 KCAL/MOL
REMARK 923 INTER-LIGAND FREE ENERGY PREDICTED BY IDOCK:   -6.81 KCAL/MOL
REMARK 924 INTRA-LIGAND FREE ENERGY PREDICTED BY IDOCK:    7.46 KCAL/MOL
REMARK 927      BINDING AFFINITY PREDICTED BY RF-SCORE:    0.00 PKD
ROOT
HETATM    1  C   UNL     1      -8.723  10.937  68.165  1.00  0.00    -0.133 C  
ENDROOT
BRANCH   1   2
HETATM    2  C   UNL     1     -10.012  11.168  67.230  1.00  0.00    -0.184 C  
HETATM    3  H   UNL     1      -8.985  11.267  65.449  1.00  0.00     0.000 HD 
HETATM    4  N   UNL     1      -9.922  11.293  65.850  1.00  0.00    -0.224 N  
HETATM    5  O   UNL     1     -11.112  11.337  67.754  1.00  0.00    -0.230 OA 
BRANCH   4   6
HETATM    6  C   UNL     1     -11.077  11.463  64.876  1.00  0.00    -0.165 C  
HETATM    7  C   UNL     1     -12.280  12.604  63.523  1.00  0.00    -0.547 C  
HETATM    8  F   UNL     1     -12.512  13.807  62.957  1.00  0.00    -0.485 F  
HETATM    9  C   UNL     1     -12.140  12.580  65.074  1.00  0.00    -0.504 C  
HETATM   10  F   UNL     1     -13.199  11.752  63.013  1.00  0.00    -0.548 F  
HETATM   11  C   UNL     1     -10.812  12.094  63.485  1.00  0.00    -0.518 C  
ENDBRANCH   4   6
ENDBRANCH   1   2
BRANCH   1  12
HETATM   12  N   UNL     1      -8.174   9.529  68.047  1.00  0.00    -0.113 N  
HETATM   13  O   UNL     1      -6.478  10.125  66.602  1.00  0.00    -0.068 OA 
HETATM   14  C   UNL     1      -7.039   9.245  67.260  1.00  0.00    -0.082 C  
BRANCH  12  15
HETATM   15  C   UNL     1      -8.842   8.528  68.792  1.00  0.00    -0.139 A  
HETATM   16  C   UNL     1      -8.583   8.325  70.148  1.00  0.00    -0.128 A  
HETATM   17  C   UNL     1     -10.572   6.882  68.968  1.00  0.00    -0.217 A  
HETATM   18  N   UNL     1      -9.282   7.460  70.920  1.00  0.00    -0.154 NA 
HETATM   19  F   UNL     1     -11.567   6.179  68.417  1.00  0.00    -0.359 F  
HETATM   20  C   UNL     1      -9.861   7.788  68.201  1.00  0.00    -0.190 A  
HETATM   21  C   UNL     1     -10.261   6.751  70.307  1.00  0.00    -0.195 A  
ENDBRANCH  12  15
BRANCH  14  22
HETATM   22  C   UNL     1      -6.449   7.788  67.299  1.00  0.00    -0.056 C  
HETATM   23  C   UNL     1      -8.057   6.381  66.208  1.00  0.00    -0.114 C  
HETATM   24  C   UNL     1      -6.741   7.101  65.966  1.00  0.00    -0.053 C  
HETATM   25  N   UNL     1      -7.024   6.849  68.263  1.00  0.00    -0.077 N  
HETATM   26  O   UNL     1      -8.677   5.134  68.150  1.00  0.00    -0.103 OA 
HETATM   27  C   UNL     1      -7.980   6.014  67.666  1.00  0.00    -0.102 C  
BRANCH  25  28
HETATM   28  C   UNL     1      -6.523   6.613  69.567  1.00  0.00    -0.044 A  
HETATM   29  N   UNL     1      -5.681   7.526  70.102  1.00  0.00    -0.024 NA 
HETATM   30  C   UNL     1      -5.222   7.382  71.362  1.00  0.00    -0.027 A  
HETATM   31  C   UNL     1      -5.568   6.325  72.170  1.00  0.00    -0.032 A  
HETATM   32  C   UNL     1      -6.428   5.375  71.632  1.00  0.00    -0.040 A  
HETATM   33  C   UNL     1      -6.915   5.516  70.323  1.00  0.00    -0.061 A  
HETATM   34  C   UNL     1      -6.822   4.249  72.424  1.00  0.00    -0.054 C  
HETATM   35  N   UNL     1      -7.147   3.331  73.055  1.00  0.00    -0.043 NA 
ENDBRANCH  25  28
ENDBRANCH  14  22
ENDBRANCH   1  12
BRANCH   1  36
HETATM   36  C   UNL     1      -7.575  11.947  68.426  1.00  0.00    -0.120 A  
HETATM   37  C   UNL     1      -6.644  14.150  67.766  1.00  0.00    -0.188 A  
HETATM   38  C   UNL     1      -5.510  13.934  68.522  1.00  0.00    -0.095 A  
HETATM   39 CL   UNL     1      -6.494  10.701  70.611  1.00  0.00    -0.045 Cl 
HETATM   40  C   UNL     1      -5.449  12.789  69.315  1.00  0.00    -0.073 A  
HETATM   41  C   UNL     1      -7.637  13.172  67.697  1.00  0.00    -0.171 A  
HETATM   42  C   UNL     1      -6.508  11.846  69.326  1.00  0.00    -0.111 A  
ENDBRANCH   1  36
TORSDOF 7
ENDMDL
MODEL      181
REMARK 921   NORMALIZED FREE ENERGY PREDICTED BY IDOCK:    1.56 KCAL/MOL
REMARK 922        TOTAL FREE ENERGY PREDICTED BY IDOCK:    0.74 KCAL/MOL
REMARK 923 INTER-LIGAND FREE ENERGY PREDICTED BY IDOCK:   -6.01 KCAL/MOL
REMARK 924 INTRA-LIGAND FREE ENERGY PREDICTED BY IDOCK:    6.74 KCAL/MOL
REMARK 927      BINDING AFFINITY PREDICTED BY RF-SCORE:    0.00 PKD
ROOT
HETATM    1  C   UNL     1      -8.385   9.429  68.607  1.00  0.00    -0.117 C  
ENDROOT
BRANCH   1   2
HETATM    2  C   UNL     1      -8.833  10.975  68.597  1.00  0.00    -0.164 C  
HETATM    3  H   UNL     1      -7.174  11.687  67.610  1.00  0.00     0.000 HD 
HETATM    4  N   UNL     1      -8.067  11.972  68.011  1.00  0.00    -0.143 N  
HETATM    5  O   UNL     1      -9.845  11.311  69.212  1.00  0.00    -0.073 OA 
BRANCH   4   6
HETATM    6  C   UNL     1      -8.422  13.447  67.904  1.00  0.00    -0.173 C  
HETATM    7  C   UNL     1      -8.004  15.532  68.141  1.00  0.00    -0.131 C  
HETATM    8  F   UNL     1      -7.130  16.468  68.569  1.00  0.00    -0.140 F  
HETATM    9  C   UNL     1      -8.341  14.387  69.140  1.00  0.00     0.056 C  
HETATM   10  F   UNL     1      -9.072  16.198  67.643  1.00  0.00    -0.191 F  
HETATM   11  C   UNL     1      -7.428  14.420  67.219  1.00  0.00    -0.103 C  
ENDBRANCH   4   6
ENDBRANCH   1   2
BRANCH   1  12
HETATM   12  N   UNL     1      -9.241   8.589  69.532  1.00  0.00    -0.150 N  
HETATM   13  O   UNL     1     -11.160   8.851  68.279  1.00  0.00     0.044 OA 
HETATM   14  C   UNL     1     -10.604   8.349  69.258  1.00  0.00    -0.182 C  
BRANCH  12  15
HETATM   15  C   UNL     1      -8.593   8.038  70.664  1.00  0.00    -0.130 A  
HETATM   16  C   UNL     1      -7.877   6.843  70.590  1.00  0.00    -0.101 A  
HETATM   17  C   UNL     1      -7.849   8.241  72.931  1.00  0.00    -0.130 A  
HETATM   18  N   UNL     1      -7.147   6.346  71.617  1.00  0.00    -0.079 NA 
HETATM   19  F   UNL     1      -7.803   8.920  74.082  1.00  0.00    -0.172 F  
HETATM   20  C   UNL     1      -8.570   8.744  71.862  1.00  0.00    -0.169 A  
HETATM   21  C   UNL     1      -7.157   7.057  72.771  1.00  0.00    -0.073 A  
ENDBRANCH  12  15
BRANCH  14  22
HETATM   22  C   UNL     1     -11.389   7.356  70.192  1.00  0.00    -0.177 C  
HETATM   23  C   UNL     1     -11.585   8.444  72.320  1.00  0.00    -0.453 C  
HETATM   24  C   UNL     1     -12.368   8.154  71.051  1.00  0.00    -0.152 C  
HETATM   25  N   UNL     1     -10.621   6.621  71.198  1.00  0.00    -0.224 N  
HETATM   26  O   UNL     1     -10.183   6.929  73.523  1.00  0.00    -0.245 OA 
HETATM   27  C   UNL     1     -10.702   7.234  72.458  1.00  0.00    -0.262 C  
BRANCH  25  28
HETATM   28  C   UNL     1     -10.074   5.327  71.022  1.00  0.00    -0.221 A  
HETATM   29  N   UNL     1      -9.728   4.625  72.125  1.00  0.00    -0.158 NA 
HETATM   30  C   UNL     1      -9.259   3.366  72.019  1.00  0.00    -0.114 A  
HETATM   31  C   UNL     1      -9.102   2.722  70.815  1.00  0.00    -0.190 A  
HETATM   32  C   UNL     1      -9.448   3.432  69.671  1.00  0.00    -0.223 A  
HETATM   33  C   UNL     1      -9.941   4.743  69.769  1.00  0.00    -0.308 A  
HETATM   34  C   UNL     1      -9.305   2.817  68.386  1.00  0.00    -0.192 C  
HETATM   35  N   UNL     1      -9.191   2.330  67.339  1.00  0.00    -0.150 NA 
ENDBRANCH  25  28
ENDBRANCH  14  22
ENDBRANCH   1  12
BRANCH   1  36
HETATM   36  C   UNL     1      -7.923   8.591  67.385  1.00  0.00    -0.102 A  
HETATM   37  C   UNL     1      -8.437   8.022  65.026  1.00  0.00    -0.089 A  
HETATM   38  C   UNL     1      -7.463   7.045  65.015  1.00  0.00    -0.093 A  
HETATM   39 CL   UNL     1      -5.536   7.740  68.419  1.00  0.00    -0.027 Cl 
HETATM   40  C   UNL     1      -6.646   6.910  66.137  1.00  0.00    -0.052 A  
HETATM   41  C   UNL     1      -8.680   8.757  66.187  1.00  0.00    -0.184 A  
HETATM   42  C   UNL     1      -6.825   7.731  67.278  1.00  0.00    -0.069 A  
ENDBRANCH   1  36
TORSDOF 7
ENDMDL
MODEL      182
REMARK 921   NORMALIZED FREE ENERGY PREDICTED BY IDOCK:    1.77 KCAL/MOL
REMARK 922        TOTAL FREE ENERGY PREDICTED BY IDOCK:    1.04 KCAL/MOL
REMARK 923 INTER-LIGAND FREE ENERGY PREDICTED BY IDOCK:   -5.77 KCAL/MOL
REMARK 924 INTRA-LIGAND FREE ENERGY PREDICTED BY IDOCK:    6.81 KCAL/MOL
REMARK 927      BINDING AFFINITY PREDICTED BY RF-SCORE:    0.00 PKD
ROOT
HETATM    1  C   UNL     1     -11.732  12.573  68.892  1.00  0.00    -0.322 C  
ENDROOT
BRANCH   1   2
HETATM    2  C   UNL     1     -12.408  13.182  70.219  1.00  0.00    -0.249 C  
HETATM    3  H   UNL     1     -11.089  14.745  70.449  1.00  0.00     0.000 HD 
HETATM    4  N   UNL     1     -11.926  14.322  70.848  1.00  0.00    -0.334 N  
HETATM    5  O   UNL     1     -13.328  12.570  70.760  1.00  0.00     0.277 OA 
BRANCH   4   6
HETATM    6  C   UNL     1     -12.517  15.004  72.072  1.00  0.00    -0.336 C  
HETATM    7  C   UNL     1     -12.414  16.302  73.770  1.00  0.00    -0.551 C  
HETATM    8  F   UNL     1     -11.646  17.115  74.525  1.00  0.00    -0.268 F  
HETATM    9  C   UNL     1     -11.839  14.887  73.466  1.00  0.00    -0.271 C  
HETATM   10  F   UNL     1     -13.651  16.317  74.318  1.00  0.00     0.003 F  
HETATM   11  C   UNL     1     -12.368  16.538  72.234  1.00  0.00    -0.026 C  
ENDBRANCH   4   6
ENDBRANCH   1   2
BRANCH   1  12
HETATM   12  N   UNL     1     -11.173  13.652  67.986  1.00  0.00    -0.255 N  
HETATM   13  O   UNL     1     -13.111  13.864  66.753  1.00  0.00     0.330 OA 
HETATM   14  C   UNL     1     -11.956  14.240  66.971  1.00  0.00    -0.433 C  
BRANCH  12  15
HETATM   15  C   UNL     1      -9.840  14.055  68.235  1.00  0.00    -0.233 A  
HETATM   16  C   UNL     1      -9.530  15.012  69.203  1.00  0.00    -0.195 A  
HETATM   17  C   UNL     1      -7.487  13.753  67.910  1.00  0.00    -0.152 A  
HETATM   18  N   UNL     1      -8.263  15.338  69.552  1.00  0.00    -0.230 NA 
HETATM   19  F   UNL     1      -6.467  13.133  67.305  1.00  0.00    -0.166 F  
HETATM   20  C   UNL     1      -8.789  13.418  67.584  1.00  0.00    -0.200 A  
HETATM   21  C   UNL     1      -7.266  14.702  68.889  1.00  0.00    -0.124 A  
ENDBRANCH  12  15
BRANCH  14  22
HETATM   22  C   UNL     1     -11.350  15.447  66.165  1.00  0.00    -0.082 C  
HETATM   23  C   UNL     1      -9.545  14.550  64.865  1.00  0.00     0.563 C  
HETATM   24  C   UNL     1     -11.000  14.974  64.755  1.00  0.00    -0.389 C  
HETATM   25  N   UNL     1     -10.079  16.002  66.630  1.00  0.00    -0.269 N  
HETATM   26  O   UNL     1      -7.794  15.702  66.013  1.00  0.00     0.440 OA 
HETATM   27  C   UNL     1      -8.994  15.492  65.900  1.00  0.00    -0.098 C  
BRANCH  25  28
HETATM   28  C   UNL     1      -9.944  17.098  67.516  1.00  0.00    -0.279 A  
HETATM   29  N   UNL     1     -10.986  17.395  68.327  1.00  0.00    -0.251 NA 
HETATM   30  C   UNL     1     -10.891  18.389  69.233  1.00  0.00     1.118 A  
HETATM   31  C   UNL     1      -9.760  19.153  69.392  1.00  0.00    -0.127 A  
HETATM   32  C   UNL     1      -8.682  18.864  68.563  1.00  0.00    -0.382 A  
HETATM   33  C   UNL     1      -8.768  17.829  67.619  1.00  0.00    -0.244 A  
HETATM   34  C   UNL     1      -7.476  19.627  68.679  1.00  0.00    -0.333 C  
HETATM   35  N   UNL     1      -6.494  20.240  68.762  1.00  0.00    -0.311 NA 
ENDBRANCH  25  28
ENDBRANCH  14  22
ENDBRANCH   1  12
BRANCH   1  36
HETATM   36  C   UNL     1     -10.872  11.286  68.798  1.00  0.00    -0.252 A  
HETATM   37  C   UNL     1      -9.772   9.499  70.122  1.00  0.00    -0.289 A  
HETATM   38  C   UNL     1      -9.145   9.005  68.996  1.00  0.00    -0.143 A  
HETATM   39 CL   UNL     1     -10.971  10.989  66.078  1.00  0.00    -0.201 Cl 
HETATM   40  C   UNL     1      -9.460   9.569  67.760  1.00  0.00    -0.151 A  
HETATM   41  C   UNL     1     -10.590  10.626  70.031  1.00  0.00    -0.150 A  
HETATM   42  C   UNL     1     -10.376  10.645  67.656  1.00  0.00    -0.209 A  
ENDBRANCH   1  36
TORSDOF 7
ENDMDL
MODEL      183
REMARK 921   NORMALIZED FREE ENERGY PREDICTED BY IDOCK:    1.82 KCAL/MOL
REMARK 922        TOTAL FREE ENERGY PREDICTED BY IDOCK:    1.10 KCAL/MOL
REMARK 923 INTER-LIGAND FREE ENERGY PREDICTED BY IDOCK:   -3.33 KCAL/MOL
REMARK 924 INTRA-LIGAND FREE ENERGY PREDICTED BY IDOCK:    4.44 KCAL/MOL
REMARK 927      BINDING AFFINITY PREDICTED BY RF-SCORE:    0.00 PKD
ROOT
HETATM    1  C   UNL     1     -11.632  15.545  70.031  1.00  0.00    -0.341 C  
ENDROOT
BRANCH   1   2
HETATM    2  C   UNL     1     -10.729  16.499  69.100  1.00  0.00    -0.335 C  
HETATM    3  H   UNL     1     -12.294  17.415  68.127  1.00  0.00     0.000 HD 
HETATM    4  N   UNL     1     -11.277  17.403  68.202  1.00  0.00    -0.019 N  
HETATM    5  O   UNL     1      -9.506  16.362  69.109  1.00  0.00    -0.258 OA 
BRANCH   4   6
HETATM    6  C   UNL     1     -10.517  18.379  67.317  1.00  0.00    -0.405 C  
HETATM    7  C   UNL     1     -10.370  19.767  65.695  1.00  0.00    -0.324 C  
HETATM    8  F   UNL     1     -10.999  20.375  64.667  1.00  0.00    -0.173 F  
HETATM    9  C   UNL     1     -10.497  18.217  65.771  1.00  0.00    -0.228 C  
HETATM   10  F   UNL     1      -9.103  20.244  65.711  1.00  0.00    -0.342 F  
HETATM   11  C   UNL     1     -11.104  19.792  67.066  1.00  0.00    -0.187 C  
ENDBRANCH   4   6
ENDBRANCH   1   2
BRANCH   1  12
HETATM   12  N   UNL     1     -11.505  14.085  69.649  1.00  0.00    -0.266 N  
HETATM   13  O   UNL     1     -13.177  13.387  71.078  1.00  0.00    -0.174 OA 
HETATM   14  C   UNL     1     -12.342  13.100  70.216  1.00  0.00    -0.249 C  
BRANCH  12  15
HETATM   15  C   UNL     1     -10.528  13.770  68.675  1.00  0.00    -0.239 A  
HETATM   16  C   UNL     1     -10.871  13.500  67.350  1.00  0.00    -0.269 A  
HETATM   17  C   UNL     1      -8.230  13.618  68.017  1.00  0.00    -0.162 A  
HETATM   18  N   UNL     1      -9.960  13.311  66.366  1.00  0.00    -0.282 NA 
HETATM   19  F   UNL     1      -6.929  13.692  68.315  1.00  0.00    -0.077 F  
HETATM   20  C   UNL     1      -9.177  13.830  69.004  1.00  0.00     0.249 A  
HETATM   21  C   UNL     1      -8.655  13.368  66.726  1.00  0.00    -0.026 A  
ENDBRANCH  12  15
BRANCH  14  22
HETATM   22  C   UNL     1     -12.242  11.630  69.667  1.00  0.00    -0.206 C  
HETATM   23  C   UNL     1     -13.146  10.210  71.375  1.00  0.00    -0.512 C  
HETATM   24  C   UNL     1     -13.509  10.870  70.056  1.00  0.00     1.029 C  
HETATM   25  N   UNL     1     -11.187  10.774  70.211  1.00  0.00    -0.285 N  
HETATM   26  O   UNL     1     -11.096   9.109  71.918  1.00  0.00    -0.364 OA 
HETATM   27  C   UNL     1     -11.675   9.933  71.224  1.00  0.00    -0.392 C  
BRANCH  25  28
HETATM   28  C   UNL     1      -9.902  10.603  69.643  1.00  0.00    -0.013 A  
HETATM   29  N   UNL     1      -8.823  10.823  70.430  1.00  0.00     1.204 NA 
HETATM   30  C   UNL     1      -7.576  10.618  69.960  1.00  0.00     0.177 A  
HETATM   31  C   UNL     1      -7.319  10.183  68.681  1.00  0.00    -0.082 A  
HETATM   32  C   UNL     1      -8.416   9.958  67.859  1.00  0.00    -0.121 A  
HETATM   33  C   UNL     1      -9.719  10.165  68.339  1.00  0.00    -0.157 A  
HETATM   34  C   UNL     1      -8.213   9.507  66.515  1.00  0.00    -0.119 C  
HETATM   35  N   UNL     1      -8.060   9.144  65.424  1.00  0.00    -0.119 NA 
ENDBRANCH  25  28
ENDBRANCH  14  22
ENDBRANCH   1  12
BRANCH   1  36
HETATM   36  C   UNL     1     -11.860  15.689  71.559  1.00  0.00    -0.493 A  
HETATM   37  C   UNL     1     -12.432  14.455  73.633  1.00  0.00     0.000 A  
HETATM   38  C   UNL     1     -12.527  15.632  74.347  1.00  0.00    -0.790 A  
HETATM   39 CL   UNL     1     -11.018  18.283  71.801  1.00  0.00     2.449 Cl 
HETATM   40  C   UNL     1     -12.184  16.823  73.709  1.00  0.00    -0.293 A  
HETATM   41  C   UNL     1     -12.134  14.483  72.270  1.00  0.00    -0.222 A  
HETATM   42  C   UNL     1     -11.777  16.840  72.351  1.00  0.00     0.079 A  
ENDBRANCH   1  36
TORSDOF 7
ENDMDL
MODEL      184
REMARK 921   NORMALIZED FREE ENERGY PREDICTED BY IDOCK:    1.83 KCAL/MOL
REMARK 922        TOTAL FREE ENERGY PREDICTED BY IDOCK:    1.12 KCAL/MOL
REMARK 923 INTER-LIGAND FREE ENERGY PREDICTED BY IDOCK:   -6.33 KCAL/MOL
REMARK 924 INTRA-LIGAND FREE ENERGY PREDICTED BY IDOCK:    7.46 KCAL/MOL
REMARK 927      BINDING AFFINITY PREDICTED BY RF-SCORE:    0.00 PKD
ROOT
HETATM    1  C   UNL     1      -8.751   6.695  67.032  1.00  0.00    -0.113 C  
ENDROOT
BRANCH   1   2
HETATM    2  C   UNL     1      -9.056   6.555  68.606  1.00  0.00    -0.128 C  
HETATM    3  H   UNL     1     -11.052   7.041  68.495  1.00  0.00     0.000 HD 
HETATM    4  N   UNL     1     -10.319   6.758  69.144  1.00  0.00    -0.184 N  
HETATM    5  O   UNL     1      -8.123   6.353  69.383  1.00  0.00    -0.114 OA 
BRANCH   4   6
HETATM    6  C   UNL     1     -10.721   6.603  70.603  1.00  0.00    -0.241 C  
HETATM    7  C   UNL     1     -11.537   7.325  72.444  1.00  0.00    -0.268 C  
HETATM    8  F   UNL     1     -12.063   8.372  73.113  1.00  0.00    -0.342 F  
HETATM    9  C   UNL     1     -10.198   7.581  71.691  1.00  0.00    -0.209 C  
HETATM   10  F   UNL     1     -11.524   6.282  73.306  1.00  0.00    -0.193 F  
HETATM   11  C   UNL     1     -12.147   7.021  71.046  1.00  0.00    -0.413 C  
ENDBRANCH   4   6
ENDBRANCH   1   2
BRANCH   1  12
HETATM   12  N   UNL     1      -8.410   8.118  66.639  1.00  0.00    -0.109 N  
HETATM   13  O   UNL     1      -8.759   7.764  64.387  1.00  0.00     0.176 OA 
HETATM   14  C   UNL     1      -8.470   8.546  65.296  1.00  0.00    -0.174 C  
BRANCH  12  15
HETATM   15  C   UNL     1      -8.059   8.996  67.692  1.00  0.00    -0.109 A  
HETATM   16  C   UNL     1      -9.026   9.647  68.459  1.00  0.00    -0.124 A  
HETATM   17  C   UNL     1      -6.404   9.930  69.150  1.00  0.00    -0.044 A  
HETATM   18  N   UNL     1      -8.735  10.400  69.546  1.00  0.00    -0.130 NA 
HETATM   19  F   UNL     1      -5.127  10.065  69.521  1.00  0.00    -0.035 F  
HETATM   20  C   UNL     1      -6.724   9.146  68.055  1.00  0.00    -0.068 A  
HETATM   21  C   UNL     1      -7.423  10.529  69.863  1.00  0.00    -0.080 A  
ENDBRANCH  12  15
BRANCH  14  22
HETATM   22  C   UNL     1      -8.236  10.070  64.987  1.00  0.00    -0.148 C  
HETATM   23  C   UNL     1      -5.961  10.537  65.585  1.00  0.00    -0.130 C  
HETATM   24  C   UNL     1      -6.843  10.243  64.384  1.00  0.00    -0.059 C  
HETATM   25  N   UNL     1      -8.200  10.994  66.120  1.00  0.00    -0.168 N  
HETATM   26  O   UNL     1      -6.462  11.988  67.417  1.00  0.00    -0.106 OA 
HETATM   27  C   UNL     1      -6.883  11.284  66.509  1.00  0.00    -0.101 C  
BRANCH  25  28
HETATM   28  C   UNL     1      -9.311  11.719  66.616  1.00  0.00    -0.198 A  
HETATM   29  N   UNL     1     -10.551  11.256  66.335  1.00  0.00    -0.258 NA 
HETATM   30  C   UNL     1     -11.643  11.872  66.832  1.00  0.00    -0.285 A  
HETATM   31  C   UNL     1     -11.576  12.984  67.637  1.00  0.00    -0.403 A  
HETATM   32  C   UNL     1     -10.309  13.475  67.930  1.00  0.00    -0.249 A  
HETATM   33  C   UNL     1      -9.165  12.840  67.422  1.00  0.00    -0.193 A  
HETATM   34  C   UNL     1     -10.174  14.633  68.762  1.00  0.00    -0.242 C  
HETATM   35  N   UNL     1     -10.052  15.571  69.433  1.00  0.00    -0.249 NA 
ENDBRANCH  25  28
ENDBRANCH  14  22
ENDBRANCH   1  12
BRANCH   1  36
HETATM   36  C   UNL     1      -7.974   5.686  66.146  1.00  0.00    -0.106 A  
HETATM   37  C   UNL     1      -5.711   4.902  65.499  1.00  0.00    -0.018 A  
HETATM   38  C   UNL     1      -6.237   4.096  64.510  1.00  0.00    -0.026 A  
HETATM   39 CL   UNL     1     -10.128   4.221  65.304  1.00  0.00    -0.230 Cl 
HETATM   40  C   UNL     1      -7.624   3.993  64.406  1.00  0.00    -0.076 A  
HETATM   41  C   UNL     1      -6.553   5.697  66.277  1.00  0.00    -0.055 A  
HETATM   42  C   UNL     1      -8.481   4.720  65.269  1.00  0.00    -0.132 A  
ENDBRANCH   1  36
TORSDOF 7
ENDMDL
MODEL      185
REMARK 921   NORMALIZED FREE ENERGY PREDICTED BY IDOCK:    1.85 KCAL/MOL
REMARK 922        TOTAL FREE ENERGY PREDICTED BY IDOCK:    1.15 KCAL/MOL
REMARK 923 INTER-LIGAND FREE ENERGY PREDICTED BY IDOCK:   -6.03 KCAL/MOL
REMARK 924 INTRA-LIGAND FREE ENERGY PREDICTED BY IDOCK:    7.18 KCAL/MOL
REMARK 927      BINDING AFFINITY PREDICTED BY RF-SCORE:    0.00 PKD
ROOT
HETATM    1  C   UNL     1      -7.559  13.660  68.367  1.00  0.00    -0.132 C  
ENDROOT
BRANCH   1   2
HETATM    2  C   UNL     1      -7.378  15.013  67.516  1.00  0.00    -0.202 C  
HETATM    3  H   UNL     1      -9.338  15.627  67.645  1.00  0.00     0.000 HD 
HETATM    4  N   UNL     1      -8.424  15.895  67.280  1.00  0.00    -0.173 N  
HETATM    5  O   UNL     1      -6.299  15.239  66.968  1.00  0.00    -0.240 OA 
BRANCH   4   6
HETATM    6  C   UNL     1      -8.347  17.218  66.535  1.00  0.00    -0.277 C  
HETATM    7  C   UNL     1      -8.645  19.330  66.361  1.00  0.00    -0.343 C  
HETATM    8  F   UNL     1      -9.114  20.456  66.938  1.00  0.00    -0.409 F  
HETATM    9  C   UNL     1      -9.608  18.107  66.339  1.00  0.00    -0.298 C  
HETATM   10  F   UNL     1      -8.143  19.692  65.157  1.00  0.00     0.128 F  
HETATM   11  C   UNL     1      -7.707  18.447  67.231  1.00  0.00    -0.228 C  
ENDBRANCH   4   6
ENDBRANCH   1   2
BRANCH   1  12
HETATM   12  N   UNL     1      -7.951  12.483  67.496  1.00  0.00    -0.164 N  
HETATM   13  O   UNL     1      -5.830  12.190  66.638  1.00  0.00    -0.261 OA 
HETATM   14  C   UNL     1      -7.003  11.813  66.695  1.00  0.00     0.027 C  
BRANCH  12  15
HETATM   15  C   UNL     1      -9.305  12.078  67.556  1.00  0.00    -0.179 A  
HETATM   16  C   UNL     1      -9.761  11.178  68.520  1.00  0.00    -0.196 A  
HETATM   17  C   UNL     1     -11.578  12.328  66.845  1.00  0.00    -0.361 A  
HETATM   18  N   UNL     1     -11.066  10.857  68.685  1.00  0.00    -0.230 NA 
HETATM   19  F   UNL     1     -12.491  12.896  66.050  1.00  0.00    -0.476 F  
HETATM   20  C   UNL     1     -10.242  12.660  66.708  1.00  0.00    -0.246 A  
HETATM   21  C   UNL     1     -11.948  11.438  67.834  1.00  0.00    -0.045 A  
ENDBRANCH  12  15
BRANCH  14  22
HETATM   22  C   UNL     1      -7.458  10.518  65.927  1.00  0.00    -0.147 C  
HETATM   23  C   UNL     1      -8.787  11.263  64.075  1.00  0.00     0.193 C  
HETATM   24  C   UNL     1      -7.389  10.783  64.424  1.00  0.00     0.354 C  
HETATM   25  N   UNL     1      -8.843  10.078  66.100  1.00  0.00    -0.145 N  
HETATM   26  O   UNL     1     -10.855  10.351  64.850  1.00  0.00     0.056 OA 
HETATM   27  C   UNL     1      -9.657  10.505  65.040  1.00  0.00    -0.276 C  
BRANCH  25  28
HETATM   28  C   UNL     1      -9.283   9.132  67.057  1.00  0.00    -0.135 A  
HETATM   29  N   UNL     1     -10.468   8.514  66.844  1.00  0.00    -0.303 NA 
HETATM   30  C   UNL     1     -10.908   7.561  67.691  1.00  0.00    -0.127 A  
HETATM   31  C   UNL     1     -10.204   7.162  68.802  1.00  0.00    -0.184 A  
HETATM   32  C   UNL     1      -8.988   7.792  69.038  1.00  0.00    -0.145 A  
HETATM   33  C   UNL     1      -8.518   8.782  68.161  1.00  0.00    -0.130 A  
HETATM   34  C   UNL     1      -8.209   7.421  70.181  1.00  0.00    -0.133 C  
HETATM   35  N   UNL     1      -7.571   7.131  71.105  1.00  0.00    -0.084 NA 
ENDBRANCH  25  28
ENDBRANCH  14  22
ENDBRANCH   1  12
BRANCH   1  36
HETATM   36  C   UNL     1      -6.679  13.187  69.554  1.00  0.00     0.023 A  
HETATM   37  C   UNL     1      -5.789  11.193  70.730  1.00  0.00    -0.054 A  
HETATM   38  C   UNL     1      -5.282  11.977  71.746  1.00  0.00     0.124 A  
HETATM   39 CL   UNL     1      -5.695  15.641  70.266  1.00  0.00    -0.158 Cl 
HETATM   40  C   UNL     1      -5.370  13.363  71.620  1.00  0.00    -0.168 A  
HETATM   41  C   UNL     1      -6.493  11.778  69.677  1.00  0.00    -0.113 A  
HETATM   42  C   UNL     1      -5.991  13.961  70.495  1.00  0.00    -0.172 A  
ENDBRANCH   1  36
TORSDOF 7
ENDMDL
MODEL      186
REMARK 921   NORMALIZED FREE ENERGY PREDICTED BY IDOCK:    1.97 KCAL/MOL
REMARK 922        TOTAL FREE ENERGY PREDICTED BY IDOCK:    1.32 KCAL/MOL
REMARK 923 INTER-LIGAND FREE ENERGY PREDICTED BY IDOCK:   -7.15 KCAL/MOL
REMARK 924 INTRA-LIGAND FREE ENERGY PREDICTED BY IDOCK:    8.47 KCAL/MOL
REMARK 927      BINDING AFFINITY PREDICTED BY RF-SCORE:    0.00 PKD
ROOT
HETATM    1  C   UNL     1     -10.890   9.613  68.899  1.00  0.00    -0.174 C  
ENDROOT
BRANCH   1   2
HETATM    2  C   UNL     1     -11.305  10.455  70.207  1.00  0.00    -0.328 C  
HETATM    3  H   UNL     1     -11.342  12.296  69.289  1.00  0.00     0.000 HD 
HETATM    4  N   UNL     1     -11.506  11.828  70.179  1.00  0.00    -0.169 N  
HETATM    5  O   UNL     1     -11.356   9.886  71.296  1.00  0.00    -0.368 OA 
BRANCH   4   6
HETATM    6  C   UNL     1     -11.946  12.705  71.341  1.00  0.00     0.870 C  
HETATM    7  C   UNL     1     -13.256  14.112  72.280  1.00  0.00    -0.447 C  
HETATM    8  F   UNL     1     -14.351  14.892  72.158  1.00  0.00    -0.472 F  
HETATM    9  C   UNL     1     -12.189  14.229  71.152  1.00  0.00    -0.431 C  
HETATM   10  F   UNL     1     -12.790  14.293  73.537  1.00  0.00    -0.574 F  
HETATM   11  C   UNL     1     -13.412  12.629  71.838  1.00  0.00    -0.424 C  
ENDBRANCH   4   6
ENDBRANCH   1   2
BRANCH   1  12
HETATM   12  N   UNL     1     -10.061  10.431  67.930  1.00  0.00    -0.166 N  
HETATM   13  O   UNL     1     -11.892  11.308  66.835  1.00  0.00    -0.423 OA 
HETATM   14  C   UNL     1     -10.666  11.257  66.959  1.00  0.00    -0.260 C  
BRANCH  12  15
HETATM   15  C   UNL     1      -8.656  10.344  68.072  1.00  0.00    -0.123 A  
HETATM   16  C   UNL     1      -7.962  11.120  69.000  1.00  0.00    -0.086 A  
HETATM   17  C   UNL     1      -6.585   9.249  67.573  1.00  0.00    -0.064 A  
HETATM   18  N   UNL     1      -6.638  10.982  69.248  1.00  0.00    -0.080 NA 
HETATM   19  F   UNL     1      -5.893   8.323  66.902  1.00  0.00    -0.043 F  
HETATM   20  C   UNL     1      -7.944   9.390  67.351  1.00  0.00    -0.106 A  
HETATM   21  C   UNL     1      -5.976  10.049  68.520  1.00  0.00    -0.041 A  
ENDBRANCH  12  15
BRANCH  14  22
HETATM   22  C   UNL     1      -9.741  12.178  66.082  1.00  0.00    -0.240 C  
HETATM   23  C   UNL     1      -7.975  10.777  65.264  1.00  0.00     0.009 C  
HETATM   24  C   UNL     1      -9.297  11.399  64.846  1.00  0.00    -0.137 C  
HETATM   25  N   UNL     1      -8.465  12.602  66.658  1.00  0.00    -0.049 N  
HETATM   26  O   UNL     1      -6.213  11.831  66.487  1.00  0.00    -0.094 OA 
HETATM   27  C   UNL     1      -7.404  11.798  66.211  1.00  0.00     0.320 C  
BRANCH  25  28
HETATM   28  C   UNL     1      -8.250  13.809  67.365  1.00  0.00    -0.184 A  
HETATM   29  N   UNL     1      -7.164  13.894  68.168  1.00  0.00    -0.105 NA 
HETATM   30  C   UNL     1      -6.877  15.039  68.818  1.00  0.00    -0.105 A  
HETATM   31  C   UNL     1      -7.648  16.173  68.716  1.00  0.00    -0.193 A  
HETATM   32  C   UNL     1      -8.770  16.100  67.900  1.00  0.00    -0.174 A  
HETATM   33  C   UNL     1      -9.077  14.914  67.214  1.00  0.00    -0.211 A  
HETATM   34  C   UNL     1      -9.614  17.248  67.754  1.00  0.00    -0.262 C  
HETATM   35  N   UNL     1     -10.307  18.170  67.630  1.00  0.00    -0.380 NA 
ENDBRANCH  25  28
ENDBRANCH  14  22
ENDBRANCH   1  12
BRANCH   1  36
HETATM   36  C   UNL     1     -10.462   8.122  68.855  1.00  0.00    -0.202 A  
HETATM   37  C   UNL     1     -10.634   6.017  67.554  1.00  0.00    -0.345 A  
HETATM   38  C   UNL     1     -10.014   5.305  68.561  1.00  0.00    -0.227 A  
HETATM   39 CL   UNL     1      -8.696   8.196  70.945  1.00  0.00    -0.140 Cl 
HETATM   40  C   UNL     1      -9.519   6.006  69.660  1.00  0.00    -0.167 A  
HETATM   41  C   UNL     1     -10.877   7.382  67.708  1.00  0.00    -0.186 A  
HETATM   42  C   UNL     1      -9.671   7.411  69.765  1.00  0.00    -0.170 A  
ENDBRANCH   1  36
TORSDOF 7
ENDMDL
MODEL      187
REMARK 921   NORMALIZED FREE ENERGY PREDICTED BY IDOCK:    1.98 KCAL/MOL
REMARK 922        TOTAL FREE ENERGY PREDICTED BY IDOCK:    1.33 KCAL/MOL
REMARK 923 INTER-LIGAND FREE ENERGY PREDICTED BY IDOCK:   -6.68 KCAL/MOL
REMARK 924 INTRA-LIGAND FREE ENERGY PREDICTED BY IDOCK:    8.01 KCAL/MOL
REMARK 927      BINDING AFFINITY PREDICTED BY RF-SCORE:    0.00 PKD
ROOT
HETATM    1  C   UNL     1      -9.817  10.335  68.637  1.00  0.00    -0.173 C  
ENDROOT
BRANCH   1   2
HETATM    2  C   UNL     1      -9.247   9.197  67.652  1.00  0.00    -0.128 C  
HETATM    3  H   UNL     1      -7.301   9.866  67.633  1.00  0.00     0.000 HD 
HETATM    4  N   UNL     1      -7.912   9.130  67.280  1.00  0.00    -0.102 N  
HETATM    5  O   UNL     1     -10.032   8.408  67.128  1.00  0.00    -0.190 OA 
BRANCH   4   6
HETATM    6  C   UNL     1      -7.265   8.071  66.399  1.00  0.00    -0.079 C  
HETATM    7  C   UNL     1      -6.279   7.414  64.618  1.00  0.00    -0.038 C  
HETATM    8  F   UNL     1      -5.807   7.749  63.399  1.00  0.00    -0.053 F  
HETATM    9  C   UNL     1      -7.742   7.838  64.938  1.00  0.00    -0.110 C  
HETATM   10  F   UNL     1      -6.007   6.100  64.791  1.00  0.00    -0.023 F  
HETATM   11  C   UNL     1      -5.861   8.337  65.798  1.00  0.00    -0.041 C  
ENDBRANCH   4   6
ENDBRANCH   1   2
BRANCH   1  12
HETATM   12  N   UNL     1     -10.139  11.620  67.902  1.00  0.00    -0.183 N  
HETATM   13  O   UNL     1     -12.027  10.769  66.885  1.00  0.00     0.272 OA 
HETATM   14  C   UNL     1     -11.277  11.730  67.076  1.00  0.00    -0.322 C  
BRANCH  12  15
HETATM   15  C   UNL     1      -9.257  12.706  68.114  1.00  0.00    -0.209 A  
HETATM   16  C   UNL     1      -9.439  13.607  69.164  1.00  0.00     0.412 A  
HETATM   17  C   UNL     1      -7.209  13.842  67.615  1.00  0.00    -0.174 A  
HETATM   18  N   UNL     1      -8.556  14.586  69.471  1.00  0.00     0.202 NA 
HETATM   19  F   UNL     1      -6.096  13.964  66.883  1.00  0.00     0.331 F  
HETATM   20  C   UNL     1      -8.114  12.834  67.332  1.00  0.00    -0.185 A  
HETATM   21  C   UNL     1      -7.459  14.684  68.680  1.00  0.00    -0.125 A  
ENDBRANCH  12  15
BRANCH  14  22
HETATM   22  C   UNL     1     -11.618  13.136  66.458  1.00  0.00    -0.356 C  
HETATM   23  C   UNL     1     -10.024  13.507  64.705  1.00  0.00    -0.156 C  
HETATM   24  C   UNL     1     -11.457  13.062  64.941  1.00  0.00    -0.348 C  
HETATM   25  N   UNL     1     -10.748  14.259  66.808  1.00  0.00    -0.284 N  
HETATM   26  O   UNL     1      -8.892  15.329  65.758  1.00  0.00    -0.041 OA 
HETATM   27  C   UNL     1      -9.791  14.501  65.810  1.00  0.00    -0.314 C  
BRANCH  25  28
HETATM   28  C   UNL     1     -10.973  15.164  67.873  1.00  0.00    -0.302 A  
HETATM   29  N   UNL     1     -11.726  14.746  68.917  1.00  0.00    -0.300 NA 
HETATM   30  C   UNL     1     -11.922  15.543  69.986  1.00  0.00    -0.364 A  
HETATM   31  C   UNL     1     -11.387  16.805  70.089  1.00  0.00     0.283 A  
HETATM   32  C   UNL     1     -10.616  17.251  69.023  1.00  0.00    -0.247 A  
HETATM   33  C   UNL     1     -10.401  16.428  67.906  1.00  0.00    -0.286 A  
HETATM   34  C   UNL     1     -10.033  18.559  69.070  1.00  0.00    -0.285 C  
HETATM   35  N   UNL     1      -9.557  19.617  69.095  1.00  0.00    -0.333 NA 
ENDBRANCH  25  28
ENDBRANCH  14  22
ENDBRANCH   1  12
BRANCH   1  36
HETATM   36  C   UNL     1     -10.795  10.128  69.823  1.00  0.00    -0.320 A  
HETATM   37  C   UNL     1     -12.796  11.048  70.965  1.00  0.00    -0.442 A  
HETATM   38  C   UNL     1     -12.656  10.150  72.004  1.00  0.00    -0.351 A  
HETATM   39 CL   UNL     1      -9.897   7.661  70.599  1.00  0.00    -0.182 Cl 
HETATM   40  C   UNL     1     -11.667   9.173  71.907  1.00  0.00    -0.436 A  
HETATM   41  C   UNL     1     -11.875  11.057  69.917  1.00  0.00    -0.431 A  
HETATM   42  C   UNL     1     -10.798   9.115  70.788  1.00  0.00    -0.268 A  
ENDBRANCH   1  36
TORSDOF 7
ENDMDL
MODEL      188
REMARK 921   NORMALIZED FREE ENERGY PREDICTED BY IDOCK:    2.41 KCAL/MOL
REMARK 922        TOTAL FREE ENERGY PREDICTED BY IDOCK:    1.93 KCAL/MOL
REMARK 923 INTER-LIGAND FREE ENERGY PREDICTED BY IDOCK:   -4.57 KCAL/MOL
REMARK 924 INTRA-LIGAND FREE ENERGY PREDICTED BY IDOCK:    6.50 KCAL/MOL
REMARK 927      BINDING AFFINITY PREDICTED BY RF-SCORE:    0.00 PKD
ROOT
HETATM    1  C   UNL     1      -8.270   9.624  69.205  1.00  0.00    -0.123 C  
ENDROOT
BRANCH   1   2
HETATM    2  C   UNL     1      -8.916  10.795  68.311  1.00  0.00    -0.143 C  
HETATM    3  H   UNL     1     -10.153  11.543  69.776  1.00  0.00     0.000 HD 
HETATM    4  N   UNL     1      -9.856  11.686  68.811  1.00  0.00    -0.163 N  
HETATM    5  O   UNL     1      -8.646  10.855  67.112  1.00  0.00    -0.128 OA 
BRANCH   4   6
HETATM    6  C   UNL     1     -10.488  12.853  68.068  1.00  0.00    -0.230 C  
HETATM    7  C   UNL     1     -11.642  14.652  67.969  1.00  0.00    -0.340 C  
HETATM    8  F   UNL     1     -12.384  15.557  68.643  1.00  0.00    -0.248 F  
HETATM    9  C   UNL     1     -12.009  13.154  68.185  1.00  0.00    -0.333 C  
HETATM   10  F   UNL     1     -11.611  15.059  66.679  1.00  0.00    -0.353 F  
HETATM   11  C   UNL     1     -10.260  14.296  68.585  1.00  0.00    -0.246 C  
ENDBRANCH   4   6
ENDBRANCH   1   2
BRANCH   1  12
HETATM   12  N   UNL     1      -7.935   8.395  68.385  1.00  0.00    -0.117 N  
HETATM   13  O   UNL     1      -5.844   9.156  67.779  1.00  0.00    -0.042 OA 
HETATM   14  C   UNL     1      -6.689   8.258  67.738  1.00  0.00    -0.066 C  
BRANCH  12  15
HETATM   15  C   UNL     1      -8.925   7.384  68.330  1.00  0.00    -0.134 A  
HETATM   16  C   UNL     1      -9.056   6.429  69.339  1.00  0.00    -0.140 A  
HETATM   17  C   UNL     1     -10.888   6.457  67.320  1.00  0.00    -0.385 A  
HETATM   18  N   UNL     1     -10.060   5.521  69.382  1.00  0.00    -0.213 NA 
HETATM   19  F   UNL     1     -11.811   6.465  66.353  1.00  0.00     0.159 F  
HETATM   20  C   UNL     1      -9.867   7.391  67.307  1.00  0.00    -0.230 A  
HETATM   21  C   UNL     1     -10.953   5.553  68.363  1.00  0.00     0.172 A  
ENDBRANCH  12  15
BRANCH  14  22
HETATM   22  C   UNL     1      -6.365   6.896  67.022  1.00  0.00    -0.045 C  
HETATM   23  C   UNL     1      -7.735   6.827  65.054  1.00  0.00    -0.108 C  
HETATM   24  C   UNL     1      -6.319   7.130  65.513  1.00  0.00    -0.037 C  
HETATM   25  N   UNL     1      -7.348   5.818  67.138  1.00  0.00    -0.076 N  
HETATM   26  O   UNL     1      -9.116   5.007  65.757  1.00  0.00    -0.145 OA 
HETATM   27  C   UNL     1      -8.178   5.751  66.009  1.00  0.00    -0.114 C  
BRANCH  25  28
HETATM   28  C   UNL     1      -7.327   4.799  68.121  1.00  0.00    -0.066 A  
HETATM   29  N   UNL     1      -8.003   3.655  67.868  1.00  0.00    -0.079 NA 
HETATM   30  C   UNL     1      -7.968   2.629  68.741  1.00  0.00    -0.052 A  
HETATM   31  C   UNL     1      -7.262   2.671  69.920  1.00  0.00    -0.040 A  
HETATM   32  C   UNL     1      -6.567   3.841  70.197  1.00  0.00    -0.033 A  
HETATM   33  C   UNL     1      -6.593   4.915  69.294  1.00  0.00    -0.040 A  
HETATM   34  C   UNL     1      -5.815   3.947  71.412  1.00  0.00    -0.013 C  
HETATM   35  N   UNL     1      -5.204   4.045  72.393  1.00  0.00     0.000 NA 
ENDBRANCH  25  28
ENDBRANCH  14  22
ENDBRANCH   1  12
BRANCH   1  36
HETATM   36  C   UNL     1      -7.253   9.797  70.364  1.00  0.00    -0.149 A  
HETATM   37  C   UNL     1      -5.389  11.198  71.212  1.00  0.00    -0.022 A  
HETATM   38  C   UNL     1      -5.133  10.299  72.228  1.00  0.00     0.021 A  
HETATM   39 CL   UNL     1      -8.283   7.887  72.032  1.00  0.00    -0.133 Cl 
HETATM   40  C   UNL     1      -5.994   9.214  72.386  1.00  0.00     0.017 A  
HETATM   41  C   UNL     1      -6.402  10.941  70.288  1.00  0.00    -0.135 A  
HETATM   42  C   UNL     1      -7.090   9.012  71.510  1.00  0.00    -0.013 A  
ENDBRANCH   1  36
TORSDOF 7
ENDMDL
MODEL      189
REMARK 921   NORMALIZED FREE ENERGY PREDICTED BY IDOCK:    2.55 KCAL/MOL
REMARK 922        TOTAL FREE ENERGY PREDICTED BY IDOCK:    2.14 KCAL/MOL
REMARK 923 INTER-LIGAND FREE ENERGY PREDICTED BY IDOCK:   -4.75 KCAL/MOL
REMARK 924 INTRA-LIGAND FREE ENERGY PREDICTED BY IDOCK:    6.89 KCAL/MOL
REMARK 927      BINDING AFFINITY PREDICTED BY RF-SCORE:    0.00 PKD
ROOT
HETATM    1  C   UNL     1      -6.353   6.841  70.419  1.00  0.00    -0.042 C  
ENDROOT
BRANCH   1   2
HETATM    2  C   UNL     1      -5.883   7.894  69.296  1.00  0.00    -0.030 C  
HETATM    3  H   UNL     1      -6.705   6.899  67.693  1.00  0.00     0.000 HD 
HETATM    4  N   UNL     1      -6.191   7.741  67.952  1.00  0.00    -0.048 N  
HETATM    5  O   UNL     1      -5.144   8.824  69.616  1.00  0.00    -0.030 OA 
BRANCH   4   6
HETATM    6  C   UNL     1      -5.840   8.699  66.824  1.00  0.00    -0.052 C  
HETATM    7  C   UNL     1      -6.141   9.559  64.888  1.00  0.00    -0.078 C  
HETATM    8  F   UNL     1      -6.863   9.550  63.748  1.00  0.00    -0.094 F  
HETATM    9  C   UNL     1      -5.596   8.184  65.377  1.00  0.00    -0.040 C  
HETATM   10  F   UNL     1      -5.212  10.533  64.751  1.00  0.00    -0.086 F  
HETATM   11  C   UNL     1      -6.948   9.596  66.216  1.00  0.00    -0.092 C  
ENDBRANCH   4   6
ENDBRANCH   1   2
BRANCH   1  12
HETATM   12  N   UNL     1      -7.712   7.183  70.994  1.00  0.00    -0.089 N  
HETATM   13  O   UNL     1      -6.854   8.103  72.928  1.00  0.00    -0.086 OA 
HETATM   14  C   UNL     1      -7.842   7.832  72.240  1.00  0.00    -0.108 C  
BRANCH  12  15
HETATM   15  C   UNL     1      -8.835   6.845  70.202  1.00  0.00    -0.145 A  
HETATM   16  C   UNL     1      -9.370   7.734  69.269  1.00  0.00    -0.148 A  
HETATM   17  C   UNL     1     -10.402   5.215  69.414  1.00  0.00    -0.195 A  
HETATM   18  N   UNL     1     -10.366   7.408  68.412  1.00  0.00    -0.191 NA 
HETATM   19  F   UNL     1     -10.910   3.979  69.451  1.00  0.00     0.883 F  
HETATM   20  C   UNL     1      -9.368   5.562  70.266  1.00  0.00    -0.194 A  
HETATM   21  C   UNL     1     -10.865   6.151  68.510  1.00  0.00    -0.314 A  
ENDBRANCH  12  15
BRANCH  14  22
HETATM   22  C   UNL     1      -9.277   8.277  72.704  1.00  0.00    -0.274 C  
HETATM   23  C   UNL     1     -10.531   6.260  73.041  1.00  0.00    -0.249 C  
HETATM   24  C   UNL     1      -9.759   7.326  73.799  1.00  0.00    -0.344 C  
HETATM   25  N   UNL     1     -10.361   8.196  71.724  1.00  0.00    -0.215 N  
HETATM   26  O   UNL     1     -12.070   6.602  71.244  1.00  0.00    -0.348 OA 
HETATM   27  C   UNL     1     -11.114   7.022  71.881  1.00  0.00    -0.242 C  
BRANCH  25  28
HETATM   28  C   UNL     1     -10.784   9.257  70.888  1.00  0.00    -0.301 A  
HETATM   29  N   UNL     1     -12.103   9.558  70.856  1.00  0.00    -0.292 NA 
HETATM   30  C   UNL     1     -12.554  10.597  70.125  1.00  0.00    -0.214 A  
HETATM   31  C   UNL     1     -11.728  11.403  69.378  1.00  0.00    -0.406 A  
HETATM   32  C   UNL     1     -10.371  11.104  69.395  1.00  0.00    -0.090 A  
HETATM   33  C   UNL     1      -9.889  10.027  70.157  1.00  0.00    -0.205 A  
HETATM   34  C   UNL     1      -9.460  11.905  68.635  1.00  0.00    -0.080 C  
HETATM   35  N   UNL     1      -8.712  12.546  68.021  1.00  0.00    -0.179 NA 
ENDBRANCH  25  28
ENDBRANCH  14  22
ENDBRANCH   1  12
BRANCH   1  36
HETATM   36  C   UNL     1      -6.148   5.303  70.389  1.00  0.00    -0.022 A  
HETATM   37  C   UNL     1      -5.870   3.338  68.900  1.00  0.00    -0.023 A  
HETATM   38  C   UNL     1      -5.956   2.473  69.972  1.00  0.00    -0.023 A  
HETATM   39 CL   UNL     1      -5.733   4.947  73.071  1.00  0.00    -0.013 Cl 
HETATM   40  C   UNL     1      -6.024   3.012  71.255  1.00  0.00    -0.014 A  
HETATM   41  C   UNL     1      -5.991   4.714  69.099  1.00  0.00    -0.022 A  
HETATM   42  C   UNL     1      -6.038   4.414  71.464  1.00  0.00    -0.017 A  
ENDBRANCH   1  36
TORSDOF 7
ENDMDL
MODEL      190
REMARK 921   NORMALIZED FREE ENERGY PREDICTED BY IDOCK:    2.76 KCAL/MOL
REMARK 922        TOTAL FREE ENERGY PREDICTED BY IDOCK:    2.43 KCAL/MOL
REMARK 923 INTER-LIGAND FREE ENERGY PREDICTED BY IDOCK:   -5.11 KCAL/MOL
REMARK 924 INTRA-LIGAND FREE ENERGY PREDICTED BY IDOCK:    7.54 KCAL/MOL
REMARK 927      BINDING AFFINITY PREDICTED BY RF-SCORE:    0.00 PKD
ROOT
HETATM    1  C   UNL     1     -10.770  14.872  67.121  1.00  0.00    -0.296 C  
ENDROOT
BRANCH   1   2
HETATM    2  C   UNL     1     -11.167  14.492  68.634  1.00  0.00    -0.261 C  
HETATM    3  H   UNL     1     -11.754  16.383  69.196  1.00  0.00     0.000 HD 
HETATM    4  N   UNL     1     -11.675  15.423  69.530  1.00  0.00    -0.325 N  
HETATM    5  O   UNL     1     -10.927  13.360  69.052  1.00  0.00    -0.258 OA 
BRANCH   4   6
HETATM    6  C   UNL     1     -12.126  15.158  70.958  1.00  0.00    -0.333 C  
HETATM    7  C   UNL     1     -13.276  15.596  72.708  1.00  0.00    -0.516 C  
HETATM    8  F   UNL     1     -14.159  16.426  73.301  1.00  0.00    -0.655 F  
HETATM    9  C   UNL     1     -12.030  16.260  72.050  1.00  0.00    -0.544 C  
HETATM   10  F   UNL     1     -13.004  14.617  73.602  1.00  0.00    -0.578 F  
HETATM   11  C   UNL     1     -13.641  15.104  71.279  1.00  0.00    -0.559 C  
ENDBRANCH   4   6
ENDBRANCH   1   2
BRANCH   1  12
HETATM   12  N   UNL     1      -9.622  15.859  67.060  1.00  0.00    -0.219 N  
HETATM   13  O   UNL     1     -10.663  17.243  65.538  1.00  0.00    -0.515 OA 
HETATM   14  C   UNL     1      -9.687  17.016  66.256  1.00  0.00    -0.283 C  
BRANCH  12  15
HETATM   15  C   UNL     1      -8.500  15.571  67.874  1.00  0.00    -0.143 A  
HETATM   16  C   UNL     1      -8.414  16.020  69.193  1.00  0.00    -0.247 A  
HETATM   17  C   UNL     1      -6.454  14.381  68.241  1.00  0.00    -0.115 A  
HETATM   18  N   UNL     1      -7.417  15.669  70.038  1.00  0.00     0.091 NA 
HETATM   19  F   UNL     1      -5.493  13.561  67.804  1.00  0.00    -0.104 F  
HETATM   20  C   UNL     1      -7.495  14.734  67.400  1.00  0.00    -0.221 A  
HETATM   21  C   UNL     1      -6.452  14.859  69.537  1.00  0.00    -0.143 A  
ENDBRANCH  12  15
BRANCH  14  22
HETATM   22  C   UNL     1      -8.514  18.059  66.353  1.00  0.00    -0.235 C  
HETATM   23  C   UNL     1      -6.497  16.851  65.879  1.00  0.00     0.692 C  
HETATM   24  C   UNL     1      -7.511  17.780  65.235  1.00  0.00     1.238 C  
HETATM   25  N   UNL     1      -7.667  18.019  67.546  1.00  0.00    -0.211 N  
HETATM   26  O   UNL     1      -5.551  17.049  68.065  1.00  0.00    -0.115 OA 
HETATM   27  C   UNL     1      -6.479  17.309  67.312  1.00  0.00    -0.157 C  
BRANCH  25  28
HETATM   28  C   UNL     1      -7.866  18.796  68.712  1.00  0.00    -0.310 A  
HETATM   29  N   UNL     1      -9.135  19.097  69.070  1.00  0.00    -0.287 NA 
HETATM   30  C   UNL     1      -9.386  19.782  70.203  1.00  0.00     0.931 A  
HETATM   31  C   UNL     1      -8.396  20.213  71.054  1.00  0.00     1.933 A  
HETATM   32  C   UNL     1      -7.086  19.916  70.698  1.00  0.00     0.473 A  
HETATM   33  C   UNL     1      -6.813  19.200  69.522  1.00  0.00    -0.243 A  
HETATM   34  C   UNL     1      -6.010  20.341  71.543  1.00  0.00    -0.248 C  
HETATM   35  N   UNL     1      -5.130  20.681  72.218  1.00  0.00    -0.430 NA 
ENDBRANCH  25  28
ENDBRANCH  14  22
ENDBRANCH   1  12
BRANCH   1  36
HETATM   36  C   UNL     1     -10.722  13.908  65.907  1.00  0.00    -0.286 A  
HETATM   37  C   UNL     1      -9.781  11.770  65.070  1.00  0.00    -0.212 A  
HETATM   38  C   UNL     1     -10.267  12.015  63.801  1.00  0.00    -0.447 A  
HETATM   39 CL   UNL     1     -12.651  15.136  64.401  1.00  0.00    -0.153 Cl 
HETATM   40  C   UNL     1     -11.070  13.138  63.604  1.00  0.00    -0.172 A  
HETATM   41  C   UNL     1      -9.978  12.704  66.088  1.00  0.00    -0.269 A  
HETATM   42  C   UNL     1     -11.359  14.030  64.667  1.00  0.00    -0.375 A  
ENDBRANCH   1  36
TORSDOF 7
ENDMDL
MODEL      191
REMARK 921   NORMALIZED FREE ENERGY PREDICTED BY IDOCK:    2.85 KCAL/MOL
REMARK 922        TOTAL FREE ENERGY PREDICTED BY IDOCK:    2.57 KCAL/MOL
REMARK 923 INTER-LIGAND FREE ENERGY PREDICTED BY IDOCK:   -6.09 KCAL/MOL
REMARK 924 INTRA-LIGAND FREE ENERGY PREDICTED BY IDOCK:    8.66 KCAL/MOL
REMARK 927      BINDING AFFINITY PREDICTED BY RF-SCORE:    0.00 PKD
ROOT
HETATM    1  C   UNL     1      -9.938  10.222  66.995  1.00  0.00    -0.201 C  
ENDROOT
BRANCH   1   2
HETATM    2  C   UNL     1      -9.909   9.220  68.253  1.00  0.00    -0.158 C  
HETATM    3  H   UNL     1      -8.163   9.935  69.075  1.00  0.00     0.000 HD 
HETATM    4  N   UNL     1      -8.912   9.257  69.217  1.00  0.00    -0.142 N  
HETATM    5  O   UNL     1     -10.746   8.320  68.323  1.00  0.00    -0.142 OA 
BRANCH   4   6
HETATM    6  C   UNL     1      -8.820   8.392  70.465  1.00  0.00    -0.148 C  
HETATM    7  C   UNL     1      -8.710   8.102  72.582  1.00  0.00    -0.213 C  
HETATM    8  F   UNL     1      -8.645   8.680  73.800  1.00  0.00    -0.262 F  
HETATM    9  C   UNL     1      -7.695   8.611  71.516  1.00  0.00    -0.152 C  
HETATM   10  F   UNL     1      -8.709   6.764  72.788  1.00  0.00    -0.122 F  
HETATM   11  C   UNL     1      -9.820   8.625  71.627  1.00  0.00    -0.351 C  
ENDBRANCH   4   6
ENDBRANCH   1   2
BRANCH   1  12
HETATM   12  N   UNL     1      -9.467  11.615  67.361  1.00  0.00    -0.166 N  
HETATM   13  O   UNL     1      -7.342  11.307  66.520  1.00  0.00    -0.143 OA 
HETATM   14  C   UNL     1      -8.162  12.056  67.056  1.00  0.00    -0.169 C  
BRANCH  12  15
HETATM   15  C   UNL     1     -10.414  12.454  67.995  1.00  0.00    -0.217 A  
HETATM   16  C   UNL     1     -11.288  13.260  67.265  1.00  0.00    -0.314 A  
HETATM   17  C   UNL     1     -11.561  13.161  69.975  1.00  0.00    -0.131 A  
HETATM   18  N   UNL     1     -12.283  13.985  67.828  1.00  0.00    -0.272 NA 
HETATM   19  F   UNL     1     -11.729  13.112  71.301  1.00  0.00    -0.052 F  
HETATM   20  C   UNL     1     -10.564  12.410  69.378  1.00  0.00     0.200 A  
HETATM   21  C   UNL     1     -12.392  13.923  69.177  1.00  0.00    -0.122 A  
ENDBRANCH  12  15
BRANCH  14  22
HETATM   22  C   UNL     1      -7.795  13.558  67.344  1.00  0.00    -0.147 C  
HETATM   23  C   UNL     1      -7.841  13.818  69.727  1.00  0.00     0.947 C  
HETATM   24  C   UNL     1      -6.881  13.617  68.567  1.00  0.00    -0.098 C  
HETATM   25  N   UNL     1      -8.881  14.461  67.724  1.00  0.00    -0.178 N  
HETATM   26  O   UNL     1      -9.727  15.283  69.797  1.00  0.00    -0.240 OA 
HETATM   27  C   UNL     1      -8.949  14.630  69.115  1.00  0.00    -0.025 C  
BRANCH  25  28
HETATM   28  C   UNL     1      -9.618  15.272  66.827  1.00  0.00    -0.241 A  
HETATM   29  N   UNL     1      -9.453  16.613  66.899  1.00  0.00    -0.228 NA 
HETATM   30  C   UNL     1     -10.081  17.431  66.031  1.00  0.00    -0.262 A  
HETATM   31  C   UNL     1     -10.914  16.972  65.038  1.00  0.00     0.010 A  
HETATM   32  C   UNL     1     -11.099  15.597  64.955  1.00  0.00    -0.414 A  
HETATM   33  C   UNL     1     -10.446  14.736  65.851  1.00  0.00    -0.324 A  
HETATM   34  C   UNL     1     -11.957  15.059  63.943  1.00  0.00     0.135 C  
HETATM   35  N   UNL     1     -12.652  14.610  63.129  1.00  0.00     0.174 NA 
ENDBRANCH  25  28
ENDBRANCH  14  22
ENDBRANCH   1  12
BRANCH   1  36
HETATM   36  C   UNL     1      -9.546   9.884  65.532  1.00  0.00    -0.341 A  
HETATM   37  C   UNL     1      -8.213   8.350  64.109  1.00  0.00    -0.122 A  
HETATM   38  C   UNL     1      -8.477   9.109  62.987  1.00  0.00    -0.206 A  
HETATM   39 CL   UNL     1     -11.290  11.592  64.293  1.00  0.00    -0.364 Cl 
HETATM   40  C   UNL     1      -9.358  10.183  63.105  1.00  0.00    -0.333 A  
HETATM   41  C   UNL     1      -8.710   8.742  65.353  1.00  0.00    -0.217 A  
HETATM   42  C   UNL     1      -9.948  10.516  64.350  1.00  0.00    -0.343 A  
ENDBRANCH   1  36
TORSDOF 7
ENDMDL
MODEL      192
REMARK 921   NORMALIZED FREE ENERGY PREDICTED BY IDOCK:    3.11 KCAL/MOL
REMARK 922        TOTAL FREE ENERGY PREDICTED BY IDOCK:    2.93 KCAL/MOL
REMARK 923 INTER-LIGAND FREE ENERGY PREDICTED BY IDOCK:   -3.65 KCAL/MOL
REMARK 924 INTRA-LIGAND FREE ENERGY PREDICTED BY IDOCK:    6.59 KCAL/MOL
REMARK 927      BINDING AFFINITY PREDICTED BY RF-SCORE:    0.00 PKD
ROOT
HETATM    1  C   UNL     1      -9.189   9.043  67.216  1.00  0.00    -0.134 C  
ENDROOT
BRANCH   1   2
HETATM    2  C   UNL     1      -9.061   7.810  66.191  1.00  0.00    -0.153 C  
HETATM    3  H   UNL     1      -9.991   6.419  67.390  1.00  0.00     0.000 HD 
HETATM    4  N   UNL     1      -9.562   6.546  66.473  1.00  0.00    -0.160 N  
HETATM    5  O   UNL     1      -8.414   7.955  65.154  1.00  0.00    -0.143 OA 
BRANCH   4   6
HETATM    6  C   UNL     1      -9.537   5.332  65.558  1.00  0.00     0.006 C  
HETATM    7  C   UNL     1      -8.698   3.498  64.843  1.00  0.00    -0.115 C  
HETATM    8  F   UNL     1      -7.695   2.601  64.942  1.00  0.00    -0.071 F  
HETATM    9  C   UNL     1      -8.283   4.993  64.704  1.00  0.00    -0.128 C  
HETATM   10  F   UNL     1      -9.535   3.040  63.884  1.00  0.00    -0.108 F  
HETATM   11  C   UNL     1      -9.383   3.918  66.174  1.00  0.00    -0.179 C  
ENDBRANCH   4   6
ENDBRANCH   1   2
BRANCH   1  12
HETATM   12  N   UNL     1      -7.844   9.477  67.762  1.00  0.00    -0.095 N  
HETATM   13  O   UNL     1      -8.034  11.642  66.988  1.00  0.00    -0.152 OA 
HETATM   14  C   UNL     1      -7.380  10.801  67.611  1.00  0.00    -0.094 C  
BRANCH  12  15
HETATM   15  C   UNL     1      -7.098   8.494  68.455  1.00  0.00    -0.084 A  
HETATM   16  C   UNL     1      -5.987   7.875  67.882  1.00  0.00    -0.042 A  
HETATM   17  C   UNL     1      -6.602   7.310  70.476  1.00  0.00    -0.047 A  
HETATM   18  N   UNL     1      -5.179   7.020  68.552  1.00  0.00    -0.016 NA 
HETATM   19  F   UNL     1      -6.871   7.033  71.757  1.00  0.00    -0.057 F  
HETATM   20  C   UNL     1      -7.402   8.199  69.780  1.00  0.00    -0.065 A  
HETATM   21  C   UNL     1      -5.512   6.751  69.838  1.00  0.00    -0.015 A  
ENDBRANCH  12  15
BRANCH  14  22
HETATM   22  C   UNL     1      -6.039  11.208  68.324  1.00  0.00    -0.045 C  
HETATM   23  C   UNL     1      -6.244  10.493  70.604  1.00  0.00    -0.065 C  
HETATM   24  C   UNL     1      -5.626  10.088  69.277  1.00  0.00    -0.038 C  
HETATM   25  N   UNL     1      -6.068  12.373  69.208  1.00  0.00    -0.087 N  
HETATM   26  O   UNL     1      -6.279  12.681  71.564  1.00  0.00     0.426 OA 
HETATM   27  C   UNL     1      -6.198  11.996  70.554  1.00  0.00     0.216 C  
BRANCH  25  28
HETATM   28  C   UNL     1      -5.750  13.697  68.823  1.00  0.00    -0.083 A  
HETATM   29  N   UNL     1      -5.409  13.921  67.533  1.00  0.00    -0.342 NA 
HETATM   30  C   UNL     1      -5.156  15.171  67.096  1.00  0.00     0.696 A  
HETATM   31  C   UNL     1      -5.222  16.278  67.909  1.00  0.00    -0.130 A  
HETATM   32  C   UNL     1      -5.565  16.064  69.238  1.00  0.00    -0.116 A  
HETATM   33  C   UNL     1      -5.835  14.767  69.703  1.00  0.00    -0.104 A  
HETATM   34  C   UNL     1      -5.649  17.177  70.135  1.00  0.00    -0.236 C  
HETATM   35  N   UNL     1      -5.717  18.070  70.872  1.00  0.00     0.006 NA 
ENDBRANCH  25  28
ENDBRANCH  14  22
ENDBRANCH   1  12
BRANCH   1  36
HETATM   36  C   UNL     1     -10.140  10.262  67.085  1.00  0.00    -0.259 A  
HETATM   37  C   UNL     1     -11.389  11.675  65.473  1.00  0.00    -0.224 A  
HETATM   38  C   UNL     1     -11.736  12.563  66.470  1.00  0.00    -0.454 A  
HETATM   39 CL   UNL     1     -10.643  10.611  69.753  1.00  0.00    -0.261 Cl 
HETATM   40  C   UNL     1     -11.389  12.253  67.784  1.00  0.00    -0.362 A  
HETATM   41  C   UNL     1     -10.589  10.570  65.765  1.00  0.00    -0.137 A  
HETATM   42  C   UNL     1     -10.669  11.073  68.095  1.00  0.00    -0.205 A  
ENDBRANCH   1  36
TORSDOF 7
ENDMDL
MODEL      193
REMARK 921   NORMALIZED FREE ENERGY PREDICTED BY IDOCK:    3.52 KCAL/MOL
REMARK 922        TOTAL FREE ENERGY PREDICTED BY IDOCK:    3.51 KCAL/MOL
REMARK 923 INTER-LIGAND FREE ENERGY PREDICTED BY IDOCK:   -5.53 KCAL/MOL
REMARK 924 INTRA-LIGAND FREE ENERGY PREDICTED BY IDOCK:    9.04 KCAL/MOL
REMARK 927      BINDING AFFINITY PREDICTED BY RF-SCORE:    0.00 PKD
ROOT
HETATM    1  C   UNL     1      -6.633   6.900  69.638  1.00  0.00    -0.048 C  
ENDROOT
BRANCH   1   2
HETATM    2  C   UNL     1      -6.252   8.068  68.599  1.00  0.00    -0.044 C  
HETATM    3  H   UNL     1      -6.647   6.991  66.891  1.00  0.00     0.000 HD 
HETATM    4  N   UNL     1      -6.352   7.908  67.224  1.00  0.00    -0.054 N  
HETATM    5  O   UNL     1      -5.763   9.114  69.024  1.00  0.00    -0.036 OA 
BRANCH   4   6
HETATM    6  C   UNL     1      -6.065   8.959  66.163  1.00  0.00    -0.056 C  
HETATM    7  C   UNL     1      -6.502  10.010  64.351  1.00  0.00    -0.131 C  
HETATM    8  F   UNL     1      -7.321  10.131  63.285  1.00  0.00    -0.129 F  
HETATM    9  C   UNL     1      -5.968   8.580  64.659  1.00  0.00    -0.064 C  
HETATM   10  F   UNL     1      -5.553  10.965  64.221  1.00  0.00    -0.141 F  
HETATM   11  C   UNL     1      -7.189   9.942  65.745  1.00  0.00    -0.110 C  
ENDBRANCH   4   6
ENDBRANCH   1   2
BRANCH   1  12
HETATM   12  N   UNL     1      -8.042   7.047  70.175  1.00  0.00    -0.128 N  
HETATM   13  O   UNL     1      -7.360   7.502  72.331  1.00  0.00    -0.070 OA 
HETATM   14  C   UNL     1      -8.286   7.371  71.526  1.00  0.00    -0.104 C  
BRANCH  12  15
HETATM   15  C   UNL     1      -9.093   6.873  69.243  1.00  0.00    -0.140 A  
HETATM   16  C   UNL     1      -9.605   7.940  68.504  1.00  0.00    -0.150 A  
HETATM   17  C   UNL     1     -10.526   5.428  67.980  1.00  0.00    -0.123 A  
HETATM   18  N   UNL     1     -10.526   7.795  67.522  1.00  0.00    -0.261 NA 
HETATM   19  F   UNL     1     -10.977   4.204  67.689  1.00  0.00     0.730 F  
HETATM   20  C   UNL     1      -9.569   5.595  68.965  1.00  0.00    -0.174 A  
HETATM   21  C   UNL     1     -10.971   6.537  67.286  1.00  0.00    -0.400 A  
ENDBRANCH  12  15
BRANCH  14  22
HETATM   22  C   UNL     1      -9.769   7.642  71.973  1.00  0.00    -0.166 C  
HETATM   23  C   UNL     1     -11.052   5.758  71.226  1.00  0.00    -0.267 C  
HETATM   24  C   UNL     1     -10.384   6.332  72.464  1.00  0.00    -0.214 C  
HETATM   25  N   UNL     1     -10.721   8.065  70.945  1.00  0.00    -0.218 N  
HETATM   26  O   UNL     1     -12.352   6.946  69.611  1.00  0.00     0.290 OA 
HETATM   27  C   UNL     1     -11.485   6.986  70.473  1.00  0.00    -0.319 C  
BRANCH  25  28
HETATM   28  C   UNL     1     -11.036   9.408  70.630  1.00  0.00    -0.289 A  
HETATM   29  N   UNL     1     -10.486   9.949  69.519  1.00  0.00    -0.224 NA 
HETATM   30  C   UNL     1     -10.799  11.204  69.137  1.00  0.00    -0.238 A  
HETATM   31  C   UNL     1     -11.675  12.003  69.833  1.00  0.00    -0.374 A  
HETATM   32  C   UNL     1     -12.244  11.464  70.980  1.00  0.00    -0.391 A  
HETATM   33  C   UNL     1     -11.929  10.157  71.385  1.00  0.00    -0.447 A  
HETATM   34  C   UNL     1     -13.163  12.248  71.750  1.00  0.00    -0.326 C  
HETATM   35  N   UNL     1     -13.907  12.875  72.382  1.00  0.00    -0.526 NA 
ENDBRANCH  25  28
ENDBRANCH  14  22
ENDBRANCH   1  12
BRANCH   1  36
HETATM   36  C   UNL     1      -6.248   5.401  69.529  1.00  0.00    -0.029 A  
HETATM   37  C   UNL     1      -5.493   3.418  70.814  1.00  0.00    -0.012 A  
HETATM   38  C   UNL     1      -5.301   2.698  69.653  1.00  0.00    -0.012 A  
HETATM   39 CL   UNL     1      -7.007   5.028  66.925  1.00  0.00    -0.063 Cl 
HETATM   40  C   UNL     1      -5.683   3.276  68.443  1.00  0.00    -0.022 A  
HETATM   41  C   UNL     1      -5.927   4.743  70.753  1.00  0.00    -0.018 A  
HETATM   42  C   UNL     1      -6.226   4.584  68.393  1.00  0.00    -0.032 A  
ENDBRANCH   1  36
TORSDOF 7
ENDMDL
MODEL      194
REMARK 921   NORMALIZED FREE ENERGY PREDICTED BY IDOCK:    3.67 KCAL/MOL
REMARK 922        TOTAL FREE ENERGY PREDICTED BY IDOCK:    3.71 KCAL/MOL
REMARK 923 INTER-LIGAND FREE ENERGY PREDICTED BY IDOCK:   -6.62 KCAL/MOL
REMARK 924 INTRA-LIGAND FREE ENERGY PREDICTED BY IDOCK:   10.32 KCAL/MOL
REMARK 927      BINDING AFFINITY PREDICTED BY RF-SCORE:    0.00 PKD
ROOT
HETATM    1  C   UNL     1      -9.654  10.239  68.897  1.00  0.00    -0.190 C  
ENDROOT
BRANCH   1   2
HETATM    2  C   UNL     1      -9.191   9.089  67.872  1.00  0.00    -0.141 C  
HETATM    3  H   UNL     1     -10.993   8.096  67.816  1.00  0.00     0.000 HD 
HETATM    4  N   UNL     1     -10.049   8.091  67.430  1.00  0.00    -0.205 N  
HETATM    5  O   UNL     1      -8.010   9.025  67.534  1.00  0.00    -0.100 OA 
BRANCH   4   6
HETATM    6  C   UNL     1      -9.727   6.993  66.429  1.00  0.00    -0.068 C  
HETATM    7  C   UNL     1      -9.196   4.989  65.901  1.00  0.00    -0.157 C  
HETATM    8  F   UNL     1      -8.870   3.753  66.338  1.00  0.00    -0.111 F  
HETATM    9  C   UNL     1      -8.407   6.177  66.525  1.00  0.00    -0.113 C  
HETATM   10  F   UNL     1      -9.187   4.936  64.549  1.00  0.00    -0.158 F  
HETATM   11  C   UNL     1     -10.463   5.632  66.531  1.00  0.00    -0.309 C  
ENDBRANCH   4   6
ENDBRANCH   1   2
BRANCH   1  12
HETATM   12  N   UNL     1     -10.056  11.514  68.185  1.00  0.00    -0.187 N  
HETATM   13  O   UNL     1     -12.059  10.662  67.423  1.00  0.00     0.285 OA 
HETATM   14  C   UNL     1     -11.287  11.620  67.503  1.00  0.00    -0.298 C  
BRANCH  12  15
HETATM   15  C   UNL     1      -9.148  12.597  68.268  1.00  0.00    -0.181 A  
HETATM   16  C   UNL     1      -9.188  13.510  69.322  1.00  0.00     0.728 A  
HETATM   17  C   UNL     1      -7.178  13.714  67.492  1.00  0.00    -0.156 A  
HETATM   18  N   UNL     1      -8.266  14.486  69.500  1.00  0.00     0.127 NA 
HETATM   19  F   UNL     1      -6.170  13.821  66.620  1.00  0.00     0.868 F  
HETATM   20  C   UNL     1      -8.117  12.709  67.341  1.00  0.00    -0.182 A  
HETATM   21  C   UNL     1      -7.282  14.569  68.572  1.00  0.00    -0.120 A  
ENDBRANCH  12  15
BRANCH  14  22
HETATM   22  C   UNL     1     -11.692  13.017  66.906  1.00  0.00    -0.383 C  
HETATM   23  C   UNL     1     -10.420  13.286  64.892  1.00  0.00    -0.387 C  
HETATM   24  C   UNL     1     -11.801  12.894  65.388  1.00  0.00    -0.444 C  
HETATM   25  N   UNL     1     -10.745  14.121  67.061  1.00  0.00    -0.283 N  
HETATM   26  O   UNL     1      -9.074  15.101  65.669  1.00  0.00    -0.099 OA 
HETATM   27  C   UNL     1      -9.971  14.304  65.905  1.00  0.00    -0.319 C  
BRANCH  25  28
HETATM   28  C   UNL     1     -10.756  15.063  68.119  1.00  0.00    -0.256 A  
HETATM   29  N   UNL     1     -10.050  16.206  67.962  1.00  0.00    -0.238 NA 
HETATM   30  C   UNL     1     -10.074  17.164  68.910  1.00  0.00    -0.322 A  
HETATM   31  C   UNL     1     -10.797  17.050  70.074  1.00  0.00     0.239 A  
HETATM   32  C   UNL     1     -11.524  15.879  70.252  1.00  0.00    -0.376 A  
HETATM   33  C   UNL     1     -11.510  14.876  69.269  1.00  0.00    -0.324 A  
HETATM   34  C   UNL     1     -12.296  15.700  71.445  1.00  0.00    -0.426 C  
HETATM   35  N   UNL     1     -12.923  15.543  72.408  1.00  0.00    -0.386 NA 
ENDBRANCH  25  28
ENDBRANCH  14  22
ENDBRANCH   1  12
BRANCH   1  36
HETATM   36  C   UNL     1     -10.498  10.048  70.185  1.00  0.00    -0.338 A  
HETATM   37  C   UNL     1     -10.780   8.653  72.217  1.00  0.00    -0.383 A  
HETATM   38  C   UNL     1     -11.957   9.299  72.537  1.00  0.00     0.131 A  
HETATM   39 CL   UNL     1     -11.950  12.361  70.007  1.00  0.00    -0.402 Cl 
HETATM   40  C   UNL     1     -12.350  10.385  71.757  1.00  0.00    -0.313 A  
HETATM   41  C   UNL     1     -10.084   8.997  71.058  1.00  0.00    -0.352 A  
HETATM   42  C   UNL     1     -11.583  10.804  70.640  1.00  0.00    -0.290 A  
ENDBRANCH   1  36
TORSDOF 7
ENDMDL
MODEL      195
REMARK 921   NORMALIZED FREE ENERGY PREDICTED BY IDOCK:    3.67 KCAL/MOL
REMARK 922        TOTAL FREE ENERGY PREDICTED BY IDOCK:    3.71 KCAL/MOL
REMARK 923 INTER-LIGAND FREE ENERGY PREDICTED BY IDOCK:   -7.10 KCAL/MOL
REMARK 924 INTRA-LIGAND FREE ENERGY PREDICTED BY IDOCK:   10.81 KCAL/MOL
REMARK 927      BINDING AFFINITY PREDICTED BY RF-SCORE:    0.00 PKD
ROOT
HETATM    1  C   UNL     1      -9.935  17.289  66.893  1.00  0.00    -0.294 C  
ENDROOT
BRANCH   1   2
HETATM    2  C   UNL     1     -10.810  16.627  65.716  1.00  0.00    -0.104 C  
HETATM    3  H   UNL     1     -10.561  14.675  66.318  1.00  0.00     0.000 HD 
HETATM    4  N   UNL     1     -11.022  15.258  65.620  1.00  0.00    -0.343 N  
HETATM    5  O   UNL     1     -11.234  17.341  64.809  1.00  0.00    -0.890 OA 
BRANCH   4   6
HETATM    6  C   UNL     1     -11.869  14.540  64.582  1.00  0.00    -0.453 C  
HETATM    7  C   UNL     1     -12.823  12.808  63.765  1.00  0.00    -0.038 C  
HETATM    8  F   UNL     1     -13.043  11.481  63.876  1.00  0.00    -0.389 F  
HETATM    9  C   UNL     1     -11.341  13.277  63.845  1.00  0.00    -0.360 C  
HETATM   10  F   UNL     1     -13.502  13.223  62.670  1.00  0.00     1.143 F  
HETATM   11  C   UNL     1     -13.054  13.656  65.048  1.00  0.00    -0.061 C  
ENDBRANCH   4   6
ENDBRANCH   1   2
BRANCH   1  12
HETATM   12  N   UNL     1      -9.236  16.247  67.743  1.00  0.00    -0.203 N  
HETATM   13  O   UNL     1     -11.157  15.035  68.145  1.00  0.00    -0.268 OA 
HETATM   14  C   UNL     1      -9.939  15.156  68.296  1.00  0.00    -0.223 C  
BRANCH  12  15
HETATM   15  C   UNL     1      -7.842  16.413  67.924  1.00  0.00    -0.152 A  
HETATM   16  C   UNL     1      -6.925  16.056  66.936  1.00  0.00    -0.104 A  
HETATM   17  C   UNL     1      -6.005  17.288  69.186  1.00  0.00    -0.205 A  
HETATM   18  N   UNL     1      -5.597  16.306  67.023  1.00  0.00    -0.345 NA 
HETATM   19  F   UNL     1      -5.532  17.912  70.271  1.00  0.00    -0.201 F  
HETATM   20  C   UNL     1      -7.362  17.043  69.068  1.00  0.00    -0.225 A  
HETATM   21  C   UNL     1      -5.166  16.914  68.155  1.00  0.00    -0.116 A  
ENDBRANCH  12  15
BRANCH  14  22
HETATM   22  C   UNL     1      -9.119  14.045  69.050  1.00  0.00     0.162 C  
HETATM   23  C   UNL     1      -6.820  14.383  68.455  1.00  0.00    -0.106 C  
HETATM   24  C   UNL     1      -7.818  14.657  69.567  1.00  0.00     0.028 C  
HETATM   25  N   UNL     1      -8.637  12.908  68.266  1.00  0.00    -0.183 N  
HETATM   26  O   UNL     1      -6.567  12.354  67.217  1.00  0.00    -0.150 OA 
HETATM   27  C   UNL     1      -7.296  13.073  67.887  1.00  0.00    -0.128 C  
BRANCH  25  28
HETATM   28  C   UNL     1      -9.320  11.677  68.110  1.00  0.00    -0.188 A  
HETATM   29  N   UNL     1     -10.398  11.644  67.294  1.00  0.00    -0.200 NA 
HETATM   30  C   UNL     1     -11.049  10.487  67.062  1.00  0.00    -0.110 A  
HETATM   31  C   UNL     1     -10.675   9.290  67.624  1.00  0.00    -0.276 A  
HETATM   32  C   UNL     1      -9.572   9.308  68.470  1.00  0.00    -0.155 A  
HETATM   33  C   UNL     1      -8.884  10.507  68.716  1.00  0.00    -0.158 A  
HETATM   34  C   UNL     1      -9.135   8.093  69.088  1.00  0.00    -0.148 C  
HETATM   35  N   UNL     1      -8.773   7.115  69.597  1.00  0.00    -0.141 NA 
ENDBRANCH  25  28
ENDBRANCH  14  22
ENDBRANCH   1  12
BRANCH   1  36
HETATM   36  C   UNL     1      -9.074  18.575  66.795  1.00  0.00    -0.297 A  
HETATM   37  C   UNL     1      -7.259  19.690  65.522  1.00  0.00    -0.246 A  
HETATM   38  C   UNL     1      -7.197  20.715  66.444  1.00  0.00    -0.207 A  
HETATM   39 CL   UNL     1     -10.435  20.058  68.650  1.00  0.00    -0.418 Cl 
HETATM   40  C   UNL     1      -8.137  20.738  67.474  1.00  0.00    -0.203 A  
HETATM   41  C   UNL     1      -8.152  18.634  65.706  1.00  0.00     0.184 A  
HETATM   42  C   UNL     1      -9.115  19.720  67.599  1.00  0.00    -0.333 A  
ENDBRANCH   1  36
TORSDOF 7
ENDMDL
MODEL      196
REMARK 921   NORMALIZED FREE ENERGY PREDICTED BY IDOCK:    3.70 KCAL/MOL
REMARK 922        TOTAL FREE ENERGY PREDICTED BY IDOCK:    3.76 KCAL/MOL
REMARK 923 INTER-LIGAND FREE ENERGY PREDICTED BY IDOCK:   -8.01 KCAL/MOL
REMARK 924 INTRA-LIGAND FREE ENERGY PREDICTED BY IDOCK:   11.77 KCAL/MOL
REMARK 927      BINDING AFFINITY PREDICTED BY RF-SCORE:    0.00 PKD
ROOT
HETATM    1  C   UNL     1     -10.482  13.538  67.809  1.00  0.00    -0.240 C  
ENDROOT
BRANCH   1   2
HETATM    2  C   UNL     1     -10.093  14.866  66.987  1.00  0.00    -0.244 C  
HETATM    3  H   UNL     1      -9.235  15.867  68.567  1.00  0.00     0.000 HD 
HETATM    4  N   UNL     1      -9.434  15.940  67.570  1.00  0.00    -0.218 N  
HETATM    5  O   UNL     1     -10.472  14.985  65.823  1.00  0.00    -0.297 OA 
BRANCH   4   6
HETATM    6  C   UNL     1      -8.979  17.213  66.874  1.00  0.00    -0.235 C  
HETATM    7  C   UNL     1      -7.508  18.669  66.331  1.00  0.00    -0.249 C  
HETATM    8  F   UNL     1      -6.227  19.078  66.446  1.00  0.00    -0.178 F  
HETATM    9  C   UNL     1      -8.256  18.345  67.657  1.00  0.00    -0.262 C  
HETATM   10  F   UNL     1      -8.128  19.558  65.521  1.00  0.00    -0.234 F  
HETATM   11  C   UNL     1      -7.725  17.174  65.962  1.00  0.00    -0.193 C  
ENDBRANCH   4   6
ENDBRANCH   1   2
BRANCH   1  12
HETATM   12  N   UNL     1      -9.351  12.531  67.841  1.00  0.00    -0.193 N  
HETATM   13  O   UNL     1      -8.018  13.812  69.221  1.00  0.00     0.150 OA 
HETATM   14  C   UNL     1      -8.182  12.761  68.596  1.00  0.00     0.012 C  
BRANCH  12  15
HETATM   15  C   UNL     1      -9.545  11.341  67.101  1.00  0.00    -0.177 A  
HETATM   16  C   UNL     1      -9.014  11.176  65.821  1.00  0.00    -0.196 A  
HETATM   17  C   UNL     1     -10.286   9.066  66.988  1.00  0.00    -0.269 A  
HETATM   18  N   UNL     1      -9.077  10.014  65.130  1.00  0.00    -0.186 NA 
HETATM   19  F   UNL     1     -10.886   8.011  67.548  1.00  0.00    -0.315 F  
HETATM   20  C   UNL     1     -10.191  10.257  67.687  1.00  0.00    -0.247 A  
HETATM   21  C   UNL     1      -9.721   8.983  65.731  1.00  0.00    -0.184 A  
ENDBRANCH  12  15
BRANCH  14  22
HETATM   22  C   UNL     1      -7.114  11.609  68.688  1.00  0.00    -0.099 C  
HETATM   23  C   UNL     1      -6.301  11.264  66.459  1.00  0.00    -0.119 C  
HETATM   24  C   UNL     1      -5.943  11.946  67.768  1.00  0.00    -0.063 C  
HETATM   25  N   UNL     1      -7.507  10.281  68.217  1.00  0.00    -0.085 N  
HETATM   26  O   UNL     1      -7.211   9.072  66.182  1.00  0.00    -0.087 OA 
HETATM   27  C   UNL     1      -7.059  10.044  66.908  1.00  0.00    -0.090 C  
BRANCH  25  28
HETATM   28  C   UNL     1      -8.041   9.252  69.030  1.00  0.00    -0.106 A  
HETATM   29  N   UNL     1      -8.819   9.607  70.078  1.00  0.00    -0.219 NA 
HETATM   30  C   UNL     1      -9.403   8.668  70.850  1.00  0.00    -0.189 A  
HETATM   31  C   UNL     1      -9.252   7.319  70.633  1.00  0.00    -0.157 A  
HETATM   32  C   UNL     1      -8.451   6.939  69.563  1.00  0.00    -0.133 A  
HETATM   33  C   UNL     1      -7.841   7.908  68.750  1.00  0.00    -0.118 A  
HETATM   34  C   UNL     1      -8.253   5.547  69.287  1.00  0.00    -0.095 C  
HETATM   35  N   UNL     1      -8.083   4.423  69.055  1.00  0.00    -0.072 NA 
ENDBRANCH  25  28
ENDBRANCH  14  22
ENDBRANCH   1  12
BRANCH   1  36
HETATM   36  C   UNL     1     -11.307  13.470  69.122  1.00  0.00    -0.333 A  
HETATM   37  C   UNL     1     -12.565  11.956  70.631  1.00  0.00    -0.269 A  
HETATM   38  C   UNL     1     -13.019  13.024  71.378  1.00  0.00    -0.373 A  
HETATM   39 CL   UNL     1     -10.816  16.022  69.983  1.00  0.00    -0.335 Cl 
HETATM   40  C   UNL     1     -12.537  14.297  71.076  1.00  0.00    -0.428 A  
HETATM   41  C   UNL     1     -11.755  12.174  69.517  1.00  0.00    -0.402 A  
HETATM   42  C   UNL     1     -11.627  14.504  70.009  1.00  0.00    -0.284 A  
ENDBRANCH   1  36
TORSDOF 7
ENDMDL
MODEL      197
REMARK 921   NORMALIZED FREE ENERGY PREDICTED BY IDOCK:    4.05 KCAL/MOL
REMARK 922        TOTAL FREE ENERGY PREDICTED BY IDOCK:    4.25 KCAL/MOL
REMARK 923 INTER-LIGAND FREE ENERGY PREDICTED BY IDOCK:   -3.18 KCAL/MOL
REMARK 924 INTRA-LIGAND FREE ENERGY PREDICTED BY IDOCK:    7.43 KCAL/MOL
REMARK 927      BINDING AFFINITY PREDICTED BY RF-SCORE:    0.00 PKD
ROOT
HETATM    1  C   UNL     1      -8.261  10.923  68.055  1.00  0.00    -0.121 C  
ENDROOT
BRANCH   1   2
HETATM    2  C   UNL     1      -8.513   9.587  68.916  1.00  0.00    -0.123 C  
HETATM    3  H   UNL     1      -9.627  10.479  70.399  1.00  0.00     0.000 HD 
HETATM    4  N   UNL     1      -9.264   9.580  70.083  1.00  0.00    -0.229 N  
HETATM    5  O   UNL     1      -7.945   8.546  68.589  1.00  0.00    -0.112 OA 
BRANCH   4   6
HETATM    6  C   UNL     1      -9.601   8.370  70.940  1.00  0.00    -0.175 C  
HETATM    7  C   UNL     1     -10.650   7.387  72.525  1.00  0.00    -0.261 C  
HETATM    8  F   UNL     1     -11.532   7.504  73.540  1.00  0.00    -0.290 F  
HETATM    9  C   UNL     1      -9.488   8.423  72.490  1.00  0.00    -0.360 C  
HETATM   10  F   UNL     1     -10.267   6.089  72.493  1.00  0.00    -0.189 F  
HETATM   11  C   UNL     1     -11.087   7.982  71.157  1.00  0.00    -0.278 C  
ENDBRANCH   4   6
ENDBRANCH   1   2
BRANCH   1  12
HETATM   12  N   UNL     1      -9.547  11.674  67.773  1.00  0.00    -0.173 N  
HETATM   13  O   UNL     1     -10.620   9.846  66.863  1.00  0.00    -0.228 OA 
HETATM   14  C   UNL     1     -10.664  11.032  67.199  1.00  0.00    -0.265 C  
BRANCH  12  15
HETATM   15  C   UNL     1      -9.573  13.039  68.144  1.00  0.00    -0.227 A  
HETATM   16  C   UNL     1      -9.876  13.441  69.446  1.00  0.00     0.746 A  
HETATM   17  C   UNL     1      -9.123  15.336  67.636  1.00  0.00    -0.183 A  
HETATM   18  N   UNL     1      -9.797  14.725  69.869  1.00  0.00     0.153 NA 
HETATM   19  F   UNL     1      -8.734  16.280  66.773  1.00  0.00    -0.187 F  
HETATM   20  C   UNL     1      -9.188  14.014  67.230  1.00  0.00    -0.231 A  
HETATM   21  C   UNL     1      -9.427  15.647  68.947  1.00  0.00    -0.228 A  
ENDBRANCH  12  15
BRANCH  14  22
HETATM   22  C   UNL     1     -12.004  11.844  67.065  1.00  0.00     0.056 C  
HETATM   23  C   UNL     1     -11.618  13.510  65.383  1.00  0.00    -0.334 C  
HETATM   24  C   UNL     1     -12.254  12.146  65.588  1.00  0.00    -0.049 C  
HETATM   25  N   UNL     1     -12.052  13.178  67.666  1.00  0.00    -0.296 N  
HETATM   26  O   UNL     1     -11.759  15.397  66.842  1.00  0.00    -0.098 OA 
HETATM   27  C   UNL     1     -11.819  14.182  66.714  1.00  0.00    -0.425 C  
BRANCH  25  28
HETATM   28  C   UNL     1     -12.521  13.468  68.970  1.00  0.00     0.205 A  
HETATM   29  N   UNL     1     -12.816  14.753  69.270  1.00  0.00     0.314 NA 
HETATM   30  C   UNL     1     -13.324  15.078  70.476  1.00  0.00    -0.140 A  
HETATM   31  C   UNL     1     -13.571  14.151  71.460  1.00  0.00    -0.405 A  
HETATM   32  C   UNL     1     -13.268  12.827  71.169  1.00  0.00    -0.034 A  
HETATM   33  C   UNL     1     -12.743  12.476  69.916  1.00  0.00     0.369 A  
HETATM   34  C   UNL     1     -13.501  11.815  72.156  1.00  0.00    -0.168 C  
HETATM   35  N   UNL     1     -13.683  10.986  72.947  1.00  0.00     1.186 NA 
ENDBRANCH  25  28
ENDBRANCH  14  22
ENDBRANCH   1  12
BRANCH   1  36
HETATM   36  C   UNL     1      -7.076  11.913  68.206  1.00  0.00    -0.081 A  
HETATM   37  C   UNL     1      -6.029  13.583  69.712  1.00  0.00    -0.123 A  
HETATM   38  C   UNL     1      -5.133  13.955  68.730  1.00  0.00    -0.076 A  
HETATM   39 CL   UNL     1      -5.680  11.140  65.982  1.00  0.00    -0.134 Cl 
HETATM   40  C   UNL     1      -5.127  13.241  67.533  1.00  0.00     0.062 A  
HETATM   41  C   UNL     1      -6.993  12.609  69.449  1.00  0.00     0.108 A  
HETATM   42  C   UNL     1      -6.037  12.178  67.307  1.00  0.00    -0.153 A  
ENDBRANCH   1  36
TORSDOF 7
ENDMDL
MODEL      198
REMARK 921   NORMALIZED FREE ENERGY PREDICTED BY IDOCK:    4.22 KCAL/MOL
REMARK 922        TOTAL FREE ENERGY PREDICTED BY IDOCK:    4.49 KCAL/MOL
REMARK 923 INTER-LIGAND FREE ENERGY PREDICTED BY IDOCK:   -5.13 KCAL/MOL
REMARK 924 INTRA-LIGAND FREE ENERGY PREDICTED BY IDOCK:    9.62 KCAL/MOL
REMARK 927      BINDING AFFINITY PREDICTED BY RF-SCORE:    0.00 PKD
ROOT
HETATM    1  C   UNL     1      -8.414  14.787  68.340  1.00  0.00    -0.157 C  
ENDROOT
BRANCH   1   2
HETATM    2  C   UNL     1      -9.063  15.889  67.363  1.00  0.00    -0.196 C  
HETATM    3  H   UNL     1     -10.178  16.842  68.805  1.00  0.00     0.000 HD 
HETATM    4  N   UNL     1      -9.933  16.870  67.816  1.00  0.00    -0.269 N  
HETATM    5  O   UNL     1      -8.861  15.810  66.152  1.00  0.00    -0.326 OA 
BRANCH   4   6
HETATM    6  C   UNL     1     -10.559  17.982  66.989  1.00  0.00    -0.308 C  
HETATM    7  C   UNL     1     -10.529  19.893  66.027  1.00  0.00    -0.475 C  
HETATM    8  F   UNL     1      -9.831  21.022  65.778  1.00  0.00     0.070 F  
HETATM    9  C   UNL     1     -10.615  19.444  67.516  1.00  0.00    -0.591 C  
HETATM   10  F   UNL     1     -11.717  20.024  65.394  1.00  0.00     0.234 F  
HETATM   11  C   UNL     1      -9.786  18.551  65.772  1.00  0.00     0.169 C  
ENDBRANCH   4   6
ENDBRANCH   1   2
BRANCH   1  12
HETATM   12  N   UNL     1      -8.406  13.404  67.720  1.00  0.00    -0.164 N  
HETATM   13  O   UNL     1      -6.136  13.411  67.311  1.00  0.00    -0.330 OA 
HETATM   14  C   UNL     1      -7.211  12.809  67.264  1.00  0.00    -0.082 C  
BRANCH  12  15
HETATM   15  C   UNL     1      -9.652  12.736  67.654  1.00  0.00    -0.192 A  
HETATM   16  C   UNL     1     -10.109  11.929  68.696  1.00  0.00    -0.177 A  
HETATM   17  C   UNL     1     -11.758  12.380  66.573  1.00  0.00    -0.379 A  
HETATM   18  N   UNL     1     -11.341  11.369  68.721  1.00  0.00    -0.243 NA 
HETATM   19  F   UNL     1     -12.594  12.604  65.553  1.00  0.00    -0.512 F  
HETATM   20  C   UNL     1     -10.503  12.961  66.577  1.00  0.00    -0.275 A  
HETATM   21  C   UNL     1     -12.139  11.604  67.650  1.00  0.00     0.209 A  
ENDBRANCH  12  15
BRANCH  14  22
HETATM   22  C   UNL     1      -7.264  11.320  66.760  1.00  0.00    -0.142 C  
HETATM   23  C   UNL     1      -9.034  11.217  65.145  1.00  0.00    -0.047 C  
HETATM   24  C   UNL     1      -7.522  11.316  65.255  1.00  0.00     0.664 C  
HETATM   25  N   UNL     1      -8.346  10.473  67.262  1.00  0.00    -0.122 N  
HETATM   26  O   UNL     1     -10.480   9.810  66.426  1.00  0.00    -0.204 OA 
HETATM   27  C   UNL     1      -9.409  10.396  66.349  1.00  0.00    -0.164 C  
BRANCH  25  28
HETATM   28  C   UNL     1      -8.260   9.624  68.392  1.00  0.00    -0.106 A  
HETATM   29  N   UNL     1      -8.299  10.190  69.620  1.00  0.00    -0.174 NA 
HETATM   30  C   UNL     1      -8.281   9.426  70.731  1.00  0.00    -0.127 A  
HETATM   31  C   UNL     1      -8.222   8.053  70.696  1.00  0.00    -0.114 A  
HETATM   32  C   UNL     1      -8.176   7.456  69.442  1.00  0.00    -0.131 A  
HETATM   33  C   UNL     1      -8.198   8.242  68.278  1.00  0.00    -0.128 A  
HETATM   34  C   UNL     1      -8.111   6.029  69.340  1.00  0.00    -0.111 C  
HETATM   35  N   UNL     1      -8.056   4.874  69.244  1.00  0.00    -0.078 NA 
ENDBRANCH  25  28
ENDBRANCH  14  22
ENDBRANCH   1  12
BRANCH   1  36
HETATM   36  C   UNL     1      -7.178  14.977  69.259  1.00  0.00    -0.179 A  
HETATM   37  C   UNL     1      -6.064  14.173  71.324  1.00  0.00    -0.057 A  
HETATM   38  C   UNL     1      -5.133  15.190  71.257  1.00  0.00    -0.145 A  
HETATM   39 CL   UNL     1      -5.793  16.697  67.641  1.00  0.00    -0.150 Cl 
HETATM   40  C   UNL     1      -5.148  16.030  70.145  1.00  0.00    -0.136 A  
HETATM   41  C   UNL     1      -7.076  14.085  70.368  1.00  0.00     0.646 A  
HETATM   42  C   UNL     1      -6.112  15.872  69.117  1.00  0.00    -0.129 A  
ENDBRANCH   1  36
TORSDOF 7
ENDMDL
MODEL      199
REMARK 921   NORMALIZED FREE ENERGY PREDICTED BY IDOCK:    4.55 KCAL/MOL
REMARK 922        TOTAL FREE ENERGY PREDICTED BY IDOCK:    4.96 KCAL/MOL
REMARK 923 INTER-LIGAND FREE ENERGY PREDICTED BY IDOCK:   -0.94 KCAL/MOL
REMARK 924 INTRA-LIGAND FREE ENERGY PREDICTED BY IDOCK:    5.90 KCAL/MOL
REMARK 927      BINDING AFFINITY PREDICTED BY RF-SCORE:    0.00 PKD
ROOT
HETATM    1  C   UNL     1     -10.321  12.821  68.418  1.00  0.00    -0.243 C  
ENDROOT
BRANCH   1   2
HETATM    2  C   UNL     1     -11.192  12.533  67.096  1.00  0.00    -0.300 C  
HETATM    3  H   UNL     1     -11.219  14.475  66.414  1.00  0.00     0.000 HD 
HETATM    4  N   UNL     1     -11.524  13.528  66.188  1.00  0.00    -0.317 N  
HETATM    5  O   UNL     1     -11.667  11.412  66.922  1.00  0.00    -0.507 OA 
BRANCH   4   6
HETATM    6  C   UNL     1     -12.296  13.353  64.889  1.00  0.00    -0.412 C  
HETATM    7  C   UNL     1     -12.830  12.281  63.117  1.00  0.00     0.051 C  
HETATM    8  F   UNL     1     -12.625  11.187  62.353  1.00  0.00     0.261 F  
HETATM    9  C   UNL     1     -11.563  13.076  63.547  1.00  0.00    -0.468 C  
HETATM   10  F   UNL     1     -13.788  13.010  62.499  1.00  0.00     2.097 F  
HETATM   11  C   UNL     1     -13.063  12.030  64.634  1.00  0.00     0.581 C  
ENDBRANCH   4   6
ENDBRANCH   1   2
BRANCH   1  12
HETATM   12  N   UNL     1      -9.281  11.748  68.665  1.00  0.00    -0.134 N  
HETATM   13  O   UNL     1     -10.831  10.059  68.920  1.00  0.00    -0.213 OA 
HETATM   14  C   UNL     1      -9.647  10.402  68.879  1.00  0.00    -0.192 C  
BRANCH  12  15
HETATM   15  C   UNL     1      -7.928  12.163  68.637  1.00  0.00    -0.063 A  
HETATM   16  C   UNL     1      -7.203  12.228  67.446  1.00  0.00    -0.147 A  
HETATM   17  C   UNL     1      -6.029  13.117  69.739  1.00  0.00    -0.127 A  
HETATM   18  N   UNL     1      -5.949  12.730  67.361  1.00  0.00    -0.260 NA 
HETATM   19  F   UNL     1      -5.439  13.580  70.847  1.00  0.00    -0.118 F  
HETATM   20  C   UNL     1      -7.319  12.621  69.800  1.00  0.00     0.855 A  
HETATM   21  C   UNL     1      -5.386  13.159  68.518  1.00  0.00    -0.069 A  
ENDBRANCH  12  15
BRANCH  14  22
HETATM   22  C   UNL     1      -8.505   9.326  68.990  1.00  0.00    -0.132 C  
HETATM   23  C   UNL     1      -7.345   9.356  66.891  1.00  0.00    -0.090 C  
HETATM   24  C   UNL     1      -7.246   9.870  68.317  1.00  0.00    -0.078 C  
HETATM   25  N   UNL     1      -8.703   8.054  68.295  1.00  0.00    -0.130 N  
HETATM   26  O   UNL     1      -8.003   7.167  66.194  1.00  0.00    -0.103 OA 
HETATM   27  C   UNL     1      -8.048   8.035  67.054  1.00  0.00    -0.116 C  
BRANCH  25  28
HETATM   28  C   UNL     1      -9.255   6.886  68.875  1.00  0.00    -0.132 A  
HETATM   29  N   UNL     1      -9.179   5.730  68.176  1.00  0.00    -0.110 NA 
HETATM   30  C   UNL     1      -9.633   4.576  68.705  1.00  0.00    -0.159 A  
HETATM   31  C   UNL     1     -10.194   4.494  69.958  1.00  0.00    -0.080 A  
HETATM   32  C   UNL     1     -10.285   5.674  70.686  1.00  0.00    -0.292 A  
HETATM   33  C   UNL     1      -9.811   6.881  70.147  1.00  0.00    -0.185 A  
HETATM   34  C   UNL     1     -10.861   5.654  71.996  1.00  0.00    -0.242 C  
HETATM   35  N   UNL     1     -11.329   5.651  73.058  1.00  0.00    -0.268 NA 
ENDBRANCH  25  28
ENDBRANCH  14  22
ENDBRANCH   1  12
BRANCH   1  36
HETATM   36  C   UNL     1      -9.802  14.201  68.903  1.00  0.00    -0.110 A  
HETATM   37  C   UNL     1      -8.143  15.993  68.469  1.00  0.00    -0.169 A  
HETATM   38  C   UNL     1      -8.486  16.639  69.638  1.00  0.00     0.586 A  
HETATM   39 CL   UNL     1     -11.767  14.692  70.745  1.00  0.00    -0.344 Cl 
HETATM   40  C   UNL     1      -9.553  16.140  70.384  1.00  0.00     1.145 A  
HETATM   41  C   UNL     1      -8.763  14.792  68.124  1.00  0.00    -0.168 A  
HETATM   42  C   UNL     1     -10.255  14.978  69.975  1.00  0.00    -0.034 A  
ENDBRANCH   1  36
TORSDOF 7
ENDMDL
MODEL      200
REMARK 921   NORMALIZED FREE ENERGY PREDICTED BY IDOCK:    4.74 KCAL/MOL
REMARK 922        TOTAL FREE ENERGY PREDICTED BY IDOCK:    5.22 KCAL/MOL
REMARK 923 INTER-LIGAND FREE ENERGY PREDICTED BY IDOCK:   -6.98 KCAL/MOL
REMARK 924 INTRA-LIGAND FREE ENERGY PREDICTED BY IDOCK:   12.20 KCAL/MOL
REMARK 927      BINDING AFFINITY PREDICTED BY RF-SCORE:    0.00 PKD
ROOT
HETATM    1  C   UNL     1      -9.221   6.661  66.374  1.00  0.00    -0.151 C  
ENDROOT
BRANCH   1   2
HETATM    2  C   UNL     1     -10.420   6.676  67.447  1.00  0.00    -0.260 C  
HETATM    3  H   UNL     1      -9.248   6.332  69.103  1.00  0.00     0.000 HD 
HETATM    4  N   UNL     1     -10.208   6.507  68.808  1.00  0.00    -0.160 N  
HETATM    5  O   UNL     1     -11.582   6.745  67.048  1.00  0.00     0.009 OA 
BRANCH   4   6
HETATM    6  C   UNL     1     -11.261   6.554  69.904  1.00  0.00    -0.395 C  
HETATM    7  C   UNL     1     -11.966   7.096  71.851  1.00  0.00    -0.307 C  
HETATM    8  F   UNL     1     -11.678   7.675  73.036  1.00  0.00    -0.341 F  
HETATM    9  C   UNL     1     -10.957   6.028  71.336  1.00  0.00    -0.336 C  
HETATM   10  F   UNL     1     -13.254   6.688  71.921  1.00  0.00    -0.384 F  
HETATM   11  C   UNL     1     -11.597   7.909  70.577  1.00  0.00    -0.155 C  
ENDBRANCH   4   6
ENDBRANCH   1   2
BRANCH   1  12
HETATM   12  N   UNL     1      -8.603   8.031  66.184  1.00  0.00    -0.140 N  
HETATM   13  O   UNL     1      -7.142   7.337  64.540  1.00  0.00    -0.053 OA 
HETATM   14  C   UNL     1      -7.592   8.258  65.227  1.00  0.00    -0.094 C  
BRANCH  12  15
HETATM   15  C   UNL     1      -9.117   9.072  66.995  1.00  0.00    -0.130 A  
HETATM   16  C   UNL     1      -8.413   9.561  68.096  1.00  0.00    -0.119 A  
HETATM   17  C   UNL     1     -10.741  10.787  67.385  1.00  0.00    -0.268 A  
HETATM   18  N   UNL     1      -8.813  10.630  68.824  1.00  0.00    -0.154 NA 
HETATM   19  F   UNL     1     -11.869  11.420  67.042  1.00  0.00    -0.309 F  
HETATM   20  C   UNL     1     -10.302   9.707  66.640  1.00  0.00    -0.279 A  
HETATM   21  C   UNL     1      -9.978  11.217  68.453  1.00  0.00    -0.187 A  
ENDBRANCH  12  15
BRANCH  14  22
HETATM   22  C   UNL     1      -7.100   9.733  64.995  1.00  0.00    -0.120 C  
HETATM   23  C   UNL     1      -6.009  10.406  67.022  1.00  0.00    -0.052 C  
HETATM   24  C   UNL     1      -5.716   9.897  65.621  1.00  0.00    -0.061 C  
HETATM   25  N   UNL     1      -7.859  10.809  65.634  1.00  0.00    -0.120 N  
HETATM   26  O   UNL     1      -7.606  12.071  67.643  1.00  0.00    -0.117 OA 
HETATM   27  C   UNL     1      -7.257  11.224  66.832  1.00  0.00    -0.142 C  
BRANCH  25  28
HETATM   28  C   UNL     1      -8.914  11.533  65.029  1.00  0.00     0.147 A  
HETATM   29  N   UNL     1      -9.661  10.908  64.091  1.00  0.00    -0.268 NA 
HETATM   30  C   UNL     1     -10.716  11.529  63.525  1.00  0.00    -0.414 A  
HETATM   31  C   UNL     1     -11.096  12.809  63.852  1.00  0.00    -0.477 A  
HETATM   32  C   UNL     1     -10.335  13.467  64.810  1.00  0.00    -0.405 A  
HETATM   33  C   UNL     1      -9.237  12.829  65.409  1.00  0.00     0.442 A  
HETATM   34  C   UNL     1     -10.680  14.804  65.191  1.00  0.00    -0.415 C  
HETATM   35  N   UNL     1     -10.948  15.888  65.506  1.00  0.00    -0.283 NA 
ENDBRANCH  25  28
ENDBRANCH  14  22
ENDBRANCH   1  12
BRANCH   1  36
HETATM   36  C   UNL     1      -8.148   5.554  66.200  1.00  0.00    -0.107 A  
HETATM   37  C   UNL     1      -7.402   3.685  64.748  1.00  0.00    -0.068 A  
HETATM   38  C   UNL     1      -6.453   3.302  65.674  1.00  0.00    -0.032 A  
HETATM   39 CL   UNL     1      -6.484   6.349  68.223  1.00  0.00    -0.047 Cl 
HETATM   40  C   UNL     1      -6.270   4.097  66.804  1.00  0.00    -0.032 A  
HETATM   41  C   UNL     1      -8.246   4.764  65.015  1.00  0.00    -0.126 A  
HETATM   42  C   UNL     1      -7.056   5.256  67.022  1.00  0.00    -0.070 A  
ENDBRANCH   1  36
TORSDOF 7
ENDMDL
MODEL      201
REMARK 921   NORMALIZED FREE ENERGY PREDICTED BY IDOCK:    5.13 KCAL/MOL
REMARK 922        TOTAL FREE ENERGY PREDICTED BY IDOCK:    5.78 KCAL/MOL
REMARK 923 INTER-LIGAND FREE ENERGY PREDICTED BY IDOCK:   -4.23 KCAL/MOL
REMARK 924 INTRA-LIGAND FREE ENERGY PREDICTED BY IDOCK:   10.00 KCAL/MOL
REMARK 927      BINDING AFFINITY PREDICTED BY RF-SCORE:    0.00 PKD
ROOT
HETATM    1  C   UNL     1      -9.219   7.325  67.877  1.00  0.00    -0.131 C  
ENDROOT
BRANCH   1   2
HETATM    2  C   UNL     1      -9.962   7.693  69.256  1.00  0.00    -0.180 C  
HETATM    3  H   UNL     1     -11.117   9.215  68.491  1.00  0.00     0.000 HD 
HETATM    4  N   UNL     1     -10.923   8.690  69.344  1.00  0.00    -0.096 N  
HETATM    5  O   UNL     1      -9.606   7.142  70.296  1.00  0.00    -0.169 OA 
BRANCH   4   6
HETATM    6  C   UNL     1     -11.717   9.082  70.581  1.00  0.00    -0.198 C  
HETATM    7  C   UNL     1     -12.969  10.403  71.706  1.00  0.00    -0.475 C  
HETATM    8  F   UNL     1     -13.606  11.592  71.749  1.00  0.00    -0.401 F  
HETATM    9  C   UNL     1     -11.464  10.434  71.305  1.00  0.00    -0.114 C  
HETATM   10  F   UNL     1     -13.244   9.773  72.871  1.00  0.00    -0.273 F  
HETATM   11  C   UNL     1     -13.187   9.549  70.424  1.00  0.00     0.419 C  
ENDBRANCH   4   6
ENDBRANCH   1   2
BRANCH   1  12
HETATM   12  N   UNL     1      -8.708   8.555  67.155  1.00  0.00    -0.128 N  
HETATM   13  O   UNL     1     -10.375   8.524  65.561  1.00  0.00     0.939 OA 
HETATM   14  C   UNL     1      -9.376   9.077  66.027  1.00  0.00    -0.242 C  
BRANCH  12  15
HETATM   15  C   UNL     1      -7.548   9.164  67.690  1.00  0.00    -0.085 A  
HETATM   16  C   UNL     1      -6.278   8.910  67.170  1.00  0.00    -0.059 A  
HETATM   17  C   UNL     1      -6.535  10.782  69.135  1.00  0.00    -0.059 A  
HETATM   18  N   UNL     1      -5.161   9.560  67.575  1.00  0.00    -0.036 NA 
HETATM   19  F   UNL     1      -6.638  11.720  70.083  1.00  0.00    -0.134 F  
HETATM   20  C   UNL     1      -7.667  10.122  68.691  1.00  0.00    -0.092 A  
HETATM   21  C   UNL     1      -5.316  10.481  68.558  1.00  0.00    -0.037 A  
ENDBRANCH  12  15
BRANCH  14  22
HETATM   22  C   UNL     1      -8.862  10.433  65.417  1.00  0.00    -0.179 C  
HETATM   23  C   UNL     1      -6.679   9.989  64.529  1.00  0.00    -0.128 C  
HETATM   24  C   UNL     1      -8.131  10.141  64.108  1.00  0.00    -0.158 C  
HETATM   25  N   UNL     1      -7.857  11.179  66.174  1.00  0.00    -0.119 N  
HETATM   26  O   UNL     1      -5.480  11.358  66.078  1.00  0.00    -0.227 OA 
HETATM   27  C   UNL     1      -6.562  10.937  65.692  1.00  0.00     0.043 C  
BRANCH  25  28
HETATM   28  C   UNL     1      -8.136  12.211  67.103  1.00  0.00    -0.175 A  
HETATM   29  N   UNL     1      -7.162  13.112  67.367  1.00  0.00    -0.144 NA 
HETATM   30  C   UNL     1      -7.392  14.150  68.196  1.00  0.00    -0.130 A  
HETATM   31  C   UNL     1      -8.600  14.361  68.816  1.00  0.00    -0.125 A  
HETATM   32  C   UNL     1      -9.610  13.442  68.559  1.00  0.00    -0.141 A  
HETATM   33  C   UNL     1      -9.383  12.359  67.694  1.00  0.00    -0.188 A  
HETATM   34  C   UNL     1     -10.891  13.607  69.177  1.00  0.00    -0.152 C  
HETATM   35  N   UNL     1     -11.933  13.728  69.674  1.00  0.00    -0.324 NA 
ENDBRANCH  25  28
ENDBRANCH  14  22
ENDBRANCH   1  12
BRANCH   1  36
HETATM   36  C   UNL     1      -8.276   6.118  67.627  1.00  0.00    -0.113 A  
HETATM   37  C   UNL     1      -7.810   4.208  66.113  1.00  0.00    -0.094 A  
HETATM   38  C   UNL     1      -6.853   3.715  66.977  1.00  0.00    -0.050 A  
HETATM   39 CL   UNL     1      -6.424   6.707  69.555  1.00  0.00    -0.042 Cl 
HETATM   40  C   UNL     1      -6.524   4.469  68.102  1.00  0.00    -0.038 A  
HETATM   41  C   UNL     1      -8.523   5.362  66.442  1.00  0.00    -0.114 A  
HETATM   42  C   UNL     1      -7.174   5.698  68.379  1.00  0.00    -0.075 A  
ENDBRANCH   1  36
TORSDOF 7
ENDMDL
MODEL      202
REMARK 921   NORMALIZED FREE ENERGY PREDICTED BY IDOCK:    5.29 KCAL/MOL
REMARK 922        TOTAL FREE ENERGY PREDICTED BY IDOCK:    5.99 KCAL/MOL
REMARK 923 INTER-LIGAND FREE ENERGY PREDICTED BY IDOCK:   -5.59 KCAL/MOL
REMARK 924 INTRA-LIGAND FREE ENERGY PREDICTED BY IDOCK:   11.58 KCAL/MOL
REMARK 927      BINDING AFFINITY PREDICTED BY RF-SCORE:    0.00 PKD
ROOT
HETATM    1  C   UNL     1      -8.830   7.178  68.920  1.00  0.00    -0.130 C  
ENDROOT
BRANCH   1   2
HETATM    2  C   UNL     1      -9.820   7.849  69.997  1.00  0.00    -0.181 C  
HETATM    3  H   UNL     1     -11.567   7.417  68.999  1.00  0.00     0.000 HD 
HETATM    4  N   UNL     1     -11.200   7.841  69.850  1.00  0.00    -0.134 N  
HETATM    5  O   UNL     1      -9.343   8.478  70.941  1.00  0.00    -0.153 OA 
BRANCH   4   6
HETATM    6  C   UNL     1     -12.221   8.401  70.829  1.00  0.00    -0.000 C  
HETATM    7  C   UNL     1     -13.080   9.972  72.000  1.00  0.00    -0.441 C  
HETATM    8  F   UNL     1     -13.005  11.263  72.388  1.00  0.00    -0.483 F  
HETATM    9  C   UNL     1     -11.776   9.130  72.128  1.00  0.00    -0.305 C  
HETATM   10  F   UNL     1     -14.169   9.447  72.609  1.00  0.00    -0.450 F  
HETATM   11  C   UNL     1     -12.982   9.703  70.472  1.00  0.00     0.092 C  
ENDBRANCH   4   6
ENDBRANCH   1   2
BRANCH   1  12
HETATM   12  N   UNL     1      -8.389   8.161  67.855  1.00  0.00    -0.128 N  
HETATM   13  O   UNL     1      -8.225   6.563  66.201  1.00  0.00    -0.112 OA 
HETATM   14  C   UNL     1      -8.139   7.748  66.530  1.00  0.00    -0.111 C  
BRANCH  12  15
HETATM   15  C   UNL     1      -8.274   9.514  68.255  1.00  0.00    -0.113 A  
HETATM   16  C   UNL     1      -7.045  10.076  68.602  1.00  0.00    -0.078 A  
HETATM   17  C   UNL     1      -9.238  11.692  68.505  1.00  0.00    -0.163 A  
HETATM   18  N   UNL     1      -6.875  11.391  68.875  1.00  0.00    -0.081 NA 
HETATM   19  F   UNL     1     -10.295  12.509  68.443  1.00  0.00    -0.207 F  
HETATM   20  C   UNL     1      -9.386  10.349  68.207  1.00  0.00    -0.150 A  
HETATM   21  C   UNL     1      -7.983  12.170  68.826  1.00  0.00     0.007 A  
ENDBRANCH  12  15
BRANCH  14  22
HETATM   22  C   UNL     1      -7.820   8.849  65.453  1.00  0.00    -0.102 C  
HETATM   23  C   UNL     1      -5.714   9.813  66.077  1.00  0.00    -0.057 C  
HETATM   24  C   UNL     1      -6.328   8.802  65.124  1.00  0.00    -0.060 C  
HETATM   25  N   UNL     1      -8.008  10.248  65.837  1.00  0.00    -0.132 N  
HETATM   26  O   UNL     1      -6.565  11.979  66.620  1.00  0.00    -0.041 OA 
HETATM   27  C   UNL     1      -6.798  10.846  66.221  1.00  0.00    -0.123 C  
BRANCH  25  28
HETATM   28  C   UNL     1      -9.186  11.002  65.617  1.00  0.00    -0.210 A  
HETATM   29  N   UNL     1     -10.374  10.355  65.654  1.00  0.00    -0.230 NA 
HETATM   30  C   UNL     1     -11.531  11.032  65.511  1.00  0.00     0.480 A  
HETATM   31  C   UNL     1     -11.585  12.392  65.322  1.00  0.00    -0.419 A  
HETATM   32  C   UNL     1     -10.373  13.071  65.277  1.00  0.00    -0.318 A  
HETATM   33  C   UNL     1      -9.162  12.377  65.427  1.00  0.00     0.288 A  
HETATM   34  C   UNL     1     -10.364  14.490  65.080  1.00  0.00    -0.413 C  
HETATM   35  N   UNL     1     -10.344  15.638  64.918  1.00  0.00    -0.445 NA 
ENDBRANCH  25  28
ENDBRANCH  14  22
ENDBRANCH   1  12
BRANCH   1  36
HETATM   36  C   UNL     1      -7.702   6.153  69.212  1.00  0.00    -0.099 A  
HETATM   37  C   UNL     1      -5.285   5.908  69.715  1.00  0.00    -0.005 A  
HETATM   38  C   UNL     1      -5.365   4.536  69.593  1.00  0.00    -0.008 A  
HETATM   39 CL   UNL     1      -9.289   3.933  69.434  1.00  0.00    -0.231 Cl 
HETATM   40  C   UNL     1      -6.619   3.960  69.394  1.00  0.00    -0.034 A  
HETATM   41  C   UNL     1      -6.416   6.698  69.502  1.00  0.00    -0.044 A  
HETATM   42  C   UNL     1      -7.786   4.758  69.286  1.00  0.00    -0.063 A  
ENDBRANCH   1  36
TORSDOF 7
ENDMDL
MODEL      203
REMARK 921   NORMALIZED FREE ENERGY PREDICTED BY IDOCK:    5.85 KCAL/MOL
REMARK 922        TOTAL FREE ENERGY PREDICTED BY IDOCK:    6.79 KCAL/MOL
REMARK 923 INTER-LIGAND FREE ENERGY PREDICTED BY IDOCK:    7.23 KCAL/MOL
REMARK 924 INTRA-LIGAND FREE ENERGY PREDICTED BY IDOCK:   -0.44 KCAL/MOL
REMARK 927      BINDING AFFINITY PREDICTED BY RF-SCORE:    0.00 PKD
ROOT
HETATM    1  C   UNL     1     -10.531  12.347  68.441  1.00  0.00    -0.235 C  
ENDROOT
BRANCH   1   2
HETATM    2  C   UNL     1     -11.352  12.580  67.077  1.00  0.00    -0.328 C  
HETATM    3  H   UNL     1     -10.344  14.275  66.491  1.00  0.00     0.000 HD 
HETATM    4  N   UNL     1     -11.077  13.626  66.208  1.00  0.00    -0.299 N  
HETATM    5  O   UNL     1     -12.324  11.866  66.831  1.00  0.00    -0.233 OA 
BRANCH   4   6
HETATM    6  C   UNL     1     -11.756  13.905  64.876  1.00  0.00    -0.368 C  
HETATM    7  C   UNL     1     -13.155  13.463  63.318  1.00  0.00     1.432 C  
HETATM    8  F   UNL     1     -14.095  12.614  62.851  1.00  0.00     2.012 F  
HETATM    9  C   UNL     1     -11.801  12.829  63.754  1.00  0.00    -0.572 C  
HETATM   10  F   UNL     1     -13.059  14.468  62.418  1.00  0.00     1.657 F  
HETATM   11  C   UNL     1     -13.305  13.912  64.799  1.00  0.00     0.777 C  
ENDBRANCH   4   6
ENDBRANCH   1   2
BRANCH   1  12
HETATM   12  N   UNL     1      -9.509  11.235  68.313  1.00  0.00    -0.183 N  
HETATM   13  O   UNL     1      -8.634  12.032  66.333  1.00  0.00    -0.145 OA 
HETATM   14  C   UNL     1      -8.600  11.192  67.235  1.00  0.00    -0.140 C  
BRANCH  12  15
HETATM   15  C   UNL     1      -9.498  10.267  69.345  1.00  0.00    -0.206 A  
HETATM   16  C   UNL     1      -8.318   9.888  69.985  1.00  0.00    -0.168 A  
HETATM   17  C   UNL     1     -10.679   8.875  70.895  1.00  0.00    -0.231 A  
HETATM   18  N   UNL     1      -8.280   9.056  71.052  1.00  0.00    -0.188 NA 
HETATM   19  F   UNL     1     -11.826   8.382  71.374  1.00  0.00    -0.283 F  
HETATM   20  C   UNL     1     -10.698   9.745  69.819  1.00  0.00    -0.283 A  
HETATM   21  C   UNL     1      -9.468   8.561  71.480  1.00  0.00    -0.222 A  
ENDBRANCH  12  15
BRANCH  14  22
HETATM   22  C   UNL     1      -7.482  10.086  67.246  1.00  0.00    -0.091 C  
HETATM   23  C   UNL     1      -5.951  10.657  65.491  1.00  0.00    -0.117 C  
HETATM   24  C   UNL     1      -6.128  10.748  66.997  1.00  0.00    -0.068 C  
HETATM   25  N   UNL     1      -7.526   9.066  66.197  1.00  0.00    -0.090 N  
HETATM   26  O   UNL     1      -6.432   8.776  64.097  1.00  0.00    -0.072 OA 
HETATM   27  C   UNL     1      -6.650   9.371  65.144  1.00  0.00    -0.079 C  
BRANCH  25  28
HETATM   28  C   UNL     1      -8.158   7.805  66.313  1.00  0.00    -0.114 A  
HETATM   29  N   UNL     1      -9.480   7.777  66.601  1.00  0.00    -0.193 NA 
HETATM   30  C   UNL     1     -10.146   6.607  66.664  1.00  0.00    -0.135 A  
HETATM   31  C   UNL     1      -9.545   5.390  66.446  1.00  0.00    -0.172 A  
HETATM   32  C   UNL     1      -8.187   5.401  66.154  1.00  0.00    -0.111 A  
HETATM   33  C   UNL     1      -7.484   6.614  66.082  1.00  0.00    -0.081 A  
HETATM   34  C   UNL     1      -7.504   4.164  65.919  1.00  0.00    -0.081 C  
HETATM   35  N   UNL     1      -6.939   3.168  65.729  1.00  0.00    -0.052 NA 
ENDBRANCH  25  28
ENDBRANCH  14  22
ENDBRANCH   1  12
BRANCH   1  36
HETATM   36  C   UNL     1     -10.022  13.443  69.414  1.00  0.00     0.630 A  
HETATM   37  C   UNL     1      -8.053  14.811  70.051  1.00  0.00     0.479 A  
HETATM   38  C   UNL     1      -8.711  15.302  71.159  1.00  0.00     3.141 A  
HETATM   39 CL   UNL     1     -12.437  14.071  70.538  1.00  0.00    -0.418 Cl 
HETATM   40  C   UNL     1     -10.051  14.960  71.340  1.00  0.00     1.840 A  
HETATM   41  C   UNL     1      -8.679  13.885  69.216  1.00  0.00     0.507 A  
HETATM   42  C   UNL     1     -10.720  14.104  70.431  1.00  0.00     0.717 A  
ENDBRANCH   1  36
TORSDOF 7
ENDMDL
MODEL      204
REMARK 921   NORMALIZED FREE ENERGY PREDICTED BY IDOCK:    6.37 KCAL/MOL
REMARK 922        TOTAL FREE ENERGY PREDICTED BY IDOCK:    7.52 KCAL/MOL
REMARK 923 INTER-LIGAND FREE ENERGY PREDICTED BY IDOCK:   -1.43 KCAL/MOL
REMARK 924 INTRA-LIGAND FREE ENERGY PREDICTED BY IDOCK:    8.95 KCAL/MOL
REMARK 927      BINDING AFFINITY PREDICTED BY RF-SCORE:    0.00 PKD
ROOT
HETATM    1  C   UNL     1     -10.073  12.239  68.631  1.00  0.00    -0.144 C  
ENDROOT
BRANCH   1   2
HETATM    2  C   UNL     1     -10.400  10.923  67.765  1.00  0.00    -0.187 C  
HETATM    3  H   UNL     1     -10.819   9.697  69.364  1.00  0.00     0.000 HD 
HETATM    4  N   UNL     1     -10.785   9.722  68.345  1.00  0.00    -0.228 N  
HETATM    5  O   UNL     1     -10.213  10.942  66.549  1.00  0.00    -0.217 OA 
BRANCH   4   6
HETATM    6  C   UNL     1     -11.163   8.441  67.618  1.00  0.00     0.702 C  
HETATM    7  C   UNL     1     -10.857   6.393  67.077  1.00  0.00    -0.392 C  
HETATM    8  F   UNL     1     -10.068   5.304  67.179  1.00  0.00    -0.147 F  
HETATM    9  C   UNL     1     -10.157   7.724  66.674  1.00  0.00    -0.294 C  
HETATM   10  F   UNL     1     -11.911   6.038  66.305  1.00  0.00     0.310 F  
HETATM   11  C   UNL     1     -11.224   7.108  68.408  1.00  0.00     0.113 C  
ENDBRANCH   4   6
ENDBRANCH   1   2
BRANCH   1  12
HETATM   12  N   UNL     1      -8.800  12.923  68.176  1.00  0.00    -0.191 N  
HETATM   13  O   UNL     1      -9.890  14.764  67.316  1.00  0.00    -0.227 OA 
HETATM   14  C   UNL     1      -8.826  14.189  67.554  1.00  0.00    -0.201 C  
BRANCH  12  15
HETATM   15  C   UNL     1      -7.589  12.239  68.438  1.00  0.00    -0.128 A  
HETATM   16  C   UNL     1      -6.875  11.595  67.426  1.00  0.00    -0.114 A  
HETATM   17  C   UNL     1      -5.792  11.698  69.925  1.00  0.00    -0.125 A  
HETATM   18  N   UNL     1      -5.658  11.032  67.612  1.00  0.00    -0.043 NA 
HETATM   19  F   UNL     1      -5.229  11.755  71.137  1.00  0.00    -0.108 F  
HETATM   20  C   UNL     1      -7.025  12.287  69.708  1.00  0.00     0.337 A  
HETATM   21  C   UNL     1      -5.146  11.092  68.866  1.00  0.00    -0.041 A  
ENDBRANCH  12  15
BRANCH  14  22
HETATM   22  C   UNL     1      -7.456  14.893  67.237  1.00  0.00    -0.161 C  
HETATM   23  C   UNL     1      -6.151  14.764  69.245  1.00  0.00    -0.106 C  
HETATM   24  C   UNL     1      -6.328  14.097  67.892  1.00  0.00    -0.173 C  
HETATM   25  N   UNL     1      -7.242  16.235  67.778  1.00  0.00    -0.127 N  
HETATM   26  O   UNL     1      -6.135  17.109  69.702  1.00  0.00    -0.226 OA 
HETATM   27  C   UNL     1      -6.490  16.202  68.962  1.00  0.00    -0.154 C  
BRANCH  25  28
HETATM   28  C   UNL     1      -7.517  17.443  67.092  1.00  0.00    -0.192 A  
HETATM   29  N   UNL     1      -6.490  18.081  66.486  1.00  0.00    -0.190 NA 
HETATM   30  C   UNL     1      -6.704  19.202  65.768  1.00  0.00    -0.264 A  
HETATM   31  C   UNL     1      -7.949  19.763  65.607  1.00  0.00    -0.048 A  
HETATM   32  C   UNL     1      -9.014  19.123  66.228  1.00  0.00    -0.320 A  
HETATM   33  C   UNL     1      -8.803  17.953  66.975  1.00  0.00    -0.256 A  
HETATM   34  C   UNL     1     -10.335  19.661  66.099  1.00  0.00    -0.530 C  
HETATM   35  N   UNL     1     -11.409  20.088  66.004  1.00  0.00     0.416 NA 
ENDBRANCH  25  28
ENDBRANCH  14  22
ENDBRANCH   1  12
BRANCH   1  36
HETATM   36  C   UNL     1     -11.096  13.284  69.148  1.00  0.00    -0.259 A  
HETATM   37  C   UNL     1     -11.407  15.674  69.740  1.00  0.00    -0.327 A  
HETATM   38  C   UNL     1     -12.663  15.417  70.251  1.00  0.00    -0.338 A  
HETATM   39 CL   UNL     1     -13.319  11.690  69.043  1.00  0.00     2.881 Cl 
HETATM   40  C   UNL     1     -13.185  14.132  70.115  1.00  0.00     0.383 A  
HETATM   41  C   UNL     1     -10.632  14.632  69.228  1.00  0.00    -0.236 A  
HETATM   42  C   UNL     1     -12.438  13.098  69.497  1.00  0.00     0.122 A  
ENDBRANCH   1  36
TORSDOF 7
ENDMDL
MODEL      205
REMARK 921   NORMALIZED FREE ENERGY PREDICTED BY IDOCK:    6.75 KCAL/MOL
REMARK 922        TOTAL FREE ENERGY PREDICTED BY IDOCK:    8.06 KCAL/MOL
REMARK 923 INTER-LIGAND FREE ENERGY PREDICTED BY IDOCK:    1.08 KCAL/MOL
REMARK 924 INTRA-LIGAND FREE ENERGY PREDICTED BY IDOCK:    6.98 KCAL/MOL
REMARK 927      BINDING AFFINITY PREDICTED BY RF-SCORE:    0.00 PKD
ROOT
HETATM    1  C   UNL     1     -10.064  12.334  69.173  1.00  0.00     0.273 C  
ENDROOT
BRANCH   1   2
HETATM    2  C   UNL     1      -9.557  13.852  69.338  1.00  0.00     0.579 C  
HETATM    3  H   UNL     1     -11.023  14.709  68.174  1.00  0.00     0.000 HD 
HETATM    4  N   UNL     1     -10.212  14.927  68.753  1.00  0.00    -0.236 N  
HETATM    5  O   UNL     1      -8.497  14.072  69.922  1.00  0.00     0.949 OA 
BRANCH   4   6
HETATM    6  C   UNL     1      -9.846  16.397  68.887  1.00  0.00    -0.260 C  
HETATM    7  C   UNL     1      -9.350  18.320  68.091  1.00  0.00    -0.296 C  
HETATM    8  F   UNL     1      -9.114  19.059  66.986  1.00  0.00    -0.275 F  
HETATM    9  C   UNL     1      -8.573  16.976  68.206  1.00  0.00    -0.234 C  
HETATM   10  F   UNL     1      -9.222  19.154  69.149  1.00  0.00    -0.370 F  
HETATM   11  C   UNL     1     -10.642  17.456  68.081  1.00  0.00    -0.376 C  
ENDBRANCH   4   6
ENDBRANCH   1   2
BRANCH   1  12
HETATM   12  N   UNL     1      -8.918  11.344  69.172  1.00  0.00     0.111 N  
HETATM   13  O   UNL     1     -10.166   9.634  70.089  1.00  0.00    -0.229 OA 
HETATM   14  C   UNL     1      -9.088  10.020  69.629  1.00  0.00    -0.210 C  
BRANCH  12  15
HETATM   15  C   UNL     1      -7.683  11.809  68.661  1.00  0.00    -0.126 A  
HETATM   16  C   UNL     1      -6.605  10.949  68.448  1.00  0.00    -0.058 A  
HETATM   17  C   UNL     1      -6.375  13.551  67.667  1.00  0.00    -0.147 A  
HETATM   18  N   UNL     1      -5.450  11.332  67.853  1.00  0.00    -0.043 NA 
HETATM   19  F   UNL     1      -6.246  14.817  67.256  1.00  0.00    -0.135 F  
HETATM   20  C   UNL     1      -7.555  13.134  68.257  1.00  0.00    -0.139 A  
HETATM   21  C   UNL     1      -5.360  12.633  67.481  1.00  0.00    -0.100 A  
ENDBRANCH  12  15
BRANCH  14  22
HETATM   22  C   UNL     1      -7.890   9.014  69.468  1.00  0.00    -0.094 C  
HETATM   23  C   UNL     1      -8.787   7.060  68.408  1.00  0.00    -0.123 C  
HETATM   24  C   UNL     1      -8.002   8.325  68.109  1.00  0.00    -0.123 C  
HETATM   25  N   UNL     1      -7.829   7.878  70.388  1.00  0.00    -0.087 N  
HETATM   26  O   UNL     1      -8.495   5.591  70.270  1.00  0.00    -0.117 OA 
HETATM   27  C   UNL     1      -8.357   6.715  69.807  1.00  0.00    -0.132 C  
BRANCH  25  28
HETATM   28  C   UNL     1      -7.109   7.854  71.607  1.00  0.00    -0.067 A  
HETATM   29  N   UNL     1      -6.903   9.027  72.249  1.00  0.00    -0.314 NA 
HETATM   30  C   UNL     1      -6.277   9.056  73.442  1.00  0.00     0.110 A  
HETATM   31  C   UNL     1      -5.815   7.927  74.075  1.00  0.00    -0.071 A  
HETATM   32  C   UNL     1      -6.015   6.715  73.426  1.00  0.00    -0.058 A  
HETATM   33  C   UNL     1      -6.669   6.671  72.184  1.00  0.00    -0.059 A  
HETATM   34  C   UNL     1      -5.554   5.502  74.034  1.00  0.00    -0.032 C  
HETATM   35  N   UNL     1      -5.183   4.514  74.515  1.00  0.00    -0.008 NA 
ENDBRANCH  25  28
ENDBRANCH  14  22
ENDBRANCH   1  12
BRANCH   1  36
HETATM   36  C   UNL     1     -11.326  11.704  69.820  1.00  0.00    -0.276 A  
HETATM   37  C   UNL     1     -12.592  11.461  71.940  1.00  0.00    -0.120 A  
HETATM   38  C   UNL     1     -13.443  10.540  71.364  1.00  0.00    -0.208 A  
HETATM   39 CL   UNL     1     -12.506  10.820  67.514  1.00  0.00     2.329 Cl 
HETATM   40  C   UNL     1     -13.315  10.281  70.000  1.00  0.00     0.580 A  
HETATM   41  C   UNL     1     -11.544  12.007  71.198  1.00  0.00     1.306 A  
HETATM   42  C   UNL     1     -12.317  10.919  69.222  1.00  0.00    -0.037 A  
ENDBRANCH   1  36
TORSDOF 7
ENDMDL
MODEL      206
REMARK 921   NORMALIZED FREE ENERGY PREDICTED BY IDOCK:    6.83 KCAL/MOL
REMARK 922        TOTAL FREE ENERGY PREDICTED BY IDOCK:    8.17 KCAL/MOL
REMARK 923 INTER-LIGAND FREE ENERGY PREDICTED BY IDOCK:   -0.34 KCAL/MOL
REMARK 924 INTRA-LIGAND FREE ENERGY PREDICTED BY IDOCK:    8.51 KCAL/MOL
REMARK 927      BINDING AFFINITY PREDICTED BY RF-SCORE:    0.00 PKD
ROOT
HETATM    1  C   UNL     1     -10.571  14.669  66.997  1.00  0.00    -0.280 C  
ENDROOT
BRANCH   1   2
HETATM    2  C   UNL     1     -11.332  14.622  68.415  1.00  0.00    -0.292 C  
HETATM    3  H   UNL     1     -11.525  16.658  68.636  1.00  0.00     0.000 HD 
HETATM    4  N   UNL     1     -11.753  15.767  69.076  1.00  0.00    -0.398 N  
HETATM    5  O   UNL     1     -11.466  13.542  68.989  1.00  0.00    -0.264 OA 
BRANCH   4   6
HETATM    6  C   UNL     1     -12.519  15.829  70.388  1.00  0.00    -0.295 C  
HETATM    7  C   UNL     1     -13.029  15.107  72.336  1.00  0.00    -0.362 C  
HETATM    8  F   UNL     1     -12.844  14.150  73.270  1.00  0.00    -0.545 F  
HETATM    9  C   UNL     1     -13.351  14.617  70.894  1.00  0.00    -0.350 C  
HETATM   10  F   UNL     1     -13.910  15.991  72.857  1.00  0.00    -0.621 F  
HETATM   11  C   UNL     1     -11.743  15.734  71.727  1.00  0.00    -0.562 C  
ENDBRANCH   4   6
ENDBRANCH   1   2
BRANCH   1  12
HETATM   12  N   UNL     1      -9.305  15.498  67.053  1.00  0.00    -0.217 N  
HETATM   13  O   UNL     1      -9.808  16.709  65.155  1.00  0.00    -0.359 OA 
HETATM   14  C   UNL     1      -9.039  16.502  66.098  1.00  0.00    -0.306 C  
BRANCH  12  15
HETATM   15  C   UNL     1      -8.424  15.232  68.128  1.00  0.00    -0.151 A  
HETATM   16  C   UNL     1      -8.558  15.868  69.363  1.00  0.00    -0.195 A  
HETATM   17  C   UNL     1      -6.670  13.920  69.096  1.00  0.00    -0.113 A  
HETATM   18  N   UNL     1      -7.812  15.556  70.449  1.00  0.00     0.740 NA 
HETATM   19  F   UNL     1      -5.752  12.953  68.996  1.00  0.00    -0.066 F  
HETATM   20  C   UNL     1      -7.459  14.238  68.004  1.00  0.00    -0.144 A  
HETATM   21  C   UNL     1      -6.876  14.589  70.287  1.00  0.00     0.046 A  
ENDBRANCH  12  15
BRANCH  14  22
HETATM   22  C   UNL     1      -7.772  17.411  66.303  1.00  0.00    -0.305 C  
HETATM   23  C   UNL     1      -5.890  15.929  66.412  1.00  0.00     1.733 C  
HETATM   24  C   UNL     1      -6.625  16.857  65.460  1.00  0.00     1.687 C  
HETATM   25  N   UNL     1      -7.181  17.458  67.640  1.00  0.00    -0.162 N  
HETATM   26  O   UNL     1      -5.356  16.348  68.704  1.00  0.00    -0.103 OA 
HETATM   27  C   UNL     1      -6.080  16.594  67.749  1.00  0.00    -0.139 C  
BRANCH  25  28
HETATM   28  C   UNL     1      -7.487  18.419  68.633  1.00  0.00    -0.296 A  
HETATM   29  N   UNL     1      -6.500  18.802  69.476  1.00  0.00    -0.256 NA 
HETATM   30  C   UNL     1      -6.718  19.758  70.401  1.00  0.00     0.007 A  
HETATM   31  C   UNL     1      -7.927  20.394  70.551  1.00  0.00     1.661 A  
HETATM   32  C   UNL     1      -8.953  20.008  69.697  1.00  0.00     0.648 A  
HETATM   33  C   UNL     1      -8.736  19.016  68.727  1.00  0.00    -0.351 A  
HETATM   34  C   UNL     1     -10.237  20.633  69.807  1.00  0.00     0.725 C  
HETATM   35  N   UNL     1     -11.282  21.129  69.887  1.00  0.00     1.744 NA 
ENDBRANCH  25  28
ENDBRANCH  14  22
ENDBRANCH   1  12
BRANCH   1  36
HETATM   36  C   UNL     1     -10.408  13.496  65.995  1.00  0.00    -0.303 A  
HETATM   37  C   UNL     1     -10.900  12.741  63.683  1.00  0.00    -0.361 A  
HETATM   38  C   UNL     1     -10.448  11.469  63.967  1.00  0.00    -0.424 A  
HETATM   39 CL   UNL     1      -8.727  11.960  67.514  1.00  0.00    -0.156 Cl 
HETATM   40  C   UNL     1      -9.875  11.232  65.216  1.00  0.00    -0.291 A  
HETATM   41  C   UNL     1     -10.907  13.721  64.677  1.00  0.00    -0.416 A  
HETATM   42  C   UNL     1      -9.784  12.258  66.189  1.00  0.00    -0.245 A  
ENDBRANCH   1  36
TORSDOF 7
ENDMDL
MODEL      207
REMARK 921   NORMALIZED FREE ENERGY PREDICTED BY IDOCK:    7.80 KCAL/MOL
REMARK 922        TOTAL FREE ENERGY PREDICTED BY IDOCK:    9.53 KCAL/MOL
REMARK 923 INTER-LIGAND FREE ENERGY PREDICTED BY IDOCK:   -1.65 KCAL/MOL
REMARK 924 INTRA-LIGAND FREE ENERGY PREDICTED BY IDOCK:   11.17 KCAL/MOL
REMARK 927      BINDING AFFINITY PREDICTED BY RF-SCORE:    0.00 PKD
ROOT
HETATM    1  C   UNL     1      -8.665  14.856  67.707  1.00  0.00    -0.167 C  
ENDROOT
BRANCH   1   2
HETATM    2  C   UNL     1      -9.116  16.225  66.992  1.00  0.00    -0.207 C  
HETATM    3  H   UNL     1      -9.780  17.165  68.698  1.00  0.00     0.000 HD 
HETATM    4  N   UNL     1      -9.649  17.296  67.695  1.00  0.00    -0.252 N  
HETATM    5  O   UNL     1      -9.080  16.301  65.764  1.00  0.00    -0.434 OA 
BRANCH   4   6
HETATM    6  C   UNL     1     -10.058  18.645  67.124  1.00  0.00    -0.359 C  
HETATM    7  C   UNL     1      -9.791  20.332  65.836  1.00  0.00    -0.188 C  
HETATM    8  F   UNL     1      -9.013  20.937  64.913  1.00  0.00     0.592 F  
HETATM    9  C   UNL     1      -9.082  19.855  67.138  1.00  0.00    -0.443 C  
HETATM   10  F   UNL     1     -10.865  21.134  66.023  1.00  0.00     0.841 F  
HETATM   11  C   UNL     1     -10.119  18.833  65.587  1.00  0.00     0.139 C  
ENDBRANCH   4   6
ENDBRANCH   1   2
BRANCH   1  12
HETATM   12  N   UNL     1      -8.912  13.643  66.833  1.00  0.00    -0.237 N  
HETATM   13  O   UNL     1      -6.704  12.977  66.832  1.00  0.00     0.006 OA 
HETATM   14  C   UNL     1      -7.867  12.765  66.479  1.00  0.00     0.596 C  
BRANCH  12  15
HETATM   15  C   UNL     1     -10.248  13.426  66.419  1.00  0.00    -0.293 A  
HETATM   16  C   UNL     1     -11.178  12.787  67.240  1.00  0.00    -0.295 A  
HETATM   17  C   UNL     1     -12.026  13.816  64.863  1.00  0.00    -0.390 A  
HETATM   18  N   UNL     1     -12.490  12.665  66.930  1.00  0.00    -0.157 NA 
HETATM   19  F   UNL     1     -12.471  14.332  63.712  1.00  0.00    -0.492 F  
HETATM   20  C   UNL     1     -10.693  13.950  65.209  1.00  0.00    -0.352 A  
HETATM   21  C   UNL     1     -12.884  13.180  65.739  1.00  0.00     0.055 A  
ENDBRANCH  12  15
BRANCH  14  22
HETATM   22  C   UNL     1      -8.228  11.456  65.685  1.00  0.00     0.231 C  
HETATM   23  C   UNL     1      -9.588  12.145  63.834  1.00  0.00    -0.014 C  
HETATM   24  C   UNL     1      -8.164  11.753  64.188  1.00  0.00     1.679 C  
HETATM   25  N   UNL     1      -9.581  10.922  65.838  1.00  0.00    -0.206 N  
HETATM   26  O   UNL     1     -11.597  11.083  64.573  1.00  0.00     0.178 OA 
HETATM   27  C   UNL     1     -10.414  11.313  64.777  1.00  0.00    -0.323 C  
BRANCH  25  28
HETATM   28  C   UNL     1      -9.966   9.932  66.774  1.00  0.00    -0.214 A  
HETATM   29  N   UNL     1     -10.233   8.688  66.314  1.00  0.00    -0.185 NA 
HETATM   30  C   UNL     1     -10.545   7.692  67.167  1.00  0.00    -0.340 A  
HETATM   31  C   UNL     1     -10.614   7.865  68.529  1.00  0.00    -0.146 A  
HETATM   32  C   UNL     1     -10.347   9.138  69.017  1.00  0.00    -0.229 A  
HETATM   33  C   UNL     1     -10.018  10.182  68.139  1.00  0.00    -0.170 A  
HETATM   34  C   UNL     1     -10.405   9.381  70.427  1.00  0.00    -0.262 C  
HETATM   35  N   UNL     1     -10.451   9.592  71.567  1.00  0.00    -0.229 NA 
ENDBRANCH  25  28
ENDBRANCH  14  22
ENDBRANCH   1  12
BRANCH   1  36
HETATM   36  C   UNL     1      -7.406  14.642  68.588  1.00  0.00    -0.125 A  
HETATM   37  C   UNL     1      -6.525  13.471  70.589  1.00  0.00     0.353 A  
HETATM   38  C   UNL     1      -5.339  14.174  70.519  1.00  0.00    -0.115 A  
HETATM   39 CL   UNL     1      -5.618  15.943  66.973  1.00  0.00     0.154 Cl 
HETATM   40  C   UNL     1      -5.135  15.023  69.433  1.00  0.00    -0.088 A  
HETATM   41  C   UNL     1      -7.542  13.718  69.666  1.00  0.00     0.549 A  
HETATM   42  C   UNL     1      -6.128  15.192  68.435  1.00  0.00    -0.107 A  
ENDBRANCH   1  36
TORSDOF 7
ENDMDL
MODEL      208
REMARK 921   NORMALIZED FREE ENERGY PREDICTED BY IDOCK:    7.94 KCAL/MOL
REMARK 922        TOTAL FREE ENERGY PREDICTED BY IDOCK:    9.74 KCAL/MOL
REMARK 923 INTER-LIGAND FREE ENERGY PREDICTED BY IDOCK:    6.35 KCAL/MOL
REMARK 924 INTRA-LIGAND FREE ENERGY PREDICTED BY IDOCK:    3.39 KCAL/MOL
REMARK 927      BINDING AFFINITY PREDICTED BY RF-SCORE:    0.00 PKD
ROOT
HETATM    1  C   UNL     1      -7.158  12.036  69.122  1.00  0.00    -0.032 C  
ENDROOT
BRANCH   1   2
HETATM    2  C   UNL     1      -8.219  10.835  69.279  1.00  0.00    -0.078 C  
HETATM    3  H   UNL     1      -7.209   9.485  68.099  1.00  0.00     0.000 HD 
HETATM    4  N   UNL     1      -8.038   9.595  68.682  1.00  0.00    -0.099 N  
HETATM    5  O   UNL     1      -9.278  11.042  69.869  1.00  0.00     0.552 OA 
BRANCH   4   6
HETATM    6  C   UNL     1      -8.950   8.384  68.808  1.00  0.00    -0.140 C  
HETATM    7  C   UNL     1      -9.352   6.341  69.301  1.00  0.00    -0.136 C  
HETATM    8  F   UNL     1      -8.852   5.165  69.734  1.00  0.00    -0.100 F  
HETATM    9  C   UNL     1      -8.590   7.031  68.131  1.00  0.00    -0.128 C  
HETATM   10  F   UNL     1     -10.675   6.149  69.095  1.00  0.00    -0.234 F  
HETATM   11  C   UNL     1      -8.989   7.597  70.143  1.00  0.00    -0.146 C  
ENDBRANCH   4   6
ENDBRANCH   1   2
BRANCH   1  12
HETATM   12  N   UNL     1      -7.372  12.826  67.847  1.00  0.00    -0.105 N  
HETATM   13  O   UNL     1      -8.216  14.679  68.931  1.00  0.00    -0.156 OA 
HETATM   14  C   UNL     1      -7.882  14.141  67.872  1.00  0.00    -0.155 C  
BRANCH  12  15
HETATM   15  C   UNL     1      -7.004  12.186  66.639  1.00  0.00     0.252 A  
HETATM   16  C   UNL     1      -5.677  11.864  66.353  1.00  0.00     0.322 A  
HETATM   17  C   UNL     1      -7.619  11.053  64.622  1.00  0.00     0.597 A  
HETATM   18  N   UNL     1      -5.299  11.149  65.267  1.00  0.00    -0.205 NA 
HETATM   19  F   UNL     1      -8.556  10.624  63.769  1.00  0.00    -0.170 F  
HETATM   20  C   UNL     1      -7.987  11.765  65.750  1.00  0.00     0.620 A  
HETATM   21  C   UNL     1      -6.284  10.764  64.419  1.00  0.00     0.233 A  
ENDBRANCH  12  15
BRANCH  14  22
HETATM   22  C   UNL     1      -7.944  14.943  66.521  1.00  0.00     0.475 C  
HETATM   23  C   UNL     1      -8.055  17.263  67.119  1.00  0.00    -0.225 C  
HETATM   24  C   UNL     1      -7.081  16.197  66.650  1.00  0.00    -0.035 C  
HETATM   25  N   UNL     1      -9.238  15.498  66.122  1.00  0.00    -0.328 N  
HETATM   26  O   UNL     1     -10.274  17.639  66.315  1.00  0.00    -0.349 OA 
HETATM   27  C   UNL     1      -9.347  16.855  66.465  1.00  0.00    -0.270 C  
BRANCH  25  28
HETATM   28  C   UNL     1     -10.173  14.857  65.273  1.00  0.00    -0.373 A  
HETATM   29  N   UNL     1     -10.723  15.579  64.270  1.00  0.00     0.046 NA 
HETATM   30  C   UNL     1     -11.573  15.004  63.395  1.00  0.00     1.748 A  
HETATM   31  C   UNL     1     -11.932  13.679  63.459  1.00  0.00    -0.301 A  
HETATM   32  C   UNL     1     -11.379  12.925  64.487  1.00  0.00    -0.382 A  
HETATM   33  C   UNL     1     -10.490  13.512  65.402  1.00  0.00    -0.322 A  
HETATM   34  C   UNL     1     -11.716  11.538  64.608  1.00  0.00     0.025 C  
HETATM   35  N   UNL     1     -11.984  10.415  64.718  1.00  0.00     3.199 NA 
ENDBRANCH  25  28
ENDBRANCH  14  22
ENDBRANCH   1  12
BRANCH   1  36
HETATM   36  C   UNL     1      -6.632  12.960  70.251  1.00  0.00     0.446 A  
HETATM   37  C   UNL     1      -6.799  15.231  71.235  1.00  0.00     1.416 A  
HETATM   38  C   UNL     1      -5.743  14.976  72.086  1.00  0.00     0.415 A  
HETATM   39 CL   UNL     1      -5.227  11.062  71.637  1.00  0.00    -0.009 Cl 
HETATM   40  C   UNL     1      -5.202  13.691  72.105  1.00  0.00    -0.169 A  
HETATM   41  C   UNL     1      -7.215  14.260  70.323  1.00  0.00     0.464 A  
HETATM   42  C   UNL     1      -5.697  12.672  71.253  1.00  0.00     0.182 A  
ENDBRANCH   1  36
TORSDOF 7
ENDMDL
MODEL      209
REMARK 921   NORMALIZED FREE ENERGY PREDICTED BY IDOCK:    8.54 KCAL/MOL
REMARK 922        TOTAL FREE ENERGY PREDICTED BY IDOCK:   10.58 KCAL/MOL
REMARK 923 INTER-LIGAND FREE ENERGY PREDICTED BY IDOCK:   -4.34 KCAL/MOL
REMARK 924 INTRA-LIGAND FREE ENERGY PREDICTED BY IDOCK:   14.92 KCAL/MOL
REMARK 927      BINDING AFFINITY PREDICTED BY RF-SCORE:    0.00 PKD
ROOT
HETATM    1  C   UNL     1      -8.013   6.519  65.232  1.00  0.00    -0.119 C  
ENDROOT
BRANCH   1   2
HETATM    2  C   UNL     1      -7.634   5.216  66.096  1.00  0.00    -0.087 C  
HETATM    3  H   UNL     1      -7.443   6.188  67.900  1.00  0.00     0.000 HD 
HETATM    4  N   UNL     1      -7.400   5.267  67.463  1.00  0.00    -0.078 N  
HETATM    5  O   UNL     1      -7.450   4.145  65.519  1.00  0.00    -0.075 OA 
BRANCH   4   6
HETATM    6  C   UNL     1      -7.086   4.092  68.377  1.00  0.00    -0.055 C  
HETATM    7  C   UNL     1      -6.216   3.211  70.121  1.00  0.00    -0.024 C  
HETATM    8  F   UNL     1      -5.476   3.402  71.234  1.00  0.00    -0.006 F  
HETATM    9  C   UNL     1      -5.625   3.761  68.790  1.00  0.00    -0.017 C  
HETATM   10  F   UNL     1      -6.559   1.903  70.104  1.00  0.00    -0.026 F  
HETATM   11  C   UNL     1      -7.388   4.207  69.893  1.00  0.00    -0.049 C  
ENDBRANCH   4   6
ENDBRANCH   1   2
BRANCH   1  12
HETATM   12  N   UNL     1      -9.010   7.410  65.944  1.00  0.00    -0.124 N  
HETATM   13  O   UNL     1     -10.172   5.652  66.883  1.00  0.00    -0.178 OA 
HETATM   14  C   UNL     1     -10.029   6.871  66.758  1.00  0.00    -0.182 C  
BRANCH  12  15
HETATM   15  C   UNL     1      -8.845   8.805  65.772  1.00  0.00    -0.195 A  
HETATM   16  C   UNL     1      -7.929   9.535  66.530  1.00  0.00    -0.112 A  
HETATM   17  C   UNL     1      -9.281  10.808  64.535  1.00  0.00    -0.220 A  
HETATM   18  N   UNL     1      -7.657  10.844  66.316  1.00  0.00    -0.145 NA 
HETATM   19  F   UNL     1      -9.916  11.449  63.548  1.00  0.00    -0.266 F  
HETATM   20  C   UNL     1      -9.528   9.465  64.755  1.00  0.00    -0.088 A  
HETATM   21  C   UNL     1      -8.348  11.454  65.322  1.00  0.00     0.370 A  
ENDBRANCH  12  15
BRANCH  14  22
HETATM   22  C   UNL     1     -10.937   7.864  67.572  1.00  0.00     0.065 C  
HETATM   23  C   UNL     1      -9.873  10.009  67.446  1.00  0.00    -0.226 C  
HETATM   24  C   UNL     1     -11.000   9.198  66.830  1.00  0.00     0.169 C  
HETATM   25  N   UNL     1     -10.478   8.269  68.901  1.00  0.00    -0.215 N  
HETATM   26  O   UNL     1      -9.311  10.162  69.764  1.00  0.00    -0.211 OA 
HETATM   27  C   UNL     1      -9.838   9.518  68.868  1.00  0.00    -0.174 C  
BRANCH  25  28
HETATM   28  C   UNL     1     -10.840   7.638  70.115  1.00  0.00    -0.248 A  
HETATM   29  N   UNL     1     -12.145   7.643  70.473  1.00  0.00    -0.042 NA 
HETATM   30  C   UNL     1     -12.554   7.006  71.588  1.00  0.00    -0.380 A  
HETATM   31  C   UNL     1     -11.698   6.323  72.419  1.00  0.00    -0.301 A  
HETATM   32  C   UNL     1     -10.354   6.313  72.068  1.00  0.00    -0.231 A  
HETATM   33  C   UNL     1      -9.916   6.970  70.908  1.00  0.00    -0.200 A  
HETATM   34  C   UNL     1      -9.412   5.621  72.896  1.00  0.00    -0.147 C  
HETATM   35  N   UNL     1      -8.639   5.066  73.560  1.00  0.00    -0.109 NA 
ENDBRANCH  25  28
ENDBRANCH  14  22
ENDBRANCH   1  12
BRANCH   1  36
HETATM   36  C   UNL     1      -7.045   7.371  64.368  1.00  0.00    -0.062 A  
HETATM   37  C   UNL     1      -5.689   9.448  64.319  1.00  0.00    -0.071 A  
HETATM   38  C   UNL     1      -5.396   9.264  62.984  1.00  0.00    -0.071 A  
HETATM   39 CL   UNL     1      -6.703   5.569  62.336  1.00  0.00    -0.029 Cl 
HETATM   40  C   UNL     1      -5.825   8.090  62.366  1.00  0.00    -0.070 A  
HETATM   41  C   UNL     1      -6.514   8.542  64.987  1.00  0.00    -0.060 A  
HETATM   42  C   UNL     1      -6.572   7.117  63.075  1.00  0.00    -0.052 A  
ENDBRANCH   1  36
TORSDOF 7
ENDMDL
MODEL      210
REMARK 921   NORMALIZED FREE ENERGY PREDICTED BY IDOCK:    8.65 KCAL/MOL
REMARK 922        TOTAL FREE ENERGY PREDICTED BY IDOCK:   10.74 KCAL/MOL
REMARK 923 INTER-LIGAND FREE ENERGY PREDICTED BY IDOCK:   -4.11 KCAL/MOL
REMARK 924 INTRA-LIGAND FREE ENERGY PREDICTED BY IDOCK:   14.85 KCAL/MOL
REMARK 927      BINDING AFFINITY PREDICTED BY RF-SCORE:    0.00 PKD
ROOT
HETATM    1  C   UNL     1      -9.616   7.949  67.832  1.00  0.00    -0.147 C  
ENDROOT
BRANCH   1   2
HETATM    2  C   UNL     1      -9.578   8.266  69.409  1.00  0.00    -0.171 C  
HETATM    3  H   UNL     1      -8.204   6.815  69.899  1.00  0.00     0.000 HD 
HETATM    4  N   UNL     1      -8.762   7.572  70.292  1.00  0.00    -0.144 N  
HETATM    5  O   UNL     1     -10.366   9.087  69.876  1.00  0.00    -0.193 OA 
BRANCH   4   6
HETATM    6  C   UNL     1      -8.615   7.825  71.784  1.00  0.00    -0.116 C  
HETATM    7  C   UNL     1      -7.469   8.057  73.576  1.00  0.00    -0.148 C  
HETATM    8  F   UNL     1      -6.245   8.037  74.145  1.00  0.00    -0.085 F  
HETATM    9  C   UNL     1      -7.848   6.828  72.698  1.00  0.00    -0.100 C  
HETATM   10  F   UNL     1      -8.349   8.358  74.559  1.00  0.00    -0.302 F  
HETATM   11  C   UNL     1      -7.613   8.900  72.278  1.00  0.00     0.155 C  
ENDBRANCH   4   6
ENDBRANCH   1   2
BRANCH   1  12
HETATM   12  N   UNL     1      -8.977   9.051  67.010  1.00  0.00    -0.125 N  
HETATM   13  O   UNL     1      -9.513   8.087  64.984  1.00  0.00     0.637 OA 
HETATM   14  C   UNL     1      -9.006   9.028  65.600  1.00  0.00    -0.202 C  
BRANCH  12  15
HETATM   15  C   UNL     1      -8.381  10.111  67.733  1.00  0.00    -0.114 A  
HETATM   16  C   UNL     1      -7.021  10.114  68.047  1.00  0.00    -0.082 A  
HETATM   17  C   UNL     1      -8.511  12.309  68.674  1.00  0.00     0.007 A  
HETATM   18  N   UNL     1      -6.392  11.160  68.632  1.00  0.00    -0.044 NA 
HETATM   19  F   UNL     1      -9.215  13.406  68.972  1.00  0.00    -0.013 F  
HETATM   20  C   UNL     1      -9.130  11.238  68.056  1.00  0.00    -0.156 A  
HETATM   21  C   UNL     1      -7.157  12.236  68.939  1.00  0.00    -0.088 A  
ENDBRANCH  12  15
BRANCH  14  22
HETATM   22  C   UNL     1      -8.443  10.274  64.822  1.00  0.00    -0.174 C  
HETATM   23  C   UNL     1      -6.376  10.857  65.889  1.00  0.00    -0.072 C  
HETATM   24  C   UNL     1      -6.929  10.125  64.679  1.00  0.00    -0.121 C  
HETATM   25  N   UNL     1      -8.566  11.585  65.461  1.00  0.00     0.082 N  
HETATM   26  O   UNL     1      -7.111  12.958  66.759  1.00  0.00     0.192 OA 
HETATM   27  C   UNL     1      -7.378  11.958  66.108  1.00  0.00     0.618 C  
BRANCH  25  28
HETATM   28  C   UNL     1      -9.633  12.493  65.257  1.00  0.00     0.046 A  
HETATM   29  N   UNL     1     -10.768  12.027  64.687  1.00  0.00    -0.294 NA 
HETATM   30  C   UNL     1     -11.836  12.833  64.525  1.00  0.00    -0.379 A  
HETATM   31  C   UNL     1     -11.848  14.151  64.915  1.00  0.00    -0.407 A  
HETATM   32  C   UNL     1     -10.687  14.647  65.497  1.00  0.00    -0.360 A  
HETATM   33  C   UNL     1      -9.570  13.816  65.675  1.00  0.00    -0.041 A  
HETATM   34  C   UNL     1     -10.637  16.013  65.923  1.00  0.00    -0.328 C  
HETATM   35  N   UNL     1     -10.583  17.119  66.269  1.00  0.00    -0.243 NA 
ENDBRANCH  25  28
ENDBRANCH  14  22
ENDBRANCH   1  12
BRANCH   1  36
HETATM   36  C   UNL     1      -9.391   6.570  67.159  1.00  0.00    -0.138 A  
HETATM   37  C   UNL     1     -10.522   4.678  66.021  1.00  0.00    -0.303 A  
HETATM   38  C   UNL     1      -9.358   3.936  66.026  1.00  0.00    -0.173 A  
HETATM   39 CL   UNL     1      -6.654   6.621  67.147  1.00  0.00    -0.049 Cl 
HETATM   40  C   UNL     1      -8.190   4.539  66.490  1.00  0.00    -0.103 A  
HETATM   41  C   UNL     1     -10.546   5.948  66.596  1.00  0.00    -0.330 A  
HETATM   42  C   UNL     1      -8.193   5.871  66.975  1.00  0.00    -0.105 A  
ENDBRANCH   1  36
TORSDOF 7
ENDMDL
MODEL      211
REMARK 921   NORMALIZED FREE ENERGY PREDICTED BY IDOCK:    9.33 KCAL/MOL
REMARK 922        TOTAL FREE ENERGY PREDICTED BY IDOCK:   11.70 KCAL/MOL
REMARK 923 INTER-LIGAND FREE ENERGY PREDICTED BY IDOCK:    0.14 KCAL/MOL
REMARK 924 INTRA-LIGAND FREE ENERGY PREDICTED BY IDOCK:   11.56 KCAL/MOL
REMARK 927      BINDING AFFINITY PREDICTED BY RF-SCORE:    0.00 PKD
ROOT
HETATM    1  C   UNL     1     -10.361  17.254  66.494  1.00  0.00    -0.308 C  
ENDROOT
BRANCH   1   2
HETATM    2  C   UNL     1     -11.067  16.476  65.274  1.00  0.00    -0.076 C  
HETATM    3  H   UNL     1     -11.330  14.692  66.265  1.00  0.00     0.000 HD 
HETATM    4  N   UNL     1     -11.507  15.165  65.379  1.00  0.00    -0.289 N  
HETATM    5  O   UNL     1     -11.138  17.023  64.174  1.00  0.00    -0.941 OA 
BRANCH   4   6
HETATM    6  C   UNL     1     -12.227  14.359  64.308  1.00  0.00    -0.423 C  
HETATM    7  C   UNL     1     -12.781  12.530  63.346  1.00  0.00    -0.191 C  
HETATM    8  F   UNL     1     -12.655  11.186  63.315  1.00  0.00    -0.248 F  
HETATM    9  C   UNL     1     -11.459  13.351  63.406  1.00  0.00     0.055 C  
HETATM   10  F   UNL     1     -13.623  12.863  62.341  1.00  0.00     1.418 F  
HETATM   11  C   UNL     1     -13.116  13.161  64.727  1.00  0.00    -0.002 C  
ENDBRANCH   4   6
ENDBRANCH   1   2
BRANCH   1  12
HETATM   12  N   UNL     1     -10.176  16.368  67.708  1.00  0.00    -0.266 N  
HETATM   13  O   UNL     1     -12.412  16.379  68.274  1.00  0.00     0.864 OA 
HETATM   14  C   UNL     1     -11.270  15.976  68.508  1.00  0.00    -0.374 C  
BRANCH  12  15
HETATM   15  C   UNL     1      -8.856  15.932  67.975  1.00  0.00    -0.178 A  
HETATM   16  C   UNL     1      -8.413  14.661  67.609  1.00  0.00    -0.180 A  
HETATM   17  C   UNL     1      -6.619  16.408  68.685  1.00  0.00    -0.142 A  
HETATM   18  N   UNL     1      -7.130  14.250  67.740  1.00  0.00    -0.162 NA 
HETATM   19  F   UNL     1      -5.716  17.255  69.190  1.00  0.00    -0.156 F  
HETATM   20  C   UNL     1      -7.931  16.816  68.522  1.00  0.00    -0.235 A  
HETATM   21  C   UNL     1      -6.260  15.136  68.284  1.00  0.00    -0.119 A  
ENDBRANCH  12  15
BRANCH  14  22
HETATM   22  C   UNL     1     -11.016  14.945  69.668  1.00  0.00    -0.274 C  
HETATM   23  C   UNL     1      -9.046  15.693  70.814  1.00  0.00     2.050 C  
HETATM   24  C   UNL     1     -10.562  15.704  70.914  1.00  0.00     0.040 C  
HETATM   25  N   UNL     1      -9.937  13.974  69.487  1.00  0.00     0.336 N  
HETATM   26  O   UNL     1      -7.660  13.849  70.188  1.00  0.00     0.720 OA 
HETATM   27  C   UNL     1      -8.760  14.381  70.135  1.00  0.00     1.444 C  
BRANCH  25  28
HETATM   28  C   UNL     1     -10.094  12.670  68.958  1.00  0.00     0.186 A  
HETATM   29  N   UNL     1     -10.307  11.652  69.824  1.00  0.00     0.494 NA 
HETATM   30  C   UNL     1     -10.524  10.400  69.373  1.00  0.00    -0.238 A  
HETATM   31  C   UNL     1     -10.543  10.077  68.037  1.00  0.00    -0.280 A  
HETATM   32  C   UNL     1     -10.321  11.111  67.135  1.00  0.00    -0.249 A  
HETATM   33  C   UNL     1     -10.097  12.419  67.593  1.00  0.00    -0.199 A  
HETATM   34  C   UNL     1     -10.326  10.837  65.729  1.00  0.00    -0.230 C  
HETATM   35  N   UNL     1     -10.326  10.627  64.588  1.00  0.00    -0.334 NA 
ENDBRANCH  25  28
ENDBRANCH  14  22
ENDBRANCH   1  12
BRANCH   1  36
HETATM   36  C   UNL     1      -9.204  18.282  66.391  1.00  0.00    -0.272 A  
HETATM   37  C   UNL     1      -6.804  18.561  65.830  1.00  0.00    -0.318 A  
HETATM   38  C   UNL     1      -6.818  19.867  66.275  1.00  0.00    -0.242 A  
HETATM   39 CL   UNL     1     -10.700  20.542  66.782  1.00  0.00     0.138 Cl 
HETATM   40  C   UNL     1      -8.035  20.420  66.670  1.00  0.00    -0.256 A  
HETATM   41  C   UNL     1      -7.957  17.780  65.912  1.00  0.00    -0.063 A  
HETATM   42  C   UNL     1      -9.229  19.657  66.651  1.00  0.00    -0.364 A  
ENDBRANCH   1  36
TORSDOF 7
ENDMDL
MODEL      212
REMARK 921   NORMALIZED FREE ENERGY PREDICTED BY IDOCK:    9.39 KCAL/MOL
REMARK 922        TOTAL FREE ENERGY PREDICTED BY IDOCK:   11.77 KCAL/MOL
REMARK 923 INTER-LIGAND FREE ENERGY PREDICTED BY IDOCK:    9.78 KCAL/MOL
REMARK 924 INTRA-LIGAND FREE ENERGY PREDICTED BY IDOCK:    1.99 KCAL/MOL
REMARK 927      BINDING AFFINITY PREDICTED BY RF-SCORE:    0.00 PKD
ROOT
HETATM    1  C   UNL     1      -7.083  12.999  67.285  1.00  0.00    -0.044 C  
ENDROOT
BRANCH   1   2
HETATM    2  C   UNL     1      -6.814  14.545  67.641  1.00  0.00    -0.182 C  
HETATM    3  H   UNL     1      -5.953  15.047  65.841  1.00  0.00     0.000 HD 
HETATM    4  N   UNL     1      -6.238  15.431  66.741  1.00  0.00     0.836 N  
HETATM    5  O   UNL     1      -7.036  14.946  68.783  1.00  0.00    -0.099 OA 
BRANCH   4   6
HETATM    6  C   UNL     1      -5.987  16.915  66.960  1.00  0.00    -0.175 C  
HETATM    7  C   UNL     1      -6.566  18.875  67.593  1.00  0.00    -0.204 C  
HETATM    8  F   UNL     1      -7.545  19.656  68.096  1.00  0.00    -0.307 F  
HETATM    9  C   UNL     1      -6.943  17.989  66.369  1.00  0.00    -0.278 C  
HETATM   10  F   UNL     1      -5.486  19.670  67.420  1.00  0.00    -0.164 F  
HETATM   11  C   UNL     1      -6.293  17.541  68.345  1.00  0.00    -0.177 C  
ENDBRANCH   4   6
ENDBRANCH   1   2
BRANCH   1  12
HETATM   12  N   UNL     1      -8.554  12.641  67.360  1.00  0.00    -0.180 N  
HETATM   13  O   UNL     1      -8.822  13.461  69.500  1.00  0.00     0.909 OA 
HETATM   14  C   UNL     1      -9.327  12.939  68.502  1.00  0.00    -0.074 C  
BRANCH  12  15
HETATM   15  C   UNL     1      -9.112  12.023  66.216  1.00  0.00    -0.165 A  
HETATM   16  C   UNL     1      -9.066  10.641  66.031  1.00  0.00    -0.180 A  
HETATM   17  C   UNL     1     -10.444  12.154  64.230  1.00  0.00    -0.339 A  
HETATM   18  N   UNL     1      -9.689  10.002  65.013  1.00  0.00    -0.309 NA 
HETATM   19  F   UNL     1     -11.144  12.872  63.346  1.00  0.00    -0.450 F  
HETATM   20  C   UNL     1      -9.819  12.785  65.292  1.00  0.00    -0.118 A  
HETATM   21  C   UNL     1     -10.361  10.779  64.128  1.00  0.00    -0.311 A  
ENDBRANCH  12  15
BRANCH  14  22
HETATM   22  C   UNL     1     -10.874  12.661  68.450  1.00  0.00    -0.245 C  
HETATM   23  C   UNL     1     -11.942  14.632  69.300  1.00  0.00    -0.337 C  
HETATM   24  C   UNL     1     -11.590  13.933  67.999  1.00  0.00    -0.368 C  
HETATM   25  N   UNL     1     -11.550  12.355  69.711  1.00  0.00    -0.267 N  
HETATM   26  O   UNL     1     -12.815  13.626  71.284  1.00  0.00    -0.337 OA 
HETATM   27  C   UNL     1     -12.180  13.488  70.248  1.00  0.00    -0.347 C  
BRANCH  25  28
HETATM   28  C   UNL     1     -11.780  11.052  70.217  1.00  0.00    -0.355 A  
HETATM   29  N   UNL     1     -12.994  10.493  70.012  1.00  0.00    -0.037 NA 
HETATM   30  C   UNL     1     -13.248   9.233  70.419  1.00  0.00     0.714 A  
HETATM   31  C   UNL     1     -12.317   8.448  71.056  1.00  0.00    -0.143 A  
HETATM   32  C   UNL     1     -11.066   9.010  71.279  1.00  0.00    -0.382 A  
HETATM   33  C   UNL     1     -10.788  10.320  70.856  1.00  0.00     0.005 A  
HETATM   34  C   UNL     1     -10.053   8.243  71.940  1.00  0.00    -0.245 C  
HETATM   35  N   UNL     1      -9.225   7.632  72.476  1.00  0.00    -0.146 NA 
ENDBRANCH  25  28
ENDBRANCH  14  22
ENDBRANCH   1  12
BRANCH   1  36
HETATM   36  C   UNL     1      -6.378  12.167  66.182  1.00  0.00     1.375 A  
HETATM   37  C   UNL     1      -5.159  12.306  64.026  1.00  0.00     4.820 A  
HETATM   38  C   UNL     1      -5.174  10.933  63.891  1.00  0.00    -0.013 A  
HETATM   39 CL   UNL     1      -6.440   9.750  67.465  1.00  0.00    -0.067 Cl 
HETATM   40  C   UNL     1      -5.685  10.169  64.939  1.00  0.00    -0.114 A  
HETATM   41  C   UNL     1      -5.768  12.909  65.126  1.00  0.00     8.418 A  
HETATM   42  C   UNL     1      -6.207  10.780  66.107  1.00  0.00    -0.134 A  
ENDBRANCH   1  36
TORSDOF 7
ENDMDL
MODEL      213
REMARK 921   NORMALIZED FREE ENERGY PREDICTED BY IDOCK:   12.46 KCAL/MOL
REMARK 922        TOTAL FREE ENERGY PREDICTED BY IDOCK:   16.10 KCAL/MOL
REMARK 923 INTER-LIGAND FREE ENERGY PREDICTED BY IDOCK:   -1.05 KCAL/MOL
REMARK 924 INTRA-LIGAND FREE ENERGY PREDICTED BY IDOCK:   17.16 KCAL/MOL
REMARK 927      BINDING AFFINITY PREDICTED BY RF-SCORE:    0.00 PKD
ROOT
HETATM    1  C   UNL     1     -10.624  14.057  68.052  1.00  0.00    -0.247 C  
ENDROOT
BRANCH   1   2
HETATM    2  C   UNL     1     -10.607  15.631  67.718  1.00  0.00    -0.281 C  
HETATM    3  H   UNL     1      -9.265  16.160  69.186  1.00  0.00     0.000 HD 
HETATM    4  N   UNL     1      -9.817  16.535  68.415  1.00  0.00    -0.229 N  
HETATM    5  O   UNL     1     -11.389  16.076  66.879  1.00  0.00    -0.028 OA 
BRANCH   4   6
HETATM    6  C   UNL     1      -9.691  18.027  68.147  1.00  0.00    -0.322 C  
HETATM    7  C   UNL     1     -10.144  20.081  68.540  1.00  0.00    -0.365 C  
HETATM    8  F   UNL     1     -10.849  20.960  69.282  1.00  0.00    -0.169 F  
HETATM    9  C   UNL     1     -10.946  18.910  67.900  1.00  0.00    -0.139 C  
HETATM   10  F   UNL     1      -9.399  20.811  67.677  1.00  0.00    -0.468 F  
HETATM   11  C   UNL     1      -9.366  18.985  69.322  1.00  0.00    -0.075 C  
ENDBRANCH   4   6
ENDBRANCH   1   2
BRANCH   1  12
HETATM   12  N   UNL     1      -9.250  13.430  67.930  1.00  0.00    -0.207 N  
HETATM   13  O   UNL     1      -8.278  14.838  69.476  1.00  0.00    -0.083 OA 
HETATM   14  C   UNL     1      -8.162  13.883  68.704  1.00  0.00    -0.088 C  
BRANCH  12  15
HETATM   15  C   UNL     1      -9.129  12.350  67.023  1.00  0.00    -0.207 A  
HETATM   16  C   UNL     1      -8.704  12.538  65.708  1.00  0.00     0.657 A  
HETATM   17  C   UNL     1      -9.116   9.994  66.595  1.00  0.00    -0.147 A  
HETATM   18  N   UNL     1      -8.463  11.521  64.847  1.00  0.00     0.474 NA 
HETATM   19  F   UNL     1      -9.290   8.735  67.013  1.00  0.00    -0.153 F  
HETATM   20  C   UNL     1      -9.334  11.047  67.466  1.00  0.00    -0.167 A  
HETATM   21  C   UNL     1      -8.682  10.266  65.312  1.00  0.00    -0.172 A  
ENDBRANCH  12  15
BRANCH  14  22
HETATM   22  C   UNL     1      -6.805  13.092  68.620  1.00  0.00    -0.099 C  
HETATM   23  C   UNL     1      -6.979  11.656  66.707  1.00  0.00    -0.080 C  
HETATM   24  C   UNL     1      -6.387  12.981  67.155  1.00  0.00     0.228 C  
HETATM   25  N   UNL     1      -6.809  11.693  69.048  1.00  0.00    -0.098 N  
HETATM   26  O   UNL     1      -6.979   9.598  67.921  1.00  0.00    -0.077 OA 
HETATM   27  C   UNL     1      -6.921  10.819  67.956  1.00  0.00    -0.073 C  
BRANCH  25  28
HETATM   28  C   UNL     1      -6.485  11.238  70.349  1.00  0.00     0.122 A  
HETATM   29  N   UNL     1      -5.654  11.996  71.101  1.00  0.00    -0.374 NA 
HETATM   30  C   UNL     1      -5.360  11.643  72.368  1.00  0.00     0.643 A  
HETATM   31  C   UNL     1      -5.868  10.516  72.970  1.00  0.00     1.255 A  
HETATM   32  C   UNL     1      -6.718   9.723  72.208  1.00  0.00     1.089 A  
HETATM   33  C   UNL     1      -7.035  10.084  70.889  1.00  0.00     0.163 A  
HETATM   34  C   UNL     1      -7.277   8.535  72.779  1.00  0.00    -0.009 C  
HETATM   35  N   UNL     1      -7.735   7.568  73.229  1.00  0.00    -0.096 NA 
ENDBRANCH  25  28
ENDBRANCH  14  22
ENDBRANCH   1  12
BRANCH   1  36
HETATM   36  C   UNL     1     -11.443  13.356  69.168  1.00  0.00    -0.351 A  
HETATM   37  C   UNL     1     -12.340  13.611  71.467  1.00  0.00    -0.242 A  
HETATM   38  C   UNL     1     -12.742  12.291  71.491  1.00  0.00    -0.339 A  
HETATM   39 CL   UNL     1     -12.267  11.196  67.702  1.00  0.00     0.472 Cl 
HETATM   40  C   UNL     1     -12.602  11.533  70.330  1.00  0.00    -0.193 A  
HETATM   41  C   UNL     1     -11.683  14.123  70.348  1.00  0.00    -0.312 A  
HETATM   42  C   UNL     1     -12.032  12.087  69.156  1.00  0.00    -0.268 A  
ENDBRANCH   1  36
TORSDOF 7
ENDMDL
MODEL      214
REMARK 921   NORMALIZED FREE ENERGY PREDICTED BY IDOCK:   16.43 KCAL/MOL
REMARK 922        TOTAL FREE ENERGY PREDICTED BY IDOCK:   21.69 KCAL/MOL
REMARK 923 INTER-LIGAND FREE ENERGY PREDICTED BY IDOCK:   -0.17 KCAL/MOL
REMARK 924 INTRA-LIGAND FREE ENERGY PREDICTED BY IDOCK:   21.86 KCAL/MOL
REMARK 927      BINDING AFFINITY PREDICTED BY RF-SCORE:    0.00 PKD
ROOT
HETATM    1  C   UNL     1      -9.451   8.869  66.349  1.00  0.00    -0.220 C  
ENDROOT
BRANCH   1   2
HETATM    2  C   UNL     1     -10.268   8.099  67.501  1.00  0.00    -0.243 C  
HETATM    3  H   UNL     1      -8.851   6.650  67.855  1.00  0.00     0.000 HD 
HETATM    4  N   UNL     1      -9.763   6.988  68.161  1.00  0.00    -0.132 N  
HETATM    5  O   UNL     1     -11.423   8.442  67.750  1.00  0.00     0.765 OA 
BRANCH   4   6
HETATM    6  C   UNL     1     -10.430   6.221  69.293  1.00  0.00    -0.244 C  
HETATM    7  C   UNL     1     -10.448   5.307  71.228  1.00  0.00    -0.204 C  
HETATM    8  F   UNL     1      -9.745   4.999  72.338  1.00  0.00    -0.160 F  
HETATM    9  C   UNL     1      -9.800   4.920  69.865  1.00  0.00    -0.295 C  
HETATM   10  F   UNL     1     -11.704   4.844  71.423  1.00  0.00     0.482 F  
HETATM   11  C   UNL     1     -10.354   6.780  70.737  1.00  0.00    -0.227 C  
ENDBRANCH   4   6
ENDBRANCH   1   2
BRANCH   1  12
HETATM   12  N   UNL     1      -9.040  10.265  66.772  1.00  0.00    -0.142 N  
HETATM   13  O   UNL     1      -7.209  10.338  65.370  1.00  0.00    -0.139 OA 
HETATM   14  C   UNL     1      -7.921  10.908  66.201  1.00  0.00    -0.155 C  
BRANCH  12  15
HETATM   15  C   UNL     1      -9.855  10.895  67.742  1.00  0.00    -0.175 A  
HETATM   16  C   UNL     1      -9.410  11.111  69.047  1.00  0.00    -0.049 A  
HETATM   17  C   UNL     1     -11.836  12.113  68.311  1.00  0.00    -0.301 A  
HETATM   18  N   UNL     1     -10.111  11.812  69.969  1.00  0.00     1.409 NA 
HETATM   19  F   UNL     1     -13.019  12.634  67.968  1.00  0.00     0.868 F  
HETATM   20  C   UNL     1     -11.093  11.413  67.377  1.00  0.00    -0.349 A  
HETATM   21  C   UNL     1     -11.317  12.294  69.578  1.00  0.00    -0.187 A  
ENDBRANCH  12  15
BRANCH  14  22
HETATM   22  C   UNL     1      -7.642  12.405  66.592  1.00  0.00     0.298 C  
HETATM   23  C   UNL     1      -6.238  12.344  68.536  1.00  0.00    -0.062 C  
HETATM   24  C   UNL     1      -6.184  12.538  67.030  1.00  0.00     0.096 C  
HETATM   25  N   UNL     1      -8.362  12.952  67.742  1.00  0.00    -0.164 N  
HETATM   26  O   UNL     1      -7.840  13.268  70.048  1.00  0.00     1.404 OA 
HETATM   27  C   UNL     1      -7.577  12.923  68.905  1.00  0.00     0.054 C  
BRANCH  25  28
HETATM   28  C   UNL     1      -9.587  13.659  67.676  1.00  0.00    -0.221 A  
HETATM   29  N   UNL     1     -10.276  13.633  66.512  1.00  0.00    -0.278 NA 
HETATM   30  C   UNL     1     -11.477  14.237  66.410  1.00  0.00    -0.355 A  
HETATM   31  C   UNL     1     -12.070  14.907  67.454  1.00  0.00    -0.024 A  
HETATM   32  C   UNL     1     -11.372  14.948  68.655  1.00  0.00    -0.309 A  
HETATM   33  C   UNL     1     -10.122  14.318  68.774  1.00  0.00    -0.217 A  
HETATM   34  C   UNL     1     -11.937  15.633  69.779  1.00  0.00    -0.354 C  
HETATM   35  N   UNL     1     -12.383  16.187  70.695  1.00  0.00    -0.129 NA 
ENDBRANCH  25  28
ENDBRANCH  14  22
ENDBRANCH   1  12
BRANCH   1  36
HETATM   36  C   UNL     1      -8.389   8.255  65.399  1.00  0.00    -0.170 A  
HETATM   37  C   UNL     1      -7.903   7.658  63.041  1.00  0.00    -0.133 A  
HETATM   38  C   UNL     1      -6.741   7.011  63.409  1.00  0.00    -0.044 A  
HETATM   39 CL   UNL     1      -6.340   8.102  67.208  1.00  0.00    -0.055 Cl 
HETATM   40  C   UNL     1      -6.340   7.077  64.743  1.00  0.00    -0.037 A  
HETATM   41  C   UNL     1      -8.719   8.240  64.011  1.00  0.00     0.282 A  
HETATM   42  C   UNL     1      -7.117   7.762  65.711  1.00  0.00    -0.061 A  
ENDBRANCH   1  36
TORSDOF 7
ENDMDL
MODEL      215
REMARK 921   NORMALIZED FREE ENERGY PREDICTED BY IDOCK:   18.65 KCAL/MOL
REMARK 922        TOTAL FREE ENERGY PREDICTED BY IDOCK:   24.82 KCAL/MOL
REMARK 923 INTER-LIGAND FREE ENERGY PREDICTED BY IDOCK:    8.69 KCAL/MOL
REMARK 924 INTRA-LIGAND FREE ENERGY PREDICTED BY IDOCK:   16.13 KCAL/MOL
REMARK 927      BINDING AFFINITY PREDICTED BY RF-SCORE:    0.00 PKD
ROOT
HETATM    1  C   UNL     1     -10.087  12.096  68.325  1.00  0.00    -0.210 C  
ENDROOT
BRANCH   1   2
HETATM    2  C   UNL     1      -9.973  11.153  67.026  1.00  0.00    -0.192 C  
HETATM    3  H   UNL     1      -7.918  11.181  66.905  1.00  0.00     0.000 HD 
HETATM    4  N   UNL     1      -8.754  10.790  66.470  1.00  0.00    -0.146 N  
HETATM    5  O   UNL     1     -10.999  10.813  66.438  1.00  0.00    -0.166 OA 
BRANCH   4   6
HETATM    6  C   UNL     1      -8.536   9.868  65.280  1.00  0.00    -0.150 C  
HETATM    7  C   UNL     1      -9.074   9.047  63.379  1.00  0.00     0.329 C  
HETATM    8  F   UNL     1      -9.974   9.022  62.373  1.00  0.00     0.755 F  
HETATM    9  C   UNL     1      -9.638   8.872  64.820  1.00  0.00     0.626 C  
HETATM   10  F   UNL     1      -8.086   8.189  63.037  1.00  0.00    -0.143 F  
HETATM   11  C   UNL     1      -8.599  10.452  63.845  1.00  0.00    -0.178 C  
ENDBRANCH   4   6
ENDBRANCH   1   2
BRANCH   1  12
HETATM   12  N   UNL     1      -9.952  13.565  67.981  1.00  0.00    -0.241 N  
HETATM   13  O   UNL     1     -12.197  13.844  67.527  1.00  0.00    -0.366 OA 
HETATM   14  C   UNL     1     -11.072  14.343  67.620  1.00  0.00    -0.300 C  
BRANCH  12  15
HETATM   15  C   UNL     1      -8.652  14.117  68.071  1.00  0.00    -0.172 A  
HETATM   16  C   UNL     1      -8.365  15.186  68.921  1.00  0.00    -0.190 A  
HETATM   17  C   UNL     1      -6.315  14.014  67.558  1.00  0.00    -0.016 A  
HETATM   18  N   UNL     1      -7.114  15.665  69.123  1.00  0.00    -0.154 NA 
HETATM   19  F   UNL     1      -5.290  13.442  66.917  1.00  0.00     0.269 F  
HETATM   20  C   UNL     1      -7.598  13.526  67.382  1.00  0.00    -0.140 A  
HETATM   21  C   UNL     1      -6.115  15.068  68.428  1.00  0.00    -0.105 A  
ENDBRANCH  12  15
BRANCH  14  22
HETATM   22  C   UNL     1     -10.872  15.889  67.412  1.00  0.00    -0.291 C  
HETATM   23  C   UNL     1      -8.857  16.142  66.137  1.00  0.00    -0.367 C  
HETATM   24  C   UNL     1     -10.369  16.135  65.991  1.00  0.00    -0.372 C  
HETATM   25  N   UNL     1      -9.852  16.556  68.222  1.00  0.00    -0.236 N  
HETATM   26  O   UNL     1      -7.583  17.197  67.862  1.00  0.00    -0.169 OA 
HETATM   27  C   UNL     1      -8.651  16.713  67.514  1.00  0.00    -0.189 C  
BRANCH  25  28
HETATM   28  C   UNL     1     -10.088  17.200  69.461  1.00  0.00    -0.016 A  
HETATM   29  N   UNL     1      -9.307  18.254  69.790  1.00  0.00     0.787 NA 
HETATM   30  C   UNL     1      -9.525  18.942  70.929  1.00  0.00     3.410 A  
HETATM   31  C   UNL     1     -10.530  18.630  71.813  1.00  0.00     3.526 A  
HETATM   32  C   UNL     1     -11.338  17.546  71.492  1.00  0.00     2.040 A  
HETATM   33  C   UNL     1     -11.122  16.824  70.307  1.00  0.00     0.118 A  
HETATM   34  C   UNL     1     -12.401  17.169  72.375  1.00  0.00     1.960 C  
HETATM   35  N   UNL     1     -13.263  16.852  73.083  1.00  0.00     0.873 NA 
ENDBRANCH  25  28
ENDBRANCH  14  22
ENDBRANCH   1  12
BRANCH   1  36
HETATM   36  C   UNL     1     -11.051  11.906  69.525  1.00  0.00    -0.169 A  
HETATM   37  C   UNL     1     -12.432  13.100  71.206  1.00  0.00    -0.327 A  
HETATM   38  C   UNL     1     -12.703  11.920  71.869  1.00  0.00    -0.214 A  
HETATM   39 CL   UNL     1     -11.339   9.191  69.325  1.00  0.00     0.123 Cl 
HETATM   40  C   UNL     1     -12.250  10.726  71.310  1.00  0.00    -0.426 A  
HETATM   41  C   UNL     1     -11.607  13.098  70.081  1.00  0.00    -0.147 A  
HETATM   42  C   UNL     1     -11.501  10.715  70.107  1.00  0.00    -0.329 A  
ENDBRANCH   1  36
TORSDOF 7
ENDMDL
MODEL      216
REMARK 921   NORMALIZED FREE ENERGY PREDICTED BY IDOCK:   19.60 KCAL/MOL
REMARK 922        TOTAL FREE ENERGY PREDICTED BY IDOCK:   26.16 KCAL/MOL
REMARK 923 INTER-LIGAND FREE ENERGY PREDICTED BY IDOCK:   26.06 KCAL/MOL
REMARK 924 INTRA-LIGAND FREE ENERGY PREDICTED BY IDOCK:    0.10 KCAL/MOL
REMARK 927      BINDING AFFINITY PREDICTED BY RF-SCORE:    0.00 PKD
ROOT
HETATM    1  C   UNL     1      -9.547  12.328  67.607  1.00  0.00    -0.191 C  
ENDROOT
BRANCH   1   2
HETATM    2  C   UNL     1      -9.540  13.292  68.896  1.00  0.00     0.192 C  
HETATM    3  H   UNL     1     -11.356  14.184  68.522  1.00  0.00     0.000 HD 
HETATM    4  N   UNL     1     -10.585  14.157  69.189  1.00  0.00    -0.202 N  
HETATM    5  O   UNL     1      -8.535  13.341  69.603  1.00  0.00     1.142 OA 
BRANCH   4   6
HETATM    6  C   UNL     1     -10.698  15.068  70.401  1.00  0.00    -0.100 C  
HETATM    7  C   UNL     1      -9.995  15.876  72.253  1.00  0.00     4.716 C  
HETATM    8  F   UNL     1      -9.038  15.852  73.205  1.00  0.00     8.323 F  
HETATM    9  C   UNL     1     -10.604  14.502  71.846  1.00  0.00     2.365 C  
HETATM   10  F   UNL     1     -10.892  16.817  72.628  1.00  0.00     0.909 F  
HETATM   11  C   UNL     1      -9.502  15.978  70.782  1.00  0.00     2.061 C  
ENDBRANCH   4   6
ENDBRANCH   1   2
BRANCH   1  12
HETATM   12  N   UNL     1      -9.545  10.862  67.987  1.00  0.00    -0.159 N  
HETATM   13  O   UNL     1     -11.776  10.833  68.576  1.00  0.00    -0.383 OA 
HETATM   14  C   UNL     1     -10.717  10.216  68.435  1.00  0.00    -0.230 C  
BRANCH  12  15
HETATM   15  C   UNL     1      -8.318  10.173  67.840  1.00  0.00    -0.117 A  
HETATM   16  C   UNL     1      -7.972   9.533  66.650  1.00  0.00    -0.108 A  
HETATM   17  C   UNL     1      -6.138   9.621  68.665  1.00  0.00    -0.043 A  
HETATM   18  N   UNL     1      -6.762   8.967  66.430  1.00  0.00    -0.073 NA 
HETATM   19  F   UNL     1      -5.214   9.670  69.631  1.00  0.00    -0.034 F  
HETATM   20  C   UNL     1      -7.373  10.214  68.861  1.00  0.00    -0.083 A  
HETATM   21  C   UNL     1      -5.872   9.019  67.451  1.00  0.00    -0.046 A  
ENDBRANCH  12  15
BRANCH  14  22
HETATM   22  C   UNL     1     -10.667   8.663  68.678  1.00  0.00    -0.051 C  
HETATM   23  C   UNL     1     -12.934   7.889  68.565  1.00  0.00     9.113 C  
HETATM   24  C   UNL     1     -11.662   7.983  67.740  1.00  0.00     2.212 C  
HETATM   25  N   UNL     1     -11.089   8.168  69.989  1.00  0.00    -0.198 N  
HETATM   26  O   UNL     1     -13.114   7.260  70.863  1.00  0.00    -0.220 OA 
HETATM   27  C   UNL     1     -12.417   7.715  69.967  1.00  0.00     1.001 C  
BRANCH  25  28
HETATM   28  C   UNL     1     -10.225   7.923  71.084  1.00  0.00    -0.195 A  
HETATM   29  N   UNL     1      -9.309   8.868  71.397  1.00  0.00    -0.258 NA 
HETATM   30  C   UNL     1      -8.502   8.715  72.467  1.00  0.00    -0.027 A  
HETATM   31  C   UNL     1      -8.551   7.616  73.292  1.00  0.00    -0.227 A  
HETATM   32  C   UNL     1      -9.483   6.634  72.980  1.00  0.00    -0.157 A  
HETATM   33  C   UNL     1     -10.331   6.784  71.871  1.00  0.00    -0.217 A  
HETATM   34  C   UNL     1      -9.580   5.465  73.801  1.00  0.00    -0.140 C  
HETATM   35  N   UNL     1      -9.666   4.512  74.457  1.00  0.00    -0.135 NA 
ENDBRANCH  25  28
ENDBRANCH  14  22
ENDBRANCH   1  12
BRANCH   1  36
HETATM   36  C   UNL     1     -10.340  12.547  66.292  1.00  0.00    -0.269 A  
HETATM   37  C   UNL     1     -12.152  13.867  65.231  1.00  0.00    -0.422 A  
HETATM   38  C   UNL     1     -12.112  13.076  64.100  1.00  0.00    -0.497 A  
HETATM   39 CL   UNL     1      -8.809  10.947  64.682  1.00  0.00    -0.143 Cl 
HETATM   40  C   UNL     1     -11.122  12.098  64.011  1.00  0.00    -0.449 A  
HETATM   41  C   UNL     1     -11.310  13.593  66.308  1.00  0.00    -0.325 A  
HETATM   42  C   UNL     1     -10.196  11.892  65.063  1.00  0.00    -0.278 A  
ENDBRANCH   1  36
TORSDOF 7
ENDMDL
MODEL      217
REMARK 921   NORMALIZED FREE ENERGY PREDICTED BY IDOCK:   23.93 KCAL/MOL
REMARK 922        TOTAL FREE ENERGY PREDICTED BY IDOCK:   32.27 KCAL/MOL
REMARK 923 INTER-LIGAND FREE ENERGY PREDICTED BY IDOCK:   14.00 KCAL/MOL
REMARK 924 INTRA-LIGAND FREE ENERGY PREDICTED BY IDOCK:   18.27 KCAL/MOL
REMARK 927      BINDING AFFINITY PREDICTED BY RF-SCORE:    0.00 PKD
ROOT
HETATM    1  C   UNL     1      -8.189   6.666  65.843  1.00  0.00    -0.132 C  
ENDROOT
BRANCH   1   2
HETATM    2  C   UNL     1      -7.991   5.264  66.608  1.00  0.00    -0.104 C  
HETATM    3  H   UNL     1      -8.273   6.001  68.509  1.00  0.00     0.000 HD 
HETATM    4  N   UNL     1      -8.097   5.143  67.987  1.00  0.00    -0.098 N  
HETATM    5  O   UNL     1      -7.638   4.275  65.968  1.00  0.00    -0.087 OA 
BRANCH   4   6
HETATM    6  C   UNL     1      -7.978   3.862  68.799  1.00  0.00    -0.066 C  
HETATM    7  C   UNL     1      -7.527   2.769  70.581  1.00  0.00    -0.036 C  
HETATM    8  F   UNL     1      -7.082   2.817  71.855  1.00  0.00    -0.033 F  
HETATM    9  C   UNL     1      -6.649   3.481  69.510  1.00  0.00    -0.034 C  
HETATM   10  F   UNL     1      -7.817   1.473  70.322  1.00  0.00    -0.039 F  
HETATM   11  C   UNL     1      -8.639   3.786  70.199  1.00  0.00    -0.107 C  
ENDBRANCH   4   6
ENDBRANCH   1   2
BRANCH   1  12
HETATM   12  N   UNL     1      -9.339   7.472  66.411  1.00  0.00    -0.174 N  
HETATM   13  O   UNL     1     -10.786   5.677  66.490  1.00  0.00    -0.288 OA 
HETATM   14  C   UNL     1     -10.579   6.871  66.717  1.00  0.00    -0.234 C  
BRANCH  12  15
HETATM   15  C   UNL     1      -9.092   8.846  66.646  1.00  0.00    -0.156 A  
HETATM   16  C   UNL     1      -9.461   9.826  65.725  1.00  0.00    -0.240 A  
HETATM   17  C   UNL     1      -8.419  10.610  68.119  1.00  0.00    -0.122 A  
HETATM   18  N   UNL     1      -9.349  11.155  65.962  1.00  0.00    -0.199 NA 
HETATM   19  F   UNL     1      -7.931  11.019  69.295  1.00  0.00    -0.142 F  
HETATM   20  C   UNL     1      -8.563   9.257  67.865  1.00  0.00    -0.120 A  
HETATM   21  C   UNL     1      -8.822  11.516  67.158  1.00  0.00    -0.168 A  
ENDBRANCH  12  15
BRANCH  14  22
HETATM   22  C   UNL     1     -11.675   7.744  67.431  1.00  0.00     2.297 C  
HETATM   23  C   UNL     1     -11.703   9.855  66.292  1.00  0.00     3.077 C  
HETATM   24  C   UNL     1     -12.446   8.532  66.373  1.00  0.00    11.659 C  
HETATM   25  N   UNL     1     -11.219   8.802  68.333  1.00  0.00     0.339 N  
HETATM   26  O   UNL     1     -10.874  11.152  68.119  1.00  0.00    -0.190 OA 
HETATM   27  C   UNL     1     -11.210  10.054  67.699  1.00  0.00    -0.024 C  
BRANCH  25  28
HETATM   28  C   UNL     1     -11.049   8.662  69.732  1.00  0.00    -0.067 A  
HETATM   29  N   UNL     1      -9.807   8.399  70.200  1.00  0.00    -0.179 NA 
HETATM   30  C   UNL     1      -9.576   8.317  71.526  1.00  0.00    -0.188 A  
HETATM   31  C   UNL     1     -10.560   8.488  72.471  1.00  0.00    -0.308 A  
HETATM   32  C   UNL     1     -11.842   8.753  72.005  1.00  0.00    -0.442 A  
HETATM   33  C   UNL     1     -12.094   8.845  70.627  1.00  0.00    -0.045 A  
HETATM   34  C   UNL     1     -12.910   8.938  72.941  1.00  0.00     0.136 C  
HETATM   35  N   UNL     1     -13.784   9.088  73.689  1.00  0.00     0.891 NA 
ENDBRANCH  25  28
ENDBRANCH  14  22
ENDBRANCH   1  12
BRANCH   1  36
HETATM   36  C   UNL     1      -7.067   7.608  65.331  1.00  0.00    -0.063 A  
HETATM   37  C   UNL     1      -5.865   9.733  65.775  1.00  0.00    -0.061 A  
HETATM   38  C   UNL     1      -5.204   9.648  64.566  1.00  0.00    -0.060 A  
HETATM   39 CL   UNL     1      -6.079   5.959  63.383  1.00  0.00    -0.021 Cl 
HETATM   40  C   UNL     1      -5.381   8.503  63.792  1.00  0.00    -0.057 A  
HETATM   41  C   UNL     1      -6.793   8.755  66.136  1.00  0.00    -0.073 A  
HETATM   42  C   UNL     1      -6.242   7.458  64.211  1.00  0.00    -0.041 A  
ENDBRANCH   1  36
TORSDOF 7
ENDMDL
MODEL      218
REMARK 921   NORMALIZED FREE ENERGY PREDICTED BY IDOCK:   26.26 KCAL/MOL
REMARK 922        TOTAL FREE ENERGY PREDICTED BY IDOCK:   35.54 KCAL/MOL
REMARK 923 INTER-LIGAND FREE ENERGY PREDICTED BY IDOCK:   18.96 KCAL/MOL
REMARK 924 INTRA-LIGAND FREE ENERGY PREDICTED BY IDOCK:   16.58 KCAL/MOL
REMARK 927      BINDING AFFINITY PREDICTED BY RF-SCORE:    0.00 PKD
ROOT
HETATM    1  C   UNL     1      -8.728  16.011  68.099  1.00  0.00    -0.173 C  
ENDROOT
BRANCH   1   2
HETATM    2  C   UNL     1      -9.901  16.118  69.195  1.00  0.00    -0.250 C  
HETATM    3  H   UNL     1      -8.718  16.813  70.728  1.00  0.00     0.000 HD 
HETATM    4  N   UNL     1      -9.680  16.576  70.486  1.00  0.00     1.463 N  
HETATM    5  O   UNL     1     -11.022  15.691  68.919  1.00  0.00    -0.236 OA 
BRANCH   4   6
HETATM    6  C   UNL     1     -10.723  16.761  71.577  1.00  0.00     1.679 C  
HETATM    7  C   UNL     1     -11.512  17.719  73.320  1.00  0.00     1.531 C  
HETATM    8  F   UNL     1     -11.330  18.657  74.273  1.00  0.00     0.311 F  
HETATM    9  C   UNL     1     -10.329  16.734  73.081  1.00  0.00     6.632 C  
HETATM   10  F   UNL     1     -12.707  17.136  73.572  1.00  0.00     0.025 F  
HETATM   11  C   UNL     1     -11.294  18.176  71.850  1.00  0.00     3.465 C  
ENDBRANCH   4   6
ENDBRANCH   1   2
BRANCH   1  12
HETATM   12  N   UNL     1      -8.726  14.672  67.390  1.00  0.00    -0.185 N  
HETATM   13  O   UNL     1      -7.139  13.742  68.781  1.00  0.00    -0.099 OA 
HETATM   14  C   UNL     1      -7.912  13.607  67.830  1.00  0.00    -0.161 C  
BRANCH  12  15
HETATM   15  C   UNL     1      -9.603  14.542  66.287  1.00  0.00    -0.304 A  
HETATM   16  C   UNL     1      -9.248  14.978  65.010  1.00  0.00     1.416 A  
HETATM   17  C   UNL     1     -11.614  13.662  65.330  1.00  0.00    -0.320 A  
HETATM   18  N   UNL     1     -10.008  14.765  63.910  1.00  0.00     2.179 NA 
HETATM   19  F   UNL     1     -12.768  12.999  65.457  1.00  0.00    -0.510 F  
HETATM   20  C   UNL     1     -10.811  13.869  66.438  1.00  0.00    -0.291 A  
HETATM   21  C   UNL     1     -11.182  14.115  64.098  1.00  0.00    -0.035 A  
ENDBRANCH  12  15
BRANCH  14  22
HETATM   22  C   UNL     1      -8.068  12.209  67.127  1.00  0.00    -0.175 C  
HETATM   23  C   UNL     1     -10.108  12.310  65.870  1.00  0.00    -0.272 C  
HETATM   24  C   UNL     1      -8.601  12.424  65.712  1.00  0.00     0.689 C  
HETATM   25  N   UNL     1      -9.044  11.274  67.687  1.00  0.00    -0.147 N  
HETATM   26  O   UNL     1     -11.300  10.698  67.169  1.00  0.00    -0.344 OA 
HETATM   27  C   UNL     1     -10.258  11.311  66.984  1.00  0.00    -0.215 C  
BRANCH  25  28
HETATM   28  C   UNL     1      -8.755  10.268  68.641  1.00  0.00    -0.133 A  
HETATM   29  N   UNL     1      -9.688   9.994  69.581  1.00  0.00    -0.224 NA 
HETATM   30  C   UNL     1      -9.491   9.005  70.477  1.00  0.00    -0.221 A  
HETATM   31  C   UNL     1      -8.358   8.227  70.498  1.00  0.00    -0.124 A  
HETATM   32  C   UNL     1      -7.388   8.500  69.542  1.00  0.00    -0.065 A  
HETATM   33  C   UNL     1      -7.583   9.524  68.602  1.00  0.00    -0.080 A  
HETATM   34  C   UNL     1      -6.184   7.725  69.515  1.00  0.00    -0.034 C  
HETATM   35  N   UNL     1      -5.203   7.105  69.484  1.00  0.00    -0.015 NA 
ENDBRANCH  25  28
ENDBRANCH  14  22
ENDBRANCH   1  12
BRANCH   1  36
HETATM   36  C   UNL     1      -8.252  17.134  67.140  1.00  0.00    -0.214 A  
HETATM   37  C   UNL     1      -8.664  18.215  64.946  1.00  0.00     4.002 A  
HETATM   38  C   UNL     1      -7.518  18.975  65.068  1.00  0.00     1.051 A  
HETATM   39 CL   UNL     1      -6.486  18.338  68.851  1.00  0.00    -0.222 Cl 
HETATM   40  C   UNL     1      -6.800  18.905  66.261  1.00  0.00    -0.248 A  
HETATM   41  C   UNL     1      -9.007  17.299  65.940  1.00  0.00     0.010 A  
HETATM   42  C   UNL     1      -7.210  18.052  67.316  1.00  0.00    -0.193 A  
ENDBRANCH   1  36
TORSDOF 7
ENDMDL
MODEL      219
REMARK 921   NORMALIZED FREE ENERGY PREDICTED BY IDOCK:   27.44 KCAL/MOL
REMARK 922        TOTAL FREE ENERGY PREDICTED BY IDOCK:   37.22 KCAL/MOL
REMARK 923 INTER-LIGAND FREE ENERGY PREDICTED BY IDOCK:   36.46 KCAL/MOL
REMARK 924 INTRA-LIGAND FREE ENERGY PREDICTED BY IDOCK:    0.75 KCAL/MOL
REMARK 927      BINDING AFFINITY PREDICTED BY RF-SCORE:    0.00 PKD
ROOT
HETATM    1  C   UNL     1     -10.773  13.021  69.017  1.00  0.00    -0.100 C  
ENDROOT
BRANCH   1   2
HETATM    2  C   UNL     1     -11.656  13.762  67.894  1.00  0.00    -0.341 C  
HETATM    3  H   UNL     1     -10.132  14.916  67.132  1.00  0.00     0.000 HD 
HETATM    4  N   UNL     1     -11.119  14.691  67.013  1.00  0.00    -0.324 N  
HETATM    5  O   UNL     1     -12.872  13.577  67.867  1.00  0.00     0.709 OA 
BRANCH   4   6
HETATM    6  C   UNL     1     -11.852  15.408  65.890  1.00  0.00     0.319 C  
HETATM    7  C   UNL     1     -12.462  15.638  63.852  1.00  0.00     0.543 C  
HETATM    8  F   UNL     1     -12.389  15.165  62.590  1.00  0.00     1.686 F  
HETATM    9  C   UNL     1     -11.110  15.847  64.596  1.00  0.00    -0.368 C  
HETATM   10  F   UNL     1     -13.274  16.720  63.813  1.00  0.00     2.231 F  
HETATM   11  C   UNL     1     -12.795  14.600  64.961  1.00  0.00     0.075 C  
ENDBRANCH   4   6
ENDBRANCH   1   2
BRANCH   1  12
HETATM   12  N   UNL     1     -10.121  11.758  68.492  1.00  0.00    -0.210 N  
HETATM   13  O   UNL     1     -10.664  12.185  66.291  1.00  0.00    -0.246 OA 
HETATM   14  C   UNL     1     -10.106  11.455  67.114  1.00  0.00    -0.198 C  
BRANCH  12  15
HETATM   15  C   UNL     1      -9.505  10.920  69.452  1.00  0.00     0.063 A  
HETATM   16  C   UNL     1     -10.248  10.226  70.407  1.00  0.00     0.078 A  
HETATM   17  C   UNL     1      -7.561   9.791  70.275  1.00  0.00    -0.172 A  
HETATM   18  N   UNL     1      -9.710   9.327  71.264  1.00  0.00    -0.268 NA 
HETATM   19  F   UNL     1      -6.248   9.543  70.216  1.00  0.00    -0.041 F  
HETATM   20  C   UNL     1      -8.134  10.689  69.393  1.00  0.00    -0.102 A  
HETATM   21  C   UNL     1      -8.371   9.135  71.182  1.00  0.00    -0.099 A  
ENDBRANCH  12  15
BRANCH  14  22
HETATM   22  C   UNL     1      -9.291  10.197  66.635  1.00  0.00    -0.162 C  
HETATM   23  C   UNL     1      -9.206  10.321  64.242  1.00  0.00    -0.300 C  
HETATM   24  C   UNL     1      -8.378  10.610  65.482  1.00  0.00    -0.158 C  
HETATM   25  N   UNL     1     -10.042   9.084  66.053  1.00  0.00    -0.208 N  
HETATM   26  O   UNL     1     -10.553   8.391  63.829  1.00  0.00     7.123 OA 
HETATM   27  C   UNL     1     -10.026   9.127  64.651  1.00  0.00     1.285 C  
BRANCH  25  28
HETATM   28  C   UNL     1     -10.513   7.957  66.769  1.00  0.00    -0.247 A  
HETATM   29  N   UNL     1     -11.735   8.033  67.345  1.00  0.00     2.045 NA 
HETATM   30  C   UNL     1     -12.259   6.969  67.987  1.00  0.00     3.540 A  
HETATM   31  C   UNL     1     -11.607   5.765  68.099  1.00  0.00     1.415 A  
HETATM   32  C   UNL     1     -10.349   5.673  67.517  1.00  0.00    -0.277 A  
HETATM   33  C   UNL     1      -9.794   6.772  66.843  1.00  0.00    -0.229 A  
HETATM   34  C   UNL     1      -9.618   4.444  67.603  1.00  0.00    -0.166 C  
HETATM   35  N   UNL     1      -9.015   3.455  67.667  1.00  0.00    -0.131 NA 
ENDBRANCH  25  28
ENDBRANCH  14  22
ENDBRANCH   1  12
BRANCH   1  36
HETATM   36  C   UNL     1      -9.867  13.698  70.079  1.00  0.00     1.965 A  
HETATM   37  C   UNL     1      -7.544  14.406  70.586  1.00  0.00     1.512 A  
HETATM   38  C   UNL     1      -7.891  14.727  71.883  1.00  0.00     4.514 A  
HETATM   39 CL   UNL     1     -11.856  14.519  71.771  1.00  0.00    -0.306 Cl 
HETATM   40  C   UNL     1      -9.233  14.644  72.251  1.00  0.00     6.665 A  
HETATM   41  C   UNL     1      -8.499  13.879  69.716  1.00  0.00     1.309 A  
HETATM   42  C   UNL     1     -10.221  14.211  71.332  1.00  0.00     4.039 A  
ENDBRANCH   1  36
TORSDOF 7
ENDMDL
MODEL      220
REMARK 921   NORMALIZED FREE ENERGY PREDICTED BY IDOCK:   29.01 KCAL/MOL
REMARK 922        TOTAL FREE ENERGY PREDICTED BY IDOCK:   39.42 KCAL/MOL
REMARK 923 INTER-LIGAND FREE ENERGY PREDICTED BY IDOCK:   10.11 KCAL/MOL
REMARK 924 INTRA-LIGAND FREE ENERGY PREDICTED BY IDOCK:   29.32 KCAL/MOL
REMARK 927      BINDING AFFINITY PREDICTED BY RF-SCORE:    0.00 PKD
ROOT
HETATM    1  C   UNL     1      -9.682   7.329  68.218  1.00  0.00    -0.147 C  
ENDROOT
BRANCH   1   2
HETATM    2  C   UNL     1      -9.961   6.786  69.707  1.00  0.00    -0.177 C  
HETATM    3  H   UNL     1     -11.978   6.464  69.456  1.00  0.00     0.000 HD 
HETATM    4  N   UNL     1     -11.217   6.374  70.129  1.00  0.00    -0.359 N  
HETATM    5  O   UNL     1      -9.056   6.823  70.540  1.00  0.00    -0.154 OA 
BRANCH   4   6
HETATM    6  C   UNL     1     -11.576   5.801  71.492  1.00  0.00     0.036 C  
HETATM    7  C   UNL     1     -11.089   4.913  73.377  1.00  0.00    -0.342 C  
HETATM    8  F   UNL     1     -10.119   4.428  74.180  1.00  0.00    -0.146 F  
HETATM    9  C   UNL     1     -11.114   4.378  71.914  1.00  0.00     0.508 C  
HETATM   10  F   UNL     1     -12.252   4.791  74.056  1.00  0.00     0.709 F  
HETATM   11  C   UNL     1     -10.832   6.314  72.751  1.00  0.00    -0.281 C  
ENDBRANCH   4   6
ENDBRANCH   1   2
BRANCH   1  12
HETATM   12  N   UNL     1      -9.320   8.800  68.203  1.00  0.00    -0.140 N  
HETATM   13  O   UNL     1      -9.791   9.118  70.438  1.00  0.00    -0.187 OA 
HETATM   14  C   UNL     1      -9.389   9.588  69.371  1.00  0.00    -0.180 C  
BRANCH  12  15
HETATM   15  C   UNL     1      -8.882   9.329  66.965  1.00  0.00    -0.123 A  
HETATM   16  C   UNL     1      -8.410  10.637  66.850  1.00  0.00    -0.125 A  
HETATM   17  C   UNL     1      -8.289   9.008  64.667  1.00  0.00    -0.172 A  
HETATM   18  N   UNL     1      -7.873  11.140  65.713  1.00  0.00     0.009 NA 
HETATM   19  F   UNL     1      -8.199   8.222  63.589  1.00  0.00    -0.154 F  
HETATM   20  C   UNL     1      -8.813   8.506  65.845  1.00  0.00    -0.219 A  
HETATM   21  C   UNL     1      -7.832  10.311  64.641  1.00  0.00    -0.123 A  
ENDBRANCH  12  15
BRANCH  14  22
HETATM   22  C   UNL     1      -8.867  11.070  69.304  1.00  0.00     0.109 C  
HETATM   23  C   UNL     1      -7.654  11.265  67.244  1.00  0.00    -0.130 C  
HETATM   24  C   UNL     1      -9.002  11.578  67.869  1.00  0.00    -0.159 C  
HETATM   25  N   UNL     1      -7.449  11.302  69.582  1.00  0.00     0.067 N  
HETATM   26  O   UNL     1      -5.502  11.581  68.233  1.00  0.00    -0.043 OA 
HETATM   27  C   UNL     1      -6.701  11.411  68.400  1.00  0.00    -0.065 C  
BRANCH  25  28
HETATM   28  C   UNL     1      -6.911  11.636  70.849  1.00  0.00     2.676 A  
HETATM   29  N   UNL     1      -6.678  10.633  71.727  1.00  0.00     1.386 NA 
HETATM   30  C   UNL     1      -6.111  10.885  72.923  1.00  0.00     2.457 A  
HETATM   31  C   UNL     1      -5.740  12.146  73.327  1.00  0.00     1.826 A  
HETATM   32  C   UNL     1      -5.978  13.188  72.438  1.00  0.00     1.372 A  
HETATM   33  C   UNL     1      -6.565  12.936  71.188  1.00  0.00     2.114 A  
HETATM   34  C   UNL     1      -5.616  14.525  72.803  1.00  0.00     0.043 C  
HETATM   35  N   UNL     1      -5.329  15.612  73.087  1.00  0.00     0.733 NA 
ENDBRANCH  25  28
ENDBRANCH  14  22
ENDBRANCH   1  12
BRANCH   1  36
HETATM   36  C   UNL     1      -8.941   6.576  67.082  1.00  0.00    -0.113 A  
HETATM   37  C   UNL     1      -6.705   5.986  66.184  1.00  0.00    -0.060 A  
HETATM   38  C   UNL     1      -7.269   5.451  65.043  1.00  0.00    -0.066 A  
HETATM   39 CL   UNL     1     -11.129   5.361  65.974  1.00  0.00     0.017 Cl 
HETATM   40  C   UNL     1      -8.658   5.373  64.964  1.00  0.00    -0.142 A  
HETATM   41  C   UNL     1      -7.516   6.558  67.164  1.00  0.00    -0.088 A  
HETATM   42  C   UNL     1      -9.482   5.858  66.010  1.00  0.00    -0.060 A  
ENDBRANCH   1  36
TORSDOF 7
ENDMDL
MODEL      221
REMARK 921   NORMALIZED FREE ENERGY PREDICTED BY IDOCK:   36.33 KCAL/MOL
REMARK 922        TOTAL FREE ENERGY PREDICTED BY IDOCK:   49.74 KCAL/MOL
REMARK 923 INTER-LIGAND FREE ENERGY PREDICTED BY IDOCK:   24.38 KCAL/MOL
REMARK 924 INTRA-LIGAND FREE ENERGY PREDICTED BY IDOCK:   25.36 KCAL/MOL
REMARK 927      BINDING AFFINITY PREDICTED BY RF-SCORE:    0.00 PKD
ROOT
HETATM    1  C   UNL     1      -9.562  12.328  67.604  1.00  0.00    -0.191 C  
ENDROOT
BRANCH   1   2
HETATM    2  C   UNL     1      -9.449  13.101  69.011  1.00  0.00     0.410 C  
HETATM    3  H   UNL     1     -11.078  14.327  68.727  1.00  0.00     0.000 HD 
HETATM    4  N   UNL     1     -10.349  14.084  69.398  1.00  0.00     0.038 N  
HETATM    5  O   UNL     1      -8.479  12.889  69.737  1.00  0.00     1.621 OA 
BRANCH   4   6
HETATM    6  C   UNL     1     -10.361  14.837  70.719  1.00  0.00     0.706 C  
HETATM    7  C   UNL     1      -9.605  15.275  72.672  1.00  0.00     6.396 C  
HETATM    8  F   UNL     1      -8.697  14.976  73.626  1.00  0.00     5.742 F  
HETATM    9  C   UNL     1     -10.406  14.080  72.077  1.00  0.00     5.563 C  
HETATM   10  F   UNL     1     -10.357  16.290  73.157  1.00  0.00     2.932 F  
HETATM   11  C   UNL     1      -9.052  15.488  71.235  1.00  0.00     3.376 C  
ENDBRANCH   4   6
ENDBRANCH   1   2
BRANCH   1  12
HETATM   12  N   UNL     1      -9.819  10.845  67.784  1.00  0.00    -0.173 N  
HETATM   13  O   UNL     1     -12.074  11.110  68.191  1.00  0.00    -0.633 OA 
HETATM   14  C   UNL     1     -11.113  10.350  68.049  1.00  0.00    -0.298 C  
BRANCH  12  15
HETATM   15  C   UNL     1      -8.701   9.989  67.640  1.00  0.00    -0.121 A  
HETATM   16  C   UNL     1      -8.343   9.450  66.404  1.00  0.00    -0.115 A  
HETATM   17  C   UNL     1      -6.721   8.994  68.547  1.00  0.00    -0.059 A  
HETATM   18  N   UNL     1      -7.217   8.725  66.203  1.00  0.00    -0.084 NA 
HETATM   19  F   UNL     1      -5.899   8.775  69.578  1.00  0.00    -0.032 F  
HETATM   20  C   UNL     1      -7.865   9.752  68.726  1.00  0.00    -0.082 A  
HETATM   21  C   UNL     1      -6.433   8.508  67.287  1.00  0.00    -0.058 A  
ENDBRANCH  12  15
BRANCH  14  22
HETATM   22  C   UNL     1     -11.322   8.791  68.086  1.00  0.00     0.815 C  
HETATM   23  C   UNL     1     -11.242   8.154  70.397  1.00  0.00    -0.221 C  
HETATM   24  C   UNL     1     -12.221   8.441  69.271  1.00  0.00     2.359 C  
HETATM   25  N   UNL     1     -10.147   7.955  68.330  1.00  0.00    -0.188 N  
HETATM   26  O   UNL     1      -9.214   6.898  70.255  1.00  0.00    -0.155 OA 
HETATM   27  C   UNL     1     -10.058   7.569  69.676  1.00  0.00    -0.189 C  
BRANCH  25  28
HETATM   28  C   UNL     1      -9.333   7.379  67.324  1.00  0.00    -0.133 A  
HETATM   29  N   UNL     1      -8.938   8.165  66.296  1.00  0.00    -0.168 NA 
HETATM   30  C   UNL     1      -8.113   7.686  65.343  1.00  0.00    -0.128 A  
HETATM   31  C   UNL     1      -7.630   6.399  65.347  1.00  0.00    -0.089 A  
HETATM   32  C   UNL     1      -8.031   5.578  66.393  1.00  0.00    -0.105 A  
HETATM   33  C   UNL     1      -8.886   6.067  67.394  1.00  0.00    -0.106 A  
HETATM   34  C   UNL     1      -7.563   4.226  66.451  1.00  0.00    -0.089 C  
HETATM   35  N   UNL     1      -7.192   3.128  66.507  1.00  0.00    -0.061 NA 
ENDBRANCH  25  28
ENDBRANCH  14  22
ENDBRANCH   1  12
BRANCH   1  36
HETATM   36  C   UNL     1     -10.252  12.846  66.315  1.00  0.00    -0.285 A  
HETATM   37  C   UNL     1     -11.773  14.581  65.405  1.00  0.00    -0.354 A  
HETATM   38  C   UNL     1     -11.817  13.948  64.180  1.00  0.00    -0.417 A  
HETATM   39 CL   UNL     1      -8.941  11.230  64.535  1.00  0.00     0.002 Cl 
HETATM   40  C   UNL     1     -11.001  12.836  63.979  1.00  0.00    -0.454 A  
HETATM   41  C   UNL     1     -11.034  14.031  66.453  1.00  0.00    -0.308 A  
HETATM   42  C   UNL     1     -10.167  12.340  65.013  1.00  0.00    -0.285 A  
ENDBRANCH   1  36
TORSDOF 7
ENDMDL
MODEL      222
REMARK 921   NORMALIZED FREE ENERGY PREDICTED BY IDOCK:   36.54 KCAL/MOL
REMARK 922        TOTAL FREE ENERGY PREDICTED BY IDOCK:   50.04 KCAL/MOL
REMARK 923 INTER-LIGAND FREE ENERGY PREDICTED BY IDOCK:   49.46 KCAL/MOL
REMARK 924 INTRA-LIGAND FREE ENERGY PREDICTED BY IDOCK:    0.57 KCAL/MOL
REMARK 927      BINDING AFFINITY PREDICTED BY RF-SCORE:    0.00 PKD
ROOT
HETATM    1  C   UNL     1      -9.972  12.741  70.068  1.00  0.00     2.593 C  
ENDROOT
BRANCH   1   2
HETATM    2  C   UNL     1      -9.789  14.295  70.442  1.00  0.00     1.757 C  
HETATM    3  H   UNL     1      -8.852  14.841  68.693  1.00  0.00     0.000 HD 
HETATM    4  N   UNL     1      -9.202  15.208  69.577  1.00  0.00    -0.183 N  
HETATM    5  O   UNL     1     -10.091  14.682  71.570  1.00  0.00     1.730 OA 
BRANCH   4   6
HETATM    6  C   UNL     1      -9.027  16.701  69.812  1.00  0.00     0.753 C  
HETATM    7  C   UNL     1      -7.847  18.465  70.078  1.00  0.00     1.533 C  
HETATM    8  F   UNL     1      -6.607  18.991  70.178  1.00  0.00    -0.197 F  
HETATM    9  C   UNL     1      -8.155  17.235  70.982  1.00  0.00     6.592 C  
HETATM   10  F   UNL     1      -8.715  19.496  70.190  1.00  0.00     0.312 F  
HETATM   11  C   UNL     1      -8.099  17.514  68.874  1.00  0.00    -0.168 C  
ENDBRANCH   4   6
ENDBRANCH   1   2
BRANCH   1  12
HETATM   12  N   UNL     1      -9.928  12.501  68.573  1.00  0.00    -0.201 N  
HETATM   13  O   UNL     1     -12.217  12.614  68.313  1.00  0.00    -0.185 OA 
HETATM   14  C   UNL     1     -11.105  12.482  67.795  1.00  0.00    -0.249 C  
BRANCH  12  15
HETATM   15  C   UNL     1      -8.646  12.330  67.999  1.00  0.00    -0.176 A  
HETATM   16  C   UNL     1      -8.437  11.493  66.903  1.00  0.00    -0.165 A  
HETATM   17  C   UNL     1      -6.348  12.983  67.824  1.00  0.00    -0.149 A  
HETATM   18  N   UNL     1      -7.253  11.393  66.254  1.00  0.00     0.001 NA 
HETATM   19  F   UNL     1      -5.315  13.720  68.244  1.00  0.00    -0.079 F  
HETATM   20  C   UNL     1      -7.573  13.087  68.460  1.00  0.00    -0.121 A  
HETATM   21  C   UNL     1      -6.229  12.140  66.737  1.00  0.00     0.132 A  
ENDBRANCH  12  15
BRANCH  14  22
HETATM   22  C   UNL     1     -10.966  12.365  66.233  1.00  0.00    -0.286 C  
HETATM   23  C   UNL     1     -13.155  12.745  65.331  1.00  0.00     0.525 C  
HETATM   24  C   UNL     1     -11.828  13.443  65.578  1.00  0.00    -0.394 C  
HETATM   25  N   UNL     1     -11.460  11.143  65.598  1.00  0.00     0.196 N  
HETATM   26  O   UNL     1     -13.483  10.533  64.490  1.00  0.00     5.468 OA 
HETATM   27  C   UNL     1     -12.747  11.322  65.066  1.00  0.00     2.775 C  
BRANCH  25  28
HETATM   28  C   UNL     1     -10.677  10.000  65.311  1.00  0.00     0.650 A  
HETATM   29  N   UNL     1      -9.725  10.102  64.356  1.00  0.00    -0.310 NA 
HETATM   30  C   UNL     1      -8.909   9.063  64.084  1.00  0.00    -0.029 A  
HETATM   31  C   UNL     1      -8.986   7.858  64.740  1.00  0.00     0.484 A  
HETATM   32  C   UNL     1      -9.963   7.735  65.721  1.00  0.00     0.738 A  
HETATM   33  C   UNL     1     -10.815   8.811  66.015  1.00  0.00     1.616 A  
HETATM   34  C   UNL     1     -10.094   6.502  66.438  1.00  0.00     0.005 C  
HETATM   35  N   UNL     1     -10.212   5.508  67.024  1.00  0.00    -0.198 NA 
ENDBRANCH  25  28
ENDBRANCH  14  22
ENDBRANCH   1  12
BRANCH   1  36
HETATM   36  C   UNL     1      -9.373  11.529  70.830  1.00  0.00     6.001 A  
HETATM   37  C   UNL     1      -9.789   9.185  71.527  1.00  0.00    -0.335 A  
HETATM   38  C   UNL     1      -8.652   9.181  72.309  1.00  0.00     0.619 A  
HETATM   39 CL   UNL     1      -6.862  12.552  71.209  1.00  0.00     3.212 Cl 
HETATM   40  C   UNL     1      -7.817  10.297  72.271  1.00  0.00     5.167 A  
HETATM   41  C   UNL     1     -10.155  10.336  70.828  1.00  0.00     0.577 A  
HETATM   42  C   UNL     1      -8.135  11.426  71.475  1.00  0.00     9.452 A  
ENDBRANCH   1  36
TORSDOF 7
ENDMDL
MODEL      223
REMARK 921   NORMALIZED FREE ENERGY PREDICTED BY IDOCK:   47.46 KCAL/MOL
REMARK 922        TOTAL FREE ENERGY PREDICTED BY IDOCK:   65.42 KCAL/MOL
REMARK 923 INTER-LIGAND FREE ENERGY PREDICTED BY IDOCK:   64.67 KCAL/MOL
REMARK 924 INTRA-LIGAND FREE ENERGY PREDICTED BY IDOCK:    0.75 KCAL/MOL
REMARK 927      BINDING AFFINITY PREDICTED BY RF-SCORE:    0.00 PKD
ROOT
HETATM    1  C   UNL     1     -10.608  17.180  66.783  1.00  0.00    -0.192 C  
ENDROOT
BRANCH   1   2
HETATM    2  C   UNL     1     -10.505  15.983  65.713  1.00  0.00    -0.374 C  
HETATM    3  H   UNL     1     -12.245  15.033  66.265  1.00  0.00     0.000 HD 
HETATM    4  N   UNL     1     -11.471  14.992  65.603  1.00  0.00    -0.298 N  
HETATM    5  O   UNL     1      -9.491  15.878  65.025  1.00  0.00    -0.081 OA 
BRANCH   4   6
HETATM    6  C   UNL     1     -11.493  13.851  64.597  1.00  0.00    -0.377 C  
HETATM    7  C   UNL     1     -12.337  12.085  63.734  1.00  0.00    -0.496 C  
HETATM    8  F   UNL     1     -13.317  11.158  63.788  1.00  0.00     0.153 F  
HETATM    9  C   UNL     1     -11.575  12.370  65.061  1.00  0.00    -0.392 C  
HETATM   10  F   UNL     1     -11.557  11.762  62.677  1.00  0.00     0.025 F  
HETATM   11  C   UNL     1     -12.789  13.572  63.794  1.00  0.00     0.306 C  
ENDBRANCH   4   6
ENDBRANCH   1   2
BRANCH   1  12
HETATM   12  N   UNL     1     -10.823  16.670  68.194  1.00  0.00    -0.349 N  
HETATM   13  O   UNL     1     -11.311  18.753  69.058  1.00  0.00     1.807 OA 
HETATM   14  C   UNL     1     -11.193  17.539  69.242  1.00  0.00     0.996 C  
BRANCH  12  15
HETATM   15  C   UNL     1     -10.663  15.278  68.393  1.00  0.00    -0.250 A  
HETATM   16  C   UNL     1      -9.549  14.590  67.911  1.00  0.00    -0.217 A  
HETATM   17  C   UNL     1     -11.355  13.240  69.443  1.00  0.00    -0.219 A  
HETATM   18  N   UNL     1      -9.301  13.287  68.181  1.00  0.00    -0.217 NA 
HETATM   19  F   UNL     1     -12.214  12.562  70.211  1.00  0.00    -0.382 F  
HETATM   20  C   UNL     1     -11.577  14.580  69.175  1.00  0.00    -0.331 A  
HETATM   21  C   UNL     1     -10.219  12.638  68.939  1.00  0.00     0.017 A  
ENDBRANCH  12  15
BRANCH  14  22
HETATM   22  C   UNL     1     -11.532  16.913  70.645  1.00  0.00     0.708 C  
HETATM   23  C   UNL     1     -12.032  18.753  72.100  1.00  0.00     9.045 C  
HETATM   24  C   UNL     1     -12.702  17.680  71.259  1.00  0.00     9.857 C  
HETATM   25  N   UNL     1     -10.515  17.009  71.693  1.00  0.00     2.619 N  
HETATM   26  O   UNL     1     -10.134  18.486  73.527  1.00  0.00     3.751 OA 
HETATM   27  C   UNL     1     -10.766  18.083  72.561  1.00  0.00     3.568 C  
BRANCH  25  28
HETATM   28  C   UNL     1      -9.543  16.019  71.978  1.00  0.00     5.969 A  
HETATM   29  N   UNL     1      -9.819  15.114  72.945  1.00  0.00     4.839 NA 
HETATM   30  C   UNL     1      -8.958  14.114  73.217  1.00  0.00    10.647 A  
HETATM   31  C   UNL     1      -7.768  13.947  72.550  1.00  0.00     7.626 A  
HETATM   32  C   UNL     1      -7.467  14.872  71.557  1.00  0.00     2.769 A  
HETATM   33  C   UNL     1      -8.358  15.915  71.262  1.00  0.00     4.811 A  
HETATM   34  C   UNL     1      -6.240  14.752  70.828  1.00  0.00    -0.025 C  
HETATM   35  N   UNL     1      -5.248  14.668  70.232  1.00  0.00    -0.097 NA 
ENDBRANCH  25  28
ENDBRANCH  14  22
ENDBRANCH   1  12
BRANCH   1  36
HETATM   36  C   UNL     1      -9.767  18.483  66.799  1.00  0.00    -0.345 A  
HETATM   37  C   UNL     1      -7.746  19.562  67.752  1.00  0.00    -0.321 A  
HETATM   38  C   UNL     1      -8.098  20.779  67.204  1.00  0.00    -0.244 A  
HETATM   39 CL   UNL     1     -11.079  19.779  64.776  1.00  0.00     0.951 Cl 
HETATM   40  C   UNL     1      -9.211  20.832  66.367  1.00  0.00     0.138 A  
HETATM   41  C   UNL     1      -8.572  18.451  67.579  1.00  0.00    -0.264 A  
HETATM   42  C   UNL     1      -9.989  19.677  66.105  1.00  0.00    -0.463 A  
ENDBRANCH   1  36
TORSDOF 7
ENDMDL
MODEL      224
REMARK 921   NORMALIZED FREE ENERGY PREDICTED BY IDOCK:   77.55 KCAL/MOL
REMARK 922        TOTAL FREE ENERGY PREDICTED BY IDOCK:  107.83 KCAL/MOL
REMARK 923 INTER-LIGAND FREE ENERGY PREDICTED BY IDOCK:   79.60 KCAL/MOL
REMARK 924 INTRA-LIGAND FREE ENERGY PREDICTED BY IDOCK:   28.23 KCAL/MOL
REMARK 927      BINDING AFFINITY PREDICTED BY RF-SCORE:    0.00 PKD
ROOT
HETATM    1  C   UNL     1     -10.005  14.360  71.424  1.00  0.00     3.727 C  
ENDROOT
BRANCH   1   2
HETATM    2  C   UNL     1      -9.863  15.963  71.447  1.00  0.00     2.744 C  
HETATM    3  H   UNL     1      -7.916  16.027  70.785  1.00  0.00     0.000 HD 
HETATM    4  N   UNL     1      -8.702  16.616  71.057  1.00  0.00     4.970 N  
HETATM    5  O   UNL     1     -10.777  16.640  71.915  1.00  0.00     1.321 OA 
BRANCH   4   6
HETATM    6  C   UNL     1      -8.483  18.120  70.995  1.00  0.00     6.838 C  
HETATM    7  C   UNL     1      -7.473  19.873  70.299  1.00  0.00     0.631 C  
HETATM    8  F   UNL     1      -6.470  20.377  69.549  1.00  0.00    -0.345 F  
HETATM    9  C   UNL     1      -7.092  18.744  71.301  1.00  0.00     3.241 C  
HETATM   10  F   UNL     1      -8.121  20.931  70.839  1.00  0.00     1.192 F  
HETATM   11  C   UNL     1      -8.385  18.817  69.613  1.00  0.00     0.653 C  
ENDBRANCH   4   6
ENDBRANCH   1   2
BRANCH   1  12
HETATM   12  N   UNL     1     -11.089  13.894  70.473  1.00  0.00     0.364 N  
HETATM   13  O   UNL     1     -11.536  16.010  69.670  1.00  0.00    -0.326 OA 
HETATM   14  C   UNL     1     -11.768  14.799  69.630  1.00  0.00    -0.314 C  
BRANCH  12  15
HETATM   15  C   UNL     1     -11.359  12.505  70.456  1.00  0.00     0.880 A  
HETATM   16  C   UNL     1     -11.883  11.844  71.568  1.00  0.00     1.318 A  
HETATM   17  C   UNL     1     -11.564  10.447  69.249  1.00  0.00    -0.176 A  
HETATM   18  N   UNL     1     -12.263  10.545  71.554  1.00  0.00    -0.333 NA 
HETATM   19  F   UNL     1     -11.437   9.746  68.117  1.00  0.00    -0.205 F  
HETATM   20  C   UNL     1     -11.202  11.782  69.278  1.00  0.00    -0.318 A  
HETATM   21  C   UNL     1     -12.087   9.872  70.391  1.00  0.00    -0.153 A  
ENDBRANCH  12  15
BRANCH  14  22
HETATM   22  C   UNL     1     -12.781  14.220  68.575  1.00  0.00     0.857 C  
HETATM   23  C   UNL     1     -12.739  11.837  68.838  1.00  0.00     1.111 C  
HETATM   24  C   UNL     1     -13.551  13.064  69.212  1.00  0.00     4.284 C  
HETATM   25  N   UNL     1     -12.226  13.598  67.373  1.00  0.00    -0.314 N  
HETATM   26  O   UNL     1     -11.758  11.354  66.713  1.00  0.00    -0.474 OA 
HETATM   27  C   UNL     1     -12.174  12.201  67.491  1.00  0.00     0.396 C  
BRANCH  25  28
HETATM   28  C   UNL     1     -12.004  14.260  66.141  1.00  0.00    -0.407 A  
HETATM   29  N   UNL     1     -12.175  13.556  64.999  1.00  0.00    -0.395 NA 
HETATM   30  C   UNL     1     -12.036  14.151  63.797  1.00  0.00    -0.119 A  
HETATM   31  C   UNL     1     -11.718  15.481  63.651  1.00  0.00     0.888 A  
HETATM   32  C   UNL     1     -11.533  16.216  64.815  1.00  0.00    -0.168 A  
HETATM   33  C   UNL     1     -11.679  15.608  66.072  1.00  0.00     0.448 A  
HETATM   34  C   UNL     1     -11.198  17.606  64.728  1.00  0.00     1.368 C  
HETATM   35  N   UNL     1     -10.923  18.732  64.671  1.00  0.00     0.455 NA 
ENDBRANCH  25  28
ENDBRANCH  14  22
ENDBRANCH   1  12
BRANCH   1  36
HETATM   36  C   UNL     1      -8.849  13.327  71.477  1.00  0.00    13.477 A  
HETATM   37  C   UNL     1      -8.224  10.979  70.975  1.00  0.00     4.964 A  
HETATM   38  C   UNL     1      -7.005  11.135  71.604  1.00  0.00     4.187 A  
HETATM   39 CL   UNL     1      -6.853  15.062  72.182  1.00  0.00     1.891 Cl 
HETATM   40  C   UNL     1      -6.656  12.402  72.068  1.00  0.00     4.734 A  
HETATM   41  C   UNL     1      -9.133  12.036  70.937  1.00  0.00     9.064 A  
HETATM   42  C   UNL     1      -7.538  13.503  71.932  1.00  0.00     7.641 A  
ENDBRANCH   1  36
TORSDOF 7
ENDMDL
MODEL      225
REMARK 921   NORMALIZED FREE ENERGY PREDICTED BY IDOCK:   93.75 KCAL/MOL
REMARK 922        TOTAL FREE ENERGY PREDICTED BY IDOCK:  130.66 KCAL/MOL
REMARK 923 INTER-LIGAND FREE ENERGY PREDICTED BY IDOCK:   60.65 KCAL/MOL
REMARK 924 INTRA-LIGAND FREE ENERGY PREDICTED BY IDOCK:   70.01 KCAL/MOL
REMARK 927      BINDING AFFINITY PREDICTED BY RF-SCORE:    0.00 PKD
ROOT
HETATM    1  C   UNL     1     -10.153  11.272  69.900  1.00  0.00     0.816 C  
ENDROOT
BRANCH   1   2
HETATM    2  C   UNL     1      -9.132  12.139  70.792  1.00  0.00     8.405 C  
HETATM    3  H   UNL     1     -10.290  13.839  70.872  1.00  0.00     0.000 HD 
HETATM    4  N   UNL     1      -9.411  13.437  71.198  1.00  0.00     8.173 N  
HETATM    5  O   UNL     1      -8.020  11.681  71.049  1.00  0.00     4.605 OA 
BRANCH   4   6
HETATM    6  C   UNL     1      -8.541  14.320  72.078  1.00  0.00     7.796 C  
HETATM    7  C   UNL     1      -6.704  15.296  72.580  1.00  0.00     2.994 C  
HETATM    8  F   UNL     1      -5.410  15.504  72.256  1.00  0.00    -0.064 F  
HETATM    9  C   UNL     1      -7.179  13.814  72.632  1.00  0.00     5.556 C  
HETATM   10  F   UNL     1      -6.945  16.020  73.697  1.00  0.00     4.849 F  
HETATM   11  C   UNL     1      -7.740  15.481  71.435  1.00  0.00     3.747 C  
ENDBRANCH   4   6
ENDBRANCH   1   2
BRANCH   1  12
HETATM   12  N   UNL     1      -9.997  11.546  68.418  1.00  0.00    -0.201 N  
HETATM   13  O   UNL     1      -9.242   9.423  67.927  1.00  0.00    -0.130 OA 
HETATM   14  C   UNL     1      -9.558  10.546  67.526  1.00  0.00    -0.160 C  
BRANCH  12  15
HETATM   15  C   UNL     1     -10.343  12.846  67.978  1.00  0.00    -0.227 A  
HETATM   16  C   UNL     1      -9.375  13.771  67.584  1.00  0.00    -0.213 A  
HETATM   17  C   UNL     1     -12.004  14.433  67.303  1.00  0.00    -0.377 A  
HETATM   18  N   UNL     1      -9.670  14.978  67.048  1.00  0.00    -0.231 NA 
HETATM   19  F   UNL     1     -13.287  14.772  67.134  1.00  0.00     1.293 F  
HETATM   20  C   UNL     1     -11.681  13.194  67.828  1.00  0.00    -0.401 A  
HETATM   21  C   UNL     1     -10.985  15.285  66.926  1.00  0.00    -0.315 A  
ENDBRANCH  12  15
BRANCH  14  22
HETATM   22  C   UNL     1      -9.554  10.868  65.987  1.00  0.00    -0.209 C  
HETATM   23  C   UNL     1      -7.463  10.060  65.135  1.00  0.00    -0.139 C  
HETATM   24  C   UNL     1      -8.933   9.691  65.237  1.00  0.00    -0.246 C  
HETATM   25  N   UNL     1      -8.735  11.992  65.532  1.00  0.00     0.343 N  
HETATM   26  O   UNL     1      -6.552  12.201  64.594  1.00  0.00     3.691 OA 
HETATM   27  C   UNL     1      -7.495  11.561  65.035  1.00  0.00     1.461 C  
BRANCH  25  28
HETATM   28  C   UNL     1      -9.196  13.319  65.360  1.00  0.00     0.645 A  
HETATM   29  N   UNL     1      -9.014  13.907  64.155  1.00  0.00     3.807 NA 
HETATM   30  C   UNL     1      -9.487  15.147  63.916  1.00  0.00     6.926 A  
HETATM   31  C   UNL     1     -10.169  15.883  64.855  1.00  0.00     0.102 A  
HETATM   32  C   UNL     1     -10.360  15.295  66.100  1.00  0.00    -0.314 A  
HETATM   33  C   UNL     1      -9.876  14.003  66.359  1.00  0.00    -0.306 A  
HETATM   34  C   UNL     1     -11.062  16.014  67.121  1.00  0.00    -0.104 C  
HETATM   35  N   UNL     1     -11.627  16.586  67.957  1.00  0.00     0.006 NA 
ENDBRANCH  25  28
ENDBRANCH  14  22
ENDBRANCH   1  12
BRANCH   1  36
HETATM   36  C   UNL     1     -10.565   9.795  70.138  1.00  0.00    -0.337 A  
HETATM   37  C   UNL     1     -12.485   8.287  70.581  1.00  0.00     0.259 A  
HETATM   38  C   UNL     1     -11.638   7.217  70.790  1.00  0.00    -0.334 A  
HETATM   39 CL   UNL     1      -8.147   8.653  69.554  1.00  0.00    -0.108 Cl 
HETATM   40  C   UNL     1     -10.274   7.397  70.567  1.00  0.00    -0.196 A  
HETATM   41  C   UNL     1     -11.962   9.548  70.291  1.00  0.00    -0.040 A  
HETATM   42  C   UNL     1      -9.755   8.654  70.166  1.00  0.00    -0.172 A  
ENDBRANCH   1  36
TORSDOF 7
ENDMDL
