MODEL        1
REMARK 921   NORMALIZED FREE ENERGY PREDICTED BY IDOCK:   -8.04 KCAL/MOL
REMARK 922        TOTAL FREE ENERGY PREDICTED BY IDOCK:   -8.86 KCAL/MOL
REMARK 923 INTER-LIGAND FREE ENERGY PREDICTED BY IDOCK:   -8.98 KCAL/MOL
REMARK 924 INTRA-LIGAND FREE ENERGY PREDICTED BY IDOCK:    0.11 KCAL/MOL
REMARK 927      BINDING AFFINITY PREDICTED BY RF-SCORE:    0.00 PKD
ROOT
HETATM    1  C   UNL     1      -8.316  11.547  67.647  1.00  0.00    -0.135 C  
HETATM    2  C   UNL     1      -8.928  12.798  66.957  1.00  0.00    -0.221 C  
HETATM    3  C   UNL     1      -8.638  14.180  67.692  1.00  0.00    -0.189 C  
HETATM    4  N   UNL     1      -9.814  14.615  68.442  1.00  0.00    -0.214 N  
HETATM    5  O   UNL     1      -8.505  10.467  66.714  1.00  0.00    -0.123 OA 
HETATM    6  C   UNL     1      -7.514   9.036  68.349  1.00  0.00    -0.082 C  
HETATM    7  C   UNL     1      -9.802  15.561  69.465  1.00  0.00    -0.284 C  
HETATM    8  C   UNL     1      -8.679   9.960  68.025  1.00  0.00    -0.125 C  
HETATM    9  H   UNL     1     -10.710  14.193  68.200  1.00  0.00     0.000 HD 
HETATM   10  C   UNL     1     -11.172  15.746  70.100  1.00  0.00    -0.357 C  
HETATM   11  C   UNL     1     -10.057   9.296  68.223  1.00  0.00    -0.214 C  
HETATM   12  O   UNL     1      -8.797  16.086  69.917  1.00  0.00     0.104 OA 
HETATM   13  C   UNL     1     -11.394  14.468  70.910  1.00  0.00    -0.022 C  
HETATM   14  C   UNL     1     -10.192   8.538  69.588  1.00  0.00    -0.209 C  
HETATM   15  C   UNL     1     -12.703  14.287  71.736  1.00  0.00    -0.428 C  
HETATM   16  C   UNL     1     -11.552   8.213  72.813  1.00  0.00    -0.371 C  
HETATM   17  O   UNL     1     -11.274  13.435  69.962  1.00  0.00    -0.487 OA 
HETATM   18  H   UNL     1     -11.412  12.642  70.465  1.00  0.00     0.000 HD 
HETATM   19  C   UNL     1     -13.246  12.786  71.846  1.00  0.00    -0.412 C  
HETATM   20  C   UNL     1     -12.353  14.872  73.132  1.00  0.00    -0.473 C  
HETATM   21  C   UNL     1     -13.924  15.115  71.244  1.00  0.00    -0.548 C  
HETATM   22  C   UNL     1     -11.583   8.477  70.273  1.00  0.00     0.004 C  
HETATM   23  C   UNL     1     -12.471  11.577  71.245  1.00  0.00    -0.399 C  
HETATM   24  O   UNL     1     -14.333  12.571  72.400  1.00  0.00    -0.055 OA 
HETATM   25  H   UNL     1     -14.201   8.817  71.802  1.00  0.00     0.000 HD 
HETATM   26  C   UNL     1     -11.608   9.220  71.654  1.00  0.00    -0.463 C  
HETATM   27  C   UNL     1     -12.789  10.215  71.896  1.00  0.00    -0.427 C  
HETATM   28  C   UNL     1     -12.649  11.453  69.720  1.00  0.00    -0.054 C  
HETATM   29  O   UNL     1     -14.005   9.655  71.401  1.00  0.00    -0.202 OA 
ENDROOT
BRANCH   3  30
HETATM   30  C   UNL     1      -8.208  15.483  66.950  1.00  0.00    -0.287 C  
HETATM   31  C   UNL     1      -9.134  16.332  66.414  1.00  0.00    -0.336 C  
HETATM   32  C   UNL     1      -6.797  15.918  67.277  1.00  0.00    -0.232 C  
BRANCH  31  33
HETATM   33  C   UNL     1      -9.077  17.772  66.380  1.00  0.00    -0.234 A  
HETATM   34  C   UNL     1     -10.204  18.597  66.432  1.00  0.00    -0.425 A  
HETATM   35  S   UNL     1      -9.758  20.216  66.116  1.00  0.00    -0.280 SA 
HETATM   36  C   UNL     1      -8.134  19.706  65.854  1.00  0.00    -0.233 A  
HETATM   37  N   UNL     1      -7.923  18.412  65.995  1.00  0.00    -0.488 NA 
HETATM   38  C   UNL     1      -7.104  20.714  65.468  1.00  0.00    -0.073 C  
ENDBRANCH  31  33
ENDBRANCH   3  30
TORSDOF 2
ENDMDL
MODEL        2
REMARK 921   NORMALIZED FREE ENERGY PREDICTED BY IDOCK:   -7.90 KCAL/MOL
REMARK 922        TOTAL FREE ENERGY PREDICTED BY IDOCK:   -8.71 KCAL/MOL
REMARK 923 INTER-LIGAND FREE ENERGY PREDICTED BY IDOCK:   -8.74 KCAL/MOL
REMARK 924 INTRA-LIGAND FREE ENERGY PREDICTED BY IDOCK:    0.03 KCAL/MOL
REMARK 927      BINDING AFFINITY PREDICTED BY RF-SCORE:    0.00 PKD
ROOT
HETATM    1  C   UNL     1     -12.901  10.492  70.659  1.00  0.00    -0.325 C  
HETATM    2  C   UNL     1     -12.074  11.808  70.643  1.00  0.00    -0.407 C  
HETATM    3  C   UNL     1     -11.591  12.280  69.201  1.00  0.00    -0.318 C  
HETATM    4  N   UNL     1     -10.180  11.957  69.005  1.00  0.00    -0.417 N  
HETATM    5  O   UNL     1     -13.411  10.380  72.001  1.00  0.00    -0.433 OA 
HETATM    6  C   UNL     1     -14.377   8.300  71.334  1.00  0.00    -0.461 C  
HETATM    7  C   UNL     1      -9.540  11.897  67.768  1.00  0.00    -0.190 C  
HETATM    8  C   UNL     1     -13.087   9.082  71.536  1.00  0.00    -0.335 C  
HETATM    9  H   UNL     1      -9.621  11.759  69.835  1.00  0.00     0.000 HD 
HETATM   10  C   UNL     1      -8.087  11.464  67.888  1.00  0.00    -0.126 C  
HETATM   11  C   UNL     1     -12.076   8.362  72.452  1.00  0.00    -0.443 C  
HETATM   12  O   UNL     1     -10.096  12.027  66.689  1.00  0.00    -0.196 OA 
HETATM   13  C   UNL     1      -8.157   9.977  68.233  1.00  0.00    -0.104 C  
HETATM   14  C   UNL     1     -11.868   6.853  72.085  1.00  0.00    -0.318 C  
HETATM   15  C   UNL     1      -6.845   9.157  68.420  1.00  0.00    -0.064 C  
HETATM   16  C   UNL     1      -9.896   4.229  70.827  1.00  0.00    -0.265 C  
HETATM   17  O   UNL     1      -8.925   9.933  69.411  1.00  0.00    -0.167 OA 
HETATM   18  H   UNL     1      -8.969   9.009  69.626  1.00  0.00     0.000 HD 
HETATM   19  C   UNL     1      -6.915   7.981  69.503  1.00  0.00    -0.050 C  
HETATM   20  C   UNL     1      -6.538   8.607  67.000  1.00  0.00    -0.058 C  
HETATM   21  C   UNL     1      -5.590   9.985  68.814  1.00  0.00    -0.035 C  
HETATM   22  C   UNL     1     -10.476   6.211  72.329  1.00  0.00    -0.229 C  
HETATM   23  C   UNL     1      -8.230   7.623  70.255  1.00  0.00    -0.123 C  
HETATM   24  O   UNL     1      -5.886   7.349  69.783  1.00  0.00    -0.023 OA 
HETATM   25  H   UNL     1      -7.616   5.151  72.361  1.00  0.00     0.000 HD 
HETATM   26  C   UNL     1      -9.783   5.752  71.000  1.00  0.00    -0.213 C  
HETATM   27  C   UNL     1      -8.293   6.181  70.800  1.00  0.00    -0.126 C  
HETATM   28  C   UNL     1      -8.547   8.602  71.401  1.00  0.00    -0.247 C  
HETATM   29  O   UNL     1      -7.578   6.039  72.026  1.00  0.00    -0.094 OA 
ENDROOT
BRANCH   3  30
HETATM   30  C   UNL     1     -11.674  13.754  68.699  1.00  0.00    -0.391 C  
HETATM   31  C   UNL     1     -10.914  14.739  69.262  1.00  0.00    -0.275 C  
HETATM   32  C   UNL     1     -12.280  13.881  67.319  1.00  0.00    -0.324 C  
BRANCH  31  33
HETATM   33  C   UNL     1     -10.292  15.851  68.586  1.00  0.00    -0.229 A  
HETATM   34  C   UNL     1      -8.909  16.025  68.486  1.00  0.00    -0.199 A  
HETATM   35  S   UNL     1      -8.560  17.570  67.843  1.00  0.00    -0.244 SA 
HETATM   36  C   UNL     1     -10.244  17.928  67.818  1.00  0.00    -0.368 A  
HETATM   37  N   UNL     1     -11.030  16.962  68.255  1.00  0.00    -0.349 NA 
HETATM   38  C   UNL     1     -10.701  19.269  67.349  1.00  0.00    -0.594 C  
ENDBRANCH  31  33
ENDBRANCH   3  30
TORSDOF 2
ENDMDL
MODEL        3
REMARK 921   NORMALIZED FREE ENERGY PREDICTED BY IDOCK:   -7.85 KCAL/MOL
REMARK 922        TOTAL FREE ENERGY PREDICTED BY IDOCK:   -8.65 KCAL/MOL
REMARK 923 INTER-LIGAND FREE ENERGY PREDICTED BY IDOCK:   -8.28 KCAL/MOL
REMARK 924 INTRA-LIGAND FREE ENERGY PREDICTED BY IDOCK:   -0.37 KCAL/MOL
REMARK 927      BINDING AFFINITY PREDICTED BY RF-SCORE:    0.00 PKD
ROOT
HETATM    1  C   UNL     1     -10.058   9.403  67.799  1.00  0.00    -0.198 C  
HETATM    2  C   UNL     1      -9.780   9.233  69.319  1.00  0.00    -0.169 C  
HETATM    3  C   UNL     1     -11.078   9.056  70.223  1.00  0.00    -0.235 C  
HETATM    4  N   UNL     1     -11.393  10.306  70.912  1.00  0.00    -0.336 N  
HETATM    5  O   UNL     1      -8.768   9.321  67.165  1.00  0.00    -0.126 OA 
HETATM    6  C   UNL     1      -9.889   9.730  65.096  1.00  0.00    -0.294 C  
HETATM    7  C   UNL     1     -12.627  10.613  71.482  1.00  0.00    -0.412 C  
HETATM    8  C   UNL     1      -9.545  10.281  66.473  1.00  0.00    -0.181 C  
HETATM    9  H   UNL     1     -10.655  11.006  70.980  1.00  0.00     0.000 HD 
HETATM   10  C   UNL     1     -12.664  12.018  72.062  1.00  0.00    -0.095 C  
HETATM   11  C   UNL     1      -8.866  11.665  66.422  1.00  0.00    -0.182 C  
HETATM   12  O   UNL     1     -13.623   9.911  71.407  1.00  0.00    -0.324 OA 
HETATM   13  C   UNL     1     -12.690  12.936  70.840  1.00  0.00    -0.207 C  
HETATM   14  C   UNL     1      -9.595  12.682  65.480  1.00  0.00    -0.026 C  
HETATM   15  C   UNL     1     -12.752  14.482  71.028  1.00  0.00    -0.413 C  
HETATM   16  C   UNL     1     -11.520  15.581  64.973  1.00  0.00    -0.218 C  
HETATM   17  O   UNL     1     -11.533  12.584  70.121  1.00  0.00    -0.523 OA 
HETATM   18  H   UNL     1     -11.549  13.154  69.361  1.00  0.00     0.000 HD 
HETATM   19  C   UNL     1     -11.986  15.342  69.917  1.00  0.00    -0.359 C  
HETATM   20  C   UNL     1     -14.272  14.799  71.048  1.00  0.00    -0.147 C  
HETATM   21  C   UNL     1     -12.209  15.013  72.384  1.00  0.00    -0.437 C  
HETATM   22  C   UNL     1      -9.561  14.192  65.843  1.00  0.00    -0.208 C  
HETATM   23  C   UNL     1     -11.301  14.684  68.684  1.00  0.00    -0.305 C  
HETATM   24  O   UNL     1     -11.902  16.572  70.050  1.00  0.00     0.100 OA 
HETATM   25  H   UNL     1      -9.882  17.049  66.862  1.00  0.00     0.000 HD 
HETATM   26  C   UNL     1     -10.984  14.768  66.162  1.00  0.00    -0.332 C  
HETATM   27  C   UNL     1     -11.123  15.616  67.468  1.00  0.00    -0.289 C  
HETATM   28  C   UNL     1      -9.941  14.047  69.026  1.00  0.00    -0.028 C  
HETATM   29  O   UNL     1      -9.992  16.474  67.611  1.00  0.00    -0.245 OA 
ENDROOT
BRANCH   3  30
HETATM   30  C   UNL     1     -11.203   8.000  71.364  1.00  0.00    -0.287 C  
HETATM   31  C   UNL     1     -11.709   6.754  71.124  1.00  0.00    -0.394 C  
HETATM   32  C   UNL     1     -10.333   8.308  72.562  1.00  0.00    -0.401 C  
BRANCH  31  33
HETATM   33  C   UNL     1     -11.273   5.511  71.709  1.00  0.00    -0.094 A  
HETATM   34  C   UNL     1     -11.659   5.071  72.979  1.00  0.00    -0.216 A  
HETATM   35  S   UNL     1     -10.750   3.694  73.422  1.00  0.00    -0.221 SA 
HETATM   36  C   UNL     1      -9.860   3.822  71.953  1.00  0.00    -0.178 A  
HETATM   37  N   UNL     1     -10.213   4.823  71.169  1.00  0.00    -0.188 NA 
HETATM   38  C   UNL     1      -8.764   2.849  71.673  1.00  0.00    -0.113 C  
ENDBRANCH  31  33
ENDBRANCH   3  30
TORSDOF 2
ENDMDL
MODEL        4
REMARK 921   NORMALIZED FREE ENERGY PREDICTED BY IDOCK:   -7.32 KCAL/MOL
REMARK 922        TOTAL FREE ENERGY PREDICTED BY IDOCK:   -8.06 KCAL/MOL
REMARK 923 INTER-LIGAND FREE ENERGY PREDICTED BY IDOCK:   -9.03 KCAL/MOL
REMARK 924 INTRA-LIGAND FREE ENERGY PREDICTED BY IDOCK:    0.97 KCAL/MOL
REMARK 927      BINDING AFFINITY PREDICTED BY RF-SCORE:    0.00 PKD
ROOT
HETATM    1  C   UNL     1     -12.413  12.608  71.791  1.00  0.00     0.164 C  
HETATM    2  C   UNL     1     -13.032  11.285  71.259  1.00  0.00    -0.427 C  
HETATM    3  C   UNL     1     -12.002  10.084  71.087  1.00  0.00    -0.392 C  
HETATM    4  N   UNL     1     -11.642   9.918  69.681  1.00  0.00    -0.443 N  
HETATM    5  O   UNL     1     -13.535  13.465  72.076  1.00  0.00    -0.429 OA 
HETATM    6  C   UNL     1     -11.948  15.144  72.682  1.00  0.00    -0.486 C  
HETATM    7  C   UNL     1     -10.525   9.225  69.220  1.00  0.00    -0.218 C  
HETATM    8  C   UNL     1     -12.484  14.262  71.563  1.00  0.00    -0.356 C  
HETATM    9  H   UNL     1     -12.255  10.342  68.984  1.00  0.00     0.000 HD 
HETATM   10  C   UNL     1     -10.386   9.291  67.706  1.00  0.00    -0.292 C  
HETATM   11  C   UNL     1     -12.903  15.057  70.310  1.00  0.00    -0.270 C  
HETATM   12  O   UNL     1      -9.663   8.739  69.934  1.00  0.00    -0.172 OA 
HETATM   13  C   UNL     1      -9.953  10.729  67.424  1.00  0.00    -0.184 C  
HETATM   14  C   UNL     1     -11.835  16.108  69.852  1.00  0.00    -0.128 C  
HETATM   15  C   UNL     1      -9.683  11.189  65.960  1.00  0.00    -0.263 C  
HETATM   16  C   UNL     1      -9.405  17.245  67.581  1.00  0.00    -0.237 C  
HETATM   17  O   UNL     1     -10.971  11.514  67.996  1.00  0.00    -0.203 OA 
HETATM   18  H   UNL     1     -10.702  12.407  67.821  1.00  0.00     0.000 HD 
HETATM   19  C   UNL     1     -10.046  12.714  65.638  1.00  0.00    -0.272 C  
HETATM   20  C   UNL     1      -8.171  10.905  65.747  1.00  0.00    -0.113 C  
HETATM   21  C   UNL     1     -10.409  10.368  64.857  1.00  0.00    -0.238 C  
HETATM   22  C   UNL     1     -11.701  16.425  68.338  1.00  0.00     0.068 C  
HETATM   23  C   UNL     1     -10.550  13.697  66.736  1.00  0.00    -0.273 C  
HETATM   24  O   UNL     1      -9.956  13.129  64.474  1.00  0.00    -0.254 OA 
HETATM   25  H   UNL     1     -11.147  16.635  65.346  1.00  0.00     0.000 HD 
HETATM   26  C   UNL     1     -10.305  16.013  67.757  1.00  0.00    -0.279 C  
HETATM   27  C   UNL     1     -10.312  15.189  66.428  1.00  0.00    -0.286 C  
HETATM   28  C   UNL     1     -12.036  13.491  67.084  1.00  0.00    -0.426 C  
HETATM   29  O   UNL     1     -11.293  15.715  65.536  1.00  0.00    -0.189 OA 
ENDROOT
BRANCH   3  30
HETATM   30  C   UNL     1     -12.295   8.620  71.537  1.00  0.00    -0.370 C  
HETATM   31  C   UNL     1     -11.294   7.696  71.642  1.00  0.00    -0.286 C  
HETATM   32  C   UNL     1     -13.621   8.468  72.249  1.00  0.00    -0.371 C  
BRANCH  31  33
HETATM   33  C   UNL     1     -11.167   6.661  72.637  1.00  0.00    -0.249 A  
HETATM   34  C   UNL     1     -10.321   6.749  73.747  1.00  0.00    -0.368 A  
HETATM   35  S   UNL     1     -10.254   5.242  74.551  1.00  0.00    -0.258 SA 
HETATM   36  C   UNL     1     -11.275   4.564  73.341  1.00  0.00    -0.315 A  
HETATM   37  N   UNL     1     -11.654   5.399  72.393  1.00  0.00    -0.166 NA 
HETATM   38  C   UNL     1     -11.636   3.118  73.414  1.00  0.00    -0.051 C  
ENDBRANCH  31  33
ENDBRANCH   3  30
TORSDOF 2
ENDMDL
MODEL        5
REMARK 921   NORMALIZED FREE ENERGY PREDICTED BY IDOCK:   -7.22 KCAL/MOL
REMARK 922        TOTAL FREE ENERGY PREDICTED BY IDOCK:   -7.96 KCAL/MOL
REMARK 923 INTER-LIGAND FREE ENERGY PREDICTED BY IDOCK:   -7.51 KCAL/MOL
REMARK 924 INTRA-LIGAND FREE ENERGY PREDICTED BY IDOCK:   -0.44 KCAL/MOL
REMARK 927      BINDING AFFINITY PREDICTED BY RF-SCORE:    0.00 PKD
ROOT
HETATM    1  C   UNL     1     -10.711   9.243  70.021  1.00  0.00    -0.232 C  
HETATM    2  C   UNL     1     -10.353   9.267  68.509  1.00  0.00    -0.237 C  
HETATM    3  C   UNL     1      -8.845   9.661  68.181  1.00  0.00    -0.119 C  
HETATM    4  N   UNL     1      -8.767  11.047  67.729  1.00  0.00    -0.128 N  
HETATM    5  O   UNL     1     -12.024   8.658  70.092  1.00  0.00     0.143 OA 
HETATM    6  C   UNL     1     -11.931   9.019  72.450  1.00  0.00    -0.255 C  
HETATM    7  C   UNL     1      -7.604  11.815  67.705  1.00  0.00    -0.132 C  
HETATM    8  C   UNL     1     -11.935   9.672  71.075  1.00  0.00    -0.343 C  
HETATM    9  H   UNL     1      -9.629  11.487  67.406  1.00  0.00     0.000 HD 
HETATM   10  C   UNL     1      -7.861  13.243  67.248  1.00  0.00    -0.118 C  
HETATM   11  C   UNL     1     -13.028  10.748  70.915  1.00  0.00    -0.385 C  
HETATM   12  O   UNL     1      -6.521  11.451  68.135  1.00  0.00    -0.055 OA 
HETATM   13  C   UNL     1      -8.596  13.893  68.421  1.00  0.00    -0.169 C  
HETATM   14  C   UNL     1     -13.088  11.757  72.112  1.00  0.00    -0.308 C  
HETATM   15  C   UNL     1      -9.019  15.390  68.340  1.00  0.00    -0.189 C  
HETATM   16  C   UNL     1     -12.621  14.969  73.462  1.00  0.00    -0.664 C  
HETATM   17  O   UNL     1      -9.728  13.081  68.610  1.00  0.00    -0.370 OA 
HETATM   18  H   UNL     1     -10.185  13.484  69.339  1.00  0.00     0.000 HD 
HETATM   19  C   UNL     1     -10.380  15.763  69.096  1.00  0.00    -0.240 C  
HETATM   20  C   UNL     1      -7.807  16.159  68.935  1.00  0.00    -0.213 C  
HETATM   21  C   UNL     1      -9.196  15.960  66.904  1.00  0.00    -0.247 C  
HETATM   22  C   UNL     1     -13.520  13.222  71.832  1.00  0.00    -0.525 C  
HETATM   23  C   UNL     1     -11.179  14.719  69.930  1.00  0.00    -0.293 C  
HETATM   24  O   UNL     1     -10.838  16.910  68.996  1.00  0.00    -0.314 OA 
HETATM   25  H   UNL     1     -13.886  16.172  71.148  1.00  0.00     0.000 HD 
HETATM   26  C   UNL     1     -12.377  14.255  72.124  1.00  0.00    -0.246 C  
HETATM   27  C   UNL     1     -12.092  15.321  71.017  1.00  0.00    -0.342 C  
HETATM   28  C   UNL     1     -12.011  13.766  69.052  1.00  0.00    -0.399 C  
HETATM   29  O   UNL     1     -13.323  15.801  70.478  1.00  0.00    -0.418 OA 
ENDROOT
BRANCH   3  30
HETATM   30  C   UNL     1      -7.961   8.913  67.138  1.00  0.00    -0.096 C  
HETATM   31  C   UNL     1      -7.127   7.897  67.512  1.00  0.00    -0.083 C  
HETATM   32  C   UNL     1      -8.437   9.092  65.713  1.00  0.00    -0.153 C  
BRANCH  31  33
HETATM   33  C   UNL     1      -6.839   6.693  66.774  1.00  0.00    -0.065 A  
HETATM   34  C   UNL     1      -5.792   6.575  65.855  1.00  0.00    -0.022 A  
HETATM   35  S   UNL     1      -5.922   5.098  65.006  1.00  0.00    -0.026 SA 
HETATM   36  C   UNL     1      -7.386   4.756  65.847  1.00  0.00    -0.077 A  
HETATM   37  N   UNL     1      -7.762   5.677  66.714  1.00  0.00    -0.099 NA 
HETATM   38  C   UNL     1      -8.132   3.501  65.539  1.00  0.00    -0.093 C  
ENDBRANCH  31  33
ENDBRANCH   3  30
TORSDOF 2
ENDMDL
MODEL        6
REMARK 921   NORMALIZED FREE ENERGY PREDICTED BY IDOCK:   -6.80 KCAL/MOL
REMARK 922        TOTAL FREE ENERGY PREDICTED BY IDOCK:   -7.48 KCAL/MOL
REMARK 923 INTER-LIGAND FREE ENERGY PREDICTED BY IDOCK:   -7.41 KCAL/MOL
REMARK 924 INTRA-LIGAND FREE ENERGY PREDICTED BY IDOCK:   -0.07 KCAL/MOL
REMARK 927      BINDING AFFINITY PREDICTED BY RF-SCORE:    0.00 PKD
ROOT
HETATM    1  C   UNL     1     -10.799   9.177  70.019  1.00  0.00    -0.234 C  
HETATM    2  C   UNL     1     -10.491   9.198  68.496  1.00  0.00    -0.238 C  
HETATM    3  C   UNL     1      -8.998   9.598  68.117  1.00  0.00    -0.123 C  
HETATM    4  N   UNL     1      -8.942  10.984  67.658  1.00  0.00    -0.140 N  
HETATM    5  O   UNL     1     -12.106   8.584  70.135  1.00  0.00     0.254 OA 
HETATM    6  C   UNL     1     -11.936   8.953  72.488  1.00  0.00    -0.219 C  
HETATM    7  C   UNL     1      -7.785  11.758  67.594  1.00  0.00    -0.137 C  
HETATM    8  C   UNL     1     -11.989   9.602  71.113  1.00  0.00    -0.367 C  
HETATM    9  H   UNL     1      -9.817  11.419  67.363  1.00  0.00     0.000 HD 
HETATM   10  C   UNL     1      -8.064  13.183  67.142  1.00  0.00    -0.107 C  
HETATM   11  C   UNL     1     -13.092  10.672  70.986  1.00  0.00    -0.376 C  
HETATM   12  O   UNL     1      -6.686  11.401  67.989  1.00  0.00    -0.057 OA 
HETATM   13  C   UNL     1      -8.763  13.833  68.337  1.00  0.00    -0.162 C  
HETATM   14  C   UNL     1     -13.118  11.684  72.182  1.00  0.00    -0.290 C  
HETATM   15  C   UNL     1      -9.197  15.328  68.267  1.00  0.00    -0.189 C  
HETATM   16  C   UNL     1     -12.623  14.902  73.507  1.00  0.00    -0.622 C  
HETATM   17  O   UNL     1      -9.884  13.015  68.566  1.00  0.00    -0.299 OA 
HETATM   18  H   UNL     1     -10.318  13.419  69.308  1.00  0.00     0.000 HD 
HETATM   19  C   UNL     1     -10.533  15.696  69.067  1.00  0.00    -0.229 C  
HETATM   20  C   UNL     1      -7.969  16.104  68.818  1.00  0.00    -0.216 C  
HETATM   21  C   UNL     1      -9.424  15.892  66.836  1.00  0.00    -0.242 C  
HETATM   22  C   UNL     1     -13.567  13.146  71.912  1.00  0.00    -0.453 C  
HETATM   23  C   UNL     1     -11.298  14.650  69.930  1.00  0.00    -0.302 C  
HETATM   24  O   UNL     1     -11.000  16.840  68.978  1.00  0.00    -0.304 OA 
HETATM   25  H   UNL     1     -13.971  16.092  71.233  1.00  0.00     0.000 HD 
HETATM   26  C   UNL     1     -12.420  14.185  72.164  1.00  0.00    -0.266 C  
HETATM   27  C   UNL     1     -12.178  15.250  71.045  1.00  0.00    -0.350 C  
HETATM   28  C   UNL     1     -12.154  13.690  69.082  1.00  0.00    -0.361 C  
HETATM   29  O   UNL     1     -13.429  15.722  70.546  1.00  0.00    -0.366 OA 
ENDROOT
BRANCH   3  30
HETATM   30  C   UNL     1      -8.145   8.852  67.047  1.00  0.00    -0.109 C  
HETATM   31  C   UNL     1      -8.486   8.877  65.724  1.00  0.00    -0.157 C  
HETATM   32  C   UNL     1      -6.746   8.523  67.520  1.00  0.00    -0.063 C  
BRANCH  31  33
HETATM   33  C   UNL     1      -7.591   8.939  64.596  1.00  0.00    -0.108 A  
HETATM   34  C   UNL     1      -7.103   7.812  63.928  1.00  0.00    -0.069 A  
HETATM   35  S   UNL     1      -5.885   8.271  62.820  1.00  0.00    -0.075 SA 
HETATM   36  C   UNL     1      -6.029   9.902  63.355  1.00  0.00    -0.118 A  
HETATM   37  N   UNL     1      -6.929  10.106  64.297  1.00  0.00    -0.126 NA 
HETATM   38  C   UNL     1      -5.141  10.946  62.766  1.00  0.00    -0.190 C  
ENDBRANCH  31  33
ENDBRANCH   3  30
TORSDOF 2
ENDMDL
MODEL        7
REMARK 921   NORMALIZED FREE ENERGY PREDICTED BY IDOCK:   -6.70 KCAL/MOL
REMARK 922        TOTAL FREE ENERGY PREDICTED BY IDOCK:   -7.37 KCAL/MOL
REMARK 923 INTER-LIGAND FREE ENERGY PREDICTED BY IDOCK:   -7.25 KCAL/MOL
REMARK 924 INTRA-LIGAND FREE ENERGY PREDICTED BY IDOCK:   -0.12 KCAL/MOL
REMARK 927      BINDING AFFINITY PREDICTED BY RF-SCORE:    0.00 PKD
ROOT
HETATM    1  C   UNL     1     -12.402   9.829  70.429  1.00  0.00    -0.011 C  
HETATM    2  C   UNL     1     -11.542  11.113  70.262  1.00  0.00    -0.388 C  
HETATM    3  C   UNL     1     -11.209  11.506  68.756  1.00  0.00    -0.249 C  
HETATM    4  N   UNL     1      -9.839  11.125  68.420  1.00  0.00    -0.179 N  
HETATM    5  O   UNL     1     -12.762   9.792  71.823  1.00  0.00    -0.370 OA 
HETATM    6  C   UNL     1     -13.860   7.722  71.363  1.00  0.00    -0.384 C  
HETATM    7  C   UNL     1      -9.343  10.990  67.125  1.00  0.00    -0.164 C  
HETATM    8  C   UNL     1     -12.532   8.465  71.386  1.00  0.00    -0.288 C  
HETATM    9  H   UNL     1      -9.198  10.943  69.192  1.00  0.00     0.000 HD 
HETATM   10  C   UNL     1      -7.899  10.512  67.104  1.00  0.00    -0.112 C  
HETATM   11  C   UNL     1     -11.448   7.750  72.216  1.00  0.00    -0.384 C  
HETATM   12  O   UNL     1     -10.012  11.094  66.108  1.00  0.00    -0.214 OA 
HETATM   13  C   UNL     1      -7.977   9.044  67.522  1.00  0.00    -0.101 C  
HETATM   14  C   UNL     1     -11.329   6.220  71.899  1.00  0.00    -0.348 C  
HETATM   15  C   UNL     1      -6.678   8.186  67.600  1.00  0.00    -0.062 C  
HETATM   16  C   UNL     1      -9.591   3.477  70.553  1.00  0.00    -0.246 C  
HETATM   17  O   UNL     1      -8.609   9.077  68.778  1.00  0.00    -0.129 OA 
HETATM   18  H   UNL     1      -8.657   8.165  69.039  1.00  0.00     0.000 HD 
HETATM   19  C   UNL     1      -6.662   7.061  68.738  1.00  0.00    -0.060 C  
HETATM   20  C   UNL     1      -6.548   7.567  66.182  1.00  0.00    -0.046 C  
HETATM   21  C   UNL     1      -5.361   8.985  67.816  1.00  0.00    -0.035 C  
HETATM   22  C   UNL     1      -9.938   5.539  72.017  1.00  0.00    -0.225 C  
HETATM   23  C   UNL     1      -7.896   6.782  69.646  1.00  0.00    -0.115 C  
HETATM   24  O   UNL     1      -5.629   6.405  68.932  1.00  0.00    -0.014 OA 
HETATM   25  H   UNL     1      -7.126   4.381  71.783  1.00  0.00     0.000 HD 
HETATM   26  C   UNL     1      -9.412   5.000  70.642  1.00  0.00    -0.231 C  
HETATM   27  C   UNL     1      -7.941   5.367  70.260  1.00  0.00    -0.092 C  
HETATM   28  C   UNL     1      -8.053   7.819  70.774  1.00  0.00    -0.102 C  
HETATM   29  O   UNL     1      -7.098   5.252  71.405  1.00  0.00    -0.061 OA 
ENDROOT
BRANCH   3  30
HETATM   30  C   UNL     1     -11.302  12.960  68.198  1.00  0.00    -0.327 C  
HETATM   31  C   UNL     1     -10.421  13.928  68.590  1.00  0.00    -0.249 C  
HETATM   32  C   UNL     1     -12.106  13.059  66.921  1.00  0.00    -0.349 C  
BRANCH  31  33
HETATM   33  C   UNL     1      -9.862  14.976  67.773  1.00  0.00    -0.220 A  
HETATM   34  C   UNL     1      -8.557  14.960  67.274  1.00  0.00    -0.213 A  
HETATM   35  S   UNL     1      -8.180  16.472  66.572  1.00  0.00    -0.324 SA 
HETATM   36  C   UNL     1      -9.727  17.064  67.046  1.00  0.00    -0.263 A  
HETATM   37  N   UNL     1     -10.489  16.196  67.684  1.00  0.00    -0.286 NA 
HETATM   38  C   UNL     1     -10.093  18.479  66.746  1.00  0.00    -0.406 C  
ENDBRANCH  31  33
ENDBRANCH   3  30
TORSDOF 2
ENDMDL
MODEL        8
REMARK 921   NORMALIZED FREE ENERGY PREDICTED BY IDOCK:   -6.65 KCAL/MOL
REMARK 922        TOTAL FREE ENERGY PREDICTED BY IDOCK:   -7.32 KCAL/MOL
REMARK 923 INTER-LIGAND FREE ENERGY PREDICTED BY IDOCK:   -7.54 KCAL/MOL
REMARK 924 INTRA-LIGAND FREE ENERGY PREDICTED BY IDOCK:    0.22 KCAL/MOL
REMARK 927      BINDING AFFINITY PREDICTED BY RF-SCORE:    0.00 PKD
ROOT
HETATM    1  C   UNL     1     -12.482  11.877  72.072  1.00  0.00     0.460 C  
HETATM    2  C   UNL     1     -12.753  10.464  71.484  1.00  0.00    -0.564 C  
HETATM    3  C   UNL     1     -11.472   9.524  71.376  1.00  0.00    -0.392 C  
HETATM    4  N   UNL     1     -10.989   9.477  69.999  1.00  0.00    -0.242 N  
HETATM    5  O   UNL     1     -13.782  12.457  72.283  1.00  0.00    -0.441 OA 
HETATM    6  C   UNL     1     -12.654  14.430  73.017  1.00  0.00    -0.367 C  
HETATM    7  C   UNL     1      -9.717   9.060  69.613  1.00  0.00    -0.172 C  
HETATM    8  C   UNL     1     -12.902  13.480  71.854  1.00  0.00    -0.272 C  
HETATM    9  H   UNL     1     -11.632   9.771  69.263  1.00  0.00     0.000 HD 
HETATM   10  C   UNL     1      -9.492   9.192  68.114  1.00  0.00    -0.155 C  
HETATM   11  C   UNL     1     -13.401  14.193  70.581  1.00  0.00    -0.017 C  
HETATM   12  O   UNL     1      -8.819   8.759  70.384  1.00  0.00    -0.143 OA 
HETATM   13  C   UNL     1      -9.372  10.698  67.878  1.00  0.00    -0.148 C  
HETATM   14  C   UNL     1     -12.565  15.465  70.211  1.00  0.00    -0.377 C  
HETATM   15  C   UNL     1      -9.111  11.242  66.441  1.00  0.00    -0.201 C  
HETATM   16  C   UNL     1     -10.298  17.167  68.132  1.00  0.00    -0.350 C  
HETATM   17  O   UNL     1     -10.575  11.223  68.381  1.00  0.00    -0.179 OA 
HETATM   18  H   UNL     1     -10.501  12.158  68.234  1.00  0.00     0.000 HD 
HETATM   19  C   UNL     1      -9.781  12.656  66.108  1.00  0.00    -0.251 C  
HETATM   20  C   UNL     1      -7.563  11.304  66.335  1.00  0.00    -0.072 C  
HETATM   21  C   UNL     1      -9.559  10.308  65.281  1.00  0.00    -0.324 C  
HETATM   22  C   UNL     1     -12.401  15.841  68.714  1.00  0.00     0.282 C  
HETATM   23  C   UNL     1     -10.565  13.475  67.175  1.00  0.00    -0.264 C  
HETATM   24  O   UNL     1      -9.706  13.110  64.957  1.00  0.00    -0.080 OA 
HETATM   25  H   UNL     1     -11.704  16.242  65.771  1.00  0.00     0.000 HD 
HETATM   26  C   UNL     1     -10.911  15.762  68.231  1.00  0.00    -0.325 C  
HETATM   27  C   UNL     1     -10.644  14.991  66.898  1.00  0.00    -0.297 C  
HETATM   28  C   UNL     1     -11.988  12.937  67.412  1.00  0.00    -0.360 C  
HETATM   29  O   UNL     1     -11.655  15.309  65.942  1.00  0.00    -0.177 OA 
ENDROOT
BRANCH   3  30
HETATM   30  C   UNL     1     -11.463   8.021  71.791  1.00  0.00    -0.324 C  
HETATM   31  C   UNL     1     -11.706   7.032  70.880  1.00  0.00    -0.387 C  
HETATM   32  C   UNL     1     -10.742   7.766  73.096  1.00  0.00    -0.414 C  
BRANCH  31  33
HETATM   33  C   UNL     1     -11.077   5.737  70.814  1.00  0.00    -0.201 A  
HETATM   34  C   UNL     1     -10.808   4.945  71.934  1.00  0.00     0.012 A  
HETATM   35  S   UNL     1      -9.839   3.610  71.488  1.00  0.00    -0.119 SA 
HETATM   36  C   UNL     1      -9.774   4.211  69.875  1.00  0.00    -0.210 A  
HETATM   37  N   UNL     1     -10.435   5.334  69.668  1.00  0.00    -0.284 NA 
HETATM   38  C   UNL     1      -8.982   3.472  68.849  1.00  0.00    -0.181 C  
ENDBRANCH  31  33
ENDBRANCH   3  30
TORSDOF 2
ENDMDL
MODEL        9
REMARK 921   NORMALIZED FREE ENERGY PREDICTED BY IDOCK:   -6.63 KCAL/MOL
REMARK 922        TOTAL FREE ENERGY PREDICTED BY IDOCK:   -7.29 KCAL/MOL
REMARK 923 INTER-LIGAND FREE ENERGY PREDICTED BY IDOCK:   -7.03 KCAL/MOL
REMARK 924 INTRA-LIGAND FREE ENERGY PREDICTED BY IDOCK:   -0.27 KCAL/MOL
REMARK 927      BINDING AFFINITY PREDICTED BY RF-SCORE:    0.00 PKD
ROOT
HETATM    1  C   UNL     1     -11.532   9.504  70.375  1.00  0.00    -0.242 C  
HETATM    2  C   UNL     1     -10.411  10.354  69.713  1.00  0.00    -0.284 C  
HETATM    3  C   UNL     1     -10.213  10.106  68.153  1.00  0.00    -0.171 C  
HETATM    4  N   UNL     1      -9.045   9.260  67.916  1.00  0.00    -0.127 N  
HETATM    5  O   UNL     1     -11.684  10.042  71.702  1.00  0.00    -0.345 OA 
HETATM    6  C   UNL     1     -13.319   8.343  72.077  1.00  0.00    -0.367 C  
HETATM    7  C   UNL     1      -8.792   8.561  66.737  1.00  0.00    -0.139 C  
HETATM    8  C   UNL     1     -11.858   8.639  71.767  1.00  0.00    -0.337 C  
HETATM    9  H   UNL     1      -8.365   9.173  68.671  1.00  0.00     0.000 HD 
HETATM   10  C   UNL     1      -7.533   7.713  66.825  1.00  0.00    -0.093 C  
HETATM   11  C   UNL     1     -10.878   7.967  72.750  1.00  0.00    -0.451 C  
HETATM   12  O   UNL     1      -9.554   8.504  65.784  1.00  0.00    -0.152 OA 
HETATM   13  C   UNL     1      -7.913   6.559  67.752  1.00  0.00    -0.115 C  
HETATM   14  C   UNL     1     -11.193   6.453  73.005  1.00  0.00    -0.176 C  
HETATM   15  C   UNL     1      -6.872   5.445  68.076  1.00  0.00    -0.060 C  
HETATM   16  C   UNL     1     -10.409   3.042  72.669  1.00  0.00    -0.211 C  
HETATM   17  O   UNL     1      -8.328   7.192  68.937  1.00  0.00    -0.124 OA 
HETATM   18  H   UNL     1      -8.564   6.475  69.513  1.00  0.00     0.000 HD 
HETATM   19  C   UNL     1      -6.973   4.813  69.543  1.00  0.00    -0.053 C  
HETATM   20  C   UNL     1      -7.108   4.375  66.976  1.00  0.00    -0.068 C  
HETATM   21  C   UNL     1      -5.381   5.859  67.926  1.00  0.00    -0.004 C  
HETATM   22  C   UNL     1     -10.014   5.485  73.298  1.00  0.00    -0.188 C  
HETATM   23  C   UNL     1      -8.092   5.220  70.546  1.00  0.00    -0.104 C  
HETATM   24  O   UNL     1      -6.120   3.995  69.914  1.00  0.00    -0.021 OA 
HETATM   25  H   UNL     1      -7.645   3.565  73.372  1.00  0.00     0.000 HD 
HETATM   26  C   UNL     1      -9.844   4.389  72.191  1.00  0.00    -0.237 C  
HETATM   27  C   UNL     1      -8.400   4.170  71.633  1.00  0.00    -0.091 C  
HETATM   28  C   UNL     1      -7.820   6.575  71.226  1.00  0.00    -0.103 C  
HETATM   29  O   UNL     1      -7.456   4.212  72.702  1.00  0.00    -0.069 OA 
ENDROOT
BRANCH   3  30
HETATM   30  C   UNL     1     -10.020  11.249  67.110  1.00  0.00    -0.219 C  
HETATM   31  C   UNL     1     -11.087  11.941  66.611  1.00  0.00    -0.360 C  
HETATM   32  C   UNL     1      -8.608  11.791  67.072  1.00  0.00    -0.173 C  
BRANCH  31  33
HETATM   33  C   UNL     1     -11.141  13.346  66.295  1.00  0.00    -0.293 A  
HETATM   34  C   UNL     1     -11.020  13.858  65.000  1.00  0.00    -0.368 A  
HETATM   35  S   UNL     1     -10.881  15.560  65.054  1.00  0.00    -0.424 SA 
HETATM   36  C   UNL     1     -10.908  15.497  66.775  1.00  0.00    -0.291 A  
HETATM   37  N   UNL     1     -11.019  14.287  67.290  1.00  0.00    -0.291 NA 
HETATM   38  C   UNL     1     -10.780  16.761  67.556  1.00  0.00    -0.275 C  
ENDBRANCH  31  33
ENDBRANCH   3  30
TORSDOF 2
ENDMDL
MODEL       10
REMARK 921   NORMALIZED FREE ENERGY PREDICTED BY IDOCK:   -6.60 KCAL/MOL
REMARK 922        TOTAL FREE ENERGY PREDICTED BY IDOCK:   -7.26 KCAL/MOL
REMARK 923 INTER-LIGAND FREE ENERGY PREDICTED BY IDOCK:   -7.50 KCAL/MOL
REMARK 924 INTRA-LIGAND FREE ENERGY PREDICTED BY IDOCK:    0.25 KCAL/MOL
REMARK 927      BINDING AFFINITY PREDICTED BY RF-SCORE:    0.00 PKD
ROOT
HETATM    1  C   UNL     1      -8.771  10.952  65.515  1.00  0.00    -0.171 C  
HETATM    2  C   UNL     1     -10.205  11.538  65.631  1.00  0.00    -0.292 C  
HETATM    3  C   UNL     1     -10.470  12.416  66.933  1.00  0.00    -0.224 C  
HETATM    4  N   UNL     1     -11.224  11.648  67.921  1.00  0.00    -0.247 N  
HETATM    5  O   UNL     1      -8.691  10.399  64.188  1.00  0.00    -0.181 OA 
HETATM    6  C   UNL     1      -6.484   9.679  64.746  1.00  0.00    -0.090 C  
HETATM    7  C   UNL     1     -11.314  11.961  69.275  1.00  0.00    -0.277 C  
HETATM    8  C   UNL     1      -7.967   9.557  65.066  1.00  0.00    -0.119 C  
HETATM    9  H   UNL     1     -11.721  10.819  67.594  1.00  0.00     0.000 HD 
HETATM   10  C   UNL     1     -12.113  10.930  70.057  1.00  0.00    -0.433 C  
HETATM   11  C   UNL     1      -8.477   8.102  65.043  1.00  0.00    -0.117 C  
HETATM   12  O   UNL     1     -10.709  12.870  69.822  1.00  0.00     0.301 OA 
HETATM   13  C   UNL     1     -11.201   9.705  70.119  1.00  0.00    -0.256 C  
HETATM   14  C   UNL     1      -7.560   7.108  65.833  1.00  0.00    -0.093 C  
HETATM   15  C   UNL     1     -11.668   8.423  70.871  1.00  0.00    -0.269 C  
HETATM   16  C   UNL     1      -6.957   4.977  68.564  1.00  0.00    -0.057 C  
HETATM   17  O   UNL     1     -10.936   9.405  68.771  1.00  0.00    -0.403 OA 
HETATM   18  H   UNL     1     -10.369   8.644  68.809  1.00  0.00     0.000 HD 
HETATM   19  C   UNL     1     -11.153   7.038  70.256  1.00  0.00    -0.285 C  
HETATM   20  C   UNL     1     -11.156   8.628  72.323  1.00  0.00    -0.395 C  
HETATM   21  C   UNL     1     -13.207   8.249  71.005  1.00  0.00     0.086 C  
HETATM   22  C   UNL     1      -8.214   5.887  66.536  1.00  0.00    -0.110 C  
HETATM   23  C   UNL     1     -10.179   6.979  69.043  1.00  0.00    -0.191 C  
HETATM   24  O   UNL     1     -11.562   5.970  70.735  1.00  0.00    -0.259 OA 
HETATM   25  H   UNL     1      -9.599   3.813  68.293  1.00  0.00     0.000 HD 
HETATM   26  C   UNL     1      -8.062   5.937  68.096  1.00  0.00    -0.109 C  
HETATM   27  C   UNL     1      -9.355   5.680  68.937  1.00  0.00    -0.120 C  
HETATM   28  C   UNL     1     -10.886   7.232  67.698  1.00  0.00    -0.251 C  
HETATM   29  O   UNL     1     -10.106   4.614  68.358  1.00  0.00    -0.104 OA 
ENDROOT
BRANCH   3  30
HETATM   30  C   UNL     1     -11.221  13.782  66.920  1.00  0.00    -0.326 C  
HETATM   31  C   UNL     1     -10.719  14.874  67.569  1.00  0.00    -0.276 C  
HETATM   32  C   UNL     1     -12.238  13.894  65.806  1.00  0.00    -0.488 C  
BRANCH  31  33
HETATM   33  C   UNL     1     -10.778  16.247  67.135  1.00  0.00    -0.247 A  
HETATM   34  C   UNL     1     -10.536  16.658  65.821  1.00  0.00    -0.268 A  
HETATM   35  S   UNL     1     -10.450  18.363  65.748  1.00  0.00    -0.034 SA 
HETATM   36  C   UNL     1     -10.655  18.435  67.457  1.00  0.00    -0.416 A  
HETATM   37  N   UNL     1     -10.785  17.267  68.056  1.00  0.00    -0.389 NA 
HETATM   38  C   UNL     1     -10.643  19.761  68.141  1.00  0.00    -0.392 C  
ENDBRANCH  31  33
ENDBRANCH   3  30
TORSDOF 2
ENDMDL
MODEL       11
REMARK 921   NORMALIZED FREE ENERGY PREDICTED BY IDOCK:   -6.57 KCAL/MOL
REMARK 922        TOTAL FREE ENERGY PREDICTED BY IDOCK:   -7.22 KCAL/MOL
REMARK 923 INTER-LIGAND FREE ENERGY PREDICTED BY IDOCK:   -6.94 KCAL/MOL
REMARK 924 INTRA-LIGAND FREE ENERGY PREDICTED BY IDOCK:   -0.28 KCAL/MOL
REMARK 927      BINDING AFFINITY PREDICTED BY RF-SCORE:    0.00 PKD
ROOT
HETATM    1  C   UNL     1      -8.293   6.689  66.147  1.00  0.00    -0.130 C  
HETATM    2  C   UNL     1      -9.496   7.670  66.235  1.00  0.00    -0.176 C  
HETATM    3  C   UNL     1      -9.212   9.009  67.047  1.00  0.00    -0.136 C  
HETATM    4  N   UNL     1      -9.798   8.929  68.383  1.00  0.00    -0.168 N  
HETATM    5  O   UNL     1      -8.694   5.680  65.202  1.00  0.00    -0.150 OA 
HETATM    6  C   UNL     1      -6.605   4.608  65.636  1.00  0.00    -0.041 C  
HETATM    7  C   UNL     1      -9.447   9.743  69.458  1.00  0.00    -0.212 C  
HETATM    8  C   UNL     1      -7.935   5.058  66.223  1.00  0.00    -0.107 C  
HETATM    9  H   UNL     1     -10.519   8.225  68.540  1.00  0.00     0.000 HD 
HETATM   10  C   UNL     1     -10.185   9.367  70.735  1.00  0.00    -0.368 C  
HETATM   11  C   UNL     1      -8.707   3.922  66.924  1.00  0.00    -0.114 C  
HETATM   12  O   UNL     1      -8.549  10.569  69.443  1.00  0.00    -0.154 OA 
HETATM   13  C   UNL     1      -9.550   8.047  71.170  1.00  0.00    -0.160 C  
HETATM   14  C   UNL     1      -7.821   3.078  67.901  1.00  0.00    -0.067 C  
HETATM   15  C   UNL     1     -10.033   7.342  72.473  1.00  0.00    -0.228 C  
HETATM   16  C   UNL     1      -6.916   2.060  71.143  1.00  0.00    -0.032 C  
HETATM   17  O   UNL     1      -9.733   7.196  70.065  1.00  0.00    -0.171 OA 
HETATM   18  H   UNL     1      -9.338   6.376  70.335  1.00  0.00     0.000 HD 
HETATM   19  C   UNL     1      -9.991   5.743  72.447  1.00  0.00    -0.169 C  
HETATM   20  C   UNL     1      -9.109   7.920  73.580  1.00  0.00    -0.346 C  
HETATM   21  C   UNL     1     -11.478   7.693  72.927  1.00  0.00    -0.342 C  
HETATM   22  C   UNL     1      -8.481   2.464  69.166  1.00  0.00    -0.097 C  
HETATM   23  C   UNL     1      -9.422   4.947  71.236  1.00  0.00    -0.214 C  
HETATM   24  O   UNL     1     -10.452   5.106  73.405  1.00  0.00    -0.192 OA 
HETATM   25  H   UNL     1      -9.705   1.713  71.857  1.00  0.00     0.000 HD 
HETATM   26  C   UNL     1      -7.897   3.051  70.497  1.00  0.00    -0.045 C  
HETATM   27  C   UNL     1      -8.931   3.523  71.570  1.00  0.00    -0.104 C  
HETATM   28  C   UNL     1     -10.409   4.869  70.057  1.00  0.00    -0.242 C  
HETATM   29  O   UNL     1     -10.007   2.590  71.651  1.00  0.00    -0.162 OA 
ENDROOT
BRANCH   3  30
HETATM   30  C   UNL     1      -9.654  10.425  66.567  1.00  0.00    -0.224 C  
HETATM   31  C   UNL     1     -10.942  10.854  66.715  1.00  0.00    -0.248 C  
HETATM   32  C   UNL     1      -8.496  11.378  66.371  1.00  0.00    -0.160 C  
BRANCH  31  33
HETATM   33  C   UNL     1     -11.382  12.188  67.041  1.00  0.00    -0.337 A  
HETATM   34  C   UNL     1     -11.454  13.231  66.114  1.00  0.00    -0.328 A  
HETATM   35  S   UNL     1     -11.773  14.706  66.917  1.00  0.00    -0.308 SA 
HETATM   36  C   UNL     1     -11.713  13.883  68.429  1.00  0.00    -0.356 A  
HETATM   37  N   UNL     1     -11.476  12.587  68.353  1.00  0.00    -0.287 NA 
HETATM   38  C   UNL     1     -11.896  14.656  69.691  1.00  0.00    -0.367 C  
ENDBRANCH  31  33
ENDBRANCH   3  30
TORSDOF 2
ENDMDL
MODEL       12
REMARK 921   NORMALIZED FREE ENERGY PREDICTED BY IDOCK:   -6.57 KCAL/MOL
REMARK 922        TOTAL FREE ENERGY PREDICTED BY IDOCK:   -7.22 KCAL/MOL
REMARK 923 INTER-LIGAND FREE ENERGY PREDICTED BY IDOCK:   -6.78 KCAL/MOL
REMARK 924 INTRA-LIGAND FREE ENERGY PREDICTED BY IDOCK:   -0.44 KCAL/MOL
REMARK 927      BINDING AFFINITY PREDICTED BY RF-SCORE:    0.00 PKD
ROOT
HETATM    1  C   UNL     1     -10.760   8.461  70.250  1.00  0.00    -0.234 C  
HETATM    2  C   UNL     1      -9.814   9.608  69.797  1.00  0.00    -0.253 C  
HETATM    3  C   UNL     1     -10.115  10.195  68.348  1.00  0.00    -0.164 C  
HETATM    4  N   UNL     1      -9.158   9.672  67.376  1.00  0.00    -0.131 N  
HETATM    5  O   UNL     1     -10.456   8.244  71.640  1.00  0.00    -0.211 OA 
HETATM    6  C   UNL     1     -12.057   6.472  71.593  1.00  0.00    -0.381 C  
HETATM    7  C   UNL     1      -9.337   9.685  65.994  1.00  0.00    -0.207 C  
HETATM    8  C   UNL     1     -10.735   6.990  71.043  1.00  0.00    -0.233 C  
HETATM    9  H   UNL     1      -8.294   9.267  67.737  1.00  0.00     0.000 HD 
HETATM   10  C   UNL     1      -8.195   9.002  65.256  1.00  0.00    -0.139 C  
HETATM   11  C   UNL     1      -9.574   5.988  71.204  1.00  0.00    -0.195 C  
HETATM   12  O   UNL     1     -10.351  10.060  65.426  1.00  0.00    -0.245 OA 
HETATM   13  C   UNL     1      -8.388   7.514  65.545  1.00  0.00    -0.133 C  
HETATM   14  C   UNL     1      -9.939   4.534  70.749  1.00  0.00    -0.269 C  
HETATM   15  C   UNL     1      -7.408   6.468  64.932  1.00  0.00    -0.076 C  
HETATM   16  C   UNL     1      -9.619   1.826  68.530  1.00  0.00    -0.170 C  
HETATM   17  O   UNL     1      -8.367   7.430  66.949  1.00  0.00    -0.117 OA 
HETATM   18  H   UNL     1      -8.487   6.506  67.129  1.00  0.00     0.000 HD 
HETATM   19  C   UNL     1      -7.125   5.178  65.835  1.00  0.00    -0.068 C  
HETATM   20  C   UNL     1      -8.063   6.085  63.577  1.00  0.00    -0.078 C  
HETATM   21  C   UNL     1      -5.998   7.009  64.562  1.00  0.00    -0.037 C  
HETATM   22  C   UNL     1      -8.824   3.640  70.142  1.00  0.00    -0.142 C  
HETATM   23  C   UNL     1      -7.849   4.940  67.193  1.00  0.00    -0.095 C  
HETATM   24  O   UNL     1      -6.281   4.349  65.465  1.00  0.00    -0.026 OA 
HETATM   25  H   UNL     1      -6.735   2.124  68.517  1.00  0.00     0.000 HD 
HETATM   26  C   UNL     1      -9.099   3.267  68.644  1.00  0.00    -0.206 C  
HETATM   27  C   UNL     1      -7.915   3.466  67.642  1.00  0.00    -0.080 C  
HETATM   28  C   UNL     1      -7.258   5.783  68.339  1.00  0.00    -0.079 C  
HETATM   29  O   UNL     1      -6.695   3.032  68.240  1.00  0.00    -0.039 OA 
ENDROOT
BRANCH   3  30
HETATM   30  C   UNL     1     -10.136  11.719  68.017  1.00  0.00    -0.198 C  
HETATM   31  C   UNL     1     -11.304  12.428  68.011  1.00  0.00    -0.340 C  
HETATM   32  C   UNL     1      -8.784  12.380  68.163  1.00  0.00    -0.190 C  
BRANCH  31  33
HETATM   33  C   UNL     1     -11.500  13.785  68.454  1.00  0.00    -0.316 A  
HETATM   34  C   UNL     1     -11.298  14.905  67.642  1.00  0.00    -0.337 A  
HETATM   35  S   UNL     1     -11.384  16.331  68.581  1.00  0.00    -0.268 SA 
HETATM   36  C   UNL     1     -11.599  15.373  69.996  1.00  0.00    -0.321 A  
HETATM   37  N   UNL     1     -11.613  14.069  69.794  1.00  0.00    -0.283 NA 
HETATM   38  C   UNL     1     -11.723  16.044  71.323  1.00  0.00    -0.516 C  
ENDBRANCH  31  33
ENDBRANCH   3  30
TORSDOF 2
ENDMDL
MODEL       13
REMARK 921   NORMALIZED FREE ENERGY PREDICTED BY IDOCK:   -6.53 KCAL/MOL
REMARK 922        TOTAL FREE ENERGY PREDICTED BY IDOCK:   -7.18 KCAL/MOL
REMARK 923 INTER-LIGAND FREE ENERGY PREDICTED BY IDOCK:   -7.36 KCAL/MOL
REMARK 924 INTRA-LIGAND FREE ENERGY PREDICTED BY IDOCK:    0.17 KCAL/MOL
REMARK 927      BINDING AFFINITY PREDICTED BY RF-SCORE:    0.00 PKD
ROOT
HETATM    1  C   UNL     1      -8.239  11.188  67.008  1.00  0.00    -0.146 C  
HETATM    2  C   UNL     1      -9.664  11.720  66.685  1.00  0.00    -0.219 C  
HETATM    3  C   UNL     1     -10.335  12.587  67.838  1.00  0.00    -0.216 C  
HETATM    4  N   UNL     1     -11.321  11.791  68.566  1.00  0.00    -0.247 N  
HETATM    5  O   UNL     1      -7.748  10.638  65.772  1.00  0.00    -0.153 OA 
HETATM    6  C   UNL     1      -5.783  10.002  66.970  1.00  0.00    -0.046 C  
HETATM    7  C   UNL     1     -11.822  12.103  69.829  1.00  0.00    -0.327 C  
HETATM    8  C   UNL     1      -7.289   9.824  66.835  1.00  0.00    -0.091 C  
HETATM    9  H   UNL     1     -11.668  10.944  68.117  1.00  0.00     0.000 HD 
HETATM   10  C   UNL     1     -12.780  11.042  70.349  1.00  0.00    -0.297 C  
HETATM   11  C   UNL     1      -7.716   8.351  66.679  1.00  0.00    -0.090 C  
HETATM   12  O   UNL     1     -11.441  13.034  70.519  1.00  0.00     0.090 OA 
HETATM   13  C   UNL     1     -11.884   9.853  70.695  1.00  0.00    -0.303 C  
HETATM   14  C   UNL     1      -7.041   7.393  67.719  1.00  0.00    -0.085 C  
HETATM   15  C   UNL     1     -12.507   8.554  71.289  1.00  0.00    -0.275 C  
HETATM   16  C   UNL     1      -7.202   5.288  70.530  1.00  0.00    -0.065 C  
HETATM   17  O   UNL     1     -11.219   9.562  69.490  1.00  0.00    -0.388 OA 
HETATM   18  H   UNL     1     -10.662   8.823  69.705  1.00  0.00     0.000 HD 
HETATM   19  C   UNL     1     -11.783   7.189  70.872  1.00  0.00    -0.328 C  
HETATM   20  C   UNL     1     -12.459   8.780  72.825  1.00  0.00    -0.101 C  
HETATM   21  C   UNL     1     -14.009   8.322  70.961  1.00  0.00     0.005 C  
HETATM   22  C   UNL     1      -7.830   6.149  68.209  1.00  0.00    -0.104 C  
HETATM   23  C   UNL     1     -10.491   7.167  70.005  1.00  0.00    -0.235 C  
HETATM   24  O   UNL     1     -12.277   6.107  71.220  1.00  0.00    -0.067 OA 
HETATM   25  H   UNL     1      -9.599   4.025  69.499  1.00  0.00     0.000 HD 
HETATM   26  C   UNL     1      -8.152   6.205  69.743  1.00  0.00    -0.119 C  
HETATM   27  C   UNL     1      -9.626   5.900  70.164  1.00  0.00    -0.162 C  
HETATM   28  C   UNL     1     -10.774   7.391  68.507  1.00  0.00    -0.138 C  
HETATM   29  O   UNL     1     -10.132   4.806  69.401  1.00  0.00    -0.218 OA 
ENDROOT
BRANCH   3  30
HETATM   30  C   UNL     1     -11.097  13.924  67.586  1.00  0.00    -0.295 C  
HETATM   31  C   UNL     1     -10.681  15.095  68.152  1.00  0.00    -0.254 C  
HETATM   32  C   UNL     1     -11.991  13.881  66.367  1.00  0.00    -0.467 C  
BRANCH  31  33
HETATM   33  C   UNL     1     -10.710  16.407  67.555  1.00  0.00    -0.298 A  
HETATM   34  C   UNL     1     -10.658  16.636  66.177  1.00  0.00    -0.215 A  
HETATM   35  S   UNL     1     -10.460  18.306  65.869  1.00  0.00    -0.154 SA 
HETATM   36  C   UNL     1     -10.375  18.597  67.565  1.00  0.00    -0.411 A  
HETATM   37  N   UNL     1     -10.491  17.525  68.325  1.00  0.00    -0.379 NA 
HETATM   38  C   UNL     1     -10.155  19.987  68.058  1.00  0.00    -0.557 C  
ENDBRANCH  31  33
ENDBRANCH   3  30
TORSDOF 2
ENDMDL
MODEL       14
REMARK 921   NORMALIZED FREE ENERGY PREDICTED BY IDOCK:   -6.51 KCAL/MOL
REMARK 922        TOTAL FREE ENERGY PREDICTED BY IDOCK:   -7.16 KCAL/MOL
REMARK 923 INTER-LIGAND FREE ENERGY PREDICTED BY IDOCK:   -6.95 KCAL/MOL
REMARK 924 INTRA-LIGAND FREE ENERGY PREDICTED BY IDOCK:   -0.21 KCAL/MOL
REMARK 927      BINDING AFFINITY PREDICTED BY RF-SCORE:    0.00 PKD
ROOT
HETATM    1  C   UNL     1      -9.083   6.466  66.433  1.00  0.00    -0.154 C  
HETATM    2  C   UNL     1     -10.174   7.474  66.891  1.00  0.00    -0.359 C  
HETATM    3  C   UNL     1      -9.626   8.754  67.663  1.00  0.00    -0.144 C  
HETATM    4  N   UNL     1      -9.838   8.611  69.101  1.00  0.00    -0.180 N  
HETATM    5  O   UNL     1      -9.765   5.527  65.582  1.00  0.00    -0.046 OA 
HETATM    6  C   UNL     1      -7.684   4.372  65.385  1.00  0.00    -0.086 C  
HETATM    7  C   UNL     1      -9.177   9.349  70.082  1.00  0.00    -0.234 C  
HETATM    8  C   UNL     1      -8.789   4.824  66.329  1.00  0.00    -0.114 C  
HETATM    9  H   UNL     1     -10.520   7.919  69.411  1.00  0.00     0.000 HD 
HETATM   10  C   UNL     1      -9.564   8.919  71.489  1.00  0.00    -0.362 C  
HETATM   11  C   UNL     1      -9.395   3.671  67.154  1.00  0.00    -0.228 C  
HETATM   12  O   UNL     1      -8.281  10.149  69.866  1.00  0.00    -0.177 OA 
HETATM   13  C   UNL     1      -8.893   7.557  71.671  1.00  0.00    -0.116 C  
HETATM   14  C   UNL     1      -8.317   2.745  67.814  1.00  0.00    -0.094 C  
HETATM   15  C   UNL     1      -9.041   6.790  73.019  1.00  0.00    -0.143 C  
HETATM   16  C   UNL     1      -6.626   1.510  70.638  1.00  0.00    -0.024 C  
HETATM   17  O   UNL     1      -9.402   6.780  70.615  1.00  0.00    -0.161 OA 
HETATM   18  H   UNL     1      -8.985   5.934  70.727  1.00  0.00     0.000 HD 
HETATM   19  C   UNL     1      -9.077   5.194  72.903  1.00  0.00    -0.122 C  
HETATM   20  C   UNL     1      -7.831   7.274  73.864  1.00  0.00    -0.136 C  
HETATM   21  C   UNL     1     -10.296   7.154  73.862  1.00  0.00    -0.339 C  
HETATM   22  C   UNL     1      -8.642   2.075  69.177  1.00  0.00    -0.100 C  
HETATM   23  C   UNL     1      -8.887   4.456  71.546  1.00  0.00    -0.149 C  
HETATM   24  O   UNL     1      -9.293   4.515  73.917  1.00  0.00    -0.113 OA 
HETATM   25  H   UNL     1      -9.134   1.200  72.057  1.00  0.00     0.000 HD 
HETATM   26  C   UNL     1      -7.699   2.565  70.330  1.00  0.00    -0.044 C  
HETATM   27  C   UNL     1      -8.387   3.002  71.664  1.00  0.00    -0.064 C  
HETATM   28  C   UNL     1     -10.156   4.477  70.673  1.00  0.00    -0.232 C  
HETATM   29  O   UNL     1      -9.442   2.096  71.985  1.00  0.00    -0.088 OA 
ENDROOT
BRANCH   3  30
HETATM   30  C   UNL     1     -10.118  10.208  67.390  1.00  0.00    -0.251 C  
HETATM   31  C   UNL     1      -9.689  10.909  66.299  1.00  0.00    -0.245 C  
HETATM   32  C   UNL     1     -11.386  10.559  68.136  1.00  0.00    -0.324 C  
BRANCH  31  33
HETATM   33  C   UNL     1     -10.461  11.821  65.493  1.00  0.00    -0.267 A  
HETATM   34  C   UNL     1     -11.058  11.471  64.278  1.00  0.00    -0.315 A  
HETATM   35  S   UNL     1     -11.665  12.866  63.501  1.00  0.00    -0.457 SA 
HETATM   36  C   UNL     1     -11.030  13.838  64.774  1.00  0.00    -0.392 A  
HETATM   37  N   UNL     1     -10.406  13.174  65.728  1.00  0.00    -0.285 NA 
HETATM   38  C   UNL     1     -11.190  15.320  64.713  1.00  0.00    -0.405 C  
ENDBRANCH  31  33
ENDBRANCH   3  30
TORSDOF 2
ENDMDL
MODEL       15
REMARK 921   NORMALIZED FREE ENERGY PREDICTED BY IDOCK:   -6.47 KCAL/MOL
REMARK 922        TOTAL FREE ENERGY PREDICTED BY IDOCK:   -7.11 KCAL/MOL
REMARK 923 INTER-LIGAND FREE ENERGY PREDICTED BY IDOCK:   -6.76 KCAL/MOL
REMARK 924 INTRA-LIGAND FREE ENERGY PREDICTED BY IDOCK:   -0.35 KCAL/MOL
REMARK 927      BINDING AFFINITY PREDICTED BY RF-SCORE:    0.00 PKD
ROOT
HETATM    1  C   UNL     1     -10.907   9.170  69.751  1.00  0.00    -0.211 C  
HETATM    2  C   UNL     1     -10.108  10.494  69.593  1.00  0.00    -0.177 C  
HETATM    3  C   UNL     1     -10.661  11.482  68.474  1.00  0.00    -0.210 C  
HETATM    4  N   UNL     1      -9.835  11.403  67.271  1.00  0.00    -0.188 N  
HETATM    5  O   UNL     1     -10.382   8.549  70.939  1.00  0.00    -0.190 OA 
HETATM    6  C   UNL     1     -11.869   6.731  70.504  1.00  0.00    -0.418 C  
HETATM    7  C   UNL     1     -10.224  11.842  66.007  1.00  0.00    -0.229 C  
HETATM    8  C   UNL     1     -10.678   7.533  69.998  1.00  0.00    -0.240 C  
HETATM    9  H   UNL     1      -8.905  10.996  67.364  1.00  0.00     0.000 HD 
HETATM   10  C   UNL     1      -9.171  11.557  64.946  1.00  0.00    -0.006 C  
HETATM   11  C   UNL     1      -9.451   6.659  69.667  1.00  0.00    -0.144 C  
HETATM   12  O   UNL     1     -11.332  12.273  65.729  1.00  0.00    -0.326 OA 
HETATM   13  C   UNL     1      -9.233  10.044  64.742  1.00  0.00    -0.249 C  
HETATM   14  C   UNL     1      -9.799   5.400  68.802  1.00  0.00    -0.208 C  
HETATM   15  C   UNL     1      -8.301   9.360  63.698  1.00  0.00    -0.184 C  
HETATM   16  C   UNL     1      -9.669   3.601  65.785  1.00  0.00    -0.101 C  
HETATM   17  O   UNL     1      -8.993   9.514  66.023  1.00  0.00    -0.147 OA 
HETATM   18  H   UNL     1      -9.031   8.574  65.897  1.00  0.00     0.000 HD 
HETATM   19  C   UNL     1      -7.810   7.883  64.074  1.00  0.00    -0.138 C  
HETATM   20  C   UNL     1      -9.133   9.368  62.386  1.00  0.00    -0.207 C  
HETATM   21  C   UNL     1      -6.997  10.135  63.356  1.00  0.00    -0.121 C  
HETATM   22  C   UNL     1      -8.741   4.871  67.797  1.00  0.00    -0.105 C  
HETATM   23  C   UNL     1      -8.303   7.146  65.354  1.00  0.00    -0.122 C  
HETATM   24  O   UNL     1      -6.987   7.311  63.346  1.00  0.00    -0.055 OA 
HETATM   25  H   UNL     1      -6.842   4.186  65.510  1.00  0.00     0.000 HD 
HETATM   26  C   UNL     1      -9.220   4.975  66.307  1.00  0.00    -0.144 C  
HETATM   27  C   UNL     1      -8.216   5.608  65.289  1.00  0.00    -0.134 C  
HETATM   28  C   UNL     1      -7.593   7.631  66.632  1.00  0.00    -0.097 C  
HETATM   29  O   UNL     1      -6.896   5.133  65.550  1.00  0.00    -0.057 OA 
ENDROOT
BRANCH   3  30
HETATM   30  C   UNL     1     -10.818  13.020  68.677  1.00  0.00    -0.287 C  
HETATM   31  C   UNL     1      -9.783  13.878  68.431  1.00  0.00    -0.226 C  
HETATM   32  C   UNL     1     -12.260  13.474  68.711  1.00  0.00    -0.178 C  
BRANCH  31  33
HETATM   33  C   UNL     1      -9.866  15.197  67.856  1.00  0.00    -0.216 A  
HETATM   34  C   UNL     1      -9.505  15.496  66.539  1.00  0.00    -0.273 A  
HETATM   35  S   UNL     1      -9.499  17.189  66.304  1.00  0.00    -0.212 SA 
HETATM   36  C   UNL     1      -9.892  17.410  67.967  1.00  0.00    -0.288 A  
HETATM   37  N   UNL     1     -10.026  16.298  68.664  1.00  0.00    -0.224 NA 
HETATM   38  C   UNL     1     -10.024  18.793  68.511  1.00  0.00    -0.450 C  
ENDBRANCH  31  33
ENDBRANCH   3  30
TORSDOF 2
ENDMDL
MODEL       16
REMARK 921   NORMALIZED FREE ENERGY PREDICTED BY IDOCK:   -6.34 KCAL/MOL
REMARK 922        TOTAL FREE ENERGY PREDICTED BY IDOCK:   -6.97 KCAL/MOL
REMARK 923 INTER-LIGAND FREE ENERGY PREDICTED BY IDOCK:   -6.75 KCAL/MOL
REMARK 924 INTRA-LIGAND FREE ENERGY PREDICTED BY IDOCK:   -0.22 KCAL/MOL
REMARK 927      BINDING AFFINITY PREDICTED BY RF-SCORE:    0.00 PKD
ROOT
HETATM    1  C   UNL     1     -11.969  11.769  71.318  1.00  0.00     0.468 C  
HETATM    2  C   UNL     1     -12.264  10.252  71.151  1.00  0.00    -0.500 C  
HETATM    3  C   UNL     1     -11.012   9.296  71.376  1.00  0.00    -0.359 C  
HETATM    4  N   UNL     1     -10.481   8.841  70.093  1.00  0.00    -0.207 N  
HETATM    5  O   UNL     1     -13.257  12.412  71.295  1.00  0.00    -0.207 OA 
HETATM    6  C   UNL     1     -12.093  14.489  71.478  1.00  0.00    -0.400 C  
HETATM    7  C   UNL     1      -9.210   8.305  69.900  1.00  0.00    -0.154 C  
HETATM    8  C   UNL     1     -12.329  13.249  70.628  1.00  0.00    -0.339 C  
HETATM    9  H   UNL     1     -11.087   8.924  69.276  1.00  0.00     0.000 HD 
HETATM   10  C   UNL     1      -8.927   7.993  68.438  1.00  0.00    -0.133 C  
HETATM   11  C   UNL     1     -12.758  13.572  69.183  1.00  0.00     0.677 C  
HETATM   12  O   UNL     1      -8.351   8.221  70.764  1.00  0.00    -0.111 OA 
HETATM   13  C   UNL     1      -8.749   9.362  67.783  1.00  0.00    -0.116 C  
HETATM   14  C   UNL     1     -11.868  14.666  68.499  1.00  0.00    -0.346 C  
HETATM   15  C   UNL     1      -8.419   9.462  66.263  1.00  0.00    -0.133 C  
HETATM   16  C   UNL     1      -9.474  15.646  66.119  1.00  0.00    -0.376 C  
HETATM   17  O   UNL     1      -9.953  10.036  68.060  1.00  0.00    -0.143 OA 
HETATM   18  H   UNL     1      -9.842  10.886  67.653  1.00  0.00     0.000 HD 
HETATM   19  C   UNL     1      -9.031  10.733  65.507  1.00  0.00    -0.193 C  
HETATM   20  C   UNL     1      -6.867   9.459  66.212  1.00  0.00    -0.086 C  
HETATM   21  C   UNL     1      -8.855   8.242  65.403  1.00  0.00    -0.116 C  
HETATM   22  C   UNL     1     -11.639  14.589  66.966  1.00  0.00    -0.402 C  
HETATM   23  C   UNL     1      -9.825  11.842  66.257  1.00  0.00    -0.245 C  
HETATM   24  O   UNL     1      -8.899  10.832  64.278  1.00  0.00    -0.175 OA 
HETATM   25  H   UNL     1     -10.823  14.106  64.066  1.00  0.00     0.000 HD 
HETATM   26  C   UNL     1     -10.136  14.343  66.592  1.00  0.00    -0.276 C  
HETATM   27  C   UNL     1      -9.846  13.213  65.552  1.00  0.00    -0.138 C  
HETATM   28  C   UNL     1     -11.273  11.425  66.576  1.00  0.00    -0.276 C  
HETATM   29  O   UNL     1     -10.810  13.262  64.501  1.00  0.00    -0.351 OA 
ENDROOT
BRANCH   3  30
HETATM   30  C   UNL     1     -11.066   7.977  72.206  1.00  0.00    -0.393 C  
HETATM   31  C   UNL     1     -11.608   6.835  71.689  1.00  0.00    -0.336 C  
HETATM   32  C   UNL     1     -10.102   7.965  73.372  1.00  0.00    -0.249 C  
BRANCH  31  33
HETATM   33  C   UNL     1     -11.148   5.484  71.894  1.00  0.00    -0.166 A  
HETATM   34  C   UNL     1     -11.327   4.773  73.084  1.00  0.00    -0.295 A  
HETATM   35  S   UNL     1     -10.435   3.316  73.034  1.00  0.00    -0.148 SA 
HETATM   36  C   UNL     1      -9.815   3.761  71.490  1.00  0.00    -0.165 A  
HETATM   37  N   UNL     1     -10.243   4.920  71.027  1.00  0.00    -0.213 NA 
HETATM   38  C   UNL     1      -8.844   2.860  70.804  1.00  0.00    -0.147 C  
ENDBRANCH  31  33
ENDBRANCH   3  30
TORSDOF 2
ENDMDL
MODEL       17
REMARK 921   NORMALIZED FREE ENERGY PREDICTED BY IDOCK:   -6.31 KCAL/MOL
REMARK 922        TOTAL FREE ENERGY PREDICTED BY IDOCK:   -6.94 KCAL/MOL
REMARK 923 INTER-LIGAND FREE ENERGY PREDICTED BY IDOCK:   -6.57 KCAL/MOL
REMARK 924 INTRA-LIGAND FREE ENERGY PREDICTED BY IDOCK:   -0.36 KCAL/MOL
REMARK 927      BINDING AFFINITY PREDICTED BY RF-SCORE:    0.00 PKD
ROOT
HETATM    1  C   UNL     1     -12.041   9.675  71.733  1.00  0.00    -0.369 C  
HETATM    2  C   UNL     1     -12.002   8.124  71.632  1.00  0.00    -0.340 C  
HETATM    3  C   UNL     1     -10.676   7.448  72.194  1.00  0.00    -0.225 C  
HETATM    4  N   UNL     1      -9.795   7.060  71.094  1.00  0.00    -0.177 N  
HETATM    5  O   UNL     1     -13.388  10.045  71.385  1.00  0.00    -0.377 OA 
HETATM    6  C   UNL     1     -12.705  12.319  71.639  1.00  0.00    -0.309 C  
HETATM    7  C   UNL     1      -8.436   6.783  71.221  1.00  0.00    -0.124 C  
HETATM    8  C   UNL     1     -12.508  11.024  70.864  1.00  0.00    -0.410 C  
HETATM    9  H   UNL     1     -10.207   6.988  70.164  1.00  0.00     0.000 HD 
HETATM   10  C   UNL     1      -7.780   6.478  69.882  1.00  0.00    -0.109 C  
HETATM   11  C   UNL     1     -12.656  11.199  69.339  1.00  0.00     0.094 C  
HETATM   12  O   UNL     1      -7.792   6.907  72.250  1.00  0.00    -0.093 OA 
HETATM   13  C   UNL     1      -7.720   7.829  69.169  1.00  0.00    -0.101 C  
HETATM   14  C   UNL     1     -11.857  12.422  68.772  1.00  0.00    -0.358 C  
HETATM   15  C   UNL     1      -7.083   7.933  67.751  1.00  0.00    -0.086 C  
HETATM   16  C   UNL     1      -9.218  13.770  66.881  1.00  0.00    -0.263 C  
HETATM   17  O   UNL     1      -9.059   8.257  69.129  1.00  0.00    -0.147 OA 
HETATM   18  H   UNL     1      -9.022   9.096  68.687  1.00  0.00     0.000 HD 
HETATM   19  C   UNL     1      -7.736   9.026  66.781  1.00  0.00    -0.093 C  
HETATM   20  C   UNL     1      -5.586   8.240  68.031  1.00  0.00    -0.035 C  
HETATM   21  C   UNL     1      -7.078   6.619  66.921  1.00  0.00    -0.069 C  
HETATM   22  C   UNL     1     -11.279  12.333  67.333  1.00  0.00    -0.358 C  
HETATM   23  C   UNL     1      -8.872   9.981  67.252  1.00  0.00    -0.141 C  
HETATM   24  O   UNL     1      -7.354   9.102  65.604  1.00  0.00    -0.085 OA 
HETATM   25  H   UNL     1      -9.760  11.913  64.722  1.00  0.00     0.000 HD 
HETATM   26  C   UNL     1      -9.712  12.380  67.308  1.00  0.00    -0.201 C  
HETATM   27  C   UNL     1      -8.990  11.292  66.449  1.00  0.00    -0.188 C  
HETATM   28  C   UNL     1     -10.250   9.294  67.291  1.00  0.00    -0.315 C  
HETATM   29  O   UNL     1      -9.687  11.105  65.217  1.00  0.00    -0.218 OA 
ENDROOT
BRANCH   3  30
HETATM   30  C   UNL     1     -10.666   6.179  73.100  1.00  0.00    -0.283 C  
HETATM   31  C   UNL     1     -10.781   4.926  72.567  1.00  0.00    -0.258 C  
HETATM   32  C   UNL     1     -10.083   6.428  74.473  1.00  0.00    -0.358 C  
BRANCH  31  33
HETATM   33  C   UNL     1     -10.110   3.729  73.008  1.00  0.00    -0.151 A  
HETATM   34  C   UNL     1     -10.674   2.801  73.889  1.00  0.00    -0.187 A  
HETATM   35  S   UNL     1      -9.496   1.660  74.369  1.00  0.00    -0.069 SA 
HETATM   36  C   UNL     1      -8.313   2.511  73.451  1.00  0.00    -0.063 A  
HETATM   37  N   UNL     1      -8.757   3.579  72.816  1.00  0.00    -0.085 NA 
HETATM   38  C   UNL     1      -6.902   2.028  73.447  1.00  0.00    -0.022 C  
ENDBRANCH  31  33
ENDBRANCH   3  30
TORSDOF 2
ENDMDL
MODEL       18
REMARK 921   NORMALIZED FREE ENERGY PREDICTED BY IDOCK:   -6.23 KCAL/MOL
REMARK 922        TOTAL FREE ENERGY PREDICTED BY IDOCK:   -6.85 KCAL/MOL
REMARK 923 INTER-LIGAND FREE ENERGY PREDICTED BY IDOCK:   -6.39 KCAL/MOL
REMARK 924 INTRA-LIGAND FREE ENERGY PREDICTED BY IDOCK:   -0.46 KCAL/MOL
REMARK 927      BINDING AFFINITY PREDICTED BY RF-SCORE:    0.00 PKD
ROOT
HETATM    1  C   UNL     1     -11.438   8.439  70.719  1.00  0.00    -0.255 C  
HETATM    2  C   UNL     1     -10.294   9.358  70.206  1.00  0.00    -0.293 C  
HETATM    3  C   UNL     1     -10.035   9.293  68.636  1.00  0.00    -0.178 C  
HETATM    4  N   UNL     1      -8.857   8.478  68.348  1.00  0.00    -0.139 N  
HETATM    5  O   UNL     1     -11.642   8.818  72.093  1.00  0.00    -0.362 OA 
HETATM    6  C   UNL     1     -13.287   7.090  72.203  1.00  0.00    -0.026 C  
HETATM    7  C   UNL     1      -8.556   7.922  67.106  1.00  0.00    -0.128 C  
HETATM    8  C   UNL     1     -11.816   7.417  71.987  1.00  0.00    -0.298 C  
HETATM    9  H   UNL     1      -8.206   8.303  69.113  1.00  0.00     0.000 HD 
HETATM   10  C   UNL     1      -7.299   7.067  67.143  1.00  0.00    -0.090 C  
HETATM   11  C   UNL     1     -10.874   6.632  72.922  1.00  0.00    -0.293 C  
HETATM   12  O   UNL     1      -9.280   7.978  66.124  1.00  0.00    -0.186 OA 
HETATM   13  C   UNL     1      -7.712   5.813  67.913  1.00  0.00    -0.097 C  
HETATM   14  C   UNL     1     -11.194   5.100  72.986  1.00  0.00    -0.390 C  
HETATM   15  C   UNL     1      -6.682   4.666  68.145  1.00  0.00    -0.054 C  
HETATM   16  C   UNL     1     -10.390   1.750  72.284  1.00  0.00    -0.224 C  
HETATM   17  O   UNL     1      -8.174   6.303  69.147  1.00  0.00    -0.111 OA 
HETATM   18  H   UNL     1      -8.431   5.524  69.626  1.00  0.00     0.000 HD 
HETATM   19  C   UNL     1      -6.839   3.868  69.523  1.00  0.00    -0.042 C  
HETATM   20  C   UNL     1      -6.873   3.733  66.918  1.00  0.00    -0.051 C  
HETATM   21  C   UNL     1      -5.187   5.092  68.102  1.00  0.00    -0.007 C  
HETATM   22  C   UNL     1     -10.026   4.102  73.209  1.00  0.00    -0.185 C  
HETATM   23  C   UNL     1      -7.997   4.156  70.522  1.00  0.00    -0.055 C  
HETATM   24  O   UNL     1      -5.999   3.009  69.828  1.00  0.00    -0.022 OA 
HETATM   25  H   UNL     1      -7.657   2.181  73.150  1.00  0.00     0.000 HD 
HETATM   26  C   UNL     1      -9.810   3.142  71.988  1.00  0.00    -0.241 C  
HETATM   27  C   UNL     1      -8.345   2.987  71.466  1.00  0.00    -0.064 C  
HETATM   28  C   UNL     1      -7.755   5.422  71.366  1.00  0.00    -0.108 C  
HETATM   29  O   UNL     1      -7.443   2.901  72.568  1.00  0.00    -0.046 OA 
ENDROOT
BRANCH   3  30
HETATM   30  C   UNL     1      -9.804  10.550  67.743  1.00  0.00    -0.188 C  
HETATM   31  C   UNL     1     -10.817  11.088  67.000  1.00  0.00    -0.334 C  
HETATM   32  C   UNL     1      -8.568  11.335  68.124  1.00  0.00    -0.150 C  
BRANCH  31  33
HETATM   33  C   UNL     1     -11.062  12.486  66.748  1.00  0.00    -0.279 A  
HETATM   34  C   UNL     1     -10.701  13.138  65.566  1.00  0.00    -0.283 A  
HETATM   35  S   UNL     1     -10.924  14.824  65.736  1.00  0.00    -0.345 SA 
HETATM   36  C   UNL     1     -11.401  14.584  67.374  1.00  0.00    -0.356 A  
HETATM   37  N   UNL     1     -11.403  13.328  67.779  1.00  0.00    -0.279 NA 
HETATM   38  C   UNL     1     -11.744  15.765  68.217  1.00  0.00    -0.229 C  
ENDBRANCH  31  33
ENDBRANCH   3  30
TORSDOF 2
ENDMDL
MODEL       19
REMARK 921   NORMALIZED FREE ENERGY PREDICTED BY IDOCK:   -6.23 KCAL/MOL
REMARK 922        TOTAL FREE ENERGY PREDICTED BY IDOCK:   -6.85 KCAL/MOL
REMARK 923 INTER-LIGAND FREE ENERGY PREDICTED BY IDOCK:   -6.63 KCAL/MOL
REMARK 924 INTRA-LIGAND FREE ENERGY PREDICTED BY IDOCK:   -0.22 KCAL/MOL
REMARK 927      BINDING AFFINITY PREDICTED BY RF-SCORE:    0.00 PKD
ROOT
HETATM    1  C   UNL     1      -8.130   8.973  64.759  1.00  0.00    -0.144 C  
HETATM    2  C   UNL     1      -9.425   9.687  65.238  1.00  0.00    -0.342 C  
HETATM    3  C   UNL     1      -9.277  10.507  66.594  1.00  0.00    -0.156 C  
HETATM    4  N   UNL     1      -9.854   9.759  67.708  1.00  0.00    -0.155 N  
HETATM    5  O   UNL     1      -8.427   8.495  63.434  1.00  0.00    -0.144 OA 
HETATM    6  C   UNL     1      -6.241   7.534  63.417  1.00  0.00    -0.054 C  
HETATM    7  C   UNL     1      -9.587   9.999  69.055  1.00  0.00    -0.196 C  
HETATM    8  C   UNL     1      -7.611   7.537  64.081  1.00  0.00    -0.109 C  
HETATM    9  H   UNL     1     -10.500   9.002  67.484  1.00  0.00     0.000 HD 
HETATM   10  C   UNL     1     -10.284   9.005  69.971  1.00  0.00    -0.222 C  
HETATM   11  C   UNL     1      -8.265   6.141  64.133  1.00  0.00    -0.031 C  
HETATM   12  O   UNL     1      -8.776  10.812  69.469  1.00  0.00    -0.041 OA 
HETATM   13  C   UNL     1      -9.520   7.697  69.768  1.00  0.00    -0.156 C  
HETATM   14  C   UNL     1      -7.299   5.019  64.644  1.00  0.00    -0.063 C  
HETATM   15  C   UNL     1      -9.930   6.423  70.567  1.00  0.00    -0.214 C  
HETATM   16  C   UNL     1      -6.299   2.683  67.073  1.00  0.00    -0.032 C  
HETATM   17  O   UNL     1      -9.616   7.452  68.386  1.00  0.00    -0.146 OA 
HETATM   18  H   UNL     1      -9.141   6.640  68.261  1.00  0.00     0.000 HD 
HETATM   19  C   UNL     1      -9.728   5.034  69.799  1.00  0.00    -0.196 C  
HETATM   20  C   UNL     1      -9.070   6.493  71.858  1.00  0.00    -0.148 C  
HETATM   21  C   UNL     1     -11.404   6.391  71.062  1.00  0.00    -0.386 C  
HETATM   22  C   UNL     1      -7.895   3.827  65.442  1.00  0.00    -0.089 C  
HETATM   23  C   UNL     1      -9.081   4.953  68.385  1.00  0.00    -0.141 C  
HETATM   24  O   UNL     1     -10.124   3.984  70.325  1.00  0.00    -0.120 OA 
HETATM   25  H   UNL     1      -9.039   1.796  67.409  1.00  0.00     0.000 HD 
HETATM   26  C   UNL     1      -7.374   3.770  66.919  1.00  0.00    -0.071 C  
HETATM   27  C   UNL     1      -8.450   3.590  68.038  1.00  0.00    -0.093 C  
HETATM   28  C   UNL     1     -10.055   5.351  67.261  1.00  0.00    -0.229 C  
HETATM   29  O   UNL     1      -9.427   2.636  67.623  1.00  0.00    -0.198 OA 
ENDROOT
BRANCH   3  30
HETATM   30  C   UNL     1      -9.859  11.938  66.810  1.00  0.00    -0.214 C  
HETATM   31  C   UNL     1     -11.164  12.127  67.167  1.00  0.00    -0.372 C  
HETATM   32  C   UNL     1      -8.794  12.988  67.034  1.00  0.00    -0.213 C  
BRANCH  31  33
HETATM   33  C   UNL     1     -11.684  13.126  68.066  1.00  0.00    -0.355 A  
HETATM   34  C   UNL     1     -11.710  14.494  67.779  1.00  0.00    -0.374 A  
HETATM   35  S   UNL     1     -12.159  15.376  69.172  1.00  0.00    -0.175 SA 
HETATM   36  C   UNL     1     -12.208  13.908  70.072  1.00  0.00    -0.344 A  
HETATM   37  N   UNL     1     -11.915  12.819  69.386  1.00  0.00    -0.291 NA 
HETATM   38  C   UNL     1     -12.538  13.951  71.526  1.00  0.00    -0.419 C  
ENDBRANCH  31  33
ENDBRANCH   3  30
TORSDOF 2
ENDMDL
MODEL       20
REMARK 921   NORMALIZED FREE ENERGY PREDICTED BY IDOCK:   -6.12 KCAL/MOL
REMARK 922        TOTAL FREE ENERGY PREDICTED BY IDOCK:   -6.73 KCAL/MOL
REMARK 923 INTER-LIGAND FREE ENERGY PREDICTED BY IDOCK:   -6.34 KCAL/MOL
REMARK 924 INTRA-LIGAND FREE ENERGY PREDICTED BY IDOCK:   -0.39 KCAL/MOL
REMARK 927      BINDING AFFINITY PREDICTED BY RF-SCORE:    0.00 PKD
ROOT
HETATM    1  C   UNL     1      -9.824   8.656  71.341  1.00  0.00    -0.256 C  
HETATM    2  C   UNL     1      -8.983   9.527  70.365  1.00  0.00    -0.291 C  
HETATM    3  C   UNL     1      -9.668   9.808  68.956  1.00  0.00    -0.177 C  
HETATM    4  N   UNL     1      -9.085   8.950  67.927  1.00  0.00    -0.139 N  
HETATM    5  O   UNL     1      -9.130   8.718  72.601  1.00  0.00    -0.354 OA 
HETATM    6  C   UNL     1     -10.785   7.224  73.453  1.00  0.00    -0.415 C  
HETATM    7  C   UNL     1      -9.671   8.674  66.693  1.00  0.00    -0.247 C  
HETATM    8  C   UNL     1      -9.659   7.414  72.447  1.00  0.00    -0.153 C  
HETATM    9  H   UNL     1      -8.182   8.521  68.126  1.00  0.00     0.000 HD 
HETATM   10  C   UNL     1      -8.853   7.690  65.870  1.00  0.00    -0.163 C  
HETATM   11  C   UNL     1      -8.574   6.322  72.534  1.00  0.00    -0.120 C  
HETATM   12  O   UNL     1     -10.781   9.049  66.349  1.00  0.00    -0.050 OA 
HETATM   13  C   UNL     1      -9.049   6.348  66.573  1.00  0.00    -0.151 C  
HETATM   14  C   UNL     1      -9.156   4.869  72.587  1.00  0.00    -0.142 C  
HETATM   15  C   UNL     1      -8.372   5.065  66.005  1.00  0.00    -0.114 C  
HETATM   16  C   UNL     1      -9.701   1.711  71.140  1.00  0.00    -0.190 C  
HETATM   17  O   UNL     1      -8.611   6.582  67.889  1.00  0.00    -0.118 OA 
HETATM   18  H   UNL     1      -8.733   5.748  68.327  1.00  0.00     0.000 HD 
HETATM   19  C   UNL     1      -7.917   3.985  67.095  1.00  0.00    -0.095 C  
HETATM   20  C   UNL     1      -9.429   4.480  65.029  1.00  0.00    -0.156 C  
HETATM   21  C   UNL     1      -7.106   5.306  65.135  1.00  0.00    -0.065 C  
HETATM   22  C   UNL     1      -8.338   3.714  71.948  1.00  0.00    -0.083 C  
HETATM   23  C   UNL     1      -8.212   4.164  68.614  1.00  0.00    -0.088 C  
HETATM   24  O   UNL     1      -7.281   2.985  66.733  1.00  0.00    -0.057 OA 
HETATM   25  H   UNL     1      -6.942   1.593  70.257  1.00  0.00     0.000 HD 
HETATM   26  C   UNL     1      -9.075   3.054  70.732  1.00  0.00    -0.186 C  
HETATM   27  C   UNL     1      -8.238   2.854  69.427  1.00  0.00    -0.051 C  
HETATM   28  C   UNL     1      -7.248   5.153  69.295  1.00  0.00    -0.057 C  
HETATM   29  O   UNL     1      -6.926   2.400  69.756  1.00  0.00    -0.033 OA 
ENDROOT
BRANCH   3  30
HETATM   30  C   UNL     1      -9.685  11.205  68.263  1.00  0.00    -0.190 C  
HETATM   31  C   UNL     1     -10.848  11.905  68.108  1.00  0.00    -0.259 C  
HETATM   32  C   UNL     1      -8.325  11.864  68.214  1.00  0.00    -0.159 C  
BRANCH  31  33
HETATM   33  C   UNL     1     -11.023  13.332  68.211  1.00  0.00    -0.256 A  
HETATM   34  C   UNL     1     -10.733  14.228  67.177  1.00  0.00    -0.282 A  
HETATM   35  S   UNL     1     -10.826  15.835  67.752  1.00  0.00    -0.314 SA 
HETATM   36  C   UNL     1     -11.161  15.238  69.332  1.00  0.00    -0.285 A  
HETATM   37  N   UNL     1     -11.208  13.924  69.438  1.00  0.00    -0.247 NA 
HETATM   38  C   UNL     1     -11.343  16.202  70.456  1.00  0.00    -0.392 C  
ENDBRANCH  31  33
ENDBRANCH   3  30
TORSDOF 2
ENDMDL
MODEL       21
REMARK 921   NORMALIZED FREE ENERGY PREDICTED BY IDOCK:   -6.12 KCAL/MOL
REMARK 922        TOTAL FREE ENERGY PREDICTED BY IDOCK:   -6.73 KCAL/MOL
REMARK 923 INTER-LIGAND FREE ENERGY PREDICTED BY IDOCK:   -6.59 KCAL/MOL
REMARK 924 INTRA-LIGAND FREE ENERGY PREDICTED BY IDOCK:   -0.13 KCAL/MOL
REMARK 927      BINDING AFFINITY PREDICTED BY RF-SCORE:    0.00 PKD
ROOT
HETATM    1  C   UNL     1      -8.514   9.940  64.643  1.00  0.00    -0.172 C  
HETATM    2  C   UNL     1      -9.925  10.450  65.049  1.00  0.00    -0.399 C  
HETATM    3  C   UNL     1      -9.989  11.203  66.451  1.00  0.00    -0.217 C  
HETATM    4  N   UNL     1     -10.540  10.322  67.478  1.00  0.00    -0.248 N  
HETATM    5  O   UNL     1      -8.646   9.505  63.277  1.00  0.00    -0.186 OA 
HETATM    6  C   UNL     1      -6.356   8.839  63.390  1.00  0.00    -0.089 C  
HETATM    7  C   UNL     1     -10.408  10.517  68.851  1.00  0.00    -0.208 C  
HETATM    8  C   UNL     1      -7.759   8.625  63.941  1.00  0.00    -0.135 C  
HETATM    9  H   UNL     1     -11.061   9.502  67.166  1.00  0.00     0.000 HD 
HETATM   10  C   UNL     1     -11.031   9.389  69.659  1.00  0.00    -0.216 C  
HETATM   11  C   UNL     1      -8.222   7.155  63.873  1.00  0.00     0.080 C  
HETATM   12  O   UNL     1      -9.746  11.402  69.368  1.00  0.00     0.099 OA 
HETATM   13  C   UNL     1     -10.085   8.205  69.457  1.00  0.00    -0.193 C  
HETATM   14  C   UNL     1      -7.155   6.140  64.406  1.00  0.00    -0.053 C  
HETATM   15  C   UNL     1     -10.379   6.845  70.158  1.00  0.00    -0.218 C  
HETATM   16  C   UNL     1      -6.032   3.817  66.794  1.00  0.00    -0.024 C  
HETATM   17  O   UNL     1     -10.046   8.031  68.062  1.00  0.00    -0.179 OA 
HETATM   18  H   UNL     1      -9.459   7.295  67.936  1.00  0.00     0.000 HD 
HETATM   19  C   UNL     1      -9.937   5.540  69.343  1.00  0.00    -0.208 C  
HETATM   20  C   UNL     1      -9.634   6.950  71.516  1.00  0.00    -0.162 C  
HETATM   21  C   UNL     1     -11.868   6.592  70.531  1.00  0.00    -0.430 C  
HETATM   22  C   UNL     1      -7.643   4.837  65.096  1.00  0.00    -0.077 C  
HETATM   23  C   UNL     1      -9.183   5.627  67.984  1.00  0.00    -0.110 C  
HETATM   24  O   UNL     1     -10.226   4.419  69.785  1.00  0.00    -0.151 OA 
HETATM   25  H   UNL     1      -8.646   2.564  66.865  1.00  0.00     0.000 HD 
HETATM   26  C   UNL     1      -7.229   4.762  66.606  1.00  0.00    -0.080 C  
HETATM   27  C   UNL     1      -8.351   4.379  67.624  1.00  0.00    -0.099 C  
HETATM   28  C   UNL     1     -10.116   5.959  66.805  1.00  0.00    -0.235 C  
HETATM   29  O   UNL     1      -9.158   3.333  67.086  1.00  0.00    -0.149 OA 
ENDROOT
BRANCH   3  30
HETATM   30  C   UNL     1     -10.771  12.531  66.687  1.00  0.00    -0.261 C  
HETATM   31  C   UNL     1     -10.137  13.661  67.119  1.00  0.00    -0.245 C  
HETATM   32  C   UNL     1     -12.112  12.567  65.988  1.00  0.00    -0.390 C  
BRANCH  31  33
HETATM   33  C   UNL     1     -10.413  15.018  66.722  1.00  0.00    -0.283 A  
HETATM   34  C   UNL     1     -10.437  15.451  65.393  1.00  0.00    -0.402 A  
HETATM   35  S   UNL     1     -10.548  17.156  65.335  1.00  0.00     0.049 SA 
HETATM   36  C   UNL     1     -10.475  17.208  67.056  1.00  0.00    -0.282 A  
HETATM   37  N   UNL     1     -10.380  16.033  67.649  1.00  0.00    -0.277 NA 
HETATM   38  C   UNL     1     -10.495  18.528  67.750  1.00  0.00    -0.443 C  
ENDBRANCH  31  33
ENDBRANCH   3  30
TORSDOF 2
ENDMDL
MODEL       22
REMARK 921   NORMALIZED FREE ENERGY PREDICTED BY IDOCK:   -6.12 KCAL/MOL
REMARK 922        TOTAL FREE ENERGY PREDICTED BY IDOCK:   -6.72 KCAL/MOL
REMARK 923 INTER-LIGAND FREE ENERGY PREDICTED BY IDOCK:   -6.43 KCAL/MOL
REMARK 924 INTRA-LIGAND FREE ENERGY PREDICTED BY IDOCK:   -0.29 KCAL/MOL
REMARK 927      BINDING AFFINITY PREDICTED BY RF-SCORE:    0.00 PKD
ROOT
HETATM    1  C   UNL     1     -12.311  10.937  71.687  1.00  0.00    -0.142 C  
HETATM    2  C   UNL     1     -11.952   9.520  71.158  1.00  0.00    -0.429 C  
HETATM    3  C   UNL     1     -10.637   8.881  71.787  1.00  0.00    -0.362 C  
HETATM    4  N   UNL     1      -9.520   8.987  70.851  1.00  0.00    -0.244 N  
HETATM    5  O   UNL     1     -13.623  11.217  71.164  1.00  0.00     0.236 OA 
HETATM    6  C   UNL     1     -13.453  13.358  72.208  1.00  0.00    -0.683 C  
HETATM    7  C   UNL     1      -8.176   8.866  71.196  1.00  0.00    -0.173 C  
HETATM    8  C   UNL     1     -12.875  12.419  71.159  1.00  0.00    -0.205 C  
HETATM    9  H   UNL     1      -9.742   9.163  69.871  1.00  0.00     0.000 HD 
HETATM   10  C   UNL     1      -7.250   9.097  70.011  1.00  0.00    -0.066 C  
HETATM   11  C   UNL     1     -12.786  13.053  69.756  1.00  0.00     0.370 C  
HETATM   12  O   UNL     1      -7.758   8.738  72.336  1.00  0.00    -0.343 OA 
HETATM   13  C   UNL     1      -7.332  10.600  69.749  1.00  0.00    -0.108 C  
HETATM   14  C   UNL     1     -12.155  14.487  69.760  1.00  0.00    -0.380 C  
HETATM   15  C   UNL     1      -6.491  11.238  68.602  1.00  0.00    -0.050 C  
HETATM   16  C   UNL     1      -9.543  16.708  68.983  1.00  0.00    -0.246 C  
HETATM   17  O   UNL     1      -8.702  10.837  69.531  1.00  0.00    -0.381 OA 
HETATM   18  H   UNL     1      -8.753  11.771  69.368  1.00  0.00     0.000 HD 
HETATM   19  C   UNL     1      -7.167  12.487  67.864  1.00  0.00    -0.115 C  
HETATM   20  C   UNL     1      -5.155  11.634  69.289  1.00  0.00    -0.048 C  
HETATM   21  C   UNL     1      -6.085  10.272  67.453  1.00  0.00    -0.054 C  
HETATM   22  C   UNL     1     -11.330  14.943  68.525  1.00  0.00    -0.314 C  
HETATM   23  C   UNL     1      -8.532  13.081  68.320  1.00  0.00    -0.159 C  
HETATM   24  O   UNL     1      -6.608  12.986  66.877  1.00  0.00    -0.017 OA 
HETATM   25  H   UNL     1      -9.327  15.587  66.318  1.00  0.00     0.000 HD 
HETATM   26  C   UNL     1      -9.823  15.202  68.870  1.00  0.00    -0.229 C  
HETATM   27  C   UNL     1      -8.763  14.553  67.921  1.00  0.00    -0.165 C  
HETATM   28  C   UNL     1      -9.734  12.242  67.848  1.00  0.00    -0.202 C  
HETATM   29  O   UNL     1      -9.184  14.681  66.564  1.00  0.00    -0.262 OA 
ENDROOT
BRANCH   3  30
HETATM   30  C   UNL     1     -10.537   7.401  72.268  1.00  0.00    -0.270 C  
HETATM   31  C   UNL     1     -10.433   6.371  71.377  1.00  0.00    -0.257 C  
HETATM   32  C   UNL     1     -10.118   7.271  73.715  1.00  0.00    -0.375 C  
BRANCH  31  33
HETATM   33  C   UNL     1      -9.649   5.170  71.524  1.00  0.00    -0.156 A  
HETATM   34  C   UNL     1      -8.292   5.083  71.201  1.00  0.00    -0.115 A  
HETATM   35  S   UNL     1      -7.778   3.455  71.268  1.00  0.00    -0.052 SA 
HETATM   36  C   UNL     1      -9.390   2.973  71.637  1.00  0.00    -0.128 A  
HETATM   37  N   UNL     1     -10.266   3.957  71.713  1.00  0.00    -0.106 NA 
HETATM   38  C   UNL     1      -9.699   1.524  71.814  1.00  0.00    -0.196 C  
ENDBRANCH  31  33
ENDBRANCH   3  30
TORSDOF 2
ENDMDL
MODEL       23
REMARK 921   NORMALIZED FREE ENERGY PREDICTED BY IDOCK:   -6.08 KCAL/MOL
REMARK 922        TOTAL FREE ENERGY PREDICTED BY IDOCK:   -6.68 KCAL/MOL
REMARK 923 INTER-LIGAND FREE ENERGY PREDICTED BY IDOCK:   -7.83 KCAL/MOL
REMARK 924 INTRA-LIGAND FREE ENERGY PREDICTED BY IDOCK:    1.14 KCAL/MOL
REMARK 927      BINDING AFFINITY PREDICTED BY RF-SCORE:    0.00 PKD
ROOT
HETATM    1  C   UNL     1     -12.332  12.941  70.973  1.00  0.00    -0.225 C  
HETATM    2  C   UNL     1     -12.464  11.527  70.340  1.00  0.00    -0.324 C  
HETATM    3  C   UNL     1     -11.576  10.399  71.027  1.00  0.00    -0.295 C  
HETATM    4  N   UNL     1     -10.390  10.121  70.221  1.00  0.00    -0.407 N  
HETATM    5  O   UNL     1     -13.364  13.732  70.356  1.00  0.00     0.103 OA 
HETATM    6  C   UNL     1     -12.542  15.582  71.622  1.00  0.00    -0.486 C  
HETATM    7  C   UNL     1      -9.245   9.475  70.682  1.00  0.00    -0.180 C  
HETATM    8  C   UNL     1     -12.227  14.553  70.545  1.00  0.00    -0.332 C  
HETATM    9  H   UNL     1     -10.401  10.424  69.247  1.00  0.00     0.000 HD 
HETATM   10  C   UNL     1      -8.155   9.400  69.622  1.00  0.00    -0.123 C  
HETATM   11  C   UNL     1     -11.728  15.183  69.229  1.00  0.00    -0.352 C  
HETATM   12  O   UNL     1      -9.056   9.132  71.838  1.00  0.00    -0.354 OA 
HETATM   13  C   UNL     1      -7.635  10.832  69.506  1.00  0.00    -0.088 C  
HETATM   14  C   UNL     1     -10.613  16.263  69.439  1.00  0.00    -0.301 C  
HETATM   15  C   UNL     1      -6.476  11.163  68.518  1.00  0.00    -0.058 C  
HETATM   16  C   UNL     1      -7.283  17.354  69.151  1.00  0.00    -0.175 C  
HETATM   17  O   UNL     1      -8.776  11.588  69.181  1.00  0.00    -0.373 OA 
HETATM   18  H   UNL     1      -8.453  12.478  69.109  1.00  0.00     0.000 HD 
HETATM   19  C   UNL     1      -6.534  12.615  67.848  1.00  0.00    -0.113 C  
HETATM   20  C   UNL     1      -5.190  10.977  69.369  1.00  0.00    -0.041 C  
HETATM   21  C   UNL     1      -6.316  10.181  67.323  1.00  0.00    -0.066 C  
HETATM   22  C   UNL     1      -9.525  16.437  68.344  1.00  0.00    -0.220 C  
HETATM   23  C   UNL     1      -7.625  13.660  68.226  1.00  0.00    -0.130 C  
HETATM   24  O   UNL     1      -5.707  12.917  66.976  1.00  0.00    -0.323 OA 
HETATM   25  H   UNL     1      -7.160  16.388  66.420  1.00  0.00     0.000 HD 
HETATM   26  C   UNL     1      -8.088  16.078  68.859  1.00  0.00    -0.218 C  
HETATM   27  C   UNL     1      -7.236  15.128  67.958  1.00  0.00    -0.127 C  
HETATM   28  C   UNL     1      -8.982  13.374  67.556  1.00  0.00    -0.207 C  
HETATM   29  O   UNL     1      -7.399  15.484  66.585  1.00  0.00    -0.104 OA 
ENDROOT
BRANCH   3  30
HETATM   30  C   UNL     1     -12.099   8.969  71.364  1.00  0.00    -0.392 C  
HETATM   31  C   UNL     1     -11.579   7.862  70.755  1.00  0.00    -0.258 C  
HETATM   32  C   UNL     1     -12.848   8.900  72.676  1.00  0.00    -0.316 C  
BRANCH  31  33
HETATM   33  C   UNL     1     -11.347   6.570  71.352  1.00  0.00    -0.294 A  
HETATM   34  C   UNL     1     -11.716   6.239  72.659  1.00  0.00    -0.125 A  
HETATM   35  S   UNL     1     -11.057   4.722  73.086  1.00  0.00    -0.306 SA 
HETATM   36  C   UNL     1     -10.269   4.646  71.556  1.00  0.00    -0.154 A  
HETATM   37  N   UNL     1     -10.481   5.679  70.764  1.00  0.00    -0.251 NA 
HETATM   38  C   UNL     1      -9.402   3.474  71.236  1.00  0.00    -0.209 C  
ENDBRANCH  31  33
ENDBRANCH   3  30
TORSDOF 2
ENDMDL
MODEL       24
REMARK 921   NORMALIZED FREE ENERGY PREDICTED BY IDOCK:   -6.01 KCAL/MOL
REMARK 922        TOTAL FREE ENERGY PREDICTED BY IDOCK:   -6.60 KCAL/MOL
REMARK 923 INTER-LIGAND FREE ENERGY PREDICTED BY IDOCK:   -6.43 KCAL/MOL
REMARK 924 INTRA-LIGAND FREE ENERGY PREDICTED BY IDOCK:   -0.17 KCAL/MOL
REMARK 927      BINDING AFFINITY PREDICTED BY RF-SCORE:    0.00 PKD
ROOT
HETATM    1  C   UNL     1      -8.182   9.231  64.799  1.00  0.00    -0.149 C  
HETATM    2  C   UNL     1      -9.472   9.876  65.377  1.00  0.00    -0.319 C  
HETATM    3  C   UNL     1      -9.292  10.593  66.786  1.00  0.00    -0.157 C  
HETATM    4  N   UNL     1      -9.811   9.748  67.859  1.00  0.00    -0.145 N  
HETATM    5  O   UNL     1      -8.518   8.848  63.452  1.00  0.00    -0.190 OA 
HETATM    6  C   UNL     1      -6.314   7.944  63.284  1.00  0.00    -0.068 C  
HETATM    7  C   UNL     1      -9.499   9.892  69.210  1.00  0.00    -0.209 C  
HETATM    8  C   UNL     1      -7.658   7.863  63.994  1.00  0.00    -0.120 C  
HETATM    9  H   UNL     1     -10.449   8.996  67.600  1.00  0.00     0.000 HD 
HETATM   10  C   UNL     1     -10.141   8.815  70.070  1.00  0.00    -0.200 C  
HETATM   11  C   UNL     1      -8.281   6.453  63.961  1.00  0.00     0.024 C  
HETATM   12  O   UNL     1      -8.690  10.690  69.657  1.00  0.00    -0.050 OA 
HETATM   13  C   UNL     1      -9.357   7.544  69.741  1.00  0.00    -0.150 C  
HETATM   14  C   UNL     1      -7.273   5.318  64.350  1.00  0.00    -0.055 C  
HETATM   15  C   UNL     1      -9.711   6.204  70.453  1.00  0.00    -0.199 C  
HETATM   16  C   UNL     1      -6.135   2.828  66.555  1.00  0.00    -0.024 C  
HETATM   17  O   UNL     1      -9.500   7.403  68.349  1.00  0.00    -0.143 OA 
HETATM   18  H   UNL     1      -9.013   6.614  68.144  1.00  0.00     0.000 HD 
HETATM   19  C   UNL     1      -9.509   4.882  69.574  1.00  0.00    -0.148 C  
HETATM   20  C   UNL     1      -8.805   6.195  71.714  1.00  0.00    -0.138 C  
HETATM   21  C   UNL     1     -11.164   6.099  70.997  1.00  0.00    -0.361 C  
HETATM   22  C   UNL     1      -7.814   4.055  65.074  1.00  0.00    -0.089 C  
HETATM   23  C   UNL     1      -8.913   4.925  68.136  1.00  0.00    -0.123 C  
HETATM   24  O   UNL     1      -9.863   3.786  70.031  1.00  0.00    -0.181 OA 
HETATM   25  H   UNL     1      -8.841   1.854  66.918  1.00  0.00     0.000 HD 
HETATM   26  C   UNL     1      -7.237   3.898  66.524  1.00  0.00    -0.068 C  
HETATM   27  C   UNL     1      -8.267   3.607  67.663  1.00  0.00    -0.089 C  
HETATM   28  C   UNL     1      -9.937   5.385  67.080  1.00  0.00    -0.199 C  
HETATM   29  O   UNL     1      -9.239   2.666  67.210  1.00  0.00    -0.168 OA 
ENDROOT
BRANCH   3  30
HETATM   30  C   UNL     1      -9.895  11.989  67.132  1.00  0.00    -0.205 C  
HETATM   31  C   UNL     1      -9.298  13.144  66.712  1.00  0.00    -0.244 C  
HETATM   32  C   UNL     1     -11.350  11.927  67.539  1.00  0.00    -0.381 C  
BRANCH  31  33
HETATM   33  C   UNL     1      -9.952  14.350  66.271  1.00  0.00    -0.306 A  
HETATM   34  C   UNL     1     -10.732  14.434  65.114  1.00  0.00    -0.398 A  
HETATM   35  S   UNL     1     -11.126  16.065  64.791  1.00  0.00    -0.231 SA 
HETATM   36  C   UNL     1     -10.178  16.550  66.145  1.00  0.00    -0.346 A  
HETATM   37  N   UNL     1      -9.602  15.566  66.809  1.00  0.00    -0.226 NA 
HETATM   38  C   UNL     1     -10.043  18.002  66.462  1.00  0.00    -0.379 C  
ENDBRANCH  31  33
ENDBRANCH   3  30
TORSDOF 2
ENDMDL
MODEL       25
REMARK 921   NORMALIZED FREE ENERGY PREDICTED BY IDOCK:   -5.97 KCAL/MOL
REMARK 922        TOTAL FREE ENERGY PREDICTED BY IDOCK:   -6.55 KCAL/MOL
REMARK 923 INTER-LIGAND FREE ENERGY PREDICTED BY IDOCK:   -6.10 KCAL/MOL
REMARK 924 INTRA-LIGAND FREE ENERGY PREDICTED BY IDOCK:   -0.45 KCAL/MOL
REMARK 927      BINDING AFFINITY PREDICTED BY RF-SCORE:    0.00 PKD
ROOT
HETATM    1  C   UNL     1      -9.553   8.268  71.591  1.00  0.00    -0.198 C  
HETATM    2  C   UNL     1      -8.929   9.027  70.387  1.00  0.00    -0.235 C  
HETATM    3  C   UNL     1      -9.743   8.912  69.024  1.00  0.00    -0.171 C  
HETATM    4  N   UNL     1      -9.107   7.949  68.128  1.00  0.00    -0.134 N  
HETATM    5  O   UNL     1      -8.793   8.685  72.740  1.00  0.00    -0.374 OA 
HETATM    6  C   UNL     1     -10.133   7.184  74.026  1.00  0.00    -0.303 C  
HETATM    7  C   UNL     1      -9.726   7.345  67.036  1.00  0.00    -0.191 C  
HETATM    8  C   UNL     1      -9.122   7.317  72.896  1.00  0.00    -0.140 C  
HETATM    9  H   UNL     1      -8.136   7.700  68.318  1.00  0.00     0.000 HD 
HETATM   10  C   UNL     1      -8.823   6.336  66.343  1.00  0.00    -0.147 C  
HETATM   11  C   UNL     1      -7.876   6.428  73.085  1.00  0.00    -0.101 C  
HETATM   12  O   UNL     1     -10.901   7.483  66.737  1.00  0.00    -0.292 OA 
HETATM   13  C   UNL     1      -8.758   5.154  67.310  1.00  0.00    -0.103 C  
HETATM   14  C   UNL     1      -8.219   4.950  73.477  1.00  0.00    -0.107 C  
HETATM   15  C   UNL     1      -7.930   3.887  66.937  1.00  0.00    -0.096 C  
HETATM   16  C   UNL     1      -8.364   1.518  72.732  1.00  0.00    -0.053 C  
HETATM   17  O   UNL     1      -8.273   5.713  68.506  1.00  0.00    -0.105 OA 
HETATM   18  H   UNL     1      -8.233   4.979  69.106  1.00  0.00     0.000 HD 
HETATM   19  C   UNL     1      -7.238   3.131  68.166  1.00  0.00    -0.050 C  
HETATM   20  C   UNL     1      -8.947   2.972  66.203  1.00  0.00    -0.150 C  
HETATM   21  C   UNL     1      -6.780   4.117  65.916  1.00  0.00    -0.049 C  
HETATM   22  C   UNL     1      -7.277   3.813  72.997  1.00  0.00    -0.059 C  
HETATM   23  C   UNL     1      -7.452   3.577  69.642  1.00  0.00    -0.045 C  
HETATM   24  O   UNL     1      -6.481   2.175  67.945  1.00  0.00    -0.028 OA 
HETATM   25  H   UNL     1      -5.687   1.603  71.621  1.00  0.00     0.000 HD 
HETATM   26  C   UNL     1      -7.984   2.820  72.011  1.00  0.00    -0.054 C  
HETATM   27  C   UNL     1      -7.218   2.472  70.693  1.00  0.00    -0.033 C  
HETATM   28  C   UNL     1      -6.610   4.810  70.020  1.00  0.00    -0.036 C  
HETATM   29  O   UNL     1      -5.832   2.284  70.973  1.00  0.00    -0.013 OA 
ENDROOT
BRANCH   3  30
HETATM   30  C   UNL     1     -10.026  10.119  68.078  1.00  0.00    -0.173 C  
HETATM   31  C   UNL     1     -11.285  10.629  67.936  1.00  0.00    -0.376 C  
HETATM   32  C   UNL     1      -8.784  10.909  67.730  1.00  0.00    -0.129 C  
BRANCH  31  33
HETATM   33  C   UNL     1     -11.650  12.014  67.777  1.00  0.00    -0.330 A  
HETATM   34  C   UNL     1     -11.740  12.658  66.539  1.00  0.00    -0.400 A  
HETATM   35  S   UNL     1     -11.947  14.339  66.768  1.00  0.00    -0.408 SA 
HETATM   36  C   UNL     1     -11.821  14.111  68.471  1.00  0.00    -0.355 A  
HETATM   37  N   UNL     1     -11.642  12.863  68.858  1.00  0.00    -0.294 NA 
HETATM   38  C   UNL     1     -11.891  15.296  69.375  1.00  0.00    -0.367 C  
ENDBRANCH  31  33
ENDBRANCH   3  30
TORSDOF 2
ENDMDL
MODEL       26
REMARK 921   NORMALIZED FREE ENERGY PREDICTED BY IDOCK:   -5.94 KCAL/MOL
REMARK 922        TOTAL FREE ENERGY PREDICTED BY IDOCK:   -6.52 KCAL/MOL
REMARK 923 INTER-LIGAND FREE ENERGY PREDICTED BY IDOCK:   -6.31 KCAL/MOL
REMARK 924 INTRA-LIGAND FREE ENERGY PREDICTED BY IDOCK:   -0.21 KCAL/MOL
REMARK 927      BINDING AFFINITY PREDICTED BY RF-SCORE:    0.00 PKD
ROOT
HETATM    1  C   UNL     1      -9.446   5.463  66.489  1.00  0.00    -0.149 C  
HETATM    2  C   UNL     1     -10.441   6.583  66.904  1.00  0.00    -0.347 C  
HETATM    3  C   UNL     1      -9.780   8.008  67.160  1.00  0.00    -0.195 C  
HETATM    4  N   UNL     1      -9.648   8.260  68.593  1.00  0.00    -0.148 N  
HETATM    5  O   UNL     1     -10.269   4.348  66.099  1.00  0.00    -0.243 OA 
HETATM    6  C   UNL     1      -8.246   3.132  65.736  1.00  0.00    -0.094 C  
HETATM    7  C   UNL     1      -8.808   9.215  69.162  1.00  0.00    -0.146 C  
HETATM    8  C   UNL     1      -9.120   3.846  66.757  1.00  0.00    -0.150 C  
HETATM    9  H   UNL     1     -10.213   7.692  69.225  1.00  0.00     0.000 HD 
HETATM   10  C   UNL     1      -8.842   9.186  70.682  1.00  0.00    -0.278 C  
HETATM   11  C   UNL     1      -9.473   2.970  67.976  1.00  0.00    -0.217 C  
HETATM   12  O   UNL     1      -8.018   9.907  68.539  1.00  0.00    -0.084 OA 
HETATM   13  C   UNL     1      -8.095   7.906  71.057  1.00  0.00    -0.098 C  
HETATM   14  C   UNL     1      -8.236   2.227  68.588  1.00  0.00    -0.074 C  
HETATM   15  C   UNL     1      -7.897   7.530  72.556  1.00  0.00    -0.114 C  
HETATM   16  C   UNL     1      -5.891   1.749  71.163  1.00  0.00    -0.013 C  
HETATM   17  O   UNL     1      -8.802   6.888  70.393  1.00  0.00    -0.149 OA 
HETATM   18  H   UNL     1      -8.338   6.092  70.625  1.00  0.00     0.000 HD 
HETATM   19  C   UNL     1      -7.896   5.962  72.878  1.00  0.00    -0.107 C  
HETATM   20  C   UNL     1      -6.545   8.192  72.937  1.00  0.00    -0.095 C  
HETATM   21  C   UNL     1      -8.937   8.136  73.540  1.00  0.00    -0.295 C  
HETATM   22  C   UNL     1      -8.211   1.953  70.116  1.00  0.00    -0.060 C  
HETATM   23  C   UNL     1      -7.996   4.884  71.759  1.00  0.00    -0.109 C  
HETATM   24  O   UNL     1      -7.846   5.583  74.057  1.00  0.00    -0.100 OA 
HETATM   25  H   UNL     1      -7.991   1.890  73.157  1.00  0.00     0.000 HD 
HETATM   26  C   UNL     1      -7.047   2.710  70.845  1.00  0.00    -0.033 C  
HETATM   27  C   UNL     1      -7.426   3.502  72.138  1.00  0.00    -0.057 C  
HETATM   28  C   UNL     1      -9.432   4.703  71.233  1.00  0.00    -0.221 C  
HETATM   29  O   UNL     1      -8.342   2.741  72.924  1.00  0.00    -0.069 OA 
ENDROOT
BRANCH   3  30
HETATM   30  C   UNL     1     -10.378   9.349  66.634  1.00  0.00    -0.284 C  
HETATM   31  C   UNL     1     -11.277  10.063  67.375  1.00  0.00    -0.004 C  
HETATM   32  C   UNL     1      -9.566   9.969  65.520  1.00  0.00    -0.328 C  
BRANCH  31  33
HETATM   33  C   UNL     1     -11.372  11.498  67.479  1.00  0.00    -0.299 A  
HETATM   34  C   UNL     1     -11.238  12.202  68.679  1.00  0.00    -0.269 A  
HETATM   35  S   UNL     1     -11.661  13.841  68.445  1.00  0.00    -0.356 SA 
HETATM   36  C   UNL     1     -12.067  13.492  66.808  1.00  0.00    -0.375 A  
HETATM   37  N   UNL     1     -11.897  12.235  66.444  1.00  0.00    -0.589 NA 
HETATM   38  C   UNL     1     -12.595  14.581  65.936  1.00  0.00    -0.157 C  
ENDBRANCH  31  33
ENDBRANCH   3  30
TORSDOF 2
ENDMDL
MODEL       27
REMARK 921   NORMALIZED FREE ENERGY PREDICTED BY IDOCK:   -5.89 KCAL/MOL
REMARK 922        TOTAL FREE ENERGY PREDICTED BY IDOCK:   -6.46 KCAL/MOL
REMARK 923 INTER-LIGAND FREE ENERGY PREDICTED BY IDOCK:   -6.20 KCAL/MOL
REMARK 924 INTRA-LIGAND FREE ENERGY PREDICTED BY IDOCK:   -0.26 KCAL/MOL
REMARK 927      BINDING AFFINITY PREDICTED BY RF-SCORE:    0.00 PKD
ROOT
HETATM    1  C   UNL     1      -9.667   8.497  71.826  1.00  0.00    -0.267 C  
HETATM    2  C   UNL     1      -9.045   9.496  70.810  1.00  0.00    -0.176 C  
HETATM    3  C   UNL     1      -9.894   9.720  69.482  1.00  0.00    -0.214 C  
HETATM    4  N   UNL     1      -9.310   8.973  68.371  1.00  0.00    -0.139 N  
HETATM    5  O   UNL     1      -8.867   8.618  73.017  1.00  0.00    -0.355 OA 
HETATM    6  C   UNL     1     -10.226   6.897  73.963  1.00  0.00    -0.384 C  
HETATM    7  C   UNL     1      -9.973   8.654  67.188  1.00  0.00    -0.231 C  
HETATM    8  C   UNL     1      -9.237   7.260  72.864  1.00  0.00    -0.147 C  
HETATM    9  H   UNL     1      -8.344   8.661  68.469  1.00  0.00     0.000 HD 
HETATM   10  C   UNL     1      -9.120   7.808  66.255  1.00  0.00    -0.221 C  
HETATM   11  C   UNL     1      -8.017   6.318  72.807  1.00  0.00    -0.105 C  
HETATM   12  O   UNL     1     -11.150   8.888  66.964  1.00  0.00     0.065 OA 
HETATM   13  C   UNL     1      -9.072   6.433  66.922  1.00  0.00    -0.133 C  
HETATM   14  C   UNL     1      -8.400   4.800  72.859  1.00  0.00    -0.101 C  
HETATM   15  C   UNL     1      -8.295   5.265  66.245  1.00  0.00    -0.114 C  
HETATM   16  C   UNL     1      -8.674   1.636  71.351  1.00  0.00    -0.091 C  
HETATM   17  O   UNL     1      -8.542   6.689  68.200  1.00  0.00    -0.116 OA 
HETATM   18  H   UNL     1      -8.512   5.835  68.614  1.00  0.00     0.000 HD 
HETATM   19  C   UNL     1      -7.601   4.227  67.246  1.00  0.00    -0.077 C  
HETATM   20  C   UNL     1      -9.358   4.572  65.350  1.00  0.00    -0.163 C  
HETATM   21  C   UNL     1      -7.162   5.693  65.270  1.00  0.00    -0.067 C  
HETATM   22  C   UNL     1      -7.507   3.779  72.103  1.00  0.00    -0.057 C  
HETATM   23  C   UNL     1      -7.766   4.327  68.791  1.00  0.00    -0.066 C  
HETATM   24  O   UNL     1      -6.880   3.329  66.788  1.00  0.00    -0.051 OA 
HETATM   25  H   UNL     1      -6.023   1.904  70.209  1.00  0.00     0.000 HD 
HETATM   26  C   UNL     1      -8.269   3.059  70.937  1.00  0.00    -0.072 C  
HETATM   27  C   UNL     1      -7.545   3.004  69.552  1.00  0.00    -0.044 C  
HETATM   28  C   UNL     1      -6.876   5.417  69.416  1.00  0.00    -0.057 C  
HETATM   29  O   UNL     1      -6.159   2.719  69.740  1.00  0.00    -0.023 OA 
ENDROOT
BRANCH   3  30
HETATM   30  C   UNL     1     -10.158  11.120  68.848  1.00  0.00    -0.199 C  
HETATM   31  C   UNL     1      -9.325  11.636  67.896  1.00  0.00    -0.174 C  
HETATM   32  C   UNL     1     -11.580  11.600  69.032  1.00  0.00    -0.379 C  
BRANCH  31  33
HETATM   33  C   UNL     1      -9.699  12.420  66.746  1.00  0.00    -0.223 A  
HETATM   34  C   UNL     1      -9.720  13.818  66.731  1.00  0.00    -0.275 A  
HETATM   35  S   UNL     1     -10.450  14.376  65.290  1.00  0.00    -0.415 SA 
HETATM   36  C   UNL     1     -10.759  12.746  64.828  1.00  0.00    -0.316 A  
HETATM   37  N   UNL     1     -10.344  11.832  65.684  1.00  0.00    -0.243 NA 
HETATM   38  C   UNL     1     -11.478  12.470  63.550  1.00  0.00    -0.570 C  
ENDBRANCH  31  33
ENDBRANCH   3  30
TORSDOF 2
ENDMDL
MODEL       28
REMARK 921   NORMALIZED FREE ENERGY PREDICTED BY IDOCK:   -5.83 KCAL/MOL
REMARK 922        TOTAL FREE ENERGY PREDICTED BY IDOCK:   -6.40 KCAL/MOL
REMARK 923 INTER-LIGAND FREE ENERGY PREDICTED BY IDOCK:   -6.64 KCAL/MOL
REMARK 924 INTRA-LIGAND FREE ENERGY PREDICTED BY IDOCK:    0.24 KCAL/MOL
REMARK 927      BINDING AFFINITY PREDICTED BY RF-SCORE:    0.00 PKD
ROOT
HETATM    1  C   UNL     1      -9.639   6.444  66.774  1.00  0.00    -0.155 C  
HETATM    2  C   UNL     1     -10.706   7.352  67.449  1.00  0.00    -0.348 C  
HETATM    3  C   UNL     1     -10.125   8.641  68.180  1.00  0.00    -0.197 C  
HETATM    4  N   UNL     1     -10.087   8.433  69.626  1.00  0.00    -0.194 N  
HETATM    5  O   UNL     1     -10.388   5.487  66.002  1.00  0.00    -0.115 OA 
HETATM    6  C   UNL     1      -8.295   4.497  65.417  1.00  0.00    -0.117 C  
HETATM    7  C   UNL     1      -9.325   9.183  70.520  1.00  0.00    -0.240 C  
HETATM    8  C   UNL     1      -9.257   4.833  66.547  1.00  0.00    -0.133 C  
HETATM    9  H   UNL     1     -10.661   7.682  70.010  1.00  0.00     0.000 HD 
HETATM   10  C   UNL     1      -9.444   8.677  71.949  1.00  0.00    -0.369 C  
HETATM   11  C   UNL     1      -9.639   3.610  67.405  1.00  0.00    -0.197 C  
HETATM   12  O   UNL     1      -8.532  10.054  70.199  1.00  0.00    -0.169 OA 
HETATM   13  C   UNL     1      -8.662   7.363  71.956  1.00  0.00    -0.110 C  
HETATM   14  C   UNL     1      -8.407   2.744  67.838  1.00  0.00    -0.094 C  
HETATM   15  C   UNL     1      -8.534   6.541  73.274  1.00  0.00    -0.125 C  
HETATM   16  C   UNL     1      -6.194   1.540  70.290  1.00  0.00    -0.023 C  
HETATM   17  O   UNL     1      -9.285   6.587  70.962  1.00  0.00    -0.159 OA 
HETATM   18  H   UNL     1      -8.799   5.771  70.966  1.00  0.00     0.000 HD 
HETATM   19  C   UNL     1      -8.481   4.952  73.091  1.00  0.00    -0.104 C  
HETATM   20  C   UNL     1      -7.237   7.084  73.933  1.00  0.00    -0.095 C  
HETATM   21  C   UNL     1      -9.654   6.781  74.325  1.00  0.00    -0.305 C  
HETATM   22  C   UNL     1      -8.457   2.005  69.203  1.00  0.00    -0.087 C  
HETATM   23  C   UNL     1      -8.468   4.277  71.688  1.00  0.00    -0.108 C  
HETATM   24  O   UNL     1      -8.481   4.223  74.094  1.00  0.00    -0.094 OA 
HETATM   25  H   UNL     1      -8.408   0.996  72.081  1.00  0.00     0.000 HD 
HETATM   26  C   UNL     1      -7.372   2.523  70.209  1.00  0.00    -0.036 C  
HETATM   27  C   UNL     1      -7.859   2.861  71.656  1.00  0.00    -0.056 C  
HETATM   28  C   UNL     1      -9.862   4.235  71.035  1.00  0.00    -0.251 C  
HETATM   29  O   UNL     1      -8.783   1.869  72.101  1.00  0.00    -0.065 OA 
ENDROOT
BRANCH   3  30
HETATM   30  C   UNL     1     -10.753  10.063  68.058  1.00  0.00    -0.303 C  
HETATM   31  C   UNL     1     -11.639  10.529  68.987  1.00  0.00    -0.278 C  
HETATM   32  C   UNL     1      -9.977  10.982  67.141  1.00  0.00    -0.218 C  
BRANCH  31  33
HETATM   33  C   UNL     1     -11.749  11.877  69.485  1.00  0.00    -0.345 A  
HETATM   34  C   UNL     1     -12.204  12.199  70.767  1.00  0.00    -0.271 A  
HETATM   35  S   UNL     1     -12.431  13.887  70.901  1.00  0.00    -0.381 SA 
HETATM   36  C   UNL     1     -11.994  14.066  69.244  1.00  0.00    -0.353 A  
HETATM   37  N   UNL     1     -11.690  12.944  68.620  1.00  0.00    -0.306 NA 
HETATM   38  C   UNL     1     -12.012  15.423  68.625  1.00  0.00    -0.240 C  
ENDBRANCH  31  33
ENDBRANCH   3  30
TORSDOF 2
ENDMDL
MODEL       29
REMARK 921   NORMALIZED FREE ENERGY PREDICTED BY IDOCK:   -5.77 KCAL/MOL
REMARK 922        TOTAL FREE ENERGY PREDICTED BY IDOCK:   -6.33 KCAL/MOL
REMARK 923 INTER-LIGAND FREE ENERGY PREDICTED BY IDOCK:   -5.91 KCAL/MOL
REMARK 924 INTRA-LIGAND FREE ENERGY PREDICTED BY IDOCK:   -0.41 KCAL/MOL
REMARK 927      BINDING AFFINITY PREDICTED BY RF-SCORE:    0.00 PKD
ROOT
HETATM    1  C   UNL     1      -8.431   8.256  66.056  1.00  0.00    -0.139 C  
HETATM    2  C   UNL     1      -9.695   8.942  66.645  1.00  0.00    -0.303 C  
HETATM    3  C   UNL     1      -9.461   9.719  68.015  1.00  0.00    -0.131 C  
HETATM    4  N   UNL     1      -9.955   8.929  69.140  1.00  0.00    -0.184 N  
HETATM    5  O   UNL     1      -8.815   7.818  64.739  1.00  0.00     0.151 OA 
HETATM    6  C   UNL     1      -6.628   6.878  64.542  1.00  0.00    -0.042 C  
HETATM    7  C   UNL     1      -9.598   9.128  70.472  1.00  0.00    -0.243 C  
HETATM    8  C   UNL     1      -7.949   6.847  65.297  1.00  0.00    -0.127 C  
HETATM    9  H   UNL     1     -10.610   8.174  68.935  1.00  0.00     0.000 HD 
HETATM   10  C   UNL     1     -10.225   8.098  71.400  1.00  0.00    -0.248 C  
HETATM   11  C   UNL     1      -8.589   5.444  65.347  1.00  0.00    -0.150 C  
HETATM   12  O   UNL     1      -8.766   9.934  70.858  1.00  0.00    -0.016 OA 
HETATM   13  C   UNL     1      -9.467   6.804  71.103  1.00  0.00    -0.163 C  
HETATM   14  C   UNL     1      -7.583   4.315  65.754  1.00  0.00    -0.086 C  
HETATM   15  C   UNL     1      -9.813   5.501  71.885  1.00  0.00    -0.210 C  
HETATM   16  C   UNL     1      -6.403   1.910  68.031  1.00  0.00    -0.025 C  
HETATM   17  O   UNL     1      -9.656   6.604  69.724  1.00  0.00    -0.150 OA 
HETATM   18  H   UNL     1      -9.185   5.800  69.539  1.00  0.00     0.000 HD 
HETATM   19  C   UNL     1      -9.654   4.140  71.060  1.00  0.00    -0.183 C  
HETATM   20  C   UNL     1      -8.867   5.537  73.116  1.00  0.00    -0.119 C  
HETATM   21  C   UNL     1     -11.249   5.439  72.478  1.00  0.00    -0.305 C  
HETATM   22  C   UNL     1      -8.115   3.093  66.550  1.00  0.00    -0.085 C  
HETATM   23  C   UNL     1      -9.105   4.111  69.603  1.00  0.00    -0.184 C  
HETATM   24  O   UNL     1     -10.006   3.070  71.577  1.00  0.00    -0.155 OA 
HETATM   25  H   UNL     1      -9.108   0.988  68.522  1.00  0.00     0.000 HD 
HETATM   26  C   UNL     1      -7.493   2.992  67.986  1.00  0.00    -0.053 C  
HETATM   27  C   UNL     1      -8.490   2.765  69.169  1.00  0.00    -0.063 C  
HETATM   28  C   UNL     1     -10.156   4.537  68.561  1.00  0.00    -0.026 C  
HETATM   29  O   UNL     1      -9.486   1.817  68.789  1.00  0.00    -0.160 OA 
ENDROOT
BRANCH   3  30
HETATM   30  C   UNL     1     -10.036  11.136  68.317  1.00  0.00    -0.196 C  
HETATM   31  C   UNL     1      -9.325  12.266  68.029  1.00  0.00    -0.195 C  
HETATM   32  C   UNL     1     -11.537  11.144  68.504  1.00  0.00    -0.385 C  
BRANCH  31  33
HETATM   33  C   UNL     1      -9.844  13.519  67.540  1.00  0.00    -0.227 A  
HETATM   34  C   UNL     1      -9.862  13.879  66.189  1.00  0.00    -0.302 A  
HETATM   35  S   UNL     1     -10.313  15.519  66.027  1.00  0.00    -0.349 SA 
HETATM   36  C   UNL     1     -10.374  15.660  67.743  1.00  0.00    -0.266 A  
HETATM   37  N   UNL     1     -10.083  14.558  68.407  1.00  0.00    -0.234 NA 
HETATM   38  C   UNL     1     -10.712  16.977  68.358  1.00  0.00    -0.361 C  
ENDBRANCH  31  33
ENDBRANCH   3  30
TORSDOF 2
ENDMDL
MODEL       30
REMARK 921   NORMALIZED FREE ENERGY PREDICTED BY IDOCK:   -5.44 KCAL/MOL
REMARK 922        TOTAL FREE ENERGY PREDICTED BY IDOCK:   -5.96 KCAL/MOL
REMARK 923 INTER-LIGAND FREE ENERGY PREDICTED BY IDOCK:   -5.63 KCAL/MOL
REMARK 924 INTRA-LIGAND FREE ENERGY PREDICTED BY IDOCK:   -0.33 KCAL/MOL
REMARK 927      BINDING AFFINITY PREDICTED BY RF-SCORE:    0.00 PKD
ROOT
HETATM    1  C   UNL     1      -8.392   8.064  65.335  1.00  0.00    -0.153 C  
HETATM    2  C   UNL     1      -7.723   7.452  66.598  1.00  0.00    -0.101 C  
HETATM    3  C   UNL     1      -8.602   6.369  67.365  1.00  0.00    -0.107 C  
HETATM    4  N   UNL     1      -9.207   6.956  68.559  1.00  0.00    -0.130 N  
HETATM    5  O   UNL     1      -7.357   8.829  64.690  1.00  0.00    -0.093 OA 
HETATM    6  C   UNL     1      -8.997   9.468  63.076  1.00  0.00    -0.221 C  
HETATM    7  C   UNL     1     -10.294   6.421  69.248  1.00  0.00    -0.207 C  
HETATM    8  C   UNL     1      -8.583   9.521  64.539  1.00  0.00    -0.187 C  
HETATM    9  H   UNL     1      -8.803   7.822  68.915  1.00  0.00     0.000 HD 
HETATM   10  C   UNL     1     -10.735   7.302  70.407  1.00  0.00    -0.253 C  
HETATM   11  C   UNL     1      -8.524  10.955  65.104  1.00  0.00    -0.038 C  
HETATM   12  O   UNL     1     -10.928   5.440  68.894  1.00  0.00    -0.082 OA 
HETATM   13  C   UNL     1     -11.398   8.507  69.742  1.00  0.00     0.132 C  
HETATM   14  C   UNL     1      -9.788  11.813  64.757  1.00  0.00    -0.238 C  
HETATM   15  C   UNL     1     -12.007   9.643  70.617  1.00  0.00    -0.304 C  
HETATM   16  C   UNL     1     -12.744  13.468  65.697  1.00  0.00    -0.478 C  
HETATM   17  O   UNL     1     -10.397   9.030  68.902  1.00  0.00    -0.207 OA 
HETATM   18  H   UNL     1     -10.809   9.779  68.488  1.00  0.00     0.000 HD 
HETATM   19  C   UNL     1     -11.916  11.116  69.997  1.00  0.00    -0.367 C  
HETATM   20  C   UNL     1     -13.482   9.205  70.832  1.00  0.00     0.051 C  
HETATM   21  C   UNL     1     -11.412   9.778  72.047  1.00  0.00     0.303 C  
HETATM   22  C   UNL     1     -10.257  12.894  65.768  1.00  0.00    -0.298 C  
HETATM   23  C   UNL     1     -11.338  11.384  68.577  1.00  0.00    -0.333 C  
HETATM   24  O   UNL     1     -12.286  12.085  70.675  1.00  0.00    -0.374 OA 
HETATM   25  H   UNL     1     -11.411  14.635  67.991  1.00  0.00     0.000 HD 
HETATM   26  C   UNL     1     -11.675  12.588  66.363  1.00  0.00    -0.458 C  
HETATM   27  C   UNL     1     -11.822  12.690  67.916  1.00  0.00    -0.332 C  
HETATM   28  C   UNL     1      -9.798  11.351  68.544  1.00  0.00    -0.200 C  
HETATM   29  O   UNL     1     -11.112  13.830  68.398  1.00  0.00    -0.242 OA 
ENDROOT
BRANCH   3  30
HETATM   30  C   UNL     1      -8.039   5.017  67.900  1.00  0.00    -0.098 C  
HETATM   31  C   UNL     1      -7.488   4.921  69.146  1.00  0.00    -0.053 C  
HETATM   32  C   UNL     1      -8.558   3.814  67.145  1.00  0.00    -0.112 C  
BRANCH  31  33
HETATM   33  C   UNL     1      -7.598   3.814  70.062  1.00  0.00    -0.048 A  
HETATM   34  C   UNL     1      -6.707   2.737  70.091  1.00  0.00    -0.033 A  
HETATM   35  S   UNL     1      -7.301   1.514  71.126  1.00  0.00    -0.033 SA 
HETATM   36  C   UNL     1      -8.721   2.450  71.399  1.00  0.00    -0.065 A  
HETATM   37  N   UNL     1      -8.760   3.608  70.767  1.00  0.00    -0.071 NA 
HETATM   38  C   UNL     1      -9.798   1.908  72.278  1.00  0.00    -0.197 C  
ENDBRANCH  31  33
ENDBRANCH   3  30
TORSDOF 2
ENDMDL
MODEL       31
REMARK 921   NORMALIZED FREE ENERGY PREDICTED BY IDOCK:   -5.22 KCAL/MOL
REMARK 922        TOTAL FREE ENERGY PREDICTED BY IDOCK:   -5.72 KCAL/MOL
REMARK 923 INTER-LIGAND FREE ENERGY PREDICTED BY IDOCK:   -5.52 KCAL/MOL
REMARK 924 INTRA-LIGAND FREE ENERGY PREDICTED BY IDOCK:   -0.20 KCAL/MOL
REMARK 927      BINDING AFFINITY PREDICTED BY RF-SCORE:    0.00 PKD
ROOT
HETATM    1  C   UNL     1     -11.918  10.649  71.315  1.00  0.00    -0.245 C  
HETATM    2  C   UNL     1     -11.311   9.458  70.521  1.00  0.00    -0.328 C  
HETATM    3  C   UNL     1      -9.874   8.985  71.015  1.00  0.00    -0.282 C  
HETATM    4  N   UNL     1      -8.836   9.486  70.117  1.00  0.00    -0.220 N  
HETATM    5  O   UNL     1     -13.279  10.758  70.857  1.00  0.00    -0.278 OA 
HETATM    6  C   UNL     1     -13.489  12.652  72.296  1.00  0.00    -0.541 C  
HETATM    7  C   UNL     1      -7.481   9.571  70.432  1.00  0.00    -0.151 C  
HETATM    8  C   UNL     1     -12.780  12.063  71.085  1.00  0.00    -0.266 C  
HETATM    9  H   UNL     1      -9.125   9.798  69.190  1.00  0.00     0.000 HD 
HETATM   10  C   UNL     1      -6.665  10.202  69.315  1.00  0.00    -0.059 C  
HETATM   11  C   UNL     1     -12.870  12.957  69.832  1.00  0.00     0.540 C  
HETATM   12  O   UNL     1      -7.003   9.314  71.526  1.00  0.00    -0.283 OA 
HETATM   13  C   UNL     1      -7.048  11.681  69.349  1.00  0.00    -0.007 C  
HETATM   14  C   UNL     1     -12.531  14.460  70.113  1.00  0.00    -0.395 C  
HETATM   15  C   UNL     1      -6.391  12.679  68.348  1.00  0.00    -0.069 C  
HETATM   16  C   UNL     1     -10.432  17.261  69.782  1.00  0.00     0.156 C  
HETATM   17  O   UNL     1      -8.444  11.679  69.181  1.00  0.00    -0.369 OA 
HETATM   18  H   UNL     1      -8.683  12.598  69.202  1.00  0.00     0.000 HD 
HETATM   19  C   UNL     1      -7.325  13.886  67.866  1.00  0.00    -0.154 C  
HETATM   20  C   UNL     1      -5.133  13.195  69.098  1.00  0.00    -0.069 C  
HETATM   21  C   UNL     1      -5.850  12.049  67.033  1.00  0.00    -0.131 C  
HETATM   22  C   UNL     1     -11.858  15.296  68.991  1.00  0.00    -0.342 C  
HETATM   23  C   UNL     1      -8.761  14.100  68.429  1.00  0.00    -0.178 C  
HETATM   24  O   UNL     1      -6.912  14.665  66.995  1.00  0.00    -0.127 OA 
HETATM   25  H   UNL     1     -10.105  16.733  66.950  1.00  0.00     0.000 HD 
HETATM   26  C   UNL     1     -10.417  15.779  69.379  1.00  0.00    -0.257 C  
HETATM   27  C   UNL     1      -9.289  15.545  68.323  1.00  0.00    -0.192 C  
HETATM   28  C   UNL     1      -9.794  13.145  67.802  1.00  0.00    -0.228 C  
HETATM   29  O   UNL     1      -9.779  15.843  67.016  1.00  0.00    -0.223 OA 
ENDROOT
BRANCH   3  30
HETATM   30  C   UNL     1      -9.469   7.491  71.200  1.00  0.00    -0.163 C  
HETATM   31  C   UNL     1      -9.264   6.673  70.125  1.00  0.00    -0.155 C  
HETATM   32  C   UNL     1      -8.906   7.189  72.570  1.00  0.00    -0.141 C  
BRANCH  31  33
HETATM   33  C   UNL     1      -8.269   5.638  69.997  1.00  0.00    -0.110 A  
HETATM   34  C   UNL     1      -7.076   5.789  69.284  1.00  0.00    -0.065 A  
HETATM   35  S   UNL     1      -6.281   4.283  69.149  1.00  0.00    -0.029 SA 
HETATM   36  C   UNL     1      -7.597   3.527  69.964  1.00  0.00    -0.044 A  
HETATM   37  N   UNL     1      -8.573   4.338  70.325  1.00  0.00    -0.069 NA 
HETATM   38  C   UNL     1      -7.573   2.052  70.182  1.00  0.00    -0.042 C  
ENDBRANCH  31  33
ENDBRANCH   3  30
TORSDOF 2
ENDMDL
MODEL       32
REMARK 921   NORMALIZED FREE ENERGY PREDICTED BY IDOCK:   -5.11 KCAL/MOL
REMARK 922        TOTAL FREE ENERGY PREDICTED BY IDOCK:   -5.59 KCAL/MOL
REMARK 923 INTER-LIGAND FREE ENERGY PREDICTED BY IDOCK:   -5.47 KCAL/MOL
REMARK 924 INTRA-LIGAND FREE ENERGY PREDICTED BY IDOCK:   -0.12 KCAL/MOL
REMARK 927      BINDING AFFINITY PREDICTED BY RF-SCORE:    0.00 PKD
ROOT
HETATM    1  C   UNL     1     -10.428   8.397  70.206  1.00  0.00    -0.218 C  
HETATM    2  C   UNL     1      -9.143   8.749  69.405  1.00  0.00    -0.145 C  
HETATM    3  C   UNL     1      -9.026   8.045  67.982  1.00  0.00    -0.130 C  
HETATM    4  N   UNL     1      -8.098   6.918  68.045  1.00  0.00    -0.114 N  
HETATM    5  O   UNL     1     -10.433   9.296  71.331  1.00  0.00    -0.319 OA 
HETATM    6  C   UNL     1     -12.424   8.194  72.054  1.00  0.00    -0.375 C  
HETATM    7  C   UNL     1      -8.031   5.886  67.112  1.00  0.00    -0.102 C  
HETATM    8  C   UNL     1     -10.939   8.045  71.758  1.00  0.00    -0.251 C  
HETATM    9  H   UNL     1      -7.450   6.885  68.833  1.00  0.00     0.000 HD 
HETATM   10  C   UNL     1      -7.011   4.824  67.493  1.00  0.00    -0.061 C  
HETATM   11  C   UNL     1     -10.138   7.457  72.938  1.00  0.00    -0.293 C  
HETATM   12  O   UNL     1      -8.794   5.750  66.168  1.00  0.00    -0.136 OA 
HETATM   13  C   UNL     1      -7.647   4.088  68.672  1.00  0.00    -0.058 C  
HETATM   14  C   UNL     1     -10.804   6.187  73.571  1.00  0.00    -0.207 C  
HETATM   15  C   UNL     1      -6.901   2.894  69.339  1.00  0.00    -0.037 C  
HETATM   16  C   UNL     1     -10.864   2.729  74.202  1.00  0.00    -0.226 C  
HETATM   17  O   UNL     1      -7.886   5.099  69.620  1.00  0.00    -0.070 OA 
HETATM   18  H   UNL     1      -8.282   4.642  70.353  1.00  0.00     0.000 HD 
HETATM   19  C   UNL     1      -7.136   2.728  70.914  1.00  0.00    -0.033 C  
HETATM   20  C   UNL     1      -7.397   1.650  68.553  1.00  0.00    -0.043 C  
HETATM   21  C   UNL     1      -5.355   2.892  69.168  1.00  0.00    -0.013 C  
HETATM   22  C   UNL     1      -9.889   5.089  74.177  1.00  0.00    -0.190 C  
HETATM   23  C   UNL     1      -8.114   3.642  71.708  1.00  0.00    -0.063 C  
HETATM   24  O   UNL     1      -6.499   1.866  71.537  1.00  0.00    -0.018 OA 
HETATM   25  H   UNL     1      -8.049   2.764  74.893  1.00  0.00     0.000 HD 
HETATM   26  C   UNL     1      -9.998   3.723  73.414  1.00  0.00    -0.181 C  
HETATM   27  C   UNL     1      -8.654   3.031  73.017  1.00  0.00    -0.080 C  
HETATM   28  C   UNL     1      -7.518   5.029  72.015  1.00  0.00    -0.091 C  
HETATM   29  O   UNL     1      -7.717   3.141  74.087  1.00  0.00    -0.062 OA 
ENDROOT
BRANCH   3  30
HETATM   30  C   UNL     1      -8.575   8.783  66.685  1.00  0.00    -0.120 C  
HETATM   31  C   UNL     1      -9.301   8.696  65.531  1.00  0.00    -0.105 C  
HETATM   32  C   UNL     1      -7.591   9.902  66.945  1.00  0.00    -0.095 C  
BRANCH  31  33
HETATM   33  C   UNL     1      -9.524   9.741  64.563  1.00  0.00    -0.202 A  
HETATM   34  C   UNL     1      -8.682   9.986  63.474  1.00  0.00    -0.222 A  
HETATM   35  S   UNL     1      -9.128  11.446  62.707  1.00  0.00    -0.064 SA 
HETATM   36  C   UNL     1     -10.341  11.693  63.905  1.00  0.00    -0.369 A  
HETATM   37  N   UNL     1     -10.422  10.749  64.824  1.00  0.00    -0.311 NA 
HETATM   38  C   UNL     1     -11.179  12.926  63.856  1.00  0.00    -0.471 C  
ENDBRANCH  31  33
ENDBRANCH   3  30
TORSDOF 2
ENDMDL
MODEL       33
REMARK 921   NORMALIZED FREE ENERGY PREDICTED BY IDOCK:   -5.05 KCAL/MOL
REMARK 922        TOTAL FREE ENERGY PREDICTED BY IDOCK:   -5.53 KCAL/MOL
REMARK 923 INTER-LIGAND FREE ENERGY PREDICTED BY IDOCK:   -5.22 KCAL/MOL
REMARK 924 INTRA-LIGAND FREE ENERGY PREDICTED BY IDOCK:   -0.30 KCAL/MOL
REMARK 927      BINDING AFFINITY PREDICTED BY RF-SCORE:    0.00 PKD
ROOT
HETATM    1  C   UNL     1      -8.214  10.640  64.756  1.00  0.00    -0.038 C  
HETATM    2  C   UNL     1      -9.387  11.058  65.686  1.00  0.00    -0.239 C  
HETATM    3  C   UNL     1      -8.986  11.298  67.207  1.00  0.00    -0.149 C  
HETATM    4  N   UNL     1      -9.381  10.154  68.025  1.00  0.00    -0.141 N  
HETATM    5  O   UNL     1      -8.748  10.697  63.420  1.00  0.00    -0.176 OA 
HETATM    6  C   UNL     1      -6.624   9.912  62.663  1.00  0.00    -0.114 C  
HETATM    7  C   UNL     1      -8.879   9.868  69.293  1.00  0.00    -0.174 C  
HETATM    8  C   UNL     1      -7.857   9.599  63.498  1.00  0.00    -0.136 C  
HETATM    9  H   UNL     1     -10.076   9.515  67.639  1.00  0.00     0.000 HD 
HETATM   10  C   UNL     1      -9.433   8.569  69.858  1.00  0.00    -0.163 C  
HETATM   11  C   UNL     1      -8.529   8.265  63.116  1.00  0.00     0.024 C  
HETATM   12  O   UNL     1      -7.987  10.493  69.846  1.00  0.00    -0.092 OA 
HETATM   13  C   UNL     1      -8.750   7.474  69.039  1.00  0.00    -0.136 C  
HETATM   14  C   UNL     1      -7.520   7.075  62.981  1.00  0.00    -0.094 C  
HETATM   15  C   UNL     1      -9.050   5.975  69.339  1.00  0.00    -0.135 C  
HETATM   16  C   UNL     1      -6.177   4.028  64.111  1.00  0.00    -0.026 C  
HETATM   17  O   UNL     1      -9.090   7.777  67.708  1.00  0.00    -0.134 OA 
HETATM   18  H   UNL     1      -8.666   7.097  67.199  1.00  0.00     0.000 HD 
HETATM   19  C   UNL     1      -9.020   4.998  68.072  1.00  0.00    -0.108 C  
HETATM   20  C   UNL     1      -7.978   5.578  70.391  1.00  0.00    -0.102 C  
HETATM   21  C   UNL     1     -10.416   5.690  70.026  1.00  0.00    -0.367 C  
HETATM   22  C   UNL     1      -8.000   5.644  63.345  1.00  0.00    -0.105 C  
HETATM   23  C   UNL     1      -8.630   5.497  66.649  1.00  0.00    -0.116 C  
HETATM   24  O   UNL     1      -9.347   3.811  68.210  1.00  0.00    -0.149 OA 
HETATM   25  H   UNL     1      -8.840   2.964  64.536  1.00  0.00     0.000 HD 
HETATM   26  C   UNL     1      -7.233   5.044  64.574  1.00  0.00    -0.058 C  
HETATM   27  C   UNL     1      -8.104   4.400  65.701  1.00  0.00    -0.105 C  
HETATM   28  C   UNL     1      -9.773   6.255  65.949  1.00  0.00     0.169 C  
HETATM   29  O   UNL     1      -9.163   3.640  65.121  1.00  0.00    -0.136 OA 
ENDROOT
BRANCH   3  30
HETATM   30  C   UNL     1      -9.484  12.509  68.055  1.00  0.00    -0.209 C  
HETATM   31  C   UNL     1      -8.705  13.617  68.234  1.00  0.00    -0.171 C  
HETATM   32  C   UNL     1     -10.984  12.529  68.244  1.00  0.00    -0.270 C  
BRANCH  31  33
HETATM   33  C   UNL     1      -9.145  14.988  68.289  1.00  0.00    -0.182 A  
HETATM   34  C   UNL     1      -9.915  15.517  69.329  1.00  0.00    -0.264 A  
HETATM   35  S   UNL     1     -10.446  17.090  68.922  1.00  0.00    -0.336 SA 
HETATM   36  C   UNL     1      -9.696  16.932  67.380  1.00  0.00    -0.247 A  
HETATM   37  N   UNL     1      -9.079  15.784  67.171  1.00  0.00    -0.205 NA 
HETATM   38  C   UNL     1      -9.805  18.047  66.395  1.00  0.00    -0.340 C  
ENDBRANCH  31  33
ENDBRANCH   3  30
TORSDOF 2
ENDMDL
MODEL       34
REMARK 921   NORMALIZED FREE ENERGY PREDICTED BY IDOCK:   -4.94 KCAL/MOL
REMARK 922        TOTAL FREE ENERGY PREDICTED BY IDOCK:   -5.40 KCAL/MOL
REMARK 923 INTER-LIGAND FREE ENERGY PREDICTED BY IDOCK:   -5.99 KCAL/MOL
REMARK 924 INTRA-LIGAND FREE ENERGY PREDICTED BY IDOCK:    0.58 KCAL/MOL
REMARK 927      BINDING AFFINITY PREDICTED BY RF-SCORE:    0.00 PKD
ROOT
HETATM    1  C   UNL     1      -9.010  10.319  67.886  1.00  0.00    -0.131 C  
HETATM    2  C   UNL     1      -9.030   9.806  69.354  1.00  0.00    -0.197 C  
HETATM    3  C   UNL     1     -10.455   9.331  69.881  1.00  0.00    -0.227 C  
HETATM    4  N   UNL     1     -11.048  10.354  70.739  1.00  0.00    -0.391 N  
HETATM    5  O   UNL     1      -7.618  10.477  67.557  1.00  0.00    -0.092 OA 
HETATM    6  C   UNL     1      -8.334  11.297  65.432  1.00  0.00     0.198 C  
HETATM    7  C   UNL     1     -12.399  10.433  71.070  1.00  0.00    -0.387 C  
HETATM    8  C   UNL     1      -8.345  11.522  66.937  1.00  0.00    -0.166 C  
HETATM    9  H   UNL     1     -10.426  11.064  71.125  1.00  0.00     0.000 HD 
HETATM   10  C   UNL     1     -12.717  11.652  71.922  1.00  0.00    -0.233 C  
HETATM   11  C   UNL     1      -7.836  12.919  67.347  1.00  0.00    -0.170 C  
HETATM   12  O   UNL     1     -13.270   9.705  70.619  1.00  0.00    -0.125 OA 
HETATM   13  C   UNL     1     -12.601  12.833  70.960  1.00  0.00    -0.271 C  
HETATM   14  C   UNL     1      -8.472  14.083  66.514  1.00  0.00     0.273 C  
HETATM   15  C   UNL     1     -12.880  14.280  71.465  1.00  0.00    -0.419 C  
HETATM   16  C   UNL     1     -10.578  16.884  66.240  1.00  0.00    -0.191 C  
HETATM   17  O   UNL     1     -11.289  12.741  70.459  1.00  0.00    -0.267 OA 
HETATM   18  H   UNL     1     -11.217  13.475  69.861  1.00  0.00     0.000 HD 
HETATM   19  C   UNL     1     -12.010  15.432  70.774  1.00  0.00    -0.359 C  
HETATM   20  C   UNL     1     -14.399  14.483  71.212  1.00  0.00    -0.285 C  
HETATM   21  C   UNL     1     -12.690  14.504  72.992  1.00  0.00    -0.491 C  
HETATM   22  C   UNL     1      -8.690  15.459  67.199  1.00  0.00    -0.243 C  
HETATM   23  C   UNL     1     -11.016  15.136  69.612  1.00  0.00    -0.291 C  
HETATM   24  O   UNL     1     -12.099  16.596  71.190  1.00  0.00     0.195 OA 
HETATM   25  H   UNL     1      -9.542  17.959  68.725  1.00  0.00     0.000 HD 
HETATM   26  C   UNL     1     -10.205  15.846  67.309  1.00  0.00    -0.278 C  
HETATM   27  C   UNL     1     -10.704  16.344  68.704  1.00  0.00    -0.317 C  
HETATM   28  C   UNL     1      -9.690  14.527  70.103  1.00  0.00     0.878 C  
HETATM   29  O   UNL     1      -9.735  17.215  69.284  1.00  0.00    -0.182 OA 
ENDROOT
BRANCH   3  30
HETATM   30  C   UNL     1     -10.685   8.025  70.701  1.00  0.00    -0.235 C  
HETATM   31  C   UNL     1     -10.645   6.797  70.105  1.00  0.00    -0.254 C  
HETATM   32  C   UNL     1     -10.497   8.214  72.190  1.00  0.00    -0.352 C  
BRANCH  31  33
HETATM   33  C   UNL     1     -10.113   5.578  70.661  1.00  0.00    -0.223 A  
HETATM   34  C   UNL     1      -9.542   5.487  71.934  1.00  0.00    -0.156 A  
HETATM   35  S   UNL     1      -8.806   3.958  72.138  1.00  0.00    -0.106 SA 
HETATM   36  C   UNL     1      -9.219   3.556  70.515  1.00  0.00    -0.143 A  
HETATM   37  N   UNL     1      -9.870   4.493  69.853  1.00  0.00    -0.218 NA 
HETATM   38  C   UNL     1      -8.807   2.233  69.961  1.00  0.00    -0.134 C  
ENDBRANCH  31  33
ENDBRANCH   3  30
TORSDOF 2
ENDMDL
MODEL       35
REMARK 921   NORMALIZED FREE ENERGY PREDICTED BY IDOCK:   -4.91 KCAL/MOL
REMARK 922        TOTAL FREE ENERGY PREDICTED BY IDOCK:   -5.37 KCAL/MOL
REMARK 923 INTER-LIGAND FREE ENERGY PREDICTED BY IDOCK:   -5.05 KCAL/MOL
REMARK 924 INTRA-LIGAND FREE ENERGY PREDICTED BY IDOCK:   -0.33 KCAL/MOL
REMARK 927      BINDING AFFINITY PREDICTED BY RF-SCORE:    0.00 PKD
ROOT
HETATM    1  C   UNL     1      -6.492  12.620  69.429  1.00  0.00    -0.099 C  
HETATM    2  C   UNL     1      -7.399  11.365  69.568  1.00  0.00     0.077 C  
HETATM    3  C   UNL     1      -7.371  10.375  68.322  1.00  0.00    -0.088 C  
HETATM    4  N   UNL     1      -8.566  10.554  67.501  1.00  0.00    -0.122 N  
HETATM    5  O   UNL     1      -6.499  13.240  70.728  1.00  0.00     0.101 OA 
HETATM    6  C   UNL     1      -5.128  14.955  69.789  1.00  0.00    -0.089 C  
HETATM    7  C   UNL     1      -8.698  10.129  66.180  1.00  0.00    -0.142 C  
HETATM    8  C   UNL     1      -6.482  14.260  69.747  1.00  0.00    -0.142 C  
HETATM    9  H   UNL     1      -9.363  11.027  67.926  1.00  0.00     0.000 HD 
HETATM   10  C   UNL     1     -10.036  10.525  65.574  1.00  0.00    -0.342 C  
HETATM   11  C   UNL     1      -7.670  15.234  69.887  1.00  0.00     0.030 C  
HETATM   12  O   UNL     1      -7.804   9.626  65.518  1.00  0.00    -0.106 OA 
HETATM   13  C   UNL     1      -9.929  12.036  65.367  1.00  0.00    -0.253 C  
HETATM   14  C   UNL     1      -7.558  16.491  68.958  1.00  0.00    -0.233 C  
HETATM   15  C   UNL     1     -11.117  12.821  64.734  1.00  0.00    -0.333 C  
HETATM   16  C   UNL     1      -8.623  18.391  66.199  1.00  0.00    -0.136 C  
HETATM   17  O   UNL     1      -9.646  12.540  66.649  1.00  0.00    -0.227 OA 
HETATM   18  H   UNL     1      -9.579  13.479  66.520  1.00  0.00     0.000 HD 
HETATM   19  C   UNL     1     -11.316  14.317  65.267  1.00  0.00    -0.336 C  
HETATM   20  C   UNL     1     -10.819  12.793  63.210  1.00  0.00     0.048 C  
HETATM   21  C   UNL     1     -12.514  12.157  64.886  1.00  0.00    -0.185 C  
HETATM   22  C   UNL     1      -8.861  17.130  68.407  1.00  0.00    -0.255 C  
HETATM   23  C   UNL     1     -10.336  14.973  66.283  1.00  0.00    -0.304 C  
HETATM   24  O   UNL     1     -12.297  14.973  64.889  1.00  0.00    -0.234 OA 
HETATM   25  H   UNL     1     -11.395  18.028  66.967  1.00  0.00     0.000 HD 
HETATM   26  C   UNL     1      -8.963  17.039  66.845  1.00  0.00    -0.248 C  
HETATM   27  C   UNL     1     -10.314  16.515  66.258  1.00  0.00    -0.320 C  
HETATM   28  C   UNL     1     -10.573  14.502  67.730  1.00  0.00    -0.250 C  
HETATM   29  O   UNL     1     -11.408  17.079  66.982  1.00  0.00     0.264 OA 
ENDROOT
BRANCH   3  30
HETATM   30  C   UNL     1      -7.276   8.824  68.449  1.00  0.00    -0.081 C  
HETATM   31  C   UNL     1      -8.396   8.055  68.598  1.00  0.00    -0.127 C  
HETATM   32  C   UNL     1      -5.964   8.262  67.950  1.00  0.00    -0.047 C  
BRANCH  31  33
HETATM   33  C   UNL     1      -8.637   6.752  68.031  1.00  0.00    -0.122 A  
HETATM   34  C   UNL     1      -8.961   6.536  66.688  1.00  0.00    -0.138 A  
HETATM   35  S   UNL     1      -9.417   4.906  66.451  1.00  0.00    -0.171 SA 
HETATM   36  C   UNL     1      -9.235   4.622  68.140  1.00  0.00    -0.128 A  
HETATM   37  N   UNL     1      -8.853   5.668  68.847  1.00  0.00    -0.109 NA 
HETATM   38  C   UNL     1      -9.536   3.268  68.691  1.00  0.00    -0.200 C  
ENDBRANCH  31  33
ENDBRANCH   3  30
TORSDOF 2
ENDMDL
MODEL       36
REMARK 921   NORMALIZED FREE ENERGY PREDICTED BY IDOCK:   -4.89 KCAL/MOL
REMARK 922        TOTAL FREE ENERGY PREDICTED BY IDOCK:   -5.35 KCAL/MOL
REMARK 923 INTER-LIGAND FREE ENERGY PREDICTED BY IDOCK:   -5.01 KCAL/MOL
REMARK 924 INTRA-LIGAND FREE ENERGY PREDICTED BY IDOCK:   -0.34 KCAL/MOL
REMARK 927      BINDING AFFINITY PREDICTED BY RF-SCORE:    0.00 PKD
ROOT
HETATM    1  C   UNL     1     -10.970  11.559  70.323  1.00  0.00     0.612 C  
HETATM    2  C   UNL     1     -10.975  10.006  70.251  1.00  0.00    -0.377 C  
HETATM    3  C   UNL     1      -9.535   9.329  70.237  1.00  0.00    -0.238 C  
HETATM    4  N   UNL     1      -9.181   8.910  68.883  1.00  0.00    -0.140 N  
HETATM    5  O   UNL     1     -12.341  11.934  70.547  1.00  0.00    -0.330 OA 
HETATM    6  C   UNL     1     -11.613  14.206  70.448  1.00  0.00    -0.236 C  
HETATM    7  C   UNL     1      -7.888   8.622  68.449  1.00  0.00    -0.105 C  
HETATM    8  C   UNL     1     -11.751  12.894  69.690  1.00  0.00    -0.299 C  
HETATM    9  H   UNL     1      -9.937   8.822  68.204  1.00  0.00     0.000 HD 
HETATM   10  C   UNL     1      -7.837   8.283  66.967  1.00  0.00    -0.096 C  
HETATM   11  C   UNL     1     -12.509  13.038  68.355  1.00  0.00     0.438 C  
HETATM   12  O   UNL     1      -6.880   8.762  69.123  1.00  0.00    -0.053 OA 
HETATM   13  C   UNL     1      -8.073   9.618  66.261  1.00  0.00    -0.112 C  
HETATM   14  C   UNL     1     -12.011  14.240  67.482  1.00  0.00    -0.411 C  
HETATM   15  C   UNL     1      -8.071   9.687  64.704  1.00  0.00    -0.141 C  
HETATM   16  C   UNL     1     -10.375  15.524  64.648  1.00  0.00     0.190 C  
HETATM   17  O   UNL     1      -9.311  10.058  66.762  1.00  0.00    -0.154 OA 
HETATM   18  H   UNL     1      -9.458  10.887  66.323  1.00  0.00     0.000 HD 
HETATM   19  C   UNL     1      -9.064  10.764  64.061  1.00  0.00    -0.197 C  
HETATM   20  C   UNL     1      -6.591   9.985  64.341  1.00  0.00    -0.130 C  
HETATM   21  C   UNL     1      -8.406   8.355  63.975  1.00  0.00    -0.068 C  
HETATM   22  C   UNL     1     -12.072  14.116  65.936  1.00  0.00    -0.441 C  
HETATM   23  C   UNL     1      -9.907  11.740  64.933  1.00  0.00    -0.251 C  
HETATM   24  O   UNL     1      -9.196  10.812  62.829  1.00  0.00    -0.258 OA 
HETATM   25  H   UNL     1     -11.752  13.627  62.942  1.00  0.00     0.000 HD 
HETATM   26  C   UNL     1     -10.652  14.148  65.272  1.00  0.00    -0.387 C  
HETATM   27  C   UNL     1     -10.344  13.035  64.218  1.00  0.00    -0.362 C  
HETATM   28  C   UNL     1     -11.150  11.068  65.547  1.00  0.00     0.001 C  
HETATM   29  O   UNL     1     -11.483  12.829  63.383  1.00  0.00    -0.490 OA 
ENDROOT
BRANCH   3  30
HETATM   30  C   UNL     1      -9.156   8.079  71.089  1.00  0.00    -0.172 C  
HETATM   31  C   UNL     1      -9.473   6.816  70.675  1.00  0.00    -0.171 C  
HETATM   32  C   UNL     1      -8.068   8.354  72.103  1.00  0.00    -0.192 C  
BRANCH  31  33
HETATM   33  C   UNL     1      -8.678   5.624  70.833  1.00  0.00    -0.133 A  
HETATM   34  C   UNL     1      -8.676   4.838  71.989  1.00  0.00    -0.124 A  
HETATM   35  S   UNL     1      -7.434   3.668  71.899  1.00  0.00    -0.057 SA 
HETATM   36  C   UNL     1      -6.938   4.328  70.387  1.00  0.00    -0.037 A  
HETATM   37  N   UNL     1      -7.649   5.355  69.963  1.00  0.00    -0.068 NA 
HETATM   38  C   UNL     1      -5.759   3.743  69.684  1.00  0.00    -0.018 C  
ENDBRANCH  31  33
ENDBRANCH   3  30
TORSDOF 2
ENDMDL
MODEL       37
REMARK 921   NORMALIZED FREE ENERGY PREDICTED BY IDOCK:   -4.88 KCAL/MOL
REMARK 922        TOTAL FREE ENERGY PREDICTED BY IDOCK:   -5.34 KCAL/MOL
REMARK 923 INTER-LIGAND FREE ENERGY PREDICTED BY IDOCK:   -5.16 KCAL/MOL
REMARK 924 INTRA-LIGAND FREE ENERGY PREDICTED BY IDOCK:   -0.18 KCAL/MOL
REMARK 927      BINDING AFFINITY PREDICTED BY RF-SCORE:    0.00 PKD
ROOT
HETATM    1  C   UNL     1      -9.129   9.582  69.597  1.00  0.00    -0.196 C  
HETATM    2  C   UNL     1      -8.083  10.542  68.965  1.00  0.00    -0.143 C  
HETATM    3  C   UNL     1      -8.533  11.223  67.599  1.00  0.00    -0.124 C  
HETATM    4  N   UNL     1      -7.896  10.559  66.464  1.00  0.00    -0.127 N  
HETATM    5  O   UNL     1      -8.616   9.266  70.904  1.00  0.00    -0.207 OA 
HETATM    6  C   UNL     1     -10.508   7.834  71.173  1.00  0.00    -0.227 C  
HETATM    7  C   UNL     1      -8.327  10.649  65.142  1.00  0.00    -0.117 C  
HETATM    8  C   UNL     1      -9.239   8.109  70.378  1.00  0.00    -0.151 C  
HETATM    9  H   UNL     1      -7.074   9.985  66.654  1.00  0.00     0.000 HD 
HETATM   10  C   UNL     1      -7.499   9.786  64.202  1.00  0.00    -0.135 C  
HETATM   11  C   UNL     1      -8.284   6.900  70.318  1.00  0.00    -0.129 C  
HETATM   12  O   UNL     1      -9.338  11.228  64.777  1.00  0.00    -0.210 OA 
HETATM   13  C   UNL     1      -7.917   8.353  64.530  1.00  0.00    -0.146 C  
HETATM   14  C   UNL     1      -9.002   5.557  69.949  1.00  0.00    -0.144 C  
HETATM   15  C   UNL     1      -7.291   7.161  63.746  1.00  0.00    -0.089 C  
HETATM   16  C   UNL     1      -9.635   2.910  67.724  1.00  0.00    -0.077 C  
HETATM   17  O   UNL     1      -7.647   8.222  65.904  1.00  0.00    -0.079 OA 
HETATM   18  H   UNL     1      -7.907   7.332  66.108  1.00  0.00     0.000 HD 
HETATM   19  C   UNL     1      -7.096   5.811  64.584  1.00  0.00    -0.057 C  
HETATM   20  C   UNL     1      -8.251   6.952  62.543  1.00  0.00    -0.035 C  
HETATM   21  C   UNL     1      -5.899   7.435  63.110  1.00  0.00    -0.049 C  
HETATM   22  C   UNL     1      -8.216   4.487  69.144  1.00  0.00    -0.082 C  
HETATM   23  C   UNL     1      -7.583   5.672  66.057  1.00  0.00    -0.087 C  
HETATM   24  O   UNL     1      -6.514   4.849  64.064  1.00  0.00    -0.035 OA 
HETATM   25  H   UNL     1      -6.803   2.654  67.157  1.00  0.00     0.000 HD 
HETATM   26  C   UNL     1      -8.835   4.221  67.728  1.00  0.00    -0.126 C  
HETATM   27  C   UNL     1      -7.846   4.224  66.517  1.00  0.00    -0.098 C  
HETATM   28  C   UNL     1      -6.635   6.350  67.064  1.00  0.00    -0.058 C  
HETATM   29  O   UNL     1      -6.641   3.546  66.873  1.00  0.00    -0.040 OA 
ENDROOT
BRANCH   3  30
HETATM   30  C   UNL     1      -8.322  12.732  67.270  1.00  0.00    -0.187 C  
HETATM   31  C   UNL     1      -9.377  13.548  66.973  1.00  0.00    -0.247 C  
HETATM   32  C   UNL     1      -6.989  13.266  67.745  1.00  0.00    -0.154 C  
BRANCH  31  33
HETATM   33  C   UNL     1      -9.542  14.929  67.351  1.00  0.00    -0.206 A  
HETATM   34  C   UNL     1     -10.618  15.406  68.105  1.00  0.00    -0.263 A  
HETATM   35  S   UNL     1     -10.599  17.115  68.135  1.00  0.00    -0.372 SA 
HETATM   36  C   UNL     1      -9.229  17.107  67.092  1.00  0.00    -0.236 A  
HETATM   37  N   UNL     1      -8.799  15.910  66.740  1.00  0.00    -0.236 NA 
HETATM   38  C   UNL     1      -8.645  18.403  66.640  1.00  0.00    -0.289 C  
ENDBRANCH  31  33
ENDBRANCH   3  30
TORSDOF 2
ENDMDL
MODEL       38
REMARK 921   NORMALIZED FREE ENERGY PREDICTED BY IDOCK:   -4.83 KCAL/MOL
REMARK 922        TOTAL FREE ENERGY PREDICTED BY IDOCK:   -5.28 KCAL/MOL
REMARK 923 INTER-LIGAND FREE ENERGY PREDICTED BY IDOCK:   -5.01 KCAL/MOL
REMARK 924 INTRA-LIGAND FREE ENERGY PREDICTED BY IDOCK:   -0.27 KCAL/MOL
REMARK 927      BINDING AFFINITY PREDICTED BY RF-SCORE:    0.00 PKD
ROOT
HETATM    1  C   UNL     1      -7.756   7.825  65.424  1.00  0.00    -0.106 C  
HETATM    2  C   UNL     1      -7.091   7.966  66.822  1.00  0.00    -0.077 C  
HETATM    3  C   UNL     1      -7.882   7.269  68.015  1.00  0.00    -0.118 C  
HETATM    4  N   UNL     1      -8.611   8.267  68.795  1.00  0.00    -0.132 N  
HETATM    5  O   UNL     1      -6.781   8.320  64.488  1.00  0.00    -0.067 OA 
HETATM    6  C   UNL     1      -8.395   7.919  62.774  1.00  0.00    -0.026 C  
HETATM    7  C   UNL     1      -9.666   7.988  69.661  1.00  0.00    -0.169 C  
HETATM    8  C   UNL     1      -8.067   8.703  64.037  1.00  0.00    -0.163 C  
HETATM    9  H   UNL     1      -8.326   9.242  68.697  1.00  0.00     0.000 HD 
HETATM   10  C   UNL     1     -10.263   9.247  70.271  1.00  0.00    -0.270 C  
HETATM   11  C   UNL     1      -8.199  10.229  63.858  1.00  0.00    -0.152 C  
HETATM   12  O   UNL     1     -10.167   6.886  69.816  1.00  0.00    -0.188 OA 
HETATM   13  C   UNL     1     -11.021   9.907  69.120  1.00  0.00    -0.200 C  
HETATM   14  C   UNL     1      -9.531  10.661  63.155  1.00  0.00    -0.360 C  
HETATM   15  C   UNL     1     -11.799  11.236  69.360  1.00  0.00    -0.424 C  
HETATM   16  C   UNL     1     -12.700  12.183  63.222  1.00  0.00    -0.417 C  
HETATM   17  O   UNL     1     -10.042  10.094  68.127  1.00  0.00    -0.145 OA 
HETATM   18  H   UNL     1     -10.513  10.505  67.411  1.00  0.00     0.000 HD 
HETATM   19  C   UNL     1     -11.841  12.245  68.118  1.00  0.00    -0.311 C  
HETATM   20  C   UNL     1     -13.225  10.771  69.766  1.00  0.00     0.712 C  
HETATM   21  C   UNL     1     -11.299  12.098  70.554  1.00  0.00     0.704 C  
HETATM   22  C   UNL     1     -10.171  12.022  63.540  1.00  0.00    -0.477 C  
HETATM   23  C   UNL     1     -11.222  11.884  66.736  1.00  0.00    -0.384 C  
HETATM   24  O   UNL     1     -12.352  13.364  68.260  1.00  0.00    -0.187 OA 
HETATM   25  H   UNL     1     -11.628  14.444  64.685  1.00  0.00     0.000 HD 
HETATM   26  C   UNL     1     -11.575  11.859  64.218  1.00  0.00    -0.405 C  
HETATM   27  C   UNL     1     -11.815  12.657  65.540  1.00  0.00    -0.431 C  
HETATM   28  C   UNL     1      -9.689  12.031  66.712  1.00  0.00    -0.218 C  
HETATM   29  O   UNL     1     -11.263  13.968  65.422  1.00  0.00    -0.306 OA 
ENDROOT
BRANCH   3  30
HETATM   30  C   UNL     1      -7.200   6.407  69.121  1.00  0.00    -0.090 C  
HETATM   31  C   UNL     1      -6.769   6.965  70.291  1.00  0.00    -0.052 C  
HETATM   32  C   UNL     1      -7.475   4.927  68.979  1.00  0.00    -0.061 C  
BRANCH  31  33
HETATM   33  C   UNL     1      -6.820   6.377  71.606  1.00  0.00    -0.067 A  
HETATM   34  C   UNL     1      -5.805   5.581  72.142  1.00  0.00    -0.029 A  
HETATM   35  S   UNL     1      -6.331   4.868  73.604  1.00  0.00    -0.061 SA 
HETATM   36  C   UNL     1      -7.879   5.590  73.385  1.00  0.00    -0.107 A  
HETATM   37  N   UNL     1      -8.007   6.324  72.297  1.00  0.00    -0.104 NA 
HETATM   38  C   UNL     1      -8.956   5.331  74.385  1.00  0.00    -0.117 C  
ENDBRANCH  31  33
ENDBRANCH   3  30
TORSDOF 2
ENDMDL
MODEL       39
REMARK 921   NORMALIZED FREE ENERGY PREDICTED BY IDOCK:   -4.82 KCAL/MOL
REMARK 922        TOTAL FREE ENERGY PREDICTED BY IDOCK:   -5.27 KCAL/MOL
REMARK 923 INTER-LIGAND FREE ENERGY PREDICTED BY IDOCK:   -5.54 KCAL/MOL
REMARK 924 INTRA-LIGAND FREE ENERGY PREDICTED BY IDOCK:    0.27 KCAL/MOL
REMARK 927      BINDING AFFINITY PREDICTED BY RF-SCORE:    0.00 PKD
ROOT
HETATM    1  C   UNL     1      -8.692  11.332  64.207  1.00  0.00     0.300 C  
HETATM    2  C   UNL     1      -9.983  11.672  65.003  1.00  0.00    -0.297 C  
HETATM    3  C   UNL     1      -9.739  12.198  66.485  1.00  0.00    -0.223 C  
HETATM    4  N   UNL     1     -10.000  11.135  67.453  1.00  0.00    -0.177 N  
HETATM    5  O   UNL     1      -9.129  11.099  62.855  1.00  0.00    -0.291 OA 
HETATM    6  C   UNL     1      -6.855  10.591  62.331  1.00  0.00    -0.146 C  
HETATM    7  C   UNL     1      -9.552  11.130  68.772  1.00  0.00    -0.172 C  
HETATM    8  C   UNL     1      -8.079  10.195  63.146  1.00  0.00    -0.158 C  
HETATM    9  H   UNL     1     -10.551  10.336  67.139  1.00  0.00     0.000 HD 
HETATM   10  C   UNL     1      -9.926   9.851  69.506  1.00  0.00    -0.240 C  
HETATM   11  C   UNL     1      -8.493   8.724  62.946  1.00  0.00    -0.154 C  
HETATM   12  O   UNL     1      -8.818  11.973  69.262  1.00  0.00     0.426 OA 
HETATM   13  C   UNL     1      -9.015   8.783  68.903  1.00  0.00    -0.134 C  
HETATM   14  C   UNL     1      -7.295   7.719  63.048  1.00  0.00    -0.100 C  
HETATM   15  C   UNL     1      -9.086   7.315  69.420  1.00  0.00    -0.142 C  
HETATM   16  C   UNL     1      -5.558   5.150  64.703  1.00  0.00    -0.017 C  
HETATM   17  O   UNL     1      -9.301   8.824  67.526  1.00  0.00    -0.135 OA 
HETATM   18  H   UNL     1      -8.735   8.160  67.151  1.00  0.00     0.000 HD 
HETATM   19  C   UNL     1      -8.804   6.183  68.324  1.00  0.00    -0.112 C  
HETATM   20  C   UNL     1      -8.044   7.268  70.571  1.00  0.00    -0.109 C  
HETATM   21  C   UNL     1     -10.434   6.902  70.077  1.00  0.00    -0.231 C  
HETATM   22  C   UNL     1      -7.560   6.296  63.608  1.00  0.00    -0.090 C  
HETATM   23  C   UNL     1      -8.397   6.528  66.861  1.00  0.00    -0.113 C  
HETATM   24  O   UNL     1      -8.941   4.990  68.631  1.00  0.00    -0.103 OA 
HETATM   25  H   UNL     1      -8.034   3.715  65.164  1.00  0.00     0.000 HD 
HETATM   26  C   UNL     1      -6.797   6.024  64.951  1.00  0.00    -0.047 C  
HETATM   27  C   UNL     1      -7.631   5.412  66.122  1.00  0.00    -0.087 C  
HETATM   28  C   UNL     1      -9.595   6.966  65.997  1.00  0.00     0.093 C  
HETATM   29  O   UNL     1      -8.506   4.403  65.619  1.00  0.00    -0.113 OA 
ENDROOT
BRANCH   3  30
HETATM   30  C   UNL     1     -10.489  13.415  67.108  1.00  0.00    -0.249 C  
HETATM   31  C   UNL     1     -11.679  13.257  67.761  1.00  0.00    -0.398 C  
HETATM   32  C   UNL     1      -9.601  14.621  67.316  1.00  0.00    -0.221 C  
BRANCH  31  33
HETATM   33  C   UNL     1     -12.126  13.962  68.935  1.00  0.00    -0.319 A  
HETATM   34  C   UNL     1     -11.827  15.302  69.199  1.00  0.00    -0.321 A  
HETATM   35  S   UNL     1     -12.312  15.707  70.787  1.00  0.00    -0.398 SA 
HETATM   36  C   UNL     1     -12.805  14.077  71.041  1.00  0.00    -0.340 A  
HETATM   37  N   UNL     1     -12.629  13.271  70.011  1.00  0.00    -0.078 NA 
HETATM   38  C   UNL     1     -13.355  13.676  72.369  1.00  0.00    -0.641 C  
ENDBRANCH  31  33
ENDBRANCH   3  30
TORSDOF 2
ENDMDL
MODEL       40
REMARK 921   NORMALIZED FREE ENERGY PREDICTED BY IDOCK:   -4.63 KCAL/MOL
REMARK 922        TOTAL FREE ENERGY PREDICTED BY IDOCK:   -5.05 KCAL/MOL
REMARK 923 INTER-LIGAND FREE ENERGY PREDICTED BY IDOCK:   -5.01 KCAL/MOL
REMARK 924 INTRA-LIGAND FREE ENERGY PREDICTED BY IDOCK:   -0.05 KCAL/MOL
REMARK 927      BINDING AFFINITY PREDICTED BY RF-SCORE:    0.00 PKD
ROOT
HETATM    1  C   UNL     1      -6.774  12.107  69.693  1.00  0.00     0.035 C  
HETATM    2  C   UNL     1      -6.617  13.409  68.860  1.00  0.00    -0.107 C  
HETATM    3  C   UNL     1      -7.969  14.207  68.598  1.00  0.00    -0.132 C  
HETATM    4  N   UNL     1      -8.447  13.967  67.238  1.00  0.00    -0.200 N  
HETATM    5  O   UNL     1      -5.431  11.682  69.992  1.00  0.00    -0.075 OA 
HETATM    6  C   UNL     1      -6.397   9.788  71.079  1.00  0.00    -0.038 C  
HETATM    7  C   UNL     1      -9.748  14.202  66.797  1.00  0.00    -0.277 C  
HETATM    8  C   UNL     1      -6.222  10.531  69.762  1.00  0.00    -0.074 C  
HETATM    9  H   UNL     1      -7.779  13.598  66.562  1.00  0.00     0.000 HD 
HETATM   10  C   UNL     1      -9.953  13.785  65.348  1.00  0.00    -0.254 C  
HETATM   11  C   UNL     1      -5.660   9.645  68.632  1.00  0.00    -0.036 C  
HETATM   12  O   UNL     1     -10.671  14.562  67.510  1.00  0.00    -0.269 OA 
HETATM   13  C   UNL     1      -9.948  12.257  65.386  1.00  0.00    -0.244 C  
HETATM   14  C   UNL     1      -6.387   8.263  68.505  1.00  0.00    -0.054 C  
HETATM   15  C   UNL     1     -10.156  11.445  64.072  1.00  0.00    -0.369 C  
HETATM   16  C   UNL     1      -8.495   6.036  66.786  1.00  0.00    -0.110 C  
HETATM   17  O   UNL     1      -8.708  11.931  65.964  1.00  0.00    -0.383 OA 
HETATM   18  H   UNL     1      -8.705  10.982  65.988  1.00  0.00     0.000 HD 
HETATM   19  C   UNL     1      -9.370  10.053  63.991  1.00  0.00    -0.270 C  
HETATM   20  C   UNL     1     -11.693  11.238  63.995  1.00  0.00     0.176 C  
HETATM   21  C   UNL     1      -9.780  12.189  62.760  1.00  0.00     0.773 C  
HETATM   22  C   UNL     1      -6.511   7.612  67.100  1.00  0.00    -0.055 C  
HETATM   23  C   UNL     1      -8.528   9.505  65.180  1.00  0.00    -0.160 C  
HETATM   24  O   UNL     1      -9.402   9.396  62.941  1.00  0.00    -0.089 OA 
HETATM   25  H   UNL     1      -7.158   6.634  64.284  1.00  0.00     0.000 HD 
HETATM   26  C   UNL     1      -8.000   7.481  66.626  1.00  0.00    -0.110 C  
HETATM   27  C   UNL     1      -8.322   7.977  65.179  1.00  0.00    -0.130 C  
HETATM   28  C   UNL     1      -7.155  10.192  65.304  1.00  0.00    -0.137 C  
HETATM   29  O   UNL     1      -7.284   7.576  64.286  1.00  0.00    -0.069 OA 
ENDROOT
BRANCH   3  30
HETATM   30  C   UNL     1      -8.105  15.754  68.736  1.00  0.00    -0.179 C  
HETATM   31  C   UNL     1      -7.473  16.602  67.872  1.00  0.00    -0.169 C  
HETATM   32  C   UNL     1      -9.296  16.177  69.566  1.00  0.00    -0.096 C  
BRANCH  31  33
HETATM   33  C   UNL     1      -7.976  17.849  67.353  1.00  0.00    -0.213 A  
HETATM   34  C   UNL     1      -7.484  19.102  67.728  1.00  0.00    -0.254 A  
HETATM   35  S   UNL     1      -8.488  20.336  67.102  1.00  0.00    -0.318 SA 
HETATM   36  C   UNL     1      -9.539  19.136  66.454  1.00  0.00    -0.361 A  
HETATM   37  N   UNL     1      -9.173  17.888  66.679  1.00  0.00    -0.271 NA 
HETATM   38  C   UNL     1     -10.773  19.557  65.729  1.00  0.00    -0.490 C  
ENDBRANCH  31  33
ENDBRANCH   3  30
TORSDOF 2
ENDMDL
MODEL       41
REMARK 921   NORMALIZED FREE ENERGY PREDICTED BY IDOCK:   -4.57 KCAL/MOL
REMARK 922        TOTAL FREE ENERGY PREDICTED BY IDOCK:   -4.99 KCAL/MOL
REMARK 923 INTER-LIGAND FREE ENERGY PREDICTED BY IDOCK:   -4.76 KCAL/MOL
REMARK 924 INTRA-LIGAND FREE ENERGY PREDICTED BY IDOCK:   -0.23 KCAL/MOL
REMARK 927      BINDING AFFINITY PREDICTED BY RF-SCORE:    0.00 PKD
ROOT
HETATM    1  C   UNL     1      -6.131  12.135  67.582  1.00  0.00    -0.110 C  
HETATM    2  C   UNL     1      -6.695  10.720  67.275  1.00  0.00    -0.080 C  
HETATM    3  C   UNL     1      -6.827  10.370  65.728  1.00  0.00    -0.132 C  
HETATM    4  N   UNL     1      -8.217  10.491  65.294  1.00  0.00    -0.189 N  
HETATM    5  O   UNL     1      -5.892  12.150  69.001  1.00  0.00    -0.059 OA 
HETATM    6  C   UNL     1      -5.210  14.425  68.744  1.00  0.00    -0.089 C  
HETATM    7  C   UNL     1      -8.632  10.611  63.969  1.00  0.00    -0.098 C  
HETATM    8  C   UNL     1      -6.355  13.431  68.614  1.00  0.00    -0.091 C  
HETATM    9  H   UNL     1      -8.938  10.488  66.016  1.00  0.00     0.000 HD 
HETATM   10  C   UNL     1     -10.138  10.791  63.848  1.00  0.00    -0.397 C  
HETATM   11  C   UNL     1      -7.623  13.857  69.382  1.00  0.00     0.245 C  
HETATM   12  O   UNL     1      -7.882  10.711  63.011  1.00  0.00    -0.122 OA 
HETATM   13  C   UNL     1     -10.394  12.213  64.345  1.00  0.00    -0.319 C  
HETATM   14  C   UNL     1      -8.029  15.350  69.134  1.00  0.00    -0.222 C  
HETATM   15  C   UNL     1     -11.844  12.785  64.354  1.00  0.00    -0.446 C  
HETATM   16  C   UNL     1     -10.187  17.774  67.783  1.00  0.00    -0.362 C  
HETATM   17  O   UNL     1      -9.864  12.222  65.648  1.00  0.00    -0.250 OA 
HETATM   18  H   UNL     1     -10.024  13.106  65.958  1.00  0.00     0.000 HD 
HETATM   19  C   UNL     1     -12.174  13.806  65.542  1.00  0.00    -0.442 C  
HETATM   20  C   UNL     1     -11.992  13.461  62.963  1.00  0.00     0.199 C  
HETATM   21  C   UNL     1     -12.981  11.727  64.414  1.00  0.00     0.390 C  
HETATM   22  C   UNL     1      -9.534  15.728  69.166  1.00  0.00    -0.255 C  
HETATM   23  C   UNL     1     -11.096  14.265  66.566  1.00  0.00    -0.323 C  
HETATM   24  O   UNL     1     -13.332  14.227  65.678  1.00  0.00    -0.529 OA 
HETATM   25  H   UNL     1     -12.499  16.313  68.748  1.00  0.00     0.000 HD 
HETATM   26  C   UNL     1     -10.056  16.243  67.779  1.00  0.00    -0.252 C  
HETATM   27  C   UNL     1     -11.387  15.615  67.252  1.00  0.00    -0.122 C  
HETATM   28  C   UNL     1     -10.814  13.207  67.649  1.00  0.00    -0.269 C  
HETATM   29  O   UNL     1     -12.319  15.482  68.325  1.00  0.00     0.116 OA 
ENDROOT
BRANCH   3  30
HETATM   30  C   UNL     1      -6.396   9.006  65.108  1.00  0.00    -0.061 C  
HETATM   31  C   UNL     1      -7.158   7.883  65.266  1.00  0.00    -0.060 C  
HETATM   32  C   UNL     1      -5.377   9.149  64.000  1.00  0.00    -0.060 C  
BRANCH  31  33
HETATM   33  C   UNL     1      -7.383   6.841  64.295  1.00  0.00    -0.088 A  
HETATM   34  C   UNL     1      -8.098   7.025  63.108  1.00  0.00    -0.007 A  
HETATM   35  S   UNL     1      -8.366   5.519  62.347  1.00  0.00    -0.097 SA 
HETATM   36  C   UNL     1      -7.596   4.727  63.668  1.00  0.00    -0.064 A  
HETATM   37  N   UNL     1      -7.156   5.526  64.622  1.00  0.00    -0.052 NA 
HETATM   38  C   UNL     1      -7.498   3.238  63.673  1.00  0.00    -0.062 C  
ENDBRANCH  31  33
ENDBRANCH   3  30
TORSDOF 2
ENDMDL
MODEL       42
REMARK 921   NORMALIZED FREE ENERGY PREDICTED BY IDOCK:   -4.57 KCAL/MOL
REMARK 922        TOTAL FREE ENERGY PREDICTED BY IDOCK:   -4.99 KCAL/MOL
REMARK 923 INTER-LIGAND FREE ENERGY PREDICTED BY IDOCK:   -4.87 KCAL/MOL
REMARK 924 INTRA-LIGAND FREE ENERGY PREDICTED BY IDOCK:   -0.13 KCAL/MOL
REMARK 927      BINDING AFFINITY PREDICTED BY RF-SCORE:    0.00 PKD
ROOT
HETATM    1  C   UNL     1     -11.077   7.892  70.100  1.00  0.00    -0.201 C  
HETATM    2  C   UNL     1      -9.723   8.456  69.584  1.00  0.00    -0.173 C  
HETATM    3  C   UNL     1      -9.305   7.970  68.127  1.00  0.00    -0.139 C  
HETATM    4  N   UNL     1      -8.287   6.926  68.209  1.00  0.00    -0.122 N  
HETATM    5  O   UNL     1     -11.357   8.622  71.309  1.00  0.00    -0.255 OA 
HETATM    6  C   UNL     1     -13.312   7.270  71.533  1.00  0.00    -0.435 C  
HETATM    7  C   UNL     1      -7.964   6.043  67.181  1.00  0.00    -0.102 C  
HETATM    8  C   UNL     1     -11.791   7.286  71.484  1.00  0.00    -0.304 C  
HETATM    9  H   UNL     1      -7.775   6.836  69.087  1.00  0.00     0.000 HD 
HETATM   10  C   UNL     1      -6.914   5.026  67.599  1.00  0.00    -0.061 C  
HETATM   11  C   UNL     1     -11.135   6.606  72.702  1.00  0.00    -0.291 C  
HETATM   12  O   UNL     1      -8.546   5.979  66.110  1.00  0.00    -0.131 OA 
HETATM   13  C   UNL     1      -7.651   4.082  68.549  1.00  0.00    -0.058 C  
HETATM   14  C   UNL     1     -11.757   5.210  73.047  1.00  0.00    -0.231 C  
HETATM   15  C   UNL     1      -6.902   2.872  69.182  1.00  0.00    -0.037 C  
HETATM   16  C   UNL     1     -11.558   1.705  73.225  1.00  0.00    -0.249 C  
HETATM   17  O   UNL     1      -8.144   4.928  69.559  1.00  0.00    -0.073 OA 
HETATM   18  H   UNL     1      -8.603   4.342  70.149  1.00  0.00     0.000 HD 
HETATM   19  C   UNL     1      -7.369   2.469  70.659  1.00  0.00    -0.033 C  
HETATM   20  C   UNL     1      -7.133   1.714  68.174  1.00  0.00    -0.039 C  
HETATM   21  C   UNL     1      -5.357   3.020  69.282  1.00  0.00    -0.012 C  
HETATM   22  C   UNL     1     -10.843   4.116  73.662  1.00  0.00    -0.346 C  
HETATM   23  C   UNL     1      -8.553   3.180  71.378  1.00  0.00    -0.104 C  
HETATM   24  O   UNL     1      -6.755   1.583  71.271  1.00  0.00    -0.022 OA 
HETATM   25  H   UNL     1      -8.910   1.872  74.393  1.00  0.00     0.000 HD 
HETATM   26  C   UNL     1     -10.685   2.867  72.728  1.00  0.00    -0.122 C  
HETATM   27  C   UNL     1      -9.230   2.349  72.487  1.00  0.00    -0.080 C  
HETATM   28  C   UNL     1      -8.162   4.554  71.954  1.00  0.00    -0.104 C  
HETATM   29  O   UNL     1      -8.493   2.384  73.709  1.00  0.00    -0.062 OA 
ENDROOT
BRANCH   3  30
HETATM   30  C   UNL     1      -8.731   8.917  67.029  1.00  0.00    -0.130 C  
HETATM   31  C   UNL     1      -7.414   9.282  67.025  1.00  0.00    -0.091 C  
HETATM   32  C   UNL     1      -9.602   8.999  65.795  1.00  0.00    -0.287 C  
BRANCH  31  33
HETATM   33  C   UNL     1      -6.567   9.467  65.874  1.00  0.00    -0.078 A  
HETATM   34  C   UNL     1      -5.894  10.659  65.586  1.00  0.00    -0.133 A  
HETATM   35  S   UNL     1      -5.202  10.577  64.026  1.00  0.00    -0.147 SA 
HETATM   36  C   UNL     1      -5.902   9.019  63.809  1.00  0.00    -0.072 A  
HETATM   37  N   UNL     1      -6.606   8.573  64.831  1.00  0.00    -0.067 NA 
HETATM   38  C   UNL     1      -5.704   8.301  62.516  1.00  0.00    -0.075 C  
ENDBRANCH  31  33
ENDBRANCH   3  30
TORSDOF 2
ENDMDL
MODEL       43
REMARK 921   NORMALIZED FREE ENERGY PREDICTED BY IDOCK:   -4.56 KCAL/MOL
REMARK 922        TOTAL FREE ENERGY PREDICTED BY IDOCK:   -4.98 KCAL/MOL
REMARK 923 INTER-LIGAND FREE ENERGY PREDICTED BY IDOCK:   -4.52 KCAL/MOL
REMARK 924 INTRA-LIGAND FREE ENERGY PREDICTED BY IDOCK:   -0.46 KCAL/MOL
REMARK 927      BINDING AFFINITY PREDICTED BY RF-SCORE:    0.00 PKD
ROOT
HETATM    1  C   UNL     1     -10.637  10.162  70.548  1.00  0.00    -0.175 C  
HETATM    2  C   UNL     1      -9.557   9.615  69.573  1.00  0.00    -0.211 C  
HETATM    3  C   UNL     1      -8.081   9.565  70.166  1.00  0.00    -0.174 C  
HETATM    4  N   UNL     1      -7.288  10.680  69.654  1.00  0.00    -0.221 N  
HETATM    5  O   UNL     1     -11.898   9.911  69.899  1.00  0.00    -0.146 OA 
HETATM    6  C   UNL     1     -12.936  10.999  71.754  1.00  0.00    -0.544 C  
HETATM    7  C   UNL     1      -6.103  11.144  70.223  1.00  0.00    -0.144 C  
HETATM    8  C   UNL     1     -11.984  11.152  70.576  1.00  0.00    -0.380 C  
HETATM    9  H   UNL     1      -7.627  11.155  68.818  1.00  0.00     0.000 HD 
HETATM   10  C   UNL     1      -5.552  12.364  69.501  1.00  0.00    -0.088 C  
HETATM   11  C   UNL     1     -12.360  12.314  69.635  1.00  0.00    -0.050 C  
HETATM   12  O   UNL     1      -5.622  10.730  71.266  1.00  0.00    -0.271 OA 
HETATM   13  C   UNL     1      -6.503  13.498  69.884  1.00  0.00    -0.013 C  
HETATM   14  C   UNL     1     -12.675  13.650  70.390  1.00  0.00    -0.210 C  
HETATM   15  C   UNL     1      -6.254  14.939  69.347  1.00  0.00    -0.114 C  
HETATM   16  C   UNL     1     -11.878  16.961  71.261  1.00  0.00     0.997 C  
HETATM   17  O   UNL     1      -7.768  13.040  69.470  1.00  0.00    -0.102 OA 
HETATM   18  H   UNL     1      -8.359  13.744  69.708  1.00  0.00     0.000 HD 
HETATM   19  C   UNL     1      -7.569  15.807  69.066  1.00  0.00    -0.191 C  
HETATM   20  C   UNL     1      -5.356  15.596  70.430  1.00  0.00    -0.150 C  
HETATM   21  C   UNL     1      -5.432  15.029  68.030  1.00  0.00    -0.140 C  
HETATM   22  C   UNL     1     -12.339  14.997  69.696  1.00  0.00    -0.238 C  
HETATM   23  C   UNL     1      -8.997  15.279  69.393  1.00  0.00    -0.225 C  
HETATM   24  O   UNL     1      -7.461  16.925  68.544  1.00  0.00    -0.195 OA 
HETATM   25  H   UNL     1     -11.210  17.569  68.506  1.00  0.00     0.000 HD 
HETATM   26  C   UNL     1     -11.241  15.814  70.462  1.00  0.00    -0.392 C  
HETATM   27  C   UNL     1     -10.059  16.377  69.608  1.00  0.00    -0.149 C  
HETATM   28  C   UNL     1      -9.518  14.281  68.343  1.00  0.00    -0.213 C  
HETATM   29  O   UNL     1     -10.555  16.893  68.374  1.00  0.00    -0.327 OA 
ENDROOT
BRANCH   3  30
HETATM   30  C   UNL     1      -7.116   8.353  69.989  1.00  0.00    -0.047 C  
HETATM   31  C   UNL     1      -6.936   7.437  70.986  1.00  0.00    -0.059 C  
HETATM   32  C   UNL     1      -6.791   8.055  68.542  1.00  0.00    -0.067 C  
BRANCH  31  33
HETATM   33  C   UNL     1      -6.753   6.015  70.839  1.00  0.00    -0.061 A  
HETATM   34  C   UNL     1      -5.517   5.411  70.595  1.00  0.00    -0.005 A  
HETATM   35  S   UNL     1      -5.736   3.755  70.233  1.00  0.00    -0.017 SA 
HETATM   36  C   UNL     1      -7.442   3.969  70.342  1.00  0.00    -0.045 A  
HETATM   37  N   UNL     1      -7.836   5.193  70.635  1.00  0.00    -0.078 NA 
HETATM   38  C   UNL     1      -8.343   2.809  70.080  1.00  0.00    -0.077 C  
ENDBRANCH  31  33
ENDBRANCH   3  30
TORSDOF 2
ENDMDL
MODEL       44
REMARK 921   NORMALIZED FREE ENERGY PREDICTED BY IDOCK:   -4.36 KCAL/MOL
REMARK 922        TOTAL FREE ENERGY PREDICTED BY IDOCK:   -4.76 KCAL/MOL
REMARK 923 INTER-LIGAND FREE ENERGY PREDICTED BY IDOCK:   -4.75 KCAL/MOL
REMARK 924 INTRA-LIGAND FREE ENERGY PREDICTED BY IDOCK:   -0.01 KCAL/MOL
REMARK 927      BINDING AFFINITY PREDICTED BY RF-SCORE:    0.00 PKD
ROOT
HETATM    1  C   UNL     1      -7.035  12.405  69.597  1.00  0.00     0.249 C  
HETATM    2  C   UNL     1      -7.769  12.115  68.258  1.00  0.00    -0.135 C  
HETATM    3  C   UNL     1      -9.352  12.266  68.313  1.00  0.00    -0.199 C  
HETATM    4  N   UNL     1      -9.987  10.952  68.388  1.00  0.00    -0.172 N  
HETATM    5  O   UNL     1      -5.634  12.429  69.266  1.00  0.00    -0.068 OA 
HETATM    6  C   UNL     1      -5.211  12.784  71.590  1.00  0.00    -0.076 C  
HETATM    7  C   UNL     1     -11.297  10.722  68.804  1.00  0.00    -0.288 C  
HETATM    8  C   UNL     1      -5.781  11.836  70.544  1.00  0.00    -0.150 C  
HETATM    9  H   UNL     1      -9.429  10.142  68.116  1.00  0.00     0.000 HD 
HETATM   10  C   UNL     1     -11.642   9.240  68.841  1.00  0.00     0.637 C  
HETATM   11  C   UNL     1      -5.173  10.420  70.610  1.00  0.00    -0.064 C  
HETATM   12  O   UNL     1     -12.052  11.579  69.234  1.00  0.00    -0.321 OA 
HETATM   13  C   UNL     1     -10.872   8.699  70.045  1.00  0.00    -0.221 C  
HETATM   14  C   UNL     1      -5.125   9.831  72.061  1.00  0.00    -0.076 C  
HETATM   15  C   UNL     1     -10.987   7.193  70.431  1.00  0.00    -0.290 C  
HETATM   16  C   UNL     1      -6.222   7.547  74.499  1.00  0.00    -0.085 C  
HETATM   17  O   UNL     1      -9.531   9.025  69.772  1.00  0.00    -0.163 OA 
HETATM   18  H   UNL     1      -9.053   8.689  70.520  1.00  0.00     0.000 HD 
HETATM   19  C   UNL     1      -9.669   6.540  71.061  1.00  0.00    -0.175 C  
HETATM   20  C   UNL     1     -12.179   7.148  71.426  1.00  0.00    -0.399 C  
HETATM   21  C   UNL     1     -11.389   6.235  69.274  1.00  0.00    -0.411 C  
HETATM   22  C   UNL     1      -5.276   8.297  72.249  1.00  0.00    -0.036 C  
HETATM   23  C   UNL     1      -8.388   7.375  71.353  1.00  0.00    -0.112 C  
HETATM   24  O   UNL     1      -9.647   5.324  71.301  1.00  0.00    -0.150 OA 
HETATM   25  H   UNL     1      -6.068   5.371  72.589  1.00  0.00     0.000 HD 
HETATM   26  C   UNL     1      -6.569   7.911  73.047  1.00  0.00    -0.081 C  
HETATM   27  C   UNL     1      -7.462   6.783  72.435  1.00  0.00    -0.088 C  
HETATM   28  C   UNL     1      -7.558   7.654  70.086  1.00  0.00    -0.086 C  
HETATM   29  O   UNL     1      -6.639   5.736  71.923  1.00  0.00    -0.054 OA 
ENDROOT
BRANCH   3  30
HETATM   30  C   UNL     1     -10.193  12.986  67.215  1.00  0.00    -0.239 C  
HETATM   31  C   UNL     1     -10.892  14.127  67.492  1.00  0.00    -0.280 C  
HETATM   32  C   UNL     1      -9.803  12.593  65.808  1.00  0.00    -0.236 C  
BRANCH  31  33
HETATM   33  C   UNL     1     -11.078  15.264  66.627  1.00  0.00    -0.276 A  
HETATM   34  C   UNL     1     -11.532  15.173  65.308  1.00  0.00    -0.266 A  
HETATM   35  S   UNL     1     -11.383  16.687  64.531  1.00  0.00     0.489 SA 
HETATM   36  C   UNL     1     -10.659  17.333  65.954  1.00  0.00    -0.204 A  
HETATM   37  N   UNL     1     -10.535  16.484  66.956  1.00  0.00    -0.304 NA 
HETATM   38  C   UNL     1     -10.204  18.754  65.964  1.00  0.00    -0.413 C  
ENDBRANCH  31  33
ENDBRANCH   3  30
TORSDOF 2
ENDMDL
MODEL       45
REMARK 921   NORMALIZED FREE ENERGY PREDICTED BY IDOCK:   -4.35 KCAL/MOL
REMARK 922        TOTAL FREE ENERGY PREDICTED BY IDOCK:   -4.75 KCAL/MOL
REMARK 923 INTER-LIGAND FREE ENERGY PREDICTED BY IDOCK:   -4.55 KCAL/MOL
REMARK 924 INTRA-LIGAND FREE ENERGY PREDICTED BY IDOCK:   -0.20 KCAL/MOL
REMARK 927      BINDING AFFINITY PREDICTED BY RF-SCORE:    0.00 PKD
ROOT
HETATM    1  C   UNL     1      -7.564   7.820  65.840  1.00  0.00    -0.090 C  
HETATM    2  C   UNL     1      -6.936   8.109  67.232  1.00  0.00    -0.075 C  
HETATM    3  C   UNL     1      -7.744   7.516  68.469  1.00  0.00    -0.120 C  
HETATM    4  N   UNL     1      -8.509   8.570  69.131  1.00  0.00    -0.124 N  
HETATM    5  O   UNL     1      -6.575   8.242  64.882  1.00  0.00    -0.062 OA 
HETATM    6  C   UNL     1      -8.140   7.645  63.179  1.00  0.00    -0.061 C  
HETATM    7  C   UNL     1      -9.580   8.355  69.996  1.00  0.00    -0.168 C  
HETATM    8  C   UNL     1      -7.857   8.554  64.367  1.00  0.00    -0.140 C  
HETATM    9  H   UNL     1      -8.239   9.536  68.945  1.00  0.00     0.000 HD 
HETATM   10  C   UNL     1     -10.214   9.655  70.467  1.00  0.00    -0.351 C  
HETATM   11  C   UNL     1      -8.011  10.052  64.037  1.00  0.00    -0.151 C  
HETATM   12  O   UNL     1     -10.065   7.263  70.247  1.00  0.00    -0.190 OA 
HETATM   13  C   UNL     1     -10.955  10.186  69.240  1.00  0.00    -0.240 C  
HETATM   14  C   UNL     1      -9.333  10.387  63.265  1.00  0.00    -0.335 C  
HETATM   15  C   UNL     1     -11.762  11.516  69.332  1.00  0.00    -0.413 C  
HETATM   16  C   UNL     1     -12.528  11.845  63.112  1.00  0.00    -0.363 C  
HETATM   17  O   UNL     1      -9.956  10.295  68.256  1.00  0.00    -0.143 OA 
HETATM   18  H   UNL     1     -10.416  10.625  67.493  1.00  0.00     0.000 HD 
HETATM   19  C   UNL     1     -11.791  12.398  67.997  1.00  0.00    -0.316 C  
HETATM   20  C   UNL     1     -13.189  11.064  69.749  1.00  0.00     0.815 C  
HETATM   21  C   UNL     1     -11.307  12.499  70.447  1.00  0.00     0.547 C  
HETATM   22  C   UNL     1     -10.006  11.766  63.501  1.00  0.00    -0.430 C  
HETATM   23  C   UNL     1     -11.132  11.918  66.671  1.00  0.00    -0.360 C  
HETATM   24  O   UNL     1     -12.325  13.516  68.018  1.00  0.00    -0.215 OA 
HETATM   25  H   UNL     1     -11.533  14.259  64.372  1.00  0.00     0.000 HD 
HETATM   26  C   UNL     1     -11.423  11.642  64.160  1.00  0.00    -0.364 C  
HETATM   27  C   UNL     1     -11.709  12.560  65.392  1.00  0.00    -0.398 C  
HETATM   28  C   UNL     1      -9.602  12.092  66.668  1.00  0.00    -0.225 C  
HETATM   29  O   UNL     1     -11.178  13.864  65.160  1.00  0.00    -0.307 OA 
ENDROOT
BRANCH   3  30
HETATM   30  C   UNL     1      -7.075   6.778  69.669  1.00  0.00    -0.068 C  
HETATM   31  C   UNL     1      -7.481   5.531  70.051  1.00  0.00    -0.070 C  
HETATM   32  C   UNL     1      -5.718   7.340  70.033  1.00  0.00    -0.024 C  
BRANCH  31  33
HETATM   33  C   UNL     1      -6.651   4.456  70.531  1.00  0.00    -0.035 A  
HETATM   34  C   UNL     1      -5.894   3.626  69.699  1.00  0.00    -0.018 A  
HETATM   35  S   UNL     1      -5.249   2.325  70.600  1.00  0.00    -0.004 SA 
HETATM   36  C   UNL     1      -6.075   2.899  71.999  1.00  0.00    -0.013 A  
HETATM   37  N   UNL     1      -6.787   3.995  71.819  1.00  0.00    -0.029 NA 
HETATM   38  C   UNL     1      -5.967   2.138  73.277  1.00  0.00    -0.008 C  
ENDBRANCH  31  33
ENDBRANCH   3  30
TORSDOF 2
ENDMDL
MODEL       46
REMARK 921   NORMALIZED FREE ENERGY PREDICTED BY IDOCK:   -4.35 KCAL/MOL
REMARK 922        TOTAL FREE ENERGY PREDICTED BY IDOCK:   -4.74 KCAL/MOL
REMARK 923 INTER-LIGAND FREE ENERGY PREDICTED BY IDOCK:   -4.27 KCAL/MOL
REMARK 924 INTRA-LIGAND FREE ENERGY PREDICTED BY IDOCK:   -0.47 KCAL/MOL
REMARK 927      BINDING AFFINITY PREDICTED BY RF-SCORE:    0.00 PKD
ROOT
HETATM    1  C   UNL     1      -6.719  14.313  70.711  1.00  0.00     0.376 C  
HETATM    2  C   UNL     1      -7.279  14.507  69.274  1.00  0.00    -0.131 C  
HETATM    3  C   UNL     1      -8.842  14.796  69.195  1.00  0.00    -0.084 C  
HETATM    4  N   UNL     1      -9.564  13.591  68.794  1.00  0.00    -0.413 N  
HETATM    5  O   UNL     1      -5.288  14.290  70.562  1.00  0.00    -0.102 OA 
HETATM    6  C   UNL     1      -5.166  13.899  72.915  1.00  0.00    -0.212 C  
HETATM    7  C   UNL     1     -10.931  13.384  68.970  1.00  0.00    -0.224 C  
HETATM    8  C   UNL     1      -5.646  13.366  71.573  1.00  0.00    -0.107 C  
HETATM    9  H   UNL     1      -9.027  12.845  68.352  1.00  0.00     0.000 HD 
HETATM   10  C   UNL     1     -11.370  12.001  68.514  1.00  0.00    -0.323 C  
HETATM   11  C   UNL     1      -5.145  11.938  71.271  1.00  0.00    -0.101 C  
HETATM   12  O   UNL     1     -11.682  14.149  69.555  1.00  0.00    -0.272 OA 
HETATM   13  C   UNL     1     -10.810  11.052  69.574  1.00  0.00    -0.216 C  
HETATM   14  C   UNL     1      -5.334  10.946  72.468  1.00  0.00     0.528 C  
HETATM   15  C   UNL     1     -11.073   9.520  69.465  1.00  0.00    -0.168 C  
HETATM   16  C   UNL     1      -6.899   8.170  73.953  1.00  0.00    -0.153 C  
HETATM   17  O   UNL     1      -9.426  11.306  69.565  1.00  0.00    -0.367 OA 
HETATM   18  H   UNL     1      -9.078  10.717  70.223  1.00  0.00     0.000 HD 
HETATM   19  C   UNL     1      -9.899   8.579  70.009  1.00  0.00    -0.179 C  
HETATM   20  C   UNL     1     -12.391   9.306  70.260  1.00  0.00     0.329 C  
HETATM   21  C   UNL     1     -11.372   8.992  68.034  1.00  0.00     0.656 C  
HETATM   22  C   UNL     1      -5.607   9.448  72.160  1.00  0.00    -0.037 C  
HETATM   23  C   UNL     1      -8.619   9.155  70.683  1.00  0.00    -0.266 C  
HETATM   24  O   UNL     1      -9.987   7.351  69.867  1.00  0.00    -0.185 OA 
HETATM   25  H   UNL     1      -6.624   6.650  71.500  1.00  0.00     0.000 HD 
HETATM   26  C   UNL     1      -7.019   8.978  72.652  1.00  0.00     0.296 C  
HETATM   27  C   UNL     1      -7.890   8.179  71.629  1.00  0.00    -0.112 C  
HETATM   28  C   UNL     1      -7.606   9.709  69.663  1.00  0.00    -0.114 C  
HETATM   29  O   UNL     1      -7.073   7.251  70.917  1.00  0.00    -0.065 OA 
ENDROOT
BRANCH   3  30
HETATM   30  C   UNL     1      -9.477  15.891  68.283  1.00  0.00    -0.201 C  
HETATM   31  C   UNL     1      -9.793  17.126  68.773  1.00  0.00    -0.293 C  
HETATM   32  C   UNL     1      -9.280  15.626  66.807  1.00  0.00    -0.275 C  
BRANCH  31  33
HETATM   33  C   UNL     1      -9.668  18.390  68.091  1.00  0.00    -0.331 A  
HETATM   34  C   UNL     1     -10.698  18.980  67.353  1.00  0.00    -0.473 A  
HETATM   35  S   UNL     1     -10.102  20.331  66.493  1.00  0.00    -0.296 SA 
HETATM   36  C   UNL     1      -8.520  19.996  67.086  1.00  0.00    -0.334 A  
HETATM   37  N   UNL     1      -8.429  18.947  67.881  1.00  0.00    -0.284 NA 
HETATM   38  C   UNL     1      -7.380  20.859  66.660  1.00  0.00    -0.142 C  
ENDBRANCH  31  33
ENDBRANCH   3  30
TORSDOF 2
ENDMDL
MODEL       47
REMARK 921   NORMALIZED FREE ENERGY PREDICTED BY IDOCK:   -4.28 KCAL/MOL
REMARK 922        TOTAL FREE ENERGY PREDICTED BY IDOCK:   -4.66 KCAL/MOL
REMARK 923 INTER-LIGAND FREE ENERGY PREDICTED BY IDOCK:   -4.30 KCAL/MOL
REMARK 924 INTRA-LIGAND FREE ENERGY PREDICTED BY IDOCK:   -0.36 KCAL/MOL
REMARK 927      BINDING AFFINITY PREDICTED BY RF-SCORE:    0.00 PKD
ROOT
HETATM    1  C   UNL     1     -10.053   9.854  69.231  1.00  0.00    -0.203 C  
HETATM    2  C   UNL     1     -10.643   8.484  69.671  1.00  0.00    -0.221 C  
HETATM    3  C   UNL     1      -9.629   7.535  70.448  1.00  0.00    -0.168 C  
HETATM    4  N   UNL     1      -9.127   6.489  69.560  1.00  0.00    -0.140 N  
HETATM    5  O   UNL     1     -11.178  10.619  68.760  1.00  0.00    -0.244 OA 
HETATM    6  C   UNL     1      -9.626  12.353  68.226  1.00  0.00    -0.211 C  
HETATM    7  C   UNL     1      -7.983   5.727  69.792  1.00  0.00    -0.100 C  
HETATM    8  C   UNL     1     -10.060  10.922  67.946  1.00  0.00    -0.177 C  
HETATM    9  H   UNL     1      -9.653   6.303  68.706  1.00  0.00     0.000 HD 
HETATM   10  C   UNL     1      -7.683   4.770  68.648  1.00  0.00    -0.076 C  
HETATM   11  C   UNL     1     -10.327  10.647  66.452  1.00  0.00    -0.291 C  
HETATM   12  O   UNL     1      -7.213   5.893  70.724  1.00  0.00    -0.075 OA 
HETATM   13  C   UNL     1      -7.190   5.669  67.516  1.00  0.00    -0.076 C  
HETATM   14  C   UNL     1      -9.192  11.177  65.510  1.00  0.00    -0.236 C  
HETATM   15  C   UNL     1      -6.756   5.043  66.156  1.00  0.00    -0.053 C  
HETATM   16  C   UNL     1      -6.510  10.628  63.305  1.00  0.00     0.065 C  
HETATM   17  O   UNL     1      -8.244   6.578  67.313  1.00  0.00    -0.112 OA 
HETATM   18  H   UNL     1      -7.937   7.137  66.610  1.00  0.00     0.000 HD 
HETATM   19  C   UNL     1      -7.047   5.937  64.861  1.00  0.00    -0.060 C  
HETATM   20  C   UNL     1      -5.237   4.771  66.333  1.00  0.00    -0.009 C  
HETATM   21  C   UNL     1      -7.380   3.657  65.829  1.00  0.00    -0.076 C  
HETATM   22  C   UNL     1      -8.892  10.404  64.197  1.00  0.00    -0.228 C  
HETATM   23  C   UNL     1      -7.641   7.373  64.961  1.00  0.00    -0.103 C  
HETATM   24  O   UNL     1      -6.825   5.469  63.735  1.00  0.00    -0.043 OA 
HETATM   25  H   UNL     1      -8.020   8.584  61.909  1.00  0.00     0.000 HD 
HETATM   26  C   UNL     1      -7.452   9.784  64.178  1.00  0.00    -0.135 C  
HETATM   27  C   UNL     1      -7.338   8.284  63.754  1.00  0.00    -0.100 C  
HETATM   28  C   UNL     1      -9.160   7.373  65.215  1.00  0.00     0.369 C  
HETATM   29  O   UNL     1      -8.207   8.023  62.653  1.00  0.00    -0.171 OA 
ENDROOT
BRANCH   3  30
HETATM   30  C   UNL     1     -10.002   6.737  71.735  1.00  0.00    -0.184 C  
HETATM   31  C   UNL     1     -10.633   5.527  71.662  1.00  0.00    -0.294 C  
HETATM   32  C   UNL     1      -9.227   7.178  72.957  1.00  0.00    -0.174 C  
BRANCH  31  33
HETATM   33  C   UNL     1     -10.419   4.382  72.510  1.00  0.00    -0.168 A  
HETATM   34  C   UNL     1     -11.090   4.172  73.718  1.00  0.00    -0.223 A  
HETATM   35  S   UNL     1     -10.394   2.853  74.553  1.00  0.00    -0.148 SA 
HETATM   36  C   UNL     1      -9.212   2.704  73.309  1.00  0.00    -0.084 A  
HETATM   37  N   UNL     1      -9.322   3.575  72.323  1.00  0.00    -0.109 NA 
HETATM   38  C   UNL     1      -8.155   1.658  73.425  1.00  0.00    -0.042 C  
ENDBRANCH  31  33
ENDBRANCH   3  30
TORSDOF 2
ENDMDL
MODEL       48
REMARK 921   NORMALIZED FREE ENERGY PREDICTED BY IDOCK:   -4.27 KCAL/MOL
REMARK 922        TOTAL FREE ENERGY PREDICTED BY IDOCK:   -4.65 KCAL/MOL
REMARK 923 INTER-LIGAND FREE ENERGY PREDICTED BY IDOCK:   -4.97 KCAL/MOL
REMARK 924 INTRA-LIGAND FREE ENERGY PREDICTED BY IDOCK:    0.32 KCAL/MOL
REMARK 927      BINDING AFFINITY PREDICTED BY RF-SCORE:    0.00 PKD
ROOT
HETATM    1  C   UNL     1      -7.026  10.784  68.296  1.00  0.00    -0.069 C  
HETATM    2  C   UNL     1      -7.806  10.427  69.592  1.00  0.00    -0.138 C  
HETATM    3  C   UNL     1      -9.363  10.164  69.388  1.00  0.00    -0.219 C  
HETATM    4  N   UNL     1     -10.137  11.326  69.817  1.00  0.00    -0.195 N  
HETATM    5  O   UNL     1      -5.636  10.758  68.669  1.00  0.00    -0.041 OA 
HETATM    6  C   UNL     1      -5.143  11.432  66.432  1.00  0.00    -0.107 C  
HETATM    7  C   UNL     1     -11.459  11.582  69.456  1.00  0.00    -0.311 C  
HETATM    8  C   UNL     1      -5.828  11.807  67.738  1.00  0.00    -0.057 C  
HETATM    9  H   UNL     1      -9.676  12.001  70.427  1.00  0.00     0.000 HD 
HETATM   10  C   UNL     1     -11.963  12.907  70.005  1.00  0.00    -0.380 C  
HETATM   11  C   UNL     1      -5.380  13.176  68.289  1.00  0.00    -0.089 C  
HETATM   12  O   UNL     1     -12.109  10.910  68.671  1.00  0.00    -0.527 OA 
HETATM   13  C   UNL     1     -11.241  13.966  69.173  1.00  0.00    -0.269 C  
HETATM   14  C   UNL     1      -5.376  14.311  67.210  1.00  0.00     0.623 C  
HETATM   15  C   UNL     1     -11.516  15.479  69.428  1.00  0.00    -0.345 C  
HETATM   16  C   UNL     1      -6.682  17.280  65.854  1.00  0.00     0.013 C  
HETATM   17  O   UNL     1      -9.876  13.684  69.367  1.00  0.00    -0.269 OA 
HETATM   18  H   UNL     1      -9.427  14.342  68.850  1.00  0.00     0.000 HD 
HETATM   19  C   UNL     1     -10.269  16.455  69.196  1.00  0.00    -0.280 C  
HETATM   20  C   UNL     1     -12.691  15.816  68.470  1.00  0.00     1.311 C  
HETATM   21  C   UNL     1     -12.037  15.834  70.849  1.00  0.00    -0.459 C  
HETATM   22  C   UNL     1      -5.692  15.765  67.654  1.00  0.00    -0.148 C  
HETATM   23  C   UNL     1      -8.899  15.939  68.665  1.00  0.00    -0.206 C  
HETATM   24  O   UNL     1     -10.377  17.657  69.474  1.00  0.00    -0.193 OA 
HETATM   25  H   UNL     1      -6.796  18.483  68.489  1.00  0.00     0.000 HD 
HETATM   26  C   UNL     1      -7.008  16.321  67.009  1.00  0.00    -0.250 C  
HETATM   27  C   UNL     1      -8.028  17.008  67.974  1.00  0.00    -0.195 C  
HETATM   28  C   UNL     1      -8.061  15.243  69.755  1.00  0.00    -0.028 C  
HETATM   29  O   UNL     1      -7.333  17.824  68.915  1.00  0.00    -0.269 OA 
ENDROOT
BRANCH   3  30
HETATM   30  C   UNL     1     -10.135   8.979  70.046  1.00  0.00    -0.215 C  
HETATM   31  C   UNL     1     -10.064   7.715  69.535  1.00  0.00    -0.192 C  
HETATM   32  C   UNL     1     -10.554   9.258  71.472  1.00  0.00    -0.405 C  
BRANCH  31  33
HETATM   33  C   UNL     1     -10.031   6.478  70.275  1.00  0.00    -0.174 A  
HETATM   34  C   UNL     1      -9.595   5.263  69.740  1.00  0.00    -0.167 A  
HETATM   35  S   UNL     1      -9.938   3.989  70.827  1.00  0.00     0.016 SA 
HETATM   36  C   UNL     1     -10.705   5.112  71.884  1.00  0.00    -0.149 A  
HETATM   37  N   UNL     1     -10.708   6.364  71.466  1.00  0.00    -0.231 NA 
HETATM   38  C   UNL     1     -11.325   4.621  73.149  1.00  0.00    -0.355 C  
ENDBRANCH  31  33
ENDBRANCH   3  30
TORSDOF 2
ENDMDL
MODEL       49
REMARK 921   NORMALIZED FREE ENERGY PREDICTED BY IDOCK:   -4.15 KCAL/MOL
REMARK 922        TOTAL FREE ENERGY PREDICTED BY IDOCK:   -4.53 KCAL/MOL
REMARK 923 INTER-LIGAND FREE ENERGY PREDICTED BY IDOCK:   -4.05 KCAL/MOL
REMARK 924 INTRA-LIGAND FREE ENERGY PREDICTED BY IDOCK:   -0.48 KCAL/MOL
REMARK 927      BINDING AFFINITY PREDICTED BY RF-SCORE:    0.00 PKD
ROOT
HETATM    1  C   UNL     1      -8.961   9.161  64.351  1.00  0.00    -0.055 C  
HETATM    2  C   UNL     1      -8.151   8.399  65.436  1.00  0.00    -0.133 C  
HETATM    3  C   UNL     1      -8.946   7.234  66.173  1.00  0.00    -0.149 C  
HETATM    4  N   UNL     1      -9.384   7.673  67.496  1.00  0.00    -0.137 N  
HETATM    5  O   UNL     1      -8.002   9.996  63.676  1.00  0.00    -0.145 OA 
HETATM    6  C   UNL     1      -9.821  10.831  62.373  1.00  0.00     0.020 C  
HETATM    7  C   UNL     1     -10.385   7.062  68.249  1.00  0.00    -0.194 C  
HETATM    8  C   UNL     1      -9.224  10.705  63.767  1.00  0.00    -0.254 C  
HETATM    9  H   UNL     1      -8.922   8.488  67.899  1.00  0.00     0.000 HD 
HETATM   10  C   UNL     1     -10.660   7.796  69.552  1.00  0.00    -0.221 C  
HETATM   11  C   UNL     1      -9.068  12.060  64.488  1.00  0.00     0.551 C  
HETATM   12  O   UNL     1     -11.077   6.133  67.864  1.00  0.00    -0.328 OA 
HETATM   13  C   UNL     1     -11.379   9.076  69.126  1.00  0.00     0.366 C  
HETATM   14  C   UNL     1     -10.350  12.958  64.410  1.00  0.00    -0.393 C  
HETATM   15  C   UNL     1     -11.851  10.099  70.203  1.00  0.00    -0.299 C  
HETATM   16  C   UNL     1     -13.132  14.495  65.911  1.00  0.00     0.406 C  
HETATM   17  O   UNL     1     -10.483   9.693  68.235  1.00  0.00    -0.199 OA 
HETATM   18  H   UNL     1     -10.929  10.488  67.970  1.00  0.00     0.000 HD 
HETATM   19  C   UNL     1     -11.811  11.636  69.757  1.00  0.00    -0.357 C  
HETATM   20  C   UNL     1     -13.295   9.643  70.550  1.00  0.00     0.182 C  
HETATM   21  C   UNL     1     -11.078  10.057  71.551  1.00  0.00     0.107 C  
HETATM   22  C   UNL     1     -10.667  13.909  65.595  1.00  0.00    -0.292 C  
HETATM   23  C   UNL     1     -11.412  12.072  68.317  1.00  0.00    -0.361 C  
HETATM   24  O   UNL     1     -12.075  12.517  70.588  1.00  0.00    -0.356 OA 
HETATM   25  H   UNL     1     -11.498  15.371  68.140  1.00  0.00     0.000 HD 
HETATM   26  C   UNL     1     -12.004  13.538  66.326  1.00  0.00    -0.457 C  
HETATM   27  C   UNL     1     -11.952  13.451  67.886  1.00  0.00    -0.323 C  
HETATM   28  C   UNL     1      -9.890  12.039  68.084  1.00  0.00    -0.201 C  
HETATM   29  O   UNL     1     -11.166  14.522  68.406  1.00  0.00    -0.250 OA 
ENDROOT
BRANCH   3  30
HETATM   30  C   UNL     1      -8.345   5.825  66.466  1.00  0.00    -0.111 C  
HETATM   31  C   UNL     1      -8.744   4.724  65.762  1.00  0.00    -0.127 C  
HETATM   32  C   UNL     1      -7.036   5.878  67.220  1.00  0.00    -0.069 C  
BRANCH  31  33
HETATM   33  C   UNL     1      -7.921   3.619  65.336  1.00  0.00    -0.093 A  
HETATM   34  C   UNL     1      -7.706   2.469  66.101  1.00  0.00    -0.076 A  
HETATM   35  S   UNL     1      -6.488   1.509  65.384  1.00  0.00    -0.023 SA 
HETATM   36  C   UNL     1      -6.274   2.709  64.167  1.00  0.00    -0.018 A  
HETATM   37  N   UNL     1      -7.060   3.763  64.274  1.00  0.00    -0.053 NA 
HETATM   38  C   UNL     1      -5.232   2.510  63.118  1.00  0.00    -0.007 C  
ENDBRANCH  31  33
ENDBRANCH   3  30
TORSDOF 2
ENDMDL
MODEL       50
REMARK 921   NORMALIZED FREE ENERGY PREDICTED BY IDOCK:   -3.88 KCAL/MOL
REMARK 922        TOTAL FREE ENERGY PREDICTED BY IDOCK:   -4.23 KCAL/MOL
REMARK 923 INTER-LIGAND FREE ENERGY PREDICTED BY IDOCK:   -3.86 KCAL/MOL
REMARK 924 INTRA-LIGAND FREE ENERGY PREDICTED BY IDOCK:   -0.37 KCAL/MOL
REMARK 927      BINDING AFFINITY PREDICTED BY RF-SCORE:    0.00 PKD
ROOT
HETATM    1  C   UNL     1     -11.456  12.838  65.285  1.00  0.00    -0.325 C  
HETATM    2  C   UNL     1     -10.284  11.835  65.090  1.00  0.00    -0.309 C  
HETATM    3  C   UNL     1      -9.959  10.928  66.357  1.00  0.00    -0.221 C  
HETATM    4  N   UNL     1      -8.777  11.430  67.054  1.00  0.00    -0.155 N  
HETATM    5  O   UNL     1     -11.715  13.378  63.976  1.00  0.00    -0.404 OA 
HETATM    6  C   UNL     1     -13.377  14.753  65.001  1.00  0.00     1.026 C  
HETATM    7  C   UNL     1      -8.428  11.113  68.365  1.00  0.00    -0.151 C  
HETATM    8  C   UNL     1     -11.896  14.410  64.928  1.00  0.00    -0.417 C  
HETATM    9  H   UNL     1      -8.160  12.061  66.541  1.00  0.00     0.000 HD 
HETATM   10  C   UNL     1      -7.181  11.851  68.828  1.00  0.00    -0.112 C  
HETATM   11  C   UNL     1     -11.000  15.634  64.649  1.00  0.00    -0.344 C  
HETATM   12  O   UNL     1      -9.109  10.442  69.124  1.00  0.00    -0.176 OA 
HETATM   13  C   UNL     1      -7.636  13.299  69.007  1.00  0.00     0.119 C  
HETATM   14  C   UNL     1     -11.335  16.870  65.552  1.00  0.00     0.562 C  
HETATM   15  C   UNL     1      -6.626  14.377  69.501  1.00  0.00    -0.141 C  
HETATM   16  C   UNL     1     -10.529  19.101  68.147  1.00  0.00    -0.428 C  
HETATM   17  O   UNL     1      -8.146  13.657  67.746  1.00  0.00    -0.144 OA 
HETATM   18  H   UNL     1      -8.429  14.557  67.857  1.00  0.00     0.000 HD 
HETATM   19  C   UNL     1      -6.848  15.850  68.914  1.00  0.00    -0.138 C  
HETATM   20  C   UNL     1      -6.772  14.351  71.047  1.00  0.00     0.576 C  
HETATM   21  C   UNL     1      -5.127  14.065  69.230  1.00  0.00    -0.078 C  
HETATM   22  C   UNL     1     -10.186  17.831  65.958  1.00  0.00    -0.296 C  
HETATM   23  C   UNL     1      -8.045  16.200  67.982  1.00  0.00    -0.149 C  
HETATM   24  O   UNL     1      -6.028  16.741  69.178  1.00  0.00    -0.148 OA 
HETATM   25  H   UNL     1      -7.832  19.384  67.122  1.00  0.00     0.000 HD 
HETATM   26  C   UNL     1      -9.926  17.842  67.505  1.00  0.00    -0.322 C  
HETATM   27  C   UNL     1      -8.442  17.690  67.970  1.00  0.00    -0.244 C  
HETATM   28  C   UNL     1      -7.828  15.731  66.531  1.00  0.00    -0.098 C  
HETATM   29  O   UNL     1      -7.588  18.466  67.130  1.00  0.00    -0.217 OA 
ENDROOT
BRANCH   3  30
HETATM   30  C   UNL     1      -9.681   9.396  66.279  1.00  0.00    -0.330 C  
HETATM   31  C   UNL     1      -8.431   8.915  66.009  1.00  0.00    -0.138 C  
HETATM   32  C   UNL     1     -10.747   8.560  66.951  1.00  0.00    -0.156 C  
BRANCH  31  33
HETATM   33  C   UNL     1      -7.811   7.742  66.571  1.00  0.00    -0.101 A  
HETATM   34  C   UNL     1      -7.902   6.466  66.006  1.00  0.00    -0.103 A  
HETATM   35  S   UNL     1      -7.259   5.303  67.080  1.00  0.00    -0.079 SA 
HETATM   36  C   UNL     1      -6.982   6.545  68.241  1.00  0.00    -0.080 A  
HETATM   37  N   UNL     1      -7.337   7.758  67.862  1.00  0.00    -0.100 NA 
HETATM   38  C   UNL     1      -6.404   6.190  69.570  1.00  0.00    -0.038 C  
ENDBRANCH  31  33
ENDBRANCH   3  30
TORSDOF 2
ENDMDL
MODEL       51
REMARK 921   NORMALIZED FREE ENERGY PREDICTED BY IDOCK:   -3.87 KCAL/MOL
REMARK 922        TOTAL FREE ENERGY PREDICTED BY IDOCK:   -4.21 KCAL/MOL
REMARK 923 INTER-LIGAND FREE ENERGY PREDICTED BY IDOCK:   -4.36 KCAL/MOL
REMARK 924 INTRA-LIGAND FREE ENERGY PREDICTED BY IDOCK:    0.15 KCAL/MOL
REMARK 927      BINDING AFFINITY PREDICTED BY RF-SCORE:    0.00 PKD
ROOT
HETATM    1  C   UNL     1     -12.380  12.530  70.299  1.00  0.00    -0.190 C  
HETATM    2  C   UNL     1     -11.343  13.679  70.151  1.00  0.00     0.006 C  
HETATM    3  C   UNL     1     -11.233  14.301  68.690  1.00  0.00    -0.264 C  
HETATM    4  N   UNL     1     -10.047  13.791  68.006  1.00  0.00    -0.238 N  
HETATM    5  O   UNL     1     -12.470  12.279  71.714  1.00  0.00    -0.061 OA 
HETATM    6  C   UNL     1     -14.001  10.524  71.186  1.00  0.00     0.860 C  
HETATM    7  C   UNL     1      -9.840  13.835  66.628  1.00  0.00    -0.284 C  
HETATM    8  C   UNL     1     -12.578  11.042  71.033  1.00  0.00    -0.411 C  
HETATM    9  H   UNL     1      -9.317  13.370  68.580  1.00  0.00     0.000 HD 
HETATM   10  C   UNL     1      -8.541  13.160  66.216  1.00  0.00     0.448 C  
HETATM   11  C   UNL     1     -11.509  10.026  71.483  1.00  0.00    -0.219 C  
HETATM   12  O   UNL     1     -10.657  14.232  65.813  1.00  0.00    -0.288 OA 
HETATM   13  C   UNL     1      -8.809  11.667  66.405  1.00  0.00    -0.182 C  
HETATM   14  C   UNL     1     -11.738   8.586  70.910  1.00  0.00    -0.274 C  
HETATM   15  C   UNL     1      -7.702  10.626  66.061  1.00  0.00    -0.151 C  
HETATM   16  C   UNL     1     -10.828   5.925  68.801  1.00  0.00    -0.353 C  
HETATM   17  O   UNL     1      -9.175  11.552  67.759  1.00  0.00    -0.157 OA 
HETATM   18  H   UNL     1      -9.342  10.624  67.876  1.00  0.00     0.000 HD 
HETATM   19  C   UNL     1      -7.681   9.313  66.976  1.00  0.00    -0.095 C  
HETATM   20  C   UNL     1      -7.960  10.279  64.569  1.00  0.00    -0.133 C  
HETATM   21  C   UNL     1      -6.243  11.163  66.105  1.00  0.00    -0.071 C  
HETATM   22  C   UNL     1     -10.502   7.695  70.612  1.00  0.00    -0.217 C  
HETATM   23  C   UNL     1      -8.750   9.052  68.076  1.00  0.00    -0.129 C  
HETATM   24  O   UNL     1      -6.770   8.485  66.832  1.00  0.00    -0.060 OA 
HETATM   25  H   UNL     1      -8.051   6.197  69.587  1.00  0.00     0.000 HD 
HETATM   26  C   UNL     1     -10.355   7.359  69.088  1.00  0.00    -0.208 C  
HETATM   27  C   UNL     1      -8.941   7.569  68.454  1.00  0.00    -0.128 C  
HETATM   28  C   UNL     1      -8.495   9.864  69.360  1.00  0.00    -0.169 C  
HETATM   29  O   UNL     1      -7.933   7.111  69.354  1.00  0.00    -0.120 OA 
ENDROOT
BRANCH   3  30
HETATM   30  C   UNL     1     -11.159  15.831  68.402  1.00  0.00    -0.341 C  
HETATM   31  C   UNL     1     -10.128  16.593  68.877  1.00  0.00    -0.274 C  
HETATM   32  C   UNL     1     -12.020  16.263  67.236  1.00  0.00     1.077 C  
BRANCH  31  33
HETATM   33  C   UNL     1      -9.481  17.694  68.208  1.00  0.00    -0.295 A  
HETATM   34  C   UNL     1     -10.004  18.989  68.159  1.00  0.00    -0.382 A  
HETATM   35  S   UNL     1      -9.092  19.947  67.077  1.00  0.00    -0.368 SA 
HETATM   36  C   UNL     1      -8.128  18.572  66.690  1.00  0.00    -0.264 A  
HETATM   37  N   UNL     1      -8.453  17.463  67.326  1.00  0.00    -0.205 NA 
HETATM   38  C   UNL     1      -7.042  18.702  65.675  1.00  0.00    -0.215 C  
ENDBRANCH  31  33
ENDBRANCH   3  30
TORSDOF 2
ENDMDL
MODEL       52
REMARK 921   NORMALIZED FREE ENERGY PREDICTED BY IDOCK:   -3.61 KCAL/MOL
REMARK 922        TOTAL FREE ENERGY PREDICTED BY IDOCK:   -3.92 KCAL/MOL
REMARK 923 INTER-LIGAND FREE ENERGY PREDICTED BY IDOCK:   -3.92 KCAL/MOL
REMARK 924 INTRA-LIGAND FREE ENERGY PREDICTED BY IDOCK:   -0.00 KCAL/MOL
REMARK 927      BINDING AFFINITY PREDICTED BY RF-SCORE:    0.00 PKD
ROOT
HETATM    1  C   UNL     1      -6.466  12.584  69.672  1.00  0.00    -0.057 C  
HETATM    2  C   UNL     1      -7.356  11.316  69.798  1.00  0.00     0.207 C  
HETATM    3  C   UNL     1      -7.292  10.324  68.555  1.00  0.00    -0.082 C  
HETATM    4  N   UNL     1      -8.475  10.482  67.713  1.00  0.00    -0.114 N  
HETATM    5  O   UNL     1      -6.505  13.207  70.969  1.00  0.00     0.240 OA 
HETATM    6  C   UNL     1      -5.145  14.940  70.049  1.00  0.00    -0.095 C  
HETATM    7  C   UNL     1      -8.578  10.052  66.392  1.00  0.00    -0.129 C  
HETATM    8  C   UNL     1      -6.487  14.225  69.986  1.00  0.00    -0.126 C  
HETATM    9  H   UNL     1      -9.287  10.944  68.124  1.00  0.00     0.000 HD 
HETATM   10  C   UNL     1      -9.912  10.427  65.763  1.00  0.00    -0.334 C  
HETATM   11  C   UNL     1      -7.692  15.180  70.103  1.00  0.00     0.342 C  
HETATM   12  O   UNL     1      -7.666   9.561  65.746  1.00  0.00    -0.098 OA 
HETATM   13  C   UNL     1      -9.825  11.938  65.553  1.00  0.00    -0.232 C  
HETATM   14  C   UNL     1      -7.583  16.437  69.173  1.00  0.00    -0.225 C  
HETATM   15  C   UNL     1     -11.014  12.704  64.899  1.00  0.00    -0.326 C  
HETATM   16  C   UNL     1      -8.631  18.314  66.392  1.00  0.00    -0.262 C  
HETATM   17  O   UNL     1      -9.571  12.450  66.839  1.00  0.00    -0.207 OA 
HETATM   18  H   UNL     1      -9.517  13.389  66.709  1.00  0.00     0.000 HD 
HETATM   19  C   UNL     1     -11.245  14.198  65.425  1.00  0.00    -0.325 C  
HETATM   20  C   UNL     1     -10.690  12.677  63.380  1.00  0.00    -0.220 C  
HETATM   21  C   UNL     1     -12.403  12.019  65.029  1.00  0.00    -0.037 C  
HETATM   22  C   UNL     1      -8.886  17.055  68.598  1.00  0.00    -0.267 C  
HETATM   23  C   UNL     1     -10.292  14.871  66.455  1.00  0.00    -0.295 C  
HETATM   24  O   UNL     1     -12.229  14.837  65.028  1.00  0.00    -0.342 OA 
HETATM   25  H   UNL     1     -11.409  17.911  67.114  1.00  0.00     0.000 HD 
HETATM   26  C   UNL     1      -8.961  16.959  67.035  1.00  0.00    -0.232 C  
HETATM   27  C   UNL     1     -10.294  16.413  66.427  1.00  0.00    -0.313 C  
HETATM   28  C   UNL     1     -10.546  14.399  67.899  1.00  0.00    -0.240 C  
HETATM   29  O   UNL     1     -11.408  16.961  67.131  1.00  0.00     0.187 OA 
ENDROOT
BRANCH   3  30
HETATM   30  C   UNL     1      -7.176   8.774  68.687  1.00  0.00    -0.073 C  
HETATM   31  C   UNL     1      -6.035   8.186  69.154  1.00  0.00    -0.038 C  
HETATM   32  C   UNL     1      -8.516   8.073  68.698  1.00  0.00    -0.128 C  
BRANCH  31  33
HETATM   33  C   UNL     1      -5.940   7.022  70.000  1.00  0.00    -0.024 A  
HETATM   34  C   UNL     1      -5.743   7.079  71.383  1.00  0.00    -0.036 A  
HETATM   35  S   UNL     1      -5.434   5.513  71.994  1.00  0.00    -0.018 SA 
HETATM   36  C   UNL     1      -5.501   4.886  70.391  1.00  0.00    -0.007 A  
HETATM   37  N   UNL     1      -5.743   5.778  69.450  1.00  0.00    -0.011 NA 
HETATM   38  C   UNL     1      -5.261   3.431  70.164  1.00  0.00    -0.004 C  
ENDBRANCH  31  33
ENDBRANCH   3  30
TORSDOF 2
ENDMDL
MODEL       53
REMARK 921   NORMALIZED FREE ENERGY PREDICTED BY IDOCK:   -3.56 KCAL/MOL
REMARK 922        TOTAL FREE ENERGY PREDICTED BY IDOCK:   -3.87 KCAL/MOL
REMARK 923 INTER-LIGAND FREE ENERGY PREDICTED BY IDOCK:   -3.39 KCAL/MOL
REMARK 924 INTRA-LIGAND FREE ENERGY PREDICTED BY IDOCK:   -0.48 KCAL/MOL
REMARK 927      BINDING AFFINITY PREDICTED BY RF-SCORE:    0.00 PKD
ROOT
HETATM    1  C   UNL     1      -9.383  12.084  66.551  1.00  0.00    -0.223 C  
HETATM    2  C   UNL     1      -9.275  13.027  67.783  1.00  0.00    -0.200 C  
HETATM    3  C   UNL     1      -7.789  13.335  68.264  1.00  0.00    -0.143 C  
HETATM    4  N   UNL     1      -7.462  12.543  69.448  1.00  0.00    -0.284 N  
HETATM    5  O   UNL     1     -10.768  12.125  66.161  1.00  0.00    -0.256 OA 
HETATM    6  C   UNL     1     -10.217  10.532  64.470  1.00  0.00    -0.355 C  
HETATM    7  C   UNL     1      -6.171  12.293  69.908  1.00  0.00    -0.110 C  
HETATM    8  C   UNL     1     -10.288  10.808  65.965  1.00  0.00    -0.238 C  
HETATM    9  H   UNL     1      -8.237  12.143  69.976  1.00  0.00     0.000 HD 
HETATM   10  C   UNL     1      -6.156  11.376  71.122  1.00  0.00     0.618 C  
HETATM   11  C   UNL     1     -11.109   9.758  66.740  1.00  0.00     0.228 C  
HETATM   12  O   UNL     1      -5.148  12.636  69.336  1.00  0.00    -0.072 OA 
HETATM   13  C   UNL     1      -6.521  10.000  70.567  1.00  0.00    -0.121 C  
HETATM   14  C   UNL     1     -10.740   8.281  66.370  1.00  0.00     0.602 C  
HETATM   15  C   UNL     1      -6.590   8.769  71.519  1.00  0.00    -0.080 C  
HETATM   16  C   UNL     1      -9.325   5.164  67.171  1.00  0.00    -0.129 C  
HETATM   17  O   UNL     1      -7.767  10.199  69.945  1.00  0.00    -0.160 OA 
HETATM   18  H   UNL     1      -7.994   9.344  69.600  1.00  0.00     0.000 HD 
HETATM   19  C   UNL     1      -7.687   7.666  71.142  1.00  0.00    -0.085 C  
HETATM   20  C   UNL     1      -5.152   8.181  71.481  1.00  0.00    -0.030 C  
HETATM   21  C   UNL     1      -6.855   9.095  73.016  1.00  0.00     0.465 C  
HETATM   22  C   UNL     1     -10.856   7.186  67.465  1.00  0.00    -0.311 C  
HETATM   23  C   UNL     1      -8.564   7.773  69.860  1.00  0.00    -0.137 C  
HETATM   24  O   UNL     1      -7.873   6.707  71.905  1.00  0.00    -0.097 OA 
HETATM   25  H   UNL     1     -10.626   5.192  69.761  1.00  0.00     0.000 HD 
HETATM   26  C   UNL     1      -9.472   6.546  67.827  1.00  0.00    -0.119 C  
HETATM   27  C   UNL     1      -9.126   6.431  69.347  1.00  0.00    -0.140 C  
HETATM   28  C   UNL     1      -9.725   8.772  70.015  1.00  0.00    -0.182 C  
HETATM   29  O   UNL     1     -10.280   6.018  70.078  1.00  0.00    -0.180 OA 
ENDROOT
BRANCH   3  30
HETATM   30  C   UNL     1      -7.282  14.757  68.657  1.00  0.00    -0.119 C  
HETATM   31  C   UNL     1      -6.482  15.481  67.820  1.00  0.00    -0.186 C  
HETATM   32  C   UNL     1      -8.093  15.396  69.763  1.00  0.00    -0.031 C  
BRANCH  31  33
HETATM   33  C   UNL     1      -6.512  16.906  67.605  1.00  0.00    -0.145 A  
HETATM   34  C   UNL     1      -5.809  17.826  68.389  1.00  0.00    -0.164 A  
HETATM   35  S   UNL     1      -6.289  19.418  67.993  1.00  0.00    -0.220 SA 
HETATM   36  C   UNL     1      -7.441  18.783  66.881  1.00  0.00    -0.221 A  
HETATM   37  N   UNL     1      -7.472  17.467  66.797  1.00  0.00    -0.200 NA 
HETATM   38  C   UNL     1      -8.324  19.719  66.127  1.00  0.00    -0.368 C  
ENDBRANCH  31  33
ENDBRANCH   3  30
TORSDOF 2
ENDMDL
MODEL       54
REMARK 921   NORMALIZED FREE ENERGY PREDICTED BY IDOCK:   -3.48 KCAL/MOL
REMARK 922        TOTAL FREE ENERGY PREDICTED BY IDOCK:   -3.78 KCAL/MOL
REMARK 923 INTER-LIGAND FREE ENERGY PREDICTED BY IDOCK:   -3.53 KCAL/MOL
REMARK 924 INTRA-LIGAND FREE ENERGY PREDICTED BY IDOCK:   -0.25 KCAL/MOL
REMARK 927      BINDING AFFINITY PREDICTED BY RF-SCORE:    0.00 PKD
ROOT
HETATM    1  C   UNL     1     -11.099  11.748  65.681  1.00  0.00    -0.285 C  
HETATM    2  C   UNL     1      -9.797  10.899  65.643  1.00  0.00    -0.292 C  
HETATM    3  C   UNL     1      -9.406  10.207  67.022  1.00  0.00    -0.154 C  
HETATM    4  N   UNL     1      -8.331  10.948  67.678  1.00  0.00    -0.116 N  
HETATM    5  O   UNL     1     -11.374  12.084  64.309  1.00  0.00    -0.330 OA 
HETATM    6  C   UNL     1     -13.244  13.333  65.112  1.00  0.00     0.199 C  
HETATM    7  C   UNL     1      -7.998  10.844  69.027  1.00  0.00    -0.131 C  
HETATM    8  C   UNL     1     -11.729  13.190  65.119  1.00  0.00    -0.336 C  
HETATM    9  H   UNL     1      -7.783  11.590  67.105  1.00  0.00     0.000 HD 
HETATM   10  C   UNL     1      -6.880  11.796  69.423  1.00  0.00    -0.067 C  
HETATM   11  C   UNL     1     -10.994  14.482  64.709  1.00  0.00    -0.404 C  
HETATM   12  O   UNL     1      -8.614  10.182  69.848  1.00  0.00    -0.177 OA 
HETATM   13  C   UNL     1      -7.531  13.179  69.407  1.00  0.00     0.428 C  
HETATM   14  C   UNL     1     -11.527  15.761  65.441  1.00  0.00     0.086 C  
HETATM   15  C   UNL     1      -6.695  14.438  69.786  1.00  0.00    -0.124 C  
HETATM   16  C   UNL     1     -11.134  18.381  67.752  1.00  0.00     0.054 C  
HETATM   17  O   UNL     1      -8.032  13.308  68.099  1.00  0.00    -0.130 OA 
HETATM   18  H   UNL     1      -8.437  14.167  68.089  1.00  0.00     0.000 HD 
HETATM   19  C   UNL     1      -7.086  15.783  69.012  1.00  0.00    -0.159 C  
HETATM   20  C   UNL     1      -6.900  14.581  71.319  1.00  0.00     1.073 C  
HETATM   21  C   UNL     1      -5.158  14.304  69.593  1.00  0.00    -0.091 C  
HETATM   22  C   UNL     1     -10.534  16.913  65.750  1.00  0.00    -0.279 C  
HETATM   23  C   UNL     1      -8.280  15.850  68.015  1.00  0.00    -0.150 C  
HETATM   24  O   UNL     1      -6.404  16.804  69.182  1.00  0.00    -0.174 OA 
HETATM   25  H   UNL     1      -8.458  18.904  66.765  1.00  0.00     0.000 HD 
HETATM   26  C   UNL     1     -10.342  17.148  67.289  1.00  0.00    -0.320 C  
HETATM   27  C   UNL     1      -8.871  17.259  67.805  1.00  0.00    -0.234 C  
HETATM   28  C   UNL     1      -7.943  15.242  66.641  1.00  0.00     0.007 C  
HETATM   29  O   UNL     1      -8.094  18.036  66.895  1.00  0.00    -0.222 OA 
ENDROOT
BRANCH   3  30
HETATM   30  C   UNL     1      -8.923   8.729  67.145  1.00  0.00    -0.146 C  
HETATM   31  C   UNL     1      -9.693   7.780  67.754  1.00  0.00    -0.186 C  
HETATM   32  C   UNL     1      -7.815   8.381  66.176  1.00  0.00    -0.101 C  
BRANCH  31  33
HETATM   33  C   UNL     1      -9.835   6.398  67.369  1.00  0.00    -0.131 A  
HETATM   34  C   UNL     1      -9.516   5.321  68.202  1.00  0.00    -0.123 A  
HETATM   35  S   UNL     1      -9.576   3.860  67.317  1.00  0.00    -0.129 SA 
HETATM   36  C   UNL     1      -9.937   4.752  65.889  1.00  0.00    -0.228 A  
HETATM   37  N   UNL     1     -10.016   6.060  66.049  1.00  0.00     0.057 NA 
HETATM   38  C   UNL     1     -10.104   4.028  64.596  1.00  0.00    -0.215 C  
ENDBRANCH  31  33
ENDBRANCH   3  30
TORSDOF 2
ENDMDL
MODEL       55
REMARK 921   NORMALIZED FREE ENERGY PREDICTED BY IDOCK:   -1.50 KCAL/MOL
REMARK 922        TOTAL FREE ENERGY PREDICTED BY IDOCK:   -1.56 KCAL/MOL
REMARK 923 INTER-LIGAND FREE ENERGY PREDICTED BY IDOCK:   -1.21 KCAL/MOL
REMARK 924 INTRA-LIGAND FREE ENERGY PREDICTED BY IDOCK:   -0.35 KCAL/MOL
REMARK 927      BINDING AFFINITY PREDICTED BY RF-SCORE:    0.00 PKD
ROOT
HETATM    1  C   UNL     1      -9.017  12.705  65.219  1.00  0.00     0.906 C  
HETATM    2  C   UNL     1      -9.432  13.376  66.558  1.00  0.00    -0.252 C  
HETATM    3  C   UNL     1      -8.221  13.889  67.456  1.00  0.00    -0.188 C  
HETATM    4  N   UNL     1      -7.972  12.960  68.556  1.00  0.00    -0.252 N  
HETATM    5  O   UNL     1     -10.243  12.528  64.487  1.00  0.00    -0.317 OA 
HETATM    6  C   UNL     1      -8.940  11.469  62.789  1.00  0.00    -0.084 C  
HETATM    7  C   UNL     1      -6.796  12.902  69.301  1.00  0.00    -0.018 C  
HETATM    8  C   UNL     1      -9.409  11.412  64.235  1.00  0.00    -0.063 C  
HETATM    9  H   UNL     1      -8.716  12.304  68.796  1.00  0.00     0.000 HD 
HETATM   10  C   UNL     1      -6.816  11.781  70.329  1.00  0.00     0.748 C  
HETATM   11  C   UNL     1     -10.084  10.075  64.604  1.00  0.00    -0.067 C  
HETATM   12  O   UNL     1      -5.796  13.565  69.076  1.00  0.00    -0.073 OA 
HETATM   13  C   UNL     1      -6.681  10.502  69.503  1.00  0.00    -0.089 C  
HETATM   14  C   UNL     1      -9.274   8.818  64.135  1.00  0.00     0.612 C  
HETATM   15  C   UNL     1      -6.640   9.116  70.214  1.00  0.00    -0.052 C  
HETATM   16  C   UNL     1      -7.319   5.979  64.822  1.00  0.00    -0.074 C  
HETATM   17  O   UNL     1      -7.766  10.554  68.609  1.00  0.00    -0.093 OA 
HETATM   18  H   UNL     1      -7.683   9.759  68.096  1.00  0.00     0.000 HD 
HETATM   19  C   UNL     1      -7.304   7.906  69.404  1.00  0.00    -0.081 C  
HETATM   20  C   UNL     1      -5.129   8.869  70.473  1.00  0.00    -0.020 C  
HETATM   21  C   UNL     1      -7.306   9.065  71.618  1.00  0.00     0.011 C  
HETATM   22  C   UNL     1      -9.345   7.524  64.990  1.00  0.00     1.041 C  
HETATM   23  C   UNL     1      -7.872   8.083  67.966  1.00  0.00    -0.126 C  
HETATM   24  O   UNL     1      -7.402   6.794  69.943  1.00  0.00    -0.084 OA 
HETATM   25  H   UNL     1      -9.125   5.198  66.951  1.00  0.00     0.000 HD 
HETATM   26  C   UNL     1      -7.958   7.133  65.609  1.00  0.00    -0.126 C  
HETATM   27  C   UNL     1      -7.941   6.787  67.133  1.00  0.00    -0.116 C  
HETATM   28  C   UNL     1      -9.256   8.759  67.950  1.00  0.00    -0.149 C  
HETATM   29  O   UNL     1      -9.082   5.997  67.464  1.00  0.00    -0.112 OA 
ENDROOT
BRANCH   3  30
HETATM   30  C   UNL     1      -8.198  15.275  68.171  1.00  0.00    -0.141 C  
HETATM   31  C   UNL     1      -7.362  16.272  67.756  1.00  0.00    -0.149 C  
HETATM   32  C   UNL     1      -9.435  15.541  68.998  1.00  0.00    -0.242 C  
BRANCH  31  33
HETATM   33  C   UNL     1      -7.645  17.685  67.721  1.00  0.00    -0.206 A  
HETATM   34  C   UNL     1      -8.674  18.254  66.964  1.00  0.00    -0.263 A  
HETATM   35  S   UNL     1      -8.538  19.957  66.980  1.00  0.00    -0.344 SA 
HETATM   36  C   UNL     1      -7.095  19.823  67.911  1.00  0.00    -0.274 A  
HETATM   37  N   UNL     1      -6.729  18.590  68.203  1.00  0.00    -0.219 NA 
HETATM   38  C   UNL     1      -6.354  21.059  68.294  1.00  0.00    -0.254 C  
ENDBRANCH  31  33
ENDBRANCH   3  30
TORSDOF 2
ENDMDL
MODEL       56
REMARK 921   NORMALIZED FREE ENERGY PREDICTED BY IDOCK:   -1.39 KCAL/MOL
REMARK 922        TOTAL FREE ENERGY PREDICTED BY IDOCK:   -1.44 KCAL/MOL
REMARK 923 INTER-LIGAND FREE ENERGY PREDICTED BY IDOCK:   -1.83 KCAL/MOL
REMARK 924 INTRA-LIGAND FREE ENERGY PREDICTED BY IDOCK:    0.39 KCAL/MOL
REMARK 927      BINDING AFFINITY PREDICTED BY RF-SCORE:    0.00 PKD
ROOT
HETATM    1  C   UNL     1      -8.892  11.256  67.267  1.00  0.00    -0.150 C  
HETATM    2  C   UNL     1      -8.823  10.506  68.627  1.00  0.00    -0.147 C  
HETATM    3  C   UNL     1     -10.196   9.861  69.109  1.00  0.00    -0.205 C  
HETATM    4  N   UNL     1     -10.813  10.688  70.144  1.00  0.00    -0.451 N  
HETATM    5  O   UNL     1      -7.525  11.555  66.928  1.00  0.00    -0.143 OA 
HETATM    6  C   UNL     1      -8.372  12.669  64.993  1.00  0.00     2.805 C  
HETATM    7  C   UNL     1     -12.152  10.624  70.524  1.00  0.00    -0.355 C  
HETATM    8  C   UNL     1      -8.335  12.640  66.514  1.00  0.00     0.194 C  
HETATM    9  H   UNL     1     -10.217  11.362  70.625  1.00  0.00     0.000 HD 
HETATM   10  C   UNL     1     -12.505  11.662  71.578  1.00  0.00    -0.238 C  
HETATM   11  C   UNL     1      -7.892  13.978  67.138  1.00  0.00    -0.049 C  
HETATM   12  O   UNL     1     -12.997   9.928  69.983  1.00  0.00     0.199 OA 
HETATM   13  C   UNL     1     -12.496  12.992  70.825  1.00  0.00    -0.302 C  
HETATM   14  C   UNL     1      -8.627  15.222  66.532  1.00  0.00    -0.264 C  
HETATM   15  C   UNL     1     -12.837  14.315  71.575  1.00  0.00    -0.419 C  
HETATM   16  C   UNL     1     -10.901  17.891  66.795  1.00  0.00    -0.025 C  
HETATM   17  O   UNL     1     -11.202  13.068  70.277  1.00  0.00    -0.387 OA 
HETATM   18  H   UNL     1     -11.196  13.894  69.809  1.00  0.00     0.000 HD 
HETATM   19  C   UNL     1     -12.063  15.618  71.061  1.00  0.00    -0.400 C  
HETATM   20  C   UNL     1     -14.374  14.459  71.404  1.00  0.00    -0.339 C  
HETATM   21  C   UNL     1     -12.600  14.293  73.111  1.00  0.00    -0.274 C  
HETATM   22  C   UNL     1      -8.896  16.449  67.445  1.00  0.00    -0.194 C  
HETATM   23  C   UNL     1     -11.102  15.583  69.837  1.00  0.00    -0.318 C  
HETATM   24  O   UNL     1     -12.203  16.688  71.669  1.00  0.00     0.030 OA 
HETATM   25  H   UNL     1      -9.830  18.601  69.394  1.00  0.00     0.000 HD 
HETATM   26  C   UNL     1     -10.426  16.715  67.663  1.00  0.00    -0.320 C  
HETATM   27  C   UNL     1     -10.897  16.942  69.136  1.00  0.00    -0.237 C  
HETATM   28  C   UNL     1      -9.724  14.986  70.178  1.00  0.00     0.265 C  
HETATM   29  O   UNL     1      -9.956  17.764  69.825  1.00  0.00     0.211 OA 
ENDROOT
BRANCH   3  30
HETATM   30  C   UNL     1     -10.318   8.425  69.705  1.00  0.00    -0.218 C  
HETATM   31  C   UNL     1     -10.609   8.227  71.025  1.00  0.00    -0.243 C  
HETATM   32  C   UNL     1     -10.536   7.359  68.655  1.00  0.00    -0.182 C  
BRANCH  31  33
HETATM   33  C   UNL     1     -11.436   7.189  71.587  1.00  0.00    -0.266 A  
HETATM   34  C   UNL     1     -12.818   7.305  71.762  1.00  0.00    -0.331 A  
HETATM   35  S   UNL     1     -13.404   5.987  72.678  1.00  0.00     1.341 SA 
HETATM   36  C   UNL     1     -11.792   5.403  72.847  1.00  0.00    -0.077 A  
HETATM   37  N   UNL     1     -10.866   6.133  72.258  1.00  0.00    -0.232 NA 
HETATM   38  C   UNL     1     -11.542   4.167  73.645  1.00  0.00    -0.104 C  
ENDBRANCH  31  33
ENDBRANCH   3  30
TORSDOF 2
ENDMDL
MODEL       57
REMARK 921   NORMALIZED FREE ENERGY PREDICTED BY IDOCK:   -1.35 KCAL/MOL
REMARK 922        TOTAL FREE ENERGY PREDICTED BY IDOCK:   -1.39 KCAL/MOL
REMARK 923 INTER-LIGAND FREE ENERGY PREDICTED BY IDOCK:   -1.08 KCAL/MOL
REMARK 924 INTRA-LIGAND FREE ENERGY PREDICTED BY IDOCK:   -0.31 KCAL/MOL
REMARK 927      BINDING AFFINITY PREDICTED BY RF-SCORE:    0.00 PKD
ROOT
HETATM    1  C   UNL     1      -9.135  10.872  66.630  1.00  0.00    -0.162 C  
HETATM    2  C   UNL     1      -8.341   9.630  67.124  1.00  0.00    -0.121 C  
HETATM    3  C   UNL     1      -9.044   8.229  66.844  1.00  0.00    -0.150 C  
HETATM    4  N   UNL     1      -9.665   7.717  68.064  1.00  0.00    -0.150 N  
HETATM    5  O   UNL     1      -8.232  11.983  66.779  1.00  0.00    -0.171 OA 
HETATM    6  C   UNL     1     -10.008  13.378  66.001  1.00  0.00    -0.300 C  
HETATM    7  C   UNL     1     -10.646   6.729  68.106  1.00  0.00    -0.230 C  
HETATM    8  C   UNL     1      -9.540  12.425  67.092  1.00  0.00    -0.206 C  
HETATM    9  H   UNL     1      -9.357   8.114  68.952  1.00  0.00     0.000 HD 
HETATM   10  C   UNL     1     -11.142   6.465  69.520  1.00  0.00    -0.460 C  
HETATM   11  C   UNL     1      -9.636  13.027  68.509  1.00  0.00    -0.113 C  
HETATM   12  O   UNL     1     -11.168   6.223  67.125  1.00  0.00    -0.334 OA 
HETATM   13  C   UNL     1     -11.978   7.696  69.868  1.00  0.00     0.544 C  
HETATM   14  C   UNL     1     -11.011  13.720  68.799  1.00  0.00    -0.289 C  
HETATM   15  C   UNL     1     -12.686   7.791  71.253  1.00  0.00    -0.277 C  
HETATM   16  C   UNL     1     -14.106  13.852  70.461  1.00  0.00     1.502 C  
HETATM   17  O   UNL     1     -11.088   8.773  69.706  1.00  0.00    -0.381 OA 
HETATM   18  H   UNL     1     -11.608   9.538  69.922  1.00  0.00     0.000 HD 
HETATM   19  C   UNL     1     -12.805   9.264  71.866  1.00  0.00    -0.404 C  
HETATM   20  C   UNL     1     -14.084   7.160  71.007  1.00  0.00     0.028 C  
HETATM   21  C   UNL     1     -12.051   6.940  72.388  1.00  0.00    -0.124 C  
HETATM   22  C   UNL     1     -11.566  13.698  70.249  1.00  0.00    -0.162 C  
HETATM   23  C   UNL     1     -12.327  10.527  71.091  1.00  0.00    -0.510 C  
HETATM   24  O   UNL     1     -13.264   9.414  73.008  1.00  0.00    -0.120 OA 
HETATM   25  H   UNL     1     -12.830  13.193  72.979  1.00  0.00     0.000 HD 
HETATM   26  C   UNL     1     -12.908  12.895  70.369  1.00  0.00     0.119 C  
HETATM   27  C   UNL     1     -12.999  11.846  71.524  1.00  0.00    -0.323 C  
HETATM   28  C   UNL     1     -10.799  10.710  71.134  1.00  0.00     1.098 C  
HETATM   29  O   UNL     1     -12.416  12.380  72.712  1.00  0.00     0.972 OA 
ENDROOT
BRANCH   3  30
HETATM   30  C   UNL     1      -8.295   6.977  66.295  1.00  0.00    -0.129 C  
HETATM   31  C   UNL     1      -7.616   6.134  67.128  1.00  0.00    -0.092 C  
HETATM   32  C   UNL     1      -8.759   6.560  64.917  1.00  0.00     0.211 C  
BRANCH  31  33
HETATM   33  C   UNL     1      -7.519   4.700  67.023  1.00  0.00    -0.086 A  
HETATM   34  C   UNL     1      -8.589   3.829  67.250  1.00  0.00    -0.103 A  
HETATM   35  S   UNL     1      -8.033   2.214  67.279  1.00  0.00    -0.067 SA 
HETATM   36  C   UNL     1      -6.418   2.778  67.074  1.00  0.00    -0.036 A  
HETATM   37  N   UNL     1      -6.289   4.088  66.982  1.00  0.00    -0.039 NA 
HETATM   38  C   UNL     1      -5.297   1.794  67.041  1.00  0.00    -0.016 C  
ENDBRANCH  31  33
ENDBRANCH   3  30
TORSDOF 2
ENDMDL
MODEL       58
REMARK 921   NORMALIZED FREE ENERGY PREDICTED BY IDOCK:   -1.30 KCAL/MOL
REMARK 922        TOTAL FREE ENERGY PREDICTED BY IDOCK:   -1.34 KCAL/MOL
REMARK 923 INTER-LIGAND FREE ENERGY PREDICTED BY IDOCK:   -2.42 KCAL/MOL
REMARK 924 INTRA-LIGAND FREE ENERGY PREDICTED BY IDOCK:    1.08 KCAL/MOL
REMARK 927      BINDING AFFINITY PREDICTED BY RF-SCORE:    0.00 PKD
ROOT
HETATM    1  C   UNL     1     -11.316  14.991  65.517  1.00  0.00    -0.312 C  
HETATM    2  C   UNL     1     -11.111  15.875  66.780  1.00  0.00    -0.064 C  
HETATM    3  C   UNL     1      -9.669  16.534  66.912  1.00  0.00    -0.251 C  
HETATM    4  N   UNL     1      -8.860  15.802  67.884  1.00  0.00    -0.174 N  
HETATM    5  O   UNL     1     -12.723  14.690  65.488  1.00  0.00    -0.229 OA 
HETATM    6  C   UNL     1     -12.281  13.368  63.549  1.00  0.00    -0.468 C  
HETATM    7  C   UNL     1      -7.472  15.874  67.982  1.00  0.00    -0.126 C  
HETATM    8  C   UNL     1     -12.014  13.551  65.036  1.00  0.00    -0.372 C  
HETATM    9  H   UNL     1      -9.349  15.193  68.540  1.00  0.00     0.000 HD 
HETATM   10  C   UNL     1      -6.917  14.939  69.047  1.00  0.00    -0.120 C  
HETATM   11  C   UNL     1     -12.326  12.292  65.870  1.00  0.00     0.124 C  
HETATM   12  O   UNL     1      -6.750  16.493  67.216  1.00  0.00    -0.146 OA 
HETATM   13  C   UNL     1      -7.079  13.541  68.451  1.00  0.00    -0.107 C  
HETATM   14  C   UNL     1     -11.729  10.978  65.261  1.00  0.00     0.855 C  
HETATM   15  C   UNL     1      -6.597  12.293  69.250  1.00  0.00    -0.099 C  
HETATM   16  C   UNL     1      -9.453   8.299  65.342  1.00  0.00     0.345 C  
HETATM   17  O   UNL     1      -8.456  13.439  68.181  1.00  0.00    -0.159 OA 
HETATM   18  H   UNL     1      -8.557  12.571  67.811  1.00  0.00     0.000 HD 
HETATM   19  C   UNL     1      -7.460  10.963  69.037  1.00  0.00    -0.124 C  
HETATM   20  C   UNL     1      -5.125  12.098  68.795  1.00  0.00    -0.050 C  
HETATM   21  C   UNL     1      -6.524  12.474  70.793  1.00  0.00     1.120 C  
HETATM   22  C   UNL     1     -11.286   9.843  66.224  1.00  0.00     0.863 C  
HETATM   23  C   UNL     1      -8.646  10.895  68.030  1.00  0.00    -0.131 C  
HETATM   24  O   UNL     1      -7.204   9.956  69.712  1.00  0.00    -0.085 OA 
HETATM   25  H   UNL     1      -9.986   7.877  68.160  1.00  0.00     0.000 HD 
HETATM   26  C   UNL     1      -9.744   9.566  66.161  1.00  0.00    -0.324 C  
HETATM   27  C   UNL     1      -8.989   9.478  67.527  1.00  0.00    -0.124 C  
HETATM   28  C   UNL     1      -9.928  11.554  68.574  1.00  0.00    -0.207 C  
HETATM   29  O   UNL     1      -9.775   8.750  68.470  1.00  0.00    -0.156 OA 
ENDROOT
BRANCH   3  30
HETATM   30  C   UNL     1      -9.428  18.020  67.321  1.00  0.00    -0.260 C  
HETATM   31  C   UNL     1      -8.799  18.341  68.490  1.00  0.00    -0.322 C  
HETATM   32  C   UNL     1      -9.527  18.983  66.159  1.00  0.00    -0.260 C  
BRANCH  31  33
HETATM   33  C   UNL     1      -7.878  19.427  68.712  1.00  0.00    -0.357 A  
HETATM   34  C   UNL     1      -7.410  20.269  67.699  1.00  0.00    -0.305 A  
HETATM   35  S   UNL     1      -6.156  21.263  68.298  1.00  0.00    -0.004 SA 
HETATM   36  C   UNL     1      -6.262  20.461  69.819  1.00  0.00    -0.273 A  
HETATM   37  N   UNL     1      -7.176  19.513  69.890  1.00  0.00    -0.020 NA 
HETATM   38  C   UNL     1      -5.330  20.849  70.918  1.00  0.00    -0.099 C  
ENDBRANCH  31  33
ENDBRANCH   3  30
TORSDOF 2
ENDMDL
MODEL       59
REMARK 921   NORMALIZED FREE ENERGY PREDICTED BY IDOCK:   -1.18 KCAL/MOL
REMARK 922        TOTAL FREE ENERGY PREDICTED BY IDOCK:   -1.20 KCAL/MOL
REMARK 923 INTER-LIGAND FREE ENERGY PREDICTED BY IDOCK:   -1.86 KCAL/MOL
REMARK 924 INTRA-LIGAND FREE ENERGY PREDICTED BY IDOCK:    0.66 KCAL/MOL
REMARK 927      BINDING AFFINITY PREDICTED BY RF-SCORE:    0.00 PKD
ROOT
HETATM    1  C   UNL     1      -6.498  14.039  69.991  1.00  0.00    -0.080 C  
HETATM    2  C   UNL     1      -6.408  14.453  68.495  1.00  0.00    -0.088 C  
HETATM    3  C   UNL     1      -7.808  14.734  67.791  1.00  0.00    -0.151 C  
HETATM    4  N   UNL     1      -8.195  13.600  66.955  1.00  0.00    -0.410 N  
HETATM    5  O   UNL     1      -5.141  14.056  70.472  1.00  0.00    -0.093 OA 
HETATM    6  C   UNL     1      -5.999  13.298  72.568  1.00  0.00     1.240 C  
HETATM    7  C   UNL     1      -9.486  13.352  66.494  1.00  0.00    -0.245 C  
HETATM    8  C   UNL     1      -5.820  12.979  71.090  1.00  0.00     0.126 C  
HETATM    9  H   UNL     1      -7.464  12.940  66.689  1.00  0.00     0.000 HD 
HETATM   10  C   UNL     1      -9.582  12.055  65.706  1.00  0.00    -0.227 C  
HETATM   11  C   UNL     1      -5.129  11.623  70.839  1.00  0.00    -0.127 C  
HETATM   12  O   UNL     1     -10.472  14.006  66.798  1.00  0.00    -0.274 OA 
HETATM   13  C   UNL     1      -9.451  10.956  66.761  1.00  0.00    -0.177 C  
HETATM   14  C   UNL     1      -5.730  10.451  71.687  1.00  0.00     0.227 C  
HETATM   15  C   UNL     1      -9.523   9.458  66.339  1.00  0.00    -0.259 C  
HETATM   16  C   UNL     1      -7.555   7.458  71.952  1.00  0.00    -0.084 C  
HETATM   17  O   UNL     1      -8.219  11.223  67.385  1.00  0.00    -0.127 OA 
HETATM   18  H   UNL     1      -8.138  10.541  68.040  1.00  0.00     0.000 HD 
HETATM   19  C   UNL     1      -8.621   8.455  67.200  1.00  0.00    -0.123 C  
HETATM   20  C   UNL     1     -11.032   9.106  66.449  1.00  0.00     0.689 C  
HETATM   21  C   UNL     1      -9.145   9.161  64.860  1.00  0.00    -0.190 C  
HETATM   22  C   UNL     1      -5.728   9.019  71.088  1.00  0.00    -0.047 C  
HETATM   23  C   UNL     1      -7.796   8.931  68.432  1.00  0.00    -0.104 C  
HETATM   24  O   UNL     1      -8.544   7.265  66.864  1.00  0.00    -0.119 OA 
HETATM   25  H   UNL     1      -6.147   6.349  69.673  1.00  0.00     0.000 HD 
HETATM   26  C   UNL     1      -7.175   8.461  70.852  1.00  0.00    -0.059 C  
HETATM   27  C   UNL     1      -7.464   7.825  69.454  1.00  0.00    -0.088 C  
HETATM   28  C   UNL     1      -6.494   9.650  68.036  1.00  0.00    -0.057 C  
HETATM   29  O   UNL     1      -6.352   7.031  69.043  1.00  0.00    -0.026 OA 
ENDROOT
BRANCH   3  30
HETATM   30  C   UNL     1      -8.079  15.952  66.856  1.00  0.00    -0.285 C  
HETATM   31  C   UNL     1      -9.310  16.542  66.798  1.00  0.00    -0.262 C  
HETATM   32  C   UNL     1      -6.817  16.659  66.413  1.00  0.00    -0.004 C  
BRANCH  31  33
HETATM   33  C   UNL     1      -9.595  17.947  66.652  1.00  0.00    -0.309 A  
HETATM   34  C   UNL     1     -10.413  18.475  65.649  1.00  0.00    -0.103 A  
HETATM   35  S   UNL     1     -10.309  20.181  65.647  1.00  0.00    -0.019 SA 
HETATM   36  C   UNL     1      -9.138  20.100  66.907  1.00  0.00    -0.356 A  
HETATM   37  N   UNL     1      -8.838  18.882  67.317  1.00  0.00    -0.278 NA 
HETATM   38  C   UNL     1      -8.530  21.361  67.424  1.00  0.00     0.631 C  
ENDBRANCH  31  33
ENDBRANCH   3  30
TORSDOF 2
ENDMDL
MODEL       60
REMARK 921   NORMALIZED FREE ENERGY PREDICTED BY IDOCK:   -0.91 KCAL/MOL
REMARK 922        TOTAL FREE ENERGY PREDICTED BY IDOCK:   -0.90 KCAL/MOL
REMARK 923 INTER-LIGAND FREE ENERGY PREDICTED BY IDOCK:   -0.92 KCAL/MOL
REMARK 924 INTRA-LIGAND FREE ENERGY PREDICTED BY IDOCK:    0.02 KCAL/MOL
REMARK 927      BINDING AFFINITY PREDICTED BY RF-SCORE:    0.00 PKD
ROOT
HETATM    1  C   UNL     1      -6.884  11.904  70.027  1.00  0.00     0.394 C  
HETATM    2  C   UNL     1      -7.422  11.804  68.572  1.00  0.00    -0.110 C  
HETATM    3  C   UNL     1      -8.994  12.002  68.422  1.00  0.00    -0.153 C  
HETATM    4  N   UNL     1      -9.655  10.711  68.242  1.00  0.00    -0.157 N  
HETATM    5  O   UNL     1      -5.449  11.920  69.902  1.00  0.00    -0.077 OA 
HETATM    6  C   UNL     1      -5.359  11.975  72.287  1.00  0.00     0.534 C  
HETATM    7  C   UNL     1     -11.015  10.477  68.437  1.00  0.00    -0.261 C  
HETATM    8  C   UNL     1      -5.788  11.182  71.061  1.00  0.00     0.095 C  
HETATM    9  H   UNL     1      -9.077   9.922  67.952  1.00  0.00     0.000 HD 
HETATM   10  C   UNL     1     -11.386   9.015  68.240  1.00  0.00     0.572 C  
HETATM   11  C   UNL     1      -5.220   9.748  71.035  1.00  0.00    -0.053 C  
HETATM   12  O   UNL     1     -11.810  11.301  68.861  1.00  0.00    -0.317 OA 
HETATM   13  C   UNL     1     -10.806   8.305  69.463  1.00  0.00    -0.116 C  
HETATM   14  C   UNL     1      -5.391   8.985  72.393  1.00  0.00    -0.070 C  
HETATM   15  C   UNL     1     -11.001   6.769  69.637  1.00  0.00    -0.336 C  
HETATM   16  C   UNL     1      -6.865   6.461  74.346  1.00  0.00    -0.085 C  
HETATM   17  O   UNL     1      -9.435   8.616  69.424  1.00  0.00    -0.159 OA 
HETATM   18  H   UNL     1      -9.075   8.175  70.184  1.00  0.00     0.000 HD 
HETATM   19  C   UNL     1      -9.799   5.999  70.360  1.00  0.00    -0.179 C  
HETATM   20  C   UNL     1     -12.324   6.644  70.441  1.00  0.00     0.003 C  
HETATM   21  C   UNL     1     -11.248   5.973  68.324  1.00  0.00    -0.089 C  
HETATM   22  C   UNL     1      -5.593   7.446  72.364  1.00  0.00    -0.037 C  
HETATM   23  C   UNL     1      -8.558   6.747  70.931  1.00  0.00    -0.137 C  
HETATM   24  O   UNL     1      -9.831   4.763  70.446  1.00  0.00    -0.201 OA 
HETATM   25  H   UNL     1      -6.475   4.529  72.220  1.00  0.00     0.000 HD 
HETATM   26  C   UNL     1      -6.993   7.010  72.917  1.00  0.00    -0.069 C  
HETATM   27  C   UNL     1      -7.808   5.997  72.050  1.00  0.00    -0.106 C  
HETATM   28  C   UNL     1      -7.550   7.150  69.838  1.00  0.00    -0.098 C  
HETATM   29  O   UNL     1      -6.937   4.992  71.531  1.00  0.00    -0.049 OA 
ENDROOT
BRANCH   3  30
HETATM   30  C   UNL     1      -9.656  12.879  67.316  1.00  0.00    -0.220 C  
HETATM   31  C   UNL     1      -9.529  12.567  65.992  1.00  0.00    -0.154 C  
HETATM   32  C   UNL     1     -10.764  13.766  67.840  1.00  0.00    -0.256 C  
BRANCH  31  33
HETATM   33  C   UNL     1     -10.530  12.712  64.965  1.00  0.00    -0.308 A  
HETATM   34  C   UNL     1     -10.708  13.875  64.211  1.00  0.00    -0.125 A  
HETATM   35  S   UNL     1     -12.136  13.756  63.281  1.00  0.00     0.454 SA 
HETATM   36  C   UNL     1     -12.460  12.222  63.994  1.00  0.00    -0.458 A  
HETATM   37  N   UNL     1     -11.563  11.811  64.870  1.00  0.00    -0.216 NA 
HETATM   38  C   UNL     1     -13.703  11.487  63.619  1.00  0.00     1.620 C  
ENDBRANCH  31  33
ENDBRANCH   3  30
TORSDOF 2
ENDMDL
MODEL       61
REMARK 921   NORMALIZED FREE ENERGY PREDICTED BY IDOCK:   -0.10 KCAL/MOL
REMARK 922        TOTAL FREE ENERGY PREDICTED BY IDOCK:    0.00 KCAL/MOL
REMARK 923 INTER-LIGAND FREE ENERGY PREDICTED BY IDOCK:    0.14 KCAL/MOL
REMARK 924 INTRA-LIGAND FREE ENERGY PREDICTED BY IDOCK:   -0.14 KCAL/MOL
REMARK 927      BINDING AFFINITY PREDICTED BY RF-SCORE:    0.00 PKD
ROOT
HETATM    1  C   UNL     1      -9.059  13.296  66.681  1.00  0.00    -0.171 C  
HETATM    2  C   UNL     1      -8.209  12.071  67.120  1.00  0.00    -0.181 C  
HETATM    3  C   UNL     1      -8.805  10.655  66.701  1.00  0.00    -0.141 C  
HETATM    4  N   UNL     1      -9.446  10.012  67.846  1.00  0.00    -0.144 N  
HETATM    5  O   UNL     1      -8.240  14.446  66.959  1.00  0.00    -0.189 OA 
HETATM    6  C   UNL     1     -10.066  15.784  66.199  1.00  0.00    -0.337 C  
HETATM    7  C   UNL     1     -10.360   8.964  67.764  1.00  0.00    -0.242 C  
HETATM    8  C   UNL     1      -9.587  14.780  67.237  1.00  0.00    -0.223 C  
HETATM    9  H   UNL     1      -9.206  10.357  68.775  1.00  0.00     0.000 HD 
HETATM   10  C   UNL     1     -10.903   8.560  69.126  1.00  0.00    -0.049 C  
HETATM   11  C   UNL     1      -9.788  15.263  68.688  1.00  0.00    -0.211 C  
HETATM   12  O   UNL     1     -10.802   8.505  66.723  1.00  0.00    -0.153 OA 
HETATM   13  C   UNL     1     -11.833   9.706  69.523  1.00  0.00     0.354 C  
HETATM   14  C   UNL     1     -11.217  15.844  68.960  1.00  0.00    -0.327 C  
HETATM   15  C   UNL     1     -12.608   9.648  70.873  1.00  0.00    -0.299 C  
HETATM   16  C   UNL     1     -14.387  15.653  70.467  1.00  0.00     1.230 C  
HETATM   17  O   UNL     1     -11.009  10.846  69.488  1.00  0.00    -0.233 OA 
HETATM   18  H   UNL     1     -11.587  11.558  69.734  1.00  0.00     0.000 HD 
HETATM   19  C   UNL     1     -12.852  11.059  71.589  1.00  0.00    -0.435 C  
HETATM   20  C   UNL     1     -13.948   8.952  70.511  1.00  0.00     0.828 C  
HETATM   21  C   UNL     1     -11.971   8.753  71.973  1.00  0.00    -0.446 C  
HETATM   22  C   UNL     1     -11.836  15.673  70.374  1.00  0.00    -0.395 C  
HETATM   23  C   UNL     1     -12.424  12.406  70.935  1.00  0.00    -0.367 C  
HETATM   24  O   UNL     1     -13.371  11.090  72.714  1.00  0.00     0.417 OA 
HETATM   25  H   UNL     1     -13.187  14.879  72.990  1.00  0.00     0.000 HD 
HETATM   26  C   UNL     1     -13.126  14.782  70.364  1.00  0.00    -0.189 C  
HETATM   27  C   UNL     1     -13.200  13.643  71.432  1.00  0.00    -0.283 C  
HETATM   28  C   UNL     1     -10.914  12.679  71.070  1.00  0.00     3.446 C  
HETATM   29  O   UNL     1     -12.709  14.117  72.684  1.00  0.00    -0.334 OA 
ENDROOT
BRANCH   3  30
HETATM   30  C   UNL     1      -7.950   9.499  66.098  1.00  0.00    -0.107 C  
HETATM   31  C   UNL     1      -7.173   8.702  66.891  1.00  0.00    -0.075 C  
HETATM   32  C   UNL     1      -8.403   9.079  64.717  1.00  0.00    -0.181 C  
BRANCH  31  33
HETATM   33  C   UNL     1      -6.940   7.288  66.740  1.00  0.00    -0.074 A  
HETATM   34  C   UNL     1      -6.256   6.724  65.659  1.00  0.00    -0.039 A  
HETATM   35  S   UNL     1      -6.399   5.021  65.701  1.00  0.00    -0.036 SA 
HETATM   36  C   UNL     1      -7.415   5.152  67.086  1.00  0.00    -0.087 A  
HETATM   37  N   UNL     1      -7.637   6.384  67.504  1.00  0.00    -0.098 NA 
HETATM   38  C   UNL     1      -7.988   3.916  67.693  1.00  0.00    -0.090 C  
ENDBRANCH  31  33
ENDBRANCH   3  30
TORSDOF 2
ENDMDL
MODEL       62
REMARK 921   NORMALIZED FREE ENERGY PREDICTED BY IDOCK:    0.13 KCAL/MOL
REMARK 922        TOTAL FREE ENERGY PREDICTED BY IDOCK:    0.26 KCAL/MOL
REMARK 923 INTER-LIGAND FREE ENERGY PREDICTED BY IDOCK:   -0.63 KCAL/MOL
REMARK 924 INTRA-LIGAND FREE ENERGY PREDICTED BY IDOCK:    0.90 KCAL/MOL
REMARK 927      BINDING AFFINITY PREDICTED BY RF-SCORE:    0.00 PKD
ROOT
HETATM    1  C   UNL     1      -9.987   8.291  66.985  1.00  0.00    -0.255 C  
HETATM    2  C   UNL     1     -10.345   9.614  67.719  1.00  0.00    -0.286 C  
HETATM    3  C   UNL     1      -9.123  10.609  67.943  1.00  0.00    -0.145 C  
HETATM    4  N   UNL     1      -8.651  10.534  69.324  1.00  0.00    -0.270 N  
HETATM    5  O   UNL     1     -11.250   7.662  66.697  1.00  0.00     0.355 OA 
HETATM    6  C   UNL     1     -10.003   5.850  65.768  1.00  0.00     0.267 C  
HETATM    7  C   UNL     1      -7.408  10.981  69.767  1.00  0.00     0.061 C  
HETATM    8  C   UNL     1     -10.313   6.652  67.024  1.00  0.00    -0.262 C  
HETATM    9  H   UNL     1      -9.279  10.124  70.015  1.00  0.00     0.000 HD 
HETATM   10  C   UNL     1      -7.184  10.699  71.246  1.00  0.00     2.410 C  
HETATM   11  C   UNL     1     -10.776   5.777  68.206  1.00  0.00    -0.285 C  
HETATM   12  O   UNL     1      -6.525  11.415  69.045  1.00  0.00    -0.056 OA 
HETATM   13  C   UNL     1      -6.976   9.187  71.320  1.00  0.00    -0.052 C  
HETATM   14  C   UNL     1      -9.868   4.523  68.446  1.00  0.00    -0.153 C  
HETATM   15  C   UNL     1      -6.692   8.506  72.692  1.00  0.00    -0.077 C  
HETATM   16  C   UNL     1      -7.516   2.740  70.356  1.00  0.00    -0.040 C  
HETATM   17  O   UNL     1      -8.144   8.650  70.748  1.00  0.00    -0.102 OA 
HETATM   18  H   UNL     1      -8.014   7.710  70.793  1.00  0.00     0.000 HD 
HETATM   19  C   UNL     1      -7.278   7.027  72.862  1.00  0.00    -0.073 C  
HETATM   20  C   UNL     1      -5.143   8.523  72.809  1.00  0.00    -0.042 C  
HETATM   21  C   UNL     1      -7.201   9.280  73.941  1.00  0.00     0.771 C  
HETATM   22  C   UNL     1      -9.690   3.996  69.896  1.00  0.00    -0.263 C  
HETATM   23  C   UNL     1      -8.006   6.284  71.703  1.00  0.00    -0.102 C  
HETATM   24  O   UNL     1      -7.183   6.456  73.958  1.00  0.00    -0.086 OA 
HETATM   25  H   UNL     1      -8.987   3.319  72.785  1.00  0.00     0.000 HD 
HETATM   26  C   UNL     1      -8.210   4.109  70.402  1.00  0.00    -0.068 C  
HETATM   27  C   UNL     1      -7.997   4.746  71.814  1.00  0.00    -0.100 C  
HETATM   28  C   UNL     1      -9.457   6.761  71.509  1.00  0.00    -0.156 C  
HETATM   29  O   UNL     1      -8.992   4.267  72.717  1.00  0.00    -0.106 OA 
ENDROOT
BRANCH   3  30
HETATM   30  C   UNL     1      -9.200  12.146  67.694  1.00  0.00    -0.181 C  
HETATM   31  C   UNL     1     -10.235  12.893  68.182  1.00  0.00    -0.239 C  
HETATM   32  C   UNL     1      -7.873  12.755  67.298  1.00  0.00    -0.148 C  
BRANCH  31  33
HETATM   33  C   UNL     1     -10.167  14.234  68.706  1.00  0.00    -0.226 A  
HETATM   34  C   UNL     1     -10.543  14.581  70.007  1.00  0.00     0.158 A  
HETATM   35  S   UNL     1     -10.563  16.282  70.177  1.00  0.00    -0.086 SA 
HETATM   36  C   UNL     1     -10.155  16.441  68.511  1.00  0.00    -0.248 A  
HETATM   37  N   UNL     1     -10.006  15.304  67.858  1.00  0.00    -0.227 NA 
HETATM   38  C   UNL     1     -10.027  17.803  67.915  1.00  0.00    -0.322 C  
ENDBRANCH  31  33
ENDBRANCH   3  30
TORSDOF 2
ENDMDL
MODEL       63
REMARK 921   NORMALIZED FREE ENERGY PREDICTED BY IDOCK:    0.18 KCAL/MOL
REMARK 922        TOTAL FREE ENERGY PREDICTED BY IDOCK:    0.31 KCAL/MOL
REMARK 923 INTER-LIGAND FREE ENERGY PREDICTED BY IDOCK:    0.37 KCAL/MOL
REMARK 924 INTRA-LIGAND FREE ENERGY PREDICTED BY IDOCK:   -0.06 KCAL/MOL
REMARK 927      BINDING AFFINITY PREDICTED BY RF-SCORE:    0.00 PKD
ROOT
HETATM    1  C   UNL     1      -7.243   8.856  69.501  1.00  0.00    -0.063 C  
HETATM    2  C   UNL     1      -7.158   9.800  68.269  1.00  0.00    -0.077 C  
HETATM    3  C   UNL     1      -8.526  10.001  67.481  1.00  0.00    -0.118 C  
HETATM    4  N   UNL     1      -8.535   9.199  66.260  1.00  0.00    -0.121 N  
HETATM    5  O   UNL     1      -5.979   8.996  70.176  1.00  0.00    -0.033 OA 
HETATM    6  C   UNL     1      -6.754   7.350  71.722  1.00  0.00    -0.053 C  
HETATM    7  C   UNL     1      -9.676   8.857  65.538  1.00  0.00     0.081 C  
HETATM    8  C   UNL     1      -6.389   7.645  70.274  1.00  0.00    -0.034 C  
HETATM    9  H   UNL     1      -7.637   8.863  65.911  1.00  0.00     0.000 HD 
HETATM   10  C   UNL     1      -9.364   7.954  64.354  1.00  0.00     1.694 C  
HETATM   11  C   UNL     1      -5.345   6.667  69.697  1.00  0.00    -0.014 C  
HETATM   12  O   UNL     1     -10.820   9.117  65.878  1.00  0.00     0.717 OA 
HETATM   13  C   UNL     1      -9.023   6.604  64.983  1.00  0.00     0.432 C  
HETATM   14  C   UNL     1      -5.672   5.163  69.990  1.00  0.00    -0.016 C  
HETATM   15  C   UNL     1      -8.662   5.390  64.074  1.00  0.00     0.045 C  
HETATM   16  C   UNL     1      -6.647   1.957  68.926  1.00  0.00    -0.029 C  
HETATM   17  O   UNL     1      -7.955   6.889  65.853  1.00  0.00    -0.101 OA 
HETATM   18  H   UNL     1      -7.743   6.050  66.244  1.00  0.00     0.000 HD 
HETATM   19  C   UNL     1      -7.590   4.369  64.682  1.00  0.00    -0.073 C  
HETATM   20  C   UNL     1     -10.026   4.696  63.810  1.00  0.00     0.302 C  
HETATM   21  C   UNL     1      -8.111   5.750  62.666  1.00  0.00    -0.108 C  
HETATM   22  C   UNL     1      -5.245   4.091  68.951  1.00  0.00    -0.011 C  
HETATM   23  C   UNL     1      -7.015   4.528  66.120  1.00  0.00    -0.063 C  
HETATM   24  O   UNL     1      -7.174   3.435  63.982  1.00  0.00    -0.052 OA 
HETATM   25  H   UNL     1      -4.832   2.109  66.670  1.00  0.00     0.000 HD 
HETATM   26  C   UNL     1      -6.469   3.353  68.308  1.00  0.00    -0.037 C  
HETATM   27  C   UNL     1      -6.475   3.228  66.749  1.00  0.00    -0.037 C  
HETATM   28  C   UNL     1      -5.926   5.614  66.210  1.00  0.00    -0.022 C  
HETATM   29  O   UNL     1      -5.164   2.910  66.283  1.00  0.00    -0.007 OA 
ENDROOT
BRANCH   3  30
HETATM   30  C   UNL     1      -9.044  11.385  66.981  1.00  0.00    -0.169 C  
HETATM   31  C   UNL     1     -10.297  11.829  67.294  1.00  0.00    -0.231 C  
HETATM   32  C   UNL     1      -7.934  12.318  66.550  1.00  0.00     0.202 C  
BRANCH  31  33
HETATM   33  C   UNL     1     -10.690  13.182  67.595  1.00  0.00    -0.238 A  
HETATM   34  C   UNL     1     -10.772  14.199  66.639  1.00  0.00    -0.289 A  
HETATM   35  S   UNL     1     -11.022  15.705  67.407  1.00  0.00    -0.255 SA 
HETATM   36  C   UNL     1     -10.924  14.927  68.940  1.00  0.00    -0.251 A  
HETATM   37  N   UNL     1     -10.723  13.624  68.896  1.00  0.00    -0.238 NA 
HETATM   38  C   UNL     1     -11.038  15.743  70.184  1.00  0.00    -0.360 C  
ENDBRANCH  31  33
ENDBRANCH   3  30
TORSDOF 2
ENDMDL
MODEL       64
REMARK 921   NORMALIZED FREE ENERGY PREDICTED BY IDOCK:    0.50 KCAL/MOL
REMARK 922        TOTAL FREE ENERGY PREDICTED BY IDOCK:    0.68 KCAL/MOL
REMARK 923 INTER-LIGAND FREE ENERGY PREDICTED BY IDOCK:    1.01 KCAL/MOL
REMARK 924 INTRA-LIGAND FREE ENERGY PREDICTED BY IDOCK:   -0.33 KCAL/MOL
REMARK 927      BINDING AFFINITY PREDICTED BY RF-SCORE:    0.00 PKD
ROOT
HETATM    1  C   UNL     1     -11.316  11.809  69.841  1.00  0.00    -0.121 C  
HETATM    2  C   UNL     1      -9.949  12.549  69.814  1.00  0.00     1.703 C  
HETATM    3  C   UNL     1      -9.269  12.652  68.379  1.00  0.00    -0.135 C  
HETATM    4  N   UNL     1      -8.194  11.671  68.252  1.00  0.00    -0.150 N  
HETATM    5  O   UNL     1     -11.841  12.027  71.163  1.00  0.00     0.177 OA 
HETATM    6  C   UNL     1     -13.690  10.655  70.529  1.00  0.00     0.910 C  
HETATM    7  C   UNL     1      -7.641  11.243  67.047  1.00  0.00    -0.143 C  
HETATM    8  C   UNL     1     -12.186  10.716  70.757  1.00  0.00    -0.375 C  
HETATM    9  H   UNL     1      -7.820  11.268  69.112  1.00  0.00     0.000 HD 
HETATM   10  C   UNL     1      -6.589  10.162  67.242  1.00  0.00    -0.069 C  
HETATM   11  C   UNL     1     -11.675   9.641  71.738  1.00  0.00    -0.356 C  
HETATM   12  O   UNL     1      -8.040  11.574  65.941  1.00  0.00     0.034 OA 
HETATM   13  C   UNL     1      -7.386   8.919  67.635  1.00  0.00    -0.085 C  
HETATM   14  C   UNL     1     -12.227   8.207  71.433  1.00  0.00    -0.324 C  
HETATM   15  C   UNL     1      -6.649   7.573  67.904  1.00  0.00    -0.058 C  
HETATM   16  C   UNL     1     -11.770   4.894  70.349  1.00  0.00     3.757 C  
HETATM   17  O   UNL     1      -8.100   9.315  68.780  1.00  0.00    -0.101 OA 
HETATM   18  H   UNL     1      -8.596   8.543  69.024  1.00  0.00     0.000 HD 
HETATM   19  C   UNL     1      -7.307   6.638  69.023  1.00  0.00    -0.094 C  
HETATM   20  C   UNL     1      -6.622   6.873  66.518  1.00  0.00    -0.052 C  
HETATM   21  C   UNL     1      -5.156   7.700  68.322  1.00  0.00    -0.026 C  
HETATM   22  C   UNL     1     -11.333   6.979  71.757  1.00  0.00    -0.291 C  
HETATM   23  C   UNL     1      -8.644   7.007  69.731  1.00  0.00    -0.141 C  
HETATM   24  O   UNL     1      -6.726   5.599  69.367  1.00  0.00    -0.054 OA 
HETATM   25  H   UNL     1      -9.361   4.660  71.945  1.00  0.00     0.000 HD 
HETATM   26  C   UNL     1     -10.928   6.173  70.474  1.00  0.00    -0.384 C  
HETATM   27  C   UNL     1      -9.415   5.809  70.322  1.00  0.00    -0.161 C  
HETATM   28  C   UNL     1      -8.462   8.072  70.829  1.00  0.00    -0.124 C  
HETATM   29  O   UNL     1      -8.886   5.398  71.581  1.00  0.00    -0.133 OA 
ENDROOT
BRANCH   3  30
HETATM   30  C   UNL     1      -8.609  13.951  67.823  1.00  0.00    -0.182 C  
HETATM   31  C   UNL     1      -9.328  14.857  67.096  1.00  0.00    -0.227 C  
HETATM   32  C   UNL     1      -7.316  14.310  68.521  1.00  0.00    -0.117 C  
BRANCH  31  33
HETATM   33  C   UNL     1      -9.206  16.293  67.132  1.00  0.00    -0.213 A  
HETATM   34  C   UNL     1     -10.229  17.150  67.547  1.00  0.00    -0.323 A  
HETATM   35  S   UNL     1      -9.805  18.772  67.214  1.00  0.00    -0.332 SA 
HETATM   36  C   UNL     1      -8.347  18.226  66.475  1.00  0.00    -0.266 A  
HETATM   37  N   UNL     1      -8.173  16.919  66.476  1.00  0.00    -0.257 NA 
HETATM   38  C   UNL     1      -7.414  19.223  65.874  1.00  0.00    -0.282 C  
ENDBRANCH  31  33
ENDBRANCH   3  30
TORSDOF 2
ENDMDL
MODEL       65
REMARK 921   NORMALIZED FREE ENERGY PREDICTED BY IDOCK:    0.84 KCAL/MOL
REMARK 922        TOTAL FREE ENERGY PREDICTED BY IDOCK:    1.05 KCAL/MOL
REMARK 923 INTER-LIGAND FREE ENERGY PREDICTED BY IDOCK:    1.12 KCAL/MOL
REMARK 924 INTRA-LIGAND FREE ENERGY PREDICTED BY IDOCK:   -0.07 KCAL/MOL
REMARK 927      BINDING AFFINITY PREDICTED BY RF-SCORE:    0.00 PKD
ROOT
HETATM    1  C   UNL     1     -10.570   7.070  66.505  1.00  0.00     0.062 C  
HETATM    2  C   UNL     1     -11.209   8.482  66.622  1.00  0.00     1.488 C  
HETATM    3  C   UNL     1     -10.366   9.658  65.960  1.00  0.00    -0.090 C  
HETATM    4  N   UNL     1      -9.660  10.421  66.987  1.00  0.00    -0.163 N  
HETATM    5  O   UNL     1     -11.583   6.154  66.960  1.00  0.00     0.129 OA 
HETATM    6  C   UNL     1      -9.992   4.406  66.619  1.00  0.00    -0.234 C  
HETATM    7  C   UNL     1      -8.577  11.264  66.751  1.00  0.00    -0.159 C  
HETATM    8  C   UNL     1     -10.323   5.675  67.392  1.00  0.00    -0.230 C  
HETATM    9  H   UNL     1      -9.985  10.328  67.949  1.00  0.00     0.000 HD 
HETATM   10  C   UNL     1      -8.016  11.860  68.033  1.00  0.00    -0.147 C  
HETATM   11  C   UNL     1     -10.254   5.491  68.922  1.00  0.00    -0.284 C  
HETATM   12  O   UNL     1      -8.030  11.410  65.669  1.00  0.00     0.119 OA 
HETATM   13  C   UNL     1      -7.310  10.692  68.721  1.00  0.00    -0.100 C  
HETATM   14  C   UNL     1      -8.956   4.759  69.404  1.00  0.00    -0.135 C  
HETATM   15  C   UNL     1      -6.579  10.914  70.079  1.00  0.00    -0.151 C  
HETATM   16  C   UNL     1      -5.848   4.756  71.048  1.00  0.00    -0.017 C  
HETATM   17  O   UNL     1      -8.316   9.720  68.867  1.00  0.00    -0.110 OA 
HETATM   18  H   UNL     1      -7.877   8.994  69.294  1.00  0.00     0.000 HD 
HETATM   19  C   UNL     1      -6.604   9.670  71.086  1.00  0.00     0.021 C  
HETATM   20  C   UNL     1      -5.128  11.289  69.671  1.00  0.00    -0.041 C  
HETATM   21  C   UNL     1      -7.086  12.117  70.923  1.00  0.00     3.546 C  
HETATM   22  C   UNL     1      -8.361   5.129  70.790  1.00  0.00    -0.113 C  
HETATM   23  C   UNL     1      -7.237   8.301  70.699  1.00  0.00    -0.049 C  
HETATM   24  O   UNL     1      -6.133   9.799  72.225  1.00  0.00    -0.287 OA 
HETATM   25  H   UNL     1      -6.976   6.240  73.269  1.00  0.00     0.000 HD 
HETATM   26  C   UNL     1      -6.937   5.777  70.682  1.00  0.00    -0.058 C  
HETATM   27  C   UNL     1      -6.701   7.092  71.493  1.00  0.00    -0.051 C  
HETATM   28  C   UNL     1      -8.775   8.311  70.785  1.00  0.00    -0.151 C  
HETATM   29  O   UNL     1      -7.306   6.985  72.780  1.00  0.00    -0.077 OA 
ENDROOT
BRANCH   3  30
HETATM   30  C   UNL     1     -10.990  10.779  65.074  1.00  0.00     0.078 C  
HETATM   31  C   UNL     1     -11.786  11.750  65.613  1.00  0.00    -0.099 C  
HETATM   32  C   UNL     1     -10.291  10.947  63.743  1.00  0.00    -0.384 C  
BRANCH  31  33
HETATM   33  C   UNL     1     -11.838  13.140  65.236  1.00  0.00    -0.365 A  
HETATM   34  C   UNL     1     -12.433  13.605  64.060  1.00  0.00    -0.225 A  
HETATM   35  S   UNL     1     -12.079  15.262  63.840  1.00  0.00     0.414 SA 
HETATM   36  C   UNL     1     -11.105  15.230  65.261  1.00  0.00    -0.376 A  
HETATM   37  N   UNL     1     -11.044  14.063  65.873  1.00  0.00    -0.299 NA 
HETATM   38  C   UNL     1     -10.390  16.468  65.686  1.00  0.00    -0.342 C  
ENDBRANCH  31  33
ENDBRANCH   3  30
TORSDOF 2
ENDMDL
MODEL       66
REMARK 921   NORMALIZED FREE ENERGY PREDICTED BY IDOCK:    1.73 KCAL/MOL
REMARK 922        TOTAL FREE ENERGY PREDICTED BY IDOCK:    2.05 KCAL/MOL
REMARK 923 INTER-LIGAND FREE ENERGY PREDICTED BY IDOCK:    2.21 KCAL/MOL
REMARK 924 INTRA-LIGAND FREE ENERGY PREDICTED BY IDOCK:   -0.16 KCAL/MOL
REMARK 927      BINDING AFFINITY PREDICTED BY RF-SCORE:    0.00 PKD
ROOT
HETATM    1  C   UNL     1     -10.550   7.529  66.832  1.00  0.00    -0.297 C  
HETATM    2  C   UNL     1     -10.861   8.880  67.536  1.00  0.00    -0.108 C  
HETATM    3  C   UNL     1      -9.639   9.898  67.605  1.00  0.00    -0.148 C  
HETATM    4  N   UNL     1      -9.045   9.891  68.940  1.00  0.00    -0.149 N  
HETATM    5  O   UNL     1     -11.824   6.874  66.687  1.00  0.00     1.137 OA 
HETATM    6  C   UNL     1     -10.637   5.036  65.730  1.00  0.00    -0.158 C  
HETATM    7  C   UNL     1      -7.774  10.371  69.250  1.00  0.00    -0.140 C  
HETATM    8  C   UNL     1     -10.846   5.890  66.972  1.00  0.00    -0.295 C  
HETATM    9  H   UNL     1      -9.603   9.506  69.702  1.00  0.00     0.000 HD 
HETATM   10  C   UNL     1      -7.415  10.159  70.713  1.00  0.00     0.526 C  
HETATM   11  C   UNL     1     -11.188   5.064  68.229  1.00  0.00     1.758 C  
HETATM   12  O   UNL     1      -6.966  10.782  68.432  1.00  0.00    -0.066 OA 
HETATM   13  C   UNL     1      -7.178   8.654  70.834  1.00  0.00    -0.073 C  
HETATM   14  C   UNL     1     -10.243   3.833  68.441  1.00  0.00     0.673 C  
HETATM   15  C   UNL     1      -6.762   8.039  72.205  1.00  0.00    -0.069 C  
HETATM   16  C   UNL     1      -7.703   2.165  70.208  1.00  0.00    -0.044 C  
HETATM   17  O   UNL     1      -8.384   8.079  70.394  1.00  0.00    -0.116 OA 
HETATM   18  H   UNL     1      -8.236   7.144  70.469  1.00  0.00     0.000 HD 
HETATM   19  C   UNL     1      -7.308   6.563  72.492  1.00  0.00    -0.089 C  
HETATM   20  C   UNL     1      -5.209   8.079  72.181  1.00  0.00    -0.035 C  
HETATM   21  C   UNL     1      -7.169   8.863  73.459  1.00  0.00     0.272 C  
HETATM   22  C   UNL     1      -9.929   3.374  69.891  1.00  0.00     0.314 C  
HETATM   23  C   UNL     1      -8.125   5.760  71.437  1.00  0.00    -0.114 C  
HETATM   24  O   UNL     1      -7.107   6.044  73.599  1.00  0.00    -0.080 OA 
HETATM   25  H   UNL     1      -8.960   2.837  72.733  1.00  0.00     0.000 HD 
HETATM   26  C   UNL     1      -8.412   3.527  70.257  1.00  0.00    -0.093 C  
HETATM   27  C   UNL     1      -8.083   4.229  71.614  1.00  0.00    -0.091 C  
HETATM   28  C   UNL     1      -9.595   6.212  71.353  1.00  0.00    -0.177 C  
HETATM   29  O   UNL     1      -8.986   3.780  72.624  1.00  0.00    -0.099 OA 
ENDROOT
BRANCH   3  30
HETATM   30  C   UNL     1      -9.762  11.421  67.296  1.00  0.00    -0.201 C  
HETATM   31  C   UNL     1      -9.681  11.894  66.017  1.00  0.00    -0.257 C  
HETATM   32  C   UNL     1     -10.406  12.208  68.416  1.00  0.00    -0.236 C  
BRANCH  31  33
HETATM   33  C   UNL     1     -10.433  12.982  65.443  1.00  0.00    -0.296 A  
HETATM   34  C   UNL     1      -9.852  14.148  64.937  1.00  0.00     0.057 A  
HETATM   35  S   UNL     1     -11.064  15.297  64.579  1.00  0.00    -0.139 SA 
HETATM   36  C   UNL     1     -12.256  14.214  65.189  1.00  0.00    -0.433 A  
HETATM   37  N   UNL     1     -11.793  13.061  65.630  1.00  0.00    -0.375 NA 
HETATM   38  C   UNL     1     -13.687  14.636  65.209  1.00  0.00     1.850 C  
ENDBRANCH  31  33
ENDBRANCH   3  30
TORSDOF 2
ENDMDL
MODEL       67
REMARK 921   NORMALIZED FREE ENERGY PREDICTED BY IDOCK:    1.90 KCAL/MOL
REMARK 922        TOTAL FREE ENERGY PREDICTED BY IDOCK:    2.23 KCAL/MOL
REMARK 923 INTER-LIGAND FREE ENERGY PREDICTED BY IDOCK:    2.16 KCAL/MOL
REMARK 924 INTRA-LIGAND FREE ENERGY PREDICTED BY IDOCK:    0.08 KCAL/MOL
REMARK 927      BINDING AFFINITY PREDICTED BY RF-SCORE:    0.00 PKD
ROOT
HETATM    1  C   UNL     1      -9.994  11.161  66.248  1.00  0.00    -0.219 C  
HETATM    2  C   UNL     1      -9.049  10.018  66.715  1.00  0.00    -0.159 C  
HETATM    3  C   UNL     1      -9.698   8.565  66.708  1.00  0.00    -0.236 C  
HETATM    4  N   UNL     1     -10.064   8.164  68.065  1.00  0.00    -0.189 N  
HETATM    5  O   UNL     1      -9.153  12.322  66.121  1.00  0.00    -0.183 OA 
HETATM    6  C   UNL     1     -11.122  13.540  65.537  1.00  0.00    -0.303 C  
HETATM    7  C   UNL     1     -10.957   7.142  68.381  1.00  0.00    -0.021 C  
HETATM    8  C   UNL     1     -10.412  12.736  66.617  1.00  0.00    -0.257 C  
HETATM    9  H   UNL     1      -9.633   8.670  68.838  1.00  0.00     0.000 HD 
HETATM   10  C   UNL     1     -11.184   7.014  69.880  1.00  0.00    -0.286 C  
HETATM   11  C   UNL     1     -10.300  13.486  67.960  1.00  0.00    -0.241 C  
HETATM   12  O   UNL     1     -11.608   6.508  67.565  1.00  0.00     0.025 OA 
HETATM   13  C   UNL     1     -12.025   8.237  70.246  1.00  0.00     0.312 C  
HETATM   14  C   UNL     1     -11.646  14.144  68.420  1.00  0.00    -0.353 C  
HETATM   15  C   UNL     1     -12.487   8.452  71.718  1.00  0.00    -0.375 C  
HETATM   16  C   UNL     1     -14.410  14.318  70.586  1.00  0.00     1.111 C  
HETATM   17  O   UNL     1     -11.247   9.329  69.819  1.00  0.00    -0.375 OA 
HETATM   18  H   UNL     1     -11.769  10.089  70.047  1.00  0.00     0.000 HD 
HETATM   19  C   UNL     1     -12.593   9.977  72.191  1.00  0.00    -0.189 C  
HETATM   20  C   UNL     1     -13.862   7.734  71.792  1.00  0.00    -0.440 C  
HETATM   21  C   UNL     1     -11.611   7.762  72.802  1.00  0.00    -0.368 C  
HETATM   22  C   UNL     1     -11.940  14.256  69.940  1.00  0.00    -0.397 C  
HETATM   23  C   UNL     1     -12.338  11.167  71.220  1.00  0.00    -0.402 C  
HETATM   24  O   UNL     1     -12.855  10.231  73.376  1.00  0.00     2.445 OA 
HETATM   25  H   UNL     1     -12.677  13.999  72.889  1.00  0.00     0.000 HD 
HETATM   26  C   UNL     1     -13.186  13.411  70.378  1.00  0.00     0.417 C  
HETATM   27  C   UNL     1     -13.009  12.494  71.631  1.00  0.00    -0.302 C  
HETATM   28  C   UNL     1     -10.840  11.423  70.970  1.00  0.00     2.551 C  
HETATM   29  O   UNL     1     -12.265  13.182  72.635  1.00  0.00     0.695 OA 
ENDROOT
BRANCH   3  30
HETATM   30  C   UNL     1      -8.976   7.295  66.163  1.00  0.00    -0.179 C  
HETATM   31  C   UNL     1      -8.820   7.089  64.821  1.00  0.00     0.478 C  
HETATM   32  C   UNL     1      -8.113   6.608  67.197  1.00  0.00    -0.113 C  
BRANCH  31  33
HETATM   33  C   UNL     1      -7.682   6.505  64.157  1.00  0.00    -0.105 A  
HETATM   34  C   UNL     1      -7.054   7.073  63.045  1.00  0.00    -0.061 A  
HETATM   35  S   UNL     1      -5.916   5.977  62.393  1.00  0.00    -0.026 SA 
HETATM   36  C   UNL     1      -6.387   4.808  63.566  1.00  0.00    -0.026 A  
HETATM   37  N   UNL     1      -7.330   5.199  64.402  1.00  0.00    -0.058 NA 
HETATM   38  C   UNL     1      -5.749   3.459  63.553  1.00  0.00    -0.013 C  
ENDBRANCH  31  33
ENDBRANCH   3  30
TORSDOF 2
ENDMDL
MODEL       68
REMARK 921   NORMALIZED FREE ENERGY PREDICTED BY IDOCK:    2.43 KCAL/MOL
REMARK 922        TOTAL FREE ENERGY PREDICTED BY IDOCK:    2.83 KCAL/MOL
REMARK 923 INTER-LIGAND FREE ENERGY PREDICTED BY IDOCK:    0.34 KCAL/MOL
REMARK 924 INTRA-LIGAND FREE ENERGY PREDICTED BY IDOCK:    2.49 KCAL/MOL
REMARK 927      BINDING AFFINITY PREDICTED BY RF-SCORE:    0.00 PKD
ROOT
HETATM    1  C   UNL     1      -8.909  10.919  69.840  1.00  0.00     0.858 C  
HETATM    2  C   UNL     1      -8.077  11.968  69.052  1.00  0.00     0.206 C  
HETATM    3  C   UNL     1      -8.851  12.678  67.855  1.00  0.00    -0.182 C  
HETATM    4  N   UNL     1      -8.444  12.104  66.574  1.00  0.00    -0.380 N  
HETATM    5  O   UNL     1      -8.107  10.579  70.986  1.00  0.00     1.261 OA 
HETATM    6  C   UNL     1      -9.818   9.022  71.578  1.00  0.00    -0.381 C  
HETATM    7  C   UNL     1      -9.158  12.225  65.384  1.00  0.00     0.363 C  
HETATM    8  C   UNL     1      -8.770   9.409  70.544  1.00  0.00    -0.231 C  
HETATM    9  H   UNL     1      -7.572  11.575  66.550  1.00  0.00     0.000 HD 
HETATM   10  C   UNL     1      -8.513  11.457  64.240  1.00  0.00     0.634 C  
HETATM   11  C   UNL     1      -7.791   8.265  70.212  1.00  0.00    -0.092 C  
HETATM   12  O   UNL     1     -10.253  12.755  65.279  1.00  0.00    -0.285 OA 
HETATM   13  C   UNL     1      -8.775   9.987  64.570  1.00  0.00    -0.195 C  
HETATM   14  C   UNL     1      -8.502   6.898  69.932  1.00  0.00    -0.140 C  
HETATM   15  C   UNL     1      -8.275   8.871  63.605  1.00  0.00    -0.172 C  
HETATM   16  C   UNL     1      -9.471   4.315  67.752  1.00  0.00    -0.215 C  
HETATM   17  O   UNL     1      -8.205   9.814  65.845  1.00  0.00    -0.114 OA 
HETATM   18  H   UNL     1      -8.368   8.901  66.050  1.00  0.00     0.000 HD 
HETATM   19  C   UNL     1      -7.833   7.501  64.305  1.00  0.00    -0.133 C  
HETATM   20  C   UNL     1      -9.464   8.656  62.629  1.00  0.00     1.506 C  
HETATM   21  C   UNL     1      -7.072   9.259  62.699  1.00  0.00    -0.100 C  
HETATM   22  C   UNL     1      -7.857   5.914  68.918  1.00  0.00    -0.095 C  
HETATM   23  C   UNL     1      -7.978   7.269  65.838  1.00  0.00    -0.115 C  
HETATM   24  O   UNL     1      -7.330   6.601  63.618  1.00  0.00    -0.060 OA 
HETATM   25  H   UNL     1      -6.823   4.260  66.573  1.00  0.00     0.000 HD 
HETATM   26  C   UNL     1      -8.757   5.672  67.657  1.00  0.00    -0.107 C  
HETATM   27  C   UNL     1      -8.059   5.788  66.263  1.00  0.00    -0.107 C  
HETATM   28  C   UNL     1      -6.868   7.960  66.652  1.00  0.00    -0.071 C  
HETATM   29  O   UNL     1      -6.773   5.172  66.311  1.00  0.00    -0.054 OA 
ENDROOT
BRANCH   3  30
HETATM   30  C   UNL     1      -8.794  14.210  67.574  1.00  0.00    -0.202 C  
HETATM   31  C   UNL     1      -8.415  15.096  68.542  1.00  0.00    -0.160 C  
HETATM   32  C   UNL     1      -8.744  14.545  66.100  1.00  0.00     0.341 C  
BRANCH  31  33
HETATM   33  C   UNL     1      -7.628  16.291  68.367  1.00  0.00    -0.166 A  
HETATM   34  C   UNL     1      -6.724  16.774  69.318  1.00  0.00    -0.229 A  
HETATM   35  S   UNL     1      -6.177  18.329  68.868  1.00  0.00    -0.230 SA 
HETATM   36  C   UNL     1      -7.226  18.291  67.502  1.00  0.00    -0.205 A  
HETATM   37  N   UNL     1      -7.941  17.190  67.375  1.00  0.00    -0.177 NA 
HETATM   38  C   UNL     1      -7.285  19.471  66.591  1.00  0.00    -0.232 C  
ENDBRANCH  31  33
ENDBRANCH   3  30
TORSDOF 2
ENDMDL
MODEL       69
REMARK 921   NORMALIZED FREE ENERGY PREDICTED BY IDOCK:    3.04 KCAL/MOL
REMARK 922        TOTAL FREE ENERGY PREDICTED BY IDOCK:    3.50 KCAL/MOL
REMARK 923 INTER-LIGAND FREE ENERGY PREDICTED BY IDOCK:    3.27 KCAL/MOL
REMARK 924 INTRA-LIGAND FREE ENERGY PREDICTED BY IDOCK:    0.24 KCAL/MOL
REMARK 927      BINDING AFFINITY PREDICTED BY RF-SCORE:    0.00 PKD
ROOT
HETATM    1  C   UNL     1      -7.375  12.856  68.096  1.00  0.00    -0.119 C  
HETATM    2  C   UNL     1      -6.922  11.675  69.000  1.00  0.00    -0.111 C  
HETATM    3  C   UNL     1      -7.499  10.251  68.583  1.00  0.00    -0.086 C  
HETATM    4  N   UNL     1      -8.601   9.870  69.463  1.00  0.00    -0.170 N  
HETATM    5  O   UNL     1      -6.576  13.980  68.509  1.00  0.00    -0.084 OA 
HETATM    6  C   UNL     1      -7.789  15.280  66.915  1.00  0.00    -0.152 C  
HETATM    7  C   UNL     1      -9.548   8.889  69.176  1.00  0.00    -0.162 C  
HETATM    8  C   UNL     1      -7.872  14.449  68.188  1.00  0.00    -0.138 C  
HETATM    9  H   UNL     1      -8.684  10.360  70.354  1.00  0.00     0.000 HD 
HETATM   10  C   UNL     1     -10.610   8.774  70.259  1.00  0.00    -0.239 C  
HETATM   11  C   UNL     1      -8.537  15.197  69.361  1.00  0.00    -0.172 C  
HETATM   12  O   UNL     1      -9.623   8.281  68.120  1.00  0.00    -0.146 OA 
HETATM   13  C   UNL     1     -11.461  10.033  70.095  1.00  0.00    -0.277 C  
HETATM   14  C   UNL     1      -9.873  15.913  68.967  1.00  0.00    -0.234 C  
HETATM   15  C   UNL     1     -12.686  10.272  71.027  1.00  0.00    -0.491 C  
HETATM   16  C   UNL     1     -13.373  16.212  69.121  1.00  0.00     3.130 C  
HETATM   17  O   UNL     1     -10.541  11.090  70.226  1.00  0.00    -0.367 OA 
HETATM   18  H   UNL     1     -11.070  11.872  70.124  1.00  0.00     0.000 HD 
HETATM   19  C   UNL     1     -12.992  11.802  71.385  1.00  0.00    -0.306 C  
HETATM   20  C   UNL     1     -13.872   9.615  70.270  1.00  0.00     0.956 C  
HETATM   21  C   UNL     1     -12.632   9.548  72.402  1.00  0.00    -0.261 C  
HETATM   22  C   UNL     1     -10.994  16.043  70.034  1.00  0.00    -0.365 C  
HETATM   23  C   UNL     1     -12.176  12.977  70.771  1.00  0.00    -0.359 C  
HETATM   24  O   UNL     1     -13.886  12.070  72.200  1.00  0.00    -0.182 OA 
HETATM   25  H   UNL     1     -13.320  15.826  71.994  1.00  0.00     0.000 HD 
HETATM   26  C   UNL     1     -12.292  15.254  69.644  1.00  0.00    -0.245 C  
HETATM   27  C   UNL     1     -12.911  14.333  70.745  1.00  0.00    -0.304 C  
HETATM   28  C   UNL     1     -10.805  13.167  71.446  1.00  0.00     4.846 C  
HETATM   29  O   UNL     1     -12.867  14.991  72.010  1.00  0.00    -0.303 OA 
ENDROOT
BRANCH   3  30
HETATM   30  C   UNL     1      -6.641   8.950  68.531  1.00  0.00    -0.059 C  
HETATM   31  C   UNL     1      -6.355   8.243  69.664  1.00  0.00    -0.036 C  
HETATM   32  C   UNL     1      -6.566   8.339  67.150  1.00  0.00    -0.058 C  
BRANCH  31  33
HETATM   33  C   UNL     1      -6.275   6.810  69.798  1.00  0.00    -0.037 A  
HETATM   34  C   UNL     1      -5.730   5.967  68.825  1.00  0.00    -0.012 A  
HETATM   35  S   UNL     1      -6.039   4.335  69.227  1.00  0.00    -0.028 SA 
HETATM   36  C   UNL     1      -6.934   4.854  70.603  1.00  0.00    -0.041 A  
HETATM   37  N   UNL     1      -7.002   6.162  70.768  1.00  0.00    -0.065 NA 
HETATM   38  C   UNL     1      -7.582   3.837  71.482  1.00  0.00    -0.056 C  
ENDBRANCH  31  33
ENDBRANCH   3  30
TORSDOF 2
ENDMDL
MODEL       70
REMARK 921   NORMALIZED FREE ENERGY PREDICTED BY IDOCK:    3.31 KCAL/MOL
REMARK 922        TOTAL FREE ENERGY PREDICTED BY IDOCK:    3.81 KCAL/MOL
REMARK 923 INTER-LIGAND FREE ENERGY PREDICTED BY IDOCK:    3.80 KCAL/MOL
REMARK 924 INTRA-LIGAND FREE ENERGY PREDICTED BY IDOCK:    0.00 KCAL/MOL
REMARK 927      BINDING AFFINITY PREDICTED BY RF-SCORE:    0.00 PKD
ROOT
HETATM    1  C   UNL     1     -10.628  13.250  66.419  1.00  0.00    -0.284 C  
HETATM    2  C   UNL     1      -9.224  12.612  66.612  1.00  0.00    -0.218 C  
HETATM    3  C   UNL     1      -8.764  12.445  68.126  1.00  0.00    -0.190 C  
HETATM    4  N   UNL     1      -7.808  13.489  68.487  1.00  0.00    -0.164 N  
HETATM    5  O   UNL     1     -10.926  13.099  65.018  1.00  0.00    -0.286 OA 
HETATM    6  C   UNL     1     -12.959  14.277  65.443  1.00  0.00    -0.230 C  
HETATM    7  C   UNL     1      -7.484  13.858  69.791  1.00  0.00     0.510 C  
HETATM    8  C   UNL     1     -11.438  14.346  65.452  1.00  0.00    -0.344 C  
HETATM    9  H   UNL     1      -7.343  13.985  67.727  1.00  0.00     0.000 HD 
HETATM   10  C   UNL     1      -6.510  15.025  69.838  1.00  0.00    -0.169 C  
HETATM   11  C   UNL     1     -10.877  15.530  64.639  1.00  0.00    -0.277 C  
HETATM   12  O   UNL     1      -8.018  13.412  70.795  1.00  0.00     3.497 OA 
HETATM   13  C   UNL     1      -7.341  16.234  69.409  1.00  0.00    -0.173 C  
HETATM   14  C   UNL     1     -11.588  16.891  64.948  1.00  0.00     0.772 C  
HETATM   15  C   UNL     1      -6.687  17.648  69.352  1.00  0.00    -0.176 C  
HETATM   16  C   UNL     1     -11.584  20.131  66.312  1.00  0.00     1.483 C  
HETATM   17  O   UNL     1      -7.835  15.879  68.141  1.00  0.00    -0.129 OA 
HETATM   18  H   UNL     1      -8.351  16.630  67.874  1.00  0.00     0.000 HD 
HETATM   19  C   UNL     1      -7.244  18.618  68.208  1.00  0.00    -0.260 C  
HETATM   20  C   UNL     1      -6.932  18.235  70.768  1.00  0.00     2.397 C  
HETATM   21  C   UNL     1      -5.144  17.664  69.167  1.00  0.00    -0.174 C  
HETATM   22  C   UNL     1     -10.763  18.203  64.854  1.00  0.00     1.464 C  
HETATM   23  C   UNL     1      -8.421  18.211  67.273  1.00  0.00    -0.243 C  
HETATM   24  O   UNL     1      -6.708  19.722  68.031  1.00  0.00    -0.238 OA 
HETATM   25  H   UNL     1      -8.989  20.668  65.137  1.00  0.00     0.000 HD 
HETATM   26  C   UNL     1     -10.628  18.931  66.236  1.00  0.00    -0.463 C  
HETATM   27  C   UNL     1      -9.193  19.392  66.650  1.00  0.00    -0.342 C  
HETATM   28  C   UNL     1      -7.985  17.252  66.149  1.00  0.00    -0.292 C  
HETATM   29  O   UNL     1      -8.514  19.940  65.521  1.00  0.00    -0.276 OA 
ENDROOT
BRANCH   3  30
HETATM   30  C   UNL     1      -8.089  11.157  68.691  1.00  0.00    -0.150 C  
HETATM   31  C   UNL     1      -8.756  10.320  69.540  1.00  0.00    -0.155 C  
HETATM   32  C   UNL     1      -6.885  10.714  67.890  1.00  0.00    -0.073 C  
BRANCH  31  33
HETATM   33  C   UNL     1      -8.681   8.881  69.580  1.00  0.00    -0.142 A  
HETATM   34  C   UNL     1      -7.484   8.163  69.500  1.00  0.00    -0.087 A  
HETATM   35  S   UNL     1      -7.814   6.495  69.327  1.00  0.00    -0.111 SA 
HETATM   36  C   UNL     1      -9.501   6.844  69.288  1.00  0.00    -0.147 A  
HETATM   37  N   UNL     1      -9.812   8.121  69.401  1.00  0.00    -0.178 NA 
HETATM   38  C   UNL     1     -10.475   5.729  69.106  1.00  0.00    -0.346 C  
ENDBRANCH  31  33
ENDBRANCH   3  30
TORSDOF 2
ENDMDL
MODEL       71
REMARK 921   NORMALIZED FREE ENERGY PREDICTED BY IDOCK:    4.78 KCAL/MOL
REMARK 922        TOTAL FREE ENERGY PREDICTED BY IDOCK:    5.45 KCAL/MOL
REMARK 923 INTER-LIGAND FREE ENERGY PREDICTED BY IDOCK:    3.22 KCAL/MOL
REMARK 924 INTRA-LIGAND FREE ENERGY PREDICTED BY IDOCK:    2.23 KCAL/MOL
REMARK 927      BINDING AFFINITY PREDICTED BY RF-SCORE:    0.00 PKD
ROOT
HETATM    1  C   UNL     1      -7.482   8.558  71.610  1.00  0.00    -0.105 C  
HETATM    2  C   UNL     1      -8.402   7.308  71.542  1.00  0.00    -0.109 C  
HETATM    3  C   UNL     1      -7.641   5.923  71.349  1.00  0.00    -0.098 C  
HETATM    4  N   UNL     1      -7.740   5.476  69.961  1.00  0.00    -0.077 N  
HETATM    5  O   UNL     1      -8.343   9.643  72.005  1.00  0.00     0.564 OA 
HETATM    6  C   UNL     1      -6.438  11.070  71.812  1.00  0.00     2.368 C  
HETATM    7  C   UNL     1      -6.913   4.524  69.369  1.00  0.00    -0.050 C  
HETATM    8  C   UNL     1      -7.394  10.140  71.079  1.00  0.00     0.884 C  
HETATM    9  H   UNL     1      -8.470   5.893  69.383  1.00  0.00     0.000 HD 
HETATM   10  C   UNL     1      -7.222   4.326  67.892  1.00  0.00    -0.064 C  
HETATM   11  C   UNL     1      -8.057  10.794  69.849  1.00  0.00     0.410 C  
HETATM   12  O   UNL     1      -5.951   4.003  69.910  1.00  0.00    -0.017 OA 
HETATM   13  C   UNL     1      -6.704   5.597  67.220  1.00  0.00    -0.059 C  
HETATM   14  C   UNL     1      -7.042  11.543  68.920  1.00  0.00    -0.111 C  
HETATM   15  C   UNL     1      -6.822   5.764  65.675  1.00  0.00    -0.056 C  
HETATM   16  C   UNL     1      -5.266  11.839  65.900  1.00  0.00     0.646 C  
HETATM   17  O   UNL     1      -7.391   6.636  67.871  1.00  0.00    -0.091 OA 
HETATM   18  H   UNL     1      -7.069   7.426  67.454  1.00  0.00     0.000 HD 
HETATM   19  C   UNL     1      -7.056   7.261  65.160  1.00  0.00    -0.064 C  
HETATM   20  C   UNL     1      -5.493   5.173  65.128  1.00  0.00    -0.013 C  
HETATM   21  C   UNL     1      -7.946   4.931  64.996  1.00  0.00    -0.099 C  
HETATM   22  C   UNL     1      -7.322  11.590  67.393  1.00  0.00    -0.123 C  
HETATM   23  C   UNL     1      -7.074   8.479  66.129  1.00  0.00    -0.077 C  
HETATM   24  O   UNL     1      -7.260   7.465  63.955  1.00  0.00    -0.067 OA 
HETATM   25  H   UNL     1      -7.658  11.224  64.384  1.00  0.00     0.000 HD 
HETATM   26  C   UNL     1      -6.230  10.839  66.556  1.00  0.00    -0.107 C  
HETATM   27  C   UNL     1      -6.741   9.834  65.473  1.00  0.00    -0.090 C  
HETATM   28  C   UNL     1      -8.404   8.610  66.895  1.00  0.00    -0.108 C  
HETATM   29  O   UNL     1      -7.863  10.389  64.788  1.00  0.00    -0.146 OA 
ENDROOT
BRANCH   3  30
HETATM   30  C   UNL     1      -7.980   4.628  72.147  1.00  0.00    -0.101 C  
HETATM   31  C   UNL     1      -8.713   4.676  73.299  1.00  0.00    -0.101 C  
HETATM   32  C   UNL     1      -7.835   3.365  71.328  1.00  0.00    -0.059 C  
BRANCH  31  33
HETATM   33  C   UNL     1      -9.697   3.722  73.745  1.00  0.00    -0.107 A  
HETATM   34  C   UNL     1      -9.385   2.543  74.427  1.00  0.00    -0.081 A  
HETATM   35  S   UNL     1     -10.775   1.559  74.563  1.00  0.00    -0.093 SA 
HETATM   36  C   UNL     1     -11.667   2.713  73.646  1.00  0.00     0.065 A  
HETATM   37  N   UNL     1     -10.983   3.774  73.261  1.00  0.00    -0.197 NA 
HETATM   38  C   UNL     1     -13.099   2.445  73.326  1.00  0.00     0.758 C  
ENDBRANCH  31  33
ENDBRANCH   3  30
TORSDOF 2
ENDMDL
MODEL       72
REMARK 921   NORMALIZED FREE ENERGY PREDICTED BY IDOCK:    5.02 KCAL/MOL
REMARK 922        TOTAL FREE ENERGY PREDICTED BY IDOCK:    5.71 KCAL/MOL
REMARK 923 INTER-LIGAND FREE ENERGY PREDICTED BY IDOCK:    5.67 KCAL/MOL
REMARK 924 INTRA-LIGAND FREE ENERGY PREDICTED BY IDOCK:    0.04 KCAL/MOL
REMARK 927      BINDING AFFINITY PREDICTED BY RF-SCORE:    0.00 PKD
ROOT
HETATM    1  C   UNL     1     -10.418  12.789  65.923  1.00  0.00    -0.277 C  
HETATM    2  C   UNL     1      -9.912  11.873  67.072  1.00  0.00    -0.219 C  
HETATM    3  C   UNL     1     -11.051  11.297  68.023  1.00  0.00    -0.266 C  
HETATM    4  N   UNL     1     -11.089  12.040  69.281  1.00  0.00    -0.382 N  
HETATM    5  O   UNL     1      -9.273  13.005  65.077  1.00  0.00     0.488 OA 
HETATM    6  C   UNL     1     -10.665  14.423  63.753  1.00  0.00     1.626 C  
HETATM    7  C   UNL     1     -12.162  12.049  70.170  1.00  0.00    -0.231 C  
HETATM    8  C   UNL     1     -10.030  14.201  65.118  1.00  0.00    -0.229 C  
HETATM    9  H   UNL     1     -10.269  12.594  69.526  1.00  0.00     0.000 HD 
HETATM   10  C   UNL     1     -11.926  12.975  71.354  1.00  0.00     0.628 C  
HETATM   11  C   UNL     1      -9.202  15.407  65.607  1.00  0.00    -0.039 C  
HETATM   12  O   UNL     1     -13.236  11.503  69.972  1.00  0.00     0.451 OA 
HETATM   13  C   UNL     1     -12.042  14.382  70.769  1.00  0.00    -0.338 C  
HETATM   14  C   UNL     1      -9.947  16.777  65.454  1.00  0.00     0.096 C  
HETATM   15  C   UNL     1     -11.879  15.626  71.693  1.00  0.00    -0.504 C  
HETATM   16  C   UNL     1     -11.554  19.583  66.833  1.00  0.00     0.872 C  
HETATM   17  O   UNL     1     -11.076  14.410  69.747  1.00  0.00    -0.343 OA 
HETATM   18  H   UNL     1     -11.148  15.284  69.383  1.00  0.00     0.000 HD 
HETATM   19  C   UNL     1     -11.210  16.909  71.010  1.00  0.00     0.590 C  
HETATM   20  C   UNL     1     -13.323  15.926  72.180  1.00  0.00    -0.375 C  
HETATM   21  C   UNL     1     -11.054  15.392  72.990  1.00  0.00     0.654 C  
HETATM   22  C   UNL     1      -9.666  17.899  66.489  1.00  0.00    -0.331 C  
HETATM   23  C   UNL     1     -10.829  16.942  69.501  1.00  0.00    -0.144 C  
HETATM   24  O   UNL     1     -10.953  17.904  71.703  1.00  0.00     1.538 OA 
HETATM   25  H   UNL     1      -9.453  19.867  68.811  1.00  0.00     0.000 HD 
HETATM   26  C   UNL     1     -10.932  18.271  67.336  1.00  0.00    -0.132 C  
HETATM   27  C   UNL     1     -10.743  18.353  68.885  1.00  0.00     0.443 C  
HETATM   28  C   UNL     1      -9.521  16.187  69.199  1.00  0.00    -0.251 C  
HETATM   29  O   UNL     1      -9.506  18.997  69.190  1.00  0.00    -0.295 OA 
ENDROOT
BRANCH   3  30
HETATM   30  C   UNL     1     -11.113   9.815  68.503  1.00  0.00    -0.138 C  
HETATM   31  C   UNL     1     -11.510   8.814  67.663  1.00  0.00     1.387 C  
HETATM   32  C   UNL     1     -10.297   9.556  69.750  1.00  0.00    -0.251 C  
BRANCH  31  33
HETATM   33  C   UNL     1     -10.987   7.472  67.601  1.00  0.00    -0.023 A  
HETATM   34  C   UNL     1     -10.570   6.854  66.418  1.00  0.00     0.247 A  
HETATM   35  S   UNL     1     -10.253   5.199  66.703  1.00  0.00    -0.275 SA 
HETATM   36  C   UNL     1     -10.762   5.395  68.337  1.00  0.00    -0.001 A  
HETATM   37  N   UNL     1     -11.142   6.615  68.664  1.00  0.00    -0.243 NA 
HETATM   38  C   UNL     1     -10.771   4.213  69.248  1.00  0.00     1.937 C  
ENDBRANCH  31  33
ENDBRANCH   3  30
TORSDOF 2
ENDMDL
MODEL       73
REMARK 921   NORMALIZED FREE ENERGY PREDICTED BY IDOCK:    5.16 KCAL/MOL
REMARK 922        TOTAL FREE ENERGY PREDICTED BY IDOCK:    5.87 KCAL/MOL
REMARK 923 INTER-LIGAND FREE ENERGY PREDICTED BY IDOCK:    5.14 KCAL/MOL
REMARK 924 INTRA-LIGAND FREE ENERGY PREDICTED BY IDOCK:    0.74 KCAL/MOL
REMARK 927      BINDING AFFINITY PREDICTED BY RF-SCORE:    0.00 PKD
ROOT
HETATM    1  C   UNL     1      -7.368  11.661  67.565  1.00  0.00    -0.119 C  
HETATM    2  C   UNL     1      -6.490  12.943  67.544  1.00  0.00    -0.162 C  
HETATM    3  C   UNL     1      -6.900  14.055  68.608  1.00  0.00    -0.103 C  
HETATM    4  N   UNL     1      -7.641  15.133  67.959  1.00  0.00    -0.112 N  
HETATM    5  O   UNL     1      -6.695  10.726  66.701  1.00  0.00    -0.102 OA 
HETATM    6  C   UNL     1      -8.499   9.219  67.122  1.00  0.00    -0.124 C  
HETATM    7  C   UNL     1      -8.444  16.060  68.621  1.00  0.00    -0.208 C  
HETATM    8  C   UNL     1      -8.092  10.562  66.534  1.00  0.00    -0.134 C  
HETATM    9  H   UNL     1      -7.566  15.213  66.945  1.00  0.00     0.000 HD 
HETATM   10  C   UNL     1      -9.140  17.014  67.661  1.00  0.00    -0.229 C  
HETATM   11  C   UNL     1      -8.537  10.746  65.069  1.00  0.00    -0.115 C  
HETATM   12  O   UNL     1      -8.693  16.038  69.816  1.00  0.00    -0.022 OA 
HETATM   13  C   UNL     1     -10.210  16.159  66.982  1.00  0.00    -0.285 C  
HETATM   14  C   UNL     1     -10.034  10.357  64.820  1.00  0.00    -0.409 C  
HETATM   15  C   UNL     1     -11.163  16.798  65.927  1.00  0.00     0.442 C  
HETATM   16  C   UNL     1     -13.360  11.218  64.075  1.00  0.00     1.924 C  
HETATM   17  O   UNL     1      -9.488  15.101  66.401  1.00  0.00    -0.257 OA 
HETATM   18  H   UNL     1     -10.152  14.570  65.979  1.00  0.00     0.000 HD 
HETATM   19  C   UNL     1     -11.623  15.829  64.739  1.00  0.00    -0.173 C  
HETATM   20  C   UNL     1     -12.375  17.293  66.762  1.00  0.00     4.304 C  
HETATM   21  C   UNL     1     -10.616  18.067  65.213  1.00  0.00     0.337 C  
HETATM   22  C   UNL     1     -10.832  11.122  63.729  1.00  0.00    -0.337 C  
HETATM   23  C   UNL     1     -11.219  14.326  64.689  1.00  0.00    -0.370 C  
HETATM   24  O   UNL     1     -12.298  16.288  63.806  1.00  0.00    -0.828 OA 
HETATM   25  H   UNL     1     -12.472  12.975  61.946  1.00  0.00     0.000 HD 
HETATM   26  C   UNL     1     -12.028  11.944  64.323  1.00  0.00    -0.353 C  
HETATM   27  C   UNL     1     -12.159  13.430  63.857  1.00  0.00    -0.455 C  
HETATM   28  C   UNL     1      -9.773  14.114  64.206  1.00  0.00     1.804 C  
HETATM   29  O   UNL     1     -11.893  13.527  62.459  1.00  0.00     0.768 OA 
ENDROOT
BRANCH   3  30
HETATM   30  C   UNL     1      -5.874  14.831  69.489  1.00  0.00    -0.102 C  
HETATM   31  C   UNL     1      -5.529  16.122  69.205  1.00  0.00    -0.115 C  
HETATM   32  C   UNL     1      -5.677  14.219  70.858  1.00  0.00    -0.199 C  
BRANCH  31  33
HETATM   33  C   UNL     1      -5.262  17.178  70.149  1.00  0.00    -0.208 A  
HETATM   34  C   UNL     1      -5.282  17.005  71.536  1.00  0.00     0.179 A  
HETATM   35  S   UNL     1      -5.169  18.522  72.317  1.00  0.00     1.571 SA 
HETATM   36  C   UNL     1      -5.183  19.301  70.780  1.00  0.00    -0.224 A  
HETATM   37  N   UNL     1      -5.262  18.491  69.742  1.00  0.00    -0.186 NA 
HETATM   38  C   UNL     1      -5.136  20.790  70.714  1.00  0.00    -0.261 C  
ENDBRANCH  31  33
ENDBRANCH   3  30
TORSDOF 2
ENDMDL
MODEL       74
REMARK 921   NORMALIZED FREE ENERGY PREDICTED BY IDOCK:    7.23 KCAL/MOL
REMARK 922        TOTAL FREE ENERGY PREDICTED BY IDOCK:    8.18 KCAL/MOL
REMARK 923 INTER-LIGAND FREE ENERGY PREDICTED BY IDOCK:    7.95 KCAL/MOL
REMARK 924 INTRA-LIGAND FREE ENERGY PREDICTED BY IDOCK:    0.24 KCAL/MOL
REMARK 927      BINDING AFFINITY PREDICTED BY RF-SCORE:    0.00 PKD
ROOT
HETATM    1  C   UNL     1      -8.333  13.906  69.354  1.00  0.00     0.604 C  
HETATM    2  C   UNL     1      -9.038  12.548  69.630  1.00  0.00     2.004 C  
HETATM    3  C   UNL     1      -8.485  11.320  68.782  1.00  0.00    -0.112 C  
HETATM    4  N   UNL     1      -9.391  11.016  67.676  1.00  0.00    -0.155 N  
HETATM    5  O   UNL     1      -8.826  14.803  70.367  1.00  0.00     0.797 OA 
HETATM    6  C   UNL     1      -7.514  16.508  69.329  1.00  0.00    -0.183 C  
HETATM    7  C   UNL     1      -9.053  10.265  66.552  1.00  0.00    -0.148 C  
HETATM    8  C   UNL     1      -8.670  15.532  69.163  1.00  0.00    -0.247 C  
HETATM    9  H   UNL     1     -10.341  11.381  67.731  1.00  0.00     0.000 HD 
HETATM   10  C   UNL     1     -10.190  10.185  65.545  1.00  0.00    -0.288 C  
HETATM   11  C   UNL     1      -9.978  16.210  68.709  1.00  0.00    -0.231 C  
HETATM   12  O   UNL     1      -7.936   9.836  66.310  1.00  0.00    -0.107 OA 
HETATM   13  C   UNL     1     -10.258  11.583  64.932  1.00  0.00    -0.275 C  
HETATM   14  C   UNL     1      -9.785  17.196  67.508  1.00  0.00    -0.256 C  
HETATM   15  C   UNL     1     -11.305  11.897  63.822  1.00  0.00    -0.532 C  
HETATM   16  C   UNL     1     -10.247  18.075  64.135  1.00  0.00     6.927 C  
HETATM   17  O   UNL     1     -10.454  12.434  66.035  1.00  0.00    -0.245 OA 
HETATM   18  H   UNL     1     -10.495  13.303  65.654  1.00  0.00     0.000 HD 
HETATM   19  C   UNL     1     -11.881  13.390  63.820  1.00  0.00    -0.431 C  
HETATM   20  C   UNL     1     -10.562  11.571  62.497  1.00  0.00     0.793 C  
HETATM   21  C   UNL     1     -12.566  10.987  63.814  1.00  0.00     1.741 C  
HETATM   22  C   UNL     1     -10.943  17.366  66.487  1.00  0.00     0.223 C  
HETATM   23  C   UNL     1     -11.364  14.480  64.804  1.00  0.00    -0.397 C  
HETATM   24  O   UNL     1     -12.791  13.691  63.034  1.00  0.00    -0.491 OA 
HETATM   25  H   UNL     1     -13.033  17.282  64.267  1.00  0.00     0.000 HD 
HETATM   26  C   UNL     1     -10.556  16.879  65.048  1.00  0.00     0.004 C  
HETATM   27  C   UNL     1     -11.572  15.933  64.329  1.00  0.00    -0.178 C  
HETATM   28  C   UNL     1     -11.950  14.331  66.221  1.00  0.00    -0.428 C  
HETATM   29  O   UNL     1     -12.904  16.387  64.560  1.00  0.00     0.949 OA 
ENDROOT
BRANCH   3  30
HETATM   30  C   UNL     1      -8.198   9.910  69.383  1.00  0.00    -0.147 C  
HETATM   31  C   UNL     1      -9.201   9.145  69.907  1.00  0.00    -0.194 C  
HETATM   32  C   UNL     1      -6.880   9.324  68.928  1.00  0.00    -0.056 C  
BRANCH  31  33
HETATM   33  C   UNL     1      -9.339   7.713  69.819  1.00  0.00    -0.150 A  
HETATM   34  C   UNL     1     -10.474   7.071  69.315  1.00  0.00    -0.210 A  
HETATM   35  S   UNL     1     -10.371   5.390  69.602  1.00  0.00    -0.283 SA 
HETATM   36  C   UNL     1      -8.884   5.635  70.437  1.00  0.00    -0.136 A  
HETATM   37  N   UNL     1      -8.477   6.888  70.501  1.00  0.00    -0.136 NA 
HETATM   38  C   UNL     1      -8.184   4.466  71.044  1.00  0.00    -0.082 C  
ENDBRANCH  31  33
ENDBRANCH   3  30
TORSDOF 2
ENDMDL
MODEL       75
REMARK 921   NORMALIZED FREE ENERGY PREDICTED BY IDOCK:    7.93 KCAL/MOL
REMARK 922        TOTAL FREE ENERGY PREDICTED BY IDOCK:    8.97 KCAL/MOL
REMARK 923 INTER-LIGAND FREE ENERGY PREDICTED BY IDOCK:    7.61 KCAL/MOL
REMARK 924 INTRA-LIGAND FREE ENERGY PREDICTED BY IDOCK:    1.36 KCAL/MOL
REMARK 927      BINDING AFFINITY PREDICTED BY RF-SCORE:    0.00 PKD
ROOT
HETATM    1  C   UNL     1      -9.581   6.254  69.611  1.00  0.00    -0.145 C  
HETATM    2  C   UNL     1     -10.410   6.505  68.321  1.00  0.00    -0.223 C  
HETATM    3  C   UNL     1      -9.659   6.157  66.961  1.00  0.00    -0.135 C  
HETATM    4  N   UNL     1      -9.182   7.377  66.315  1.00  0.00    -0.265 N  
HETATM    5  O   UNL     1     -10.510   6.418  70.699  1.00  0.00    -0.205 OA 
HETATM    6  C   UNL     1      -8.674   6.023  72.173  1.00  0.00    -0.132 C  
HETATM    7  C   UNL     1      -8.199   7.425  65.328  1.00  0.00    -0.127 C  
HETATM    8  C   UNL     1      -9.256   6.935  71.103  1.00  0.00    -0.154 C  
HETATM    9  H   UNL     1      -9.600   8.260  66.608  1.00  0.00     0.000 HD 
HETATM   10  C   UNL     1      -7.872   8.849  64.905  1.00  0.00    -0.121 C  
HETATM   11  C   UNL     1      -9.339   8.411  71.540  1.00  0.00    -0.263 C  
HETATM   12  O   UNL     1      -7.556   6.463  64.938  1.00  0.00    -0.080 OA 
HETATM   13  C   UNL     1      -7.101   9.432  66.089  1.00  0.00    -0.091 C  
HETATM   14  C   UNL     1      -8.018   8.942  72.195  1.00  0.00     0.114 C  
HETATM   15  C   UNL     1      -6.566  10.894  66.026  1.00  0.00    -0.080 C  
HETATM   16  C   UNL     1      -5.147  10.969  72.139  1.00  0.00     0.158 C  
HETATM   17  O   UNL     1      -7.981   9.287  67.177  1.00  0.00    -0.105 OA 
HETATM   18  H   UNL     1      -7.502   9.649  67.913  1.00  0.00     0.000 HD 
HETATM   19  C   UNL     1      -6.542  11.680  67.420  1.00  0.00    -0.106 C  
HETATM   20  C   UNL     1      -5.140  10.750  65.428  1.00  0.00    -0.133 C  
HETATM   21  C   UNL     1      -7.321  11.842  65.051  1.00  0.00     2.298 C  
HETATM   22  C   UNL     1      -7.641  10.436  72.008  1.00  0.00     4.509 C  
HETATM   23  C   UNL     1      -6.941  11.000  68.763  1.00  0.00    -0.081 C  
HETATM   24  O   UNL     1      -6.226  12.878  67.439  1.00  0.00    -0.173 OA 
HETATM   25  H   UNL     1      -6.706  13.224  71.197  1.00  0.00     0.000 HD 
HETATM   26  C   UNL     1      -6.311  10.625  71.198  1.00  0.00     0.472 C  
HETATM   27  C   UNL     1      -6.345  11.657  70.024  1.00  0.00    -0.098 C  
HETATM   28  C   UNL     1      -8.466  10.879  68.939  1.00  0.00    -0.142 C  
HETATM   29  O   UNL     1      -7.073  12.819  70.420  1.00  0.00     0.884 OA 
ENDROOT
BRANCH   3  30
HETATM   30  C   UNL     1     -10.319   5.383  65.780  1.00  0.00     0.074 C  
HETATM   31  C   UNL     1      -9.564   4.823  64.788  1.00  0.00     0.014 C  
HETATM   32  C   UNL     1     -11.735   4.940  66.073  1.00  0.00     2.148 C  
BRANCH  31  33
HETATM   33  C   UNL     1      -9.806   3.573  64.112  1.00  0.00    -0.177 A  
HETATM   34  C   UNL     1      -8.797   2.781  63.557  1.00  0.00    -0.088 A  
HETATM   35  S   UNL     1      -9.485   1.520  62.631  1.00  0.00    -0.089 SA 
HETATM   36  C   UNL     1     -11.054   2.151  62.959  1.00  0.00    -0.254 A  
HETATM   37  N   UNL     1     -11.077   3.232  63.715  1.00  0.00    -0.254 NA 
HETATM   38  C   UNL     1     -12.250   1.483  62.369  1.00  0.00     0.662 C  
ENDBRANCH  31  33
ENDBRANCH   3  30
TORSDOF 2
ENDMDL
MODEL       76
REMARK 921   NORMALIZED FREE ENERGY PREDICTED BY IDOCK:    8.14 KCAL/MOL
REMARK 922        TOTAL FREE ENERGY PREDICTED BY IDOCK:    9.21 KCAL/MOL
REMARK 923 INTER-LIGAND FREE ENERGY PREDICTED BY IDOCK:    6.98 KCAL/MOL
REMARK 924 INTRA-LIGAND FREE ENERGY PREDICTED BY IDOCK:    2.23 KCAL/MOL
REMARK 927      BINDING AFFINITY PREDICTED BY RF-SCORE:    0.00 PKD
ROOT
HETATM    1  C   UNL     1     -11.970  14.449  70.545  1.00  0.00    -0.325 C  
HETATM    2  C   UNL     1     -12.986  13.304  70.274  1.00  0.00     0.242 C  
HETATM    3  C   UNL     1     -12.332  11.902  69.898  1.00  0.00    -0.099 C  
HETATM    4  N   UNL     1     -12.419  11.669  68.458  1.00  0.00     0.425 N  
HETATM    5  O   UNL     1     -12.754  15.535  71.075  1.00  0.00    -0.412 OA 
HETATM    6  C   UNL     1     -10.735  16.809  71.135  1.00  0.00     1.113 C  
HETATM    7  C   UNL     1     -11.652  10.745  67.752  1.00  0.00    -0.069 C  
HETATM    8  C   UNL     1     -11.737  16.078  70.253  1.00  0.00    -0.292 C  
HETATM    9  H   UNL     1     -13.092  12.225  67.931  1.00  0.00     0.000 HD 
HETATM   10  C   UNL     1     -11.925  10.789  66.256  1.00  0.00     2.109 C  
HETATM   11  C   UNL     1     -12.302  16.956  69.117  1.00  0.00     2.342 C  
HETATM   12  O   UNL     1     -10.754  10.072  68.233  1.00  0.00    -0.213 OA 
HETATM   13  C   UNL     1     -11.282  12.095  65.788  1.00  0.00    -0.339 C  
HETATM   14  C   UNL     1     -11.198  17.742  68.331  1.00  0.00     0.506 C  
HETATM   15  C   UNL     1     -11.333  12.492  64.282  1.00  0.00    -0.417 C  
HETATM   16  C   UNL     1      -9.301  18.317  65.428  1.00  0.00     1.350 C  
HETATM   17  O   UNL     1     -11.906  13.084  66.569  1.00  0.00    -0.372 OA 
HETATM   18  H   UNL     1     -11.507  13.895  66.278  1.00  0.00     0.000 HD 
HETATM   19  C   UNL     1     -11.428  14.062  63.986  1.00  0.00    -0.096 C  
HETATM   20  C   UNL     1     -10.039  11.875  63.684  1.00  0.00    -0.450 C  
HETATM   21  C   UNL     1     -12.496  11.864  63.463  1.00  0.00    -0.609 C  
HETATM   22  C   UNL     1     -11.421  18.031  66.821  1.00  0.00     1.310 C  
HETATM   23  C   UNL     1     -11.382  15.125  65.122  1.00  0.00    -0.357 C  
HETATM   24  O   UNL     1     -11.574  14.454  62.819  1.00  0.00     1.586 OA 
HETATM   25  H   UNL     1     -11.682  18.132  63.784  1.00  0.00     0.000 HD 
HETATM   26  C   UNL     1     -10.364  17.318  65.908  1.00  0.00    -0.287 C  
HETATM   27  C   UNL     1     -10.918  16.527  64.679  1.00  0.00    -0.080 C  
HETATM   28  C   UNL     1     -12.722  15.257  65.869  1.00  0.00     1.101 C  
HETATM   29  O   UNL     1     -11.967  17.268  64.057  1.00  0.00     0.690 OA 
ENDROOT
BRANCH   3  30
HETATM   30  C   UNL     1     -12.802  10.539  70.491  1.00  0.00    -0.339 C  
HETATM   31  C   UNL     1     -12.403   9.352  69.945  1.00  0.00     0.668 C  
HETATM   32  C   UNL     1     -13.317  10.650  71.909  1.00  0.00    -0.454 C  
BRANCH  31  33
HETATM   33  C   UNL     1     -12.083   8.135  70.648  1.00  0.00     0.037 A  
HETATM   34  C   UNL     1     -12.055   8.027  72.042  1.00  0.00    -0.331 A  
HETATM   35  S   UNL     1     -11.396   6.517  72.497  1.00  0.00    -0.238 SA 
HETATM   36  C   UNL     1     -11.121   6.149  70.837  1.00  0.00    -0.307 A  
HETATM   37  N   UNL     1     -11.498   7.083  69.985  1.00  0.00    -0.248 NA 
HETATM   38  C   UNL     1     -10.471   4.857  70.472  1.00  0.00    -0.170 C  
ENDBRANCH  31  33
ENDBRANCH   3  30
TORSDOF 2
ENDMDL
MODEL       77
REMARK 921   NORMALIZED FREE ENERGY PREDICTED BY IDOCK:    8.55 KCAL/MOL
REMARK 922        TOTAL FREE ENERGY PREDICTED BY IDOCK:    9.67 KCAL/MOL
REMARK 923 INTER-LIGAND FREE ENERGY PREDICTED BY IDOCK:   10.12 KCAL/MOL
REMARK 924 INTRA-LIGAND FREE ENERGY PREDICTED BY IDOCK:   -0.46 KCAL/MOL
REMARK 927      BINDING AFFINITY PREDICTED BY RF-SCORE:    0.00 PKD
ROOT
HETATM    1  C   UNL     1     -11.563  13.136  71.137  1.00  0.00     1.267 C  
HETATM    2  C   UNL     1     -11.491  12.414  69.762  1.00  0.00    -0.220 C  
HETATM    3  C   UNL     1     -10.067  11.804  69.397  1.00  0.00     0.403 C  
HETATM    4  N   UNL     1      -9.374  12.663  68.440  1.00  0.00    -0.325 N  
HETATM    5  O   UNL     1     -12.961  13.403  71.354  1.00  0.00    -0.352 OA 
HETATM    6  C   UNL     1     -12.319  14.491  73.380  1.00  0.00    -0.278 C  
HETATM    7  C   UNL     1      -8.005  12.631  68.185  1.00  0.00    -0.158 C  
HETATM    8  C   UNL     1     -12.214  14.493  71.861  1.00  0.00    -0.285 C  
HETATM    9  H   UNL     1      -9.935  13.336  67.919  1.00  0.00     0.000 HD 
HETATM   10  C   UNL     1      -7.576  13.697  67.188  1.00  0.00     0.048 C  
HETATM   11  C   UNL     1     -12.624  15.837  71.225  1.00  0.00    -0.504 C  
HETATM   12  O   UNL     1      -7.200  11.939  68.788  1.00  0.00    -0.104 OA 
HETATM   13  C   UNL     1      -7.681  15.010  67.963  1.00  0.00    -0.123 C  
HETATM   14  C   UNL     1     -11.973  17.080  71.921  1.00  0.00     1.145 C  
HETATM   15  C   UNL     1      -7.298  16.354  67.274  1.00  0.00    -0.209 C  
HETATM   16  C   UNL     1      -9.738  19.794  71.921  1.00  0.00     3.020 C  
HETATM   17  O   UNL     1      -9.021  15.052  68.389  1.00  0.00    -0.168 OA 
HETATM   18  H   UNL     1      -9.087  15.868  68.871  1.00  0.00     0.000 HD 
HETATM   19  C   UNL     1      -8.142  17.632  67.738  1.00  0.00    -0.224 C  
HETATM   20  C   UNL     1      -5.786  16.523  67.588  1.00  0.00    -0.163 C  
HETATM   21  C   UNL     1      -7.392  16.361  65.722  1.00  0.00     1.467 C  
HETATM   22  C   UNL     1     -11.645  18.331  71.060  1.00  0.00     5.594 C  
HETATM   23  C   UNL     1      -9.211  17.555  68.867  1.00  0.00    -0.153 C  
HETATM   24  O   UNL     1      -7.967  18.718  67.166  1.00  0.00    -0.239 OA 
HETATM   25  H   UNL     1     -10.578  20.540  69.248  1.00  0.00     0.000 HD 
HETATM   26  C   UNL     1     -10.108  18.629  70.990  1.00  0.00     2.949 C  
HETATM   27  C   UNL     1      -9.507  18.895  69.572  1.00  0.00     0.262 C  
HETATM   28  C   UNL     1     -10.540  16.941  68.388  1.00  0.00    -0.365 C  
HETATM   29  O   UNL     1     -10.396  19.715  68.814  1.00  0.00    -0.400 OA 
ENDROOT
BRANCH   3  30
HETATM   30  C   UNL     1      -9.863  10.383  68.788  1.00  0.00    -0.190 C  
HETATM   31  C   UNL     1      -9.282   9.378  69.509  1.00  0.00    -0.182 C  
HETATM   32  C   UNL     1     -10.736  10.119  67.582  1.00  0.00    -0.339 C  
BRANCH  31  33
HETATM   33  C   UNL     1      -9.633   7.980  69.490  1.00  0.00    -0.164 A  
HETATM   34  C   UNL     1     -10.472   7.376  70.431  1.00  0.00    -0.221 A  
HETATM   35  S   UNL     1     -10.448   5.679  70.231  1.00  0.00    -0.301 SA 
HETATM   36  C   UNL     1      -9.278   5.854  68.980  1.00  0.00    -0.124 A  
HETATM   37  N   UNL     1      -8.922   7.096  68.714  1.00  0.00    -0.129 NA 
HETATM   38  C   UNL     1      -8.731   4.637  68.313  1.00  0.00    -0.114 C  
ENDBRANCH  31  33
ENDBRANCH   3  30
TORSDOF 2
ENDMDL
MODEL       78
REMARK 921   NORMALIZED FREE ENERGY PREDICTED BY IDOCK:    8.91 KCAL/MOL
REMARK 922        TOTAL FREE ENERGY PREDICTED BY IDOCK:   10.06 KCAL/MOL
REMARK 923 INTER-LIGAND FREE ENERGY PREDICTED BY IDOCK:    9.08 KCAL/MOL
REMARK 924 INTRA-LIGAND FREE ENERGY PREDICTED BY IDOCK:    0.98 KCAL/MOL
REMARK 927      BINDING AFFINITY PREDICTED BY RF-SCORE:    0.00 PKD
ROOT
HETATM    1  C   UNL     1      -6.837   8.595  68.949  1.00  0.00    -0.061 C  
HETATM    2  C   UNL     1      -7.005   9.370  67.612  1.00  0.00    -0.081 C  
HETATM    3  C   UNL     1      -8.512   9.634  67.174  1.00  0.00    -0.131 C  
HETATM    4  N   UNL     1      -8.910   8.698  66.124  1.00  0.00    -0.160 N  
HETATM    5  O   UNL     1      -5.432   8.666  69.256  1.00  0.00    -0.034 OA 
HETATM    6  C   UNL     1      -5.901   7.316  71.170  1.00  0.00    -0.035 C  
HETATM    7  C   UNL     1     -10.226   8.409  65.770  1.00  0.00     0.970 C  
HETATM    8  C   UNL     1      -5.911   7.393  69.650  1.00  0.00    -0.023 C  
HETATM    9  H   UNL     1      -8.167   8.221  65.613  1.00  0.00     0.000 HD 
HETATM   10  C   UNL     1     -10.314   7.341  64.690  1.00  0.00     5.933 C  
HETATM   11  C   UNL     1      -5.140   6.239  68.977  1.00  0.00    -0.004 C  
HETATM   12  O   UNL     1     -11.213   8.839  66.346  1.00  0.00     0.927 OA 
HETATM   13  C   UNL     1      -9.929   6.044  65.401  1.00  0.00     0.902 C  
HETATM   14  C   UNL     1      -5.500   4.828  69.557  1.00  0.00    -0.008 C  
HETATM   15  C   UNL     1      -9.922   4.698  64.617  1.00  0.00     0.096 C  
HETATM   16  C   UNL     1      -6.980   1.654  69.250  1.00  0.00    -0.033 C  
HETATM   17  O   UNL     1      -8.650   6.305  65.924  1.00  0.00    -0.141 OA 
HETATM   18  H   UNL     1      -8.411   5.499  66.366  1.00  0.00     0.000 HD 
HETATM   19  C   UNL     1      -8.815   3.638  65.077  1.00  0.00    -0.123 C  
HETATM   20  C   UNL     1     -11.359   4.141  64.808  1.00  0.00     0.571 C  
HETATM   21  C   UNL     1      -9.737   4.822  63.078  1.00  0.00     0.240 C  
HETATM   22  C   UNL     1      -5.452   3.598  68.611  1.00  0.00    -0.013 C  
HETATM   23  C   UNL     1      -7.868   3.899  66.285  1.00  0.00    -0.090 C  
HETATM   24  O   UNL     1      -8.677   2.585  64.438  1.00  0.00    -0.094 OA 
HETATM   25  H   UNL     1      -5.822   1.324  66.612  1.00  0.00     0.000 HD 
HETATM   26  C   UNL     1      -6.859   2.936  68.411  1.00  0.00    -0.048 C  
HETATM   27  C   UNL     1      -7.288   2.629  66.939  1.00  0.00    -0.065 C  
HETATM   28  C   UNL     1      -6.709   4.853  65.938  1.00  0.00    -0.053 C  
HETATM   29  O   UNL     1      -6.179   2.107  66.209  1.00  0.00    -0.023 OA 
ENDROOT
BRANCH   3  30
HETATM   30  C   UNL     1      -9.029  10.999  66.625  1.00  0.00    -0.176 C  
HETATM   31  C   UNL     1      -9.660  11.084  65.417  1.00  0.00    -0.267 C  
HETATM   32  C   UNL     1      -9.175  12.057  67.696  1.00  0.00    -0.182 C  
BRANCH  31  33
HETATM   33  C   UNL     1     -10.771  11.937  65.074  1.00  0.00    -0.292 A  
HETATM   34  C   UNL     1     -12.105  11.520  65.087  1.00  0.00     0.642 A  
HETATM   35  S   UNL     1     -13.100  12.720  64.387  1.00  0.00     0.309 SA 
HETATM   36  C   UNL     1     -11.701  13.664  64.044  1.00  0.00    -0.364 A  
HETATM   37  N   UNL     1     -10.556  13.131  64.428  1.00  0.00    -0.405 NA 
HETATM   38  C   UNL     1     -11.852  14.967  63.334  1.00  0.00     1.393 C  
ENDBRANCH  31  33
ENDBRANCH   3  30
TORSDOF 2
ENDMDL
MODEL       79
REMARK 921   NORMALIZED FREE ENERGY PREDICTED BY IDOCK:    9.65 KCAL/MOL
REMARK 922        TOTAL FREE ENERGY PREDICTED BY IDOCK:   10.90 KCAL/MOL
REMARK 923 INTER-LIGAND FREE ENERGY PREDICTED BY IDOCK:    9.74 KCAL/MOL
REMARK 924 INTRA-LIGAND FREE ENERGY PREDICTED BY IDOCK:    1.15 KCAL/MOL
REMARK 927      BINDING AFFINITY PREDICTED BY RF-SCORE:    0.00 PKD
ROOT
HETATM    1  C   UNL     1      -7.718  12.619  66.787  1.00  0.00     0.221 C  
HETATM    2  C   UNL     1      -8.800  13.734  66.729  1.00  0.00    -0.156 C  
HETATM    3  C   UNL     1      -9.002  14.546  68.083  1.00  0.00    -0.182 C  
HETATM    4  N   UNL     1     -10.201  14.087  68.779  1.00  0.00    -0.301 N  
HETATM    5  O   UNL     1      -7.550  12.180  65.427  1.00  0.00     1.724 OA 
HETATM    6  C   UNL     1      -5.986  10.579  66.260  1.00  0.00    -0.094 C  
HETATM    7  C   UNL     1     -10.477  14.312  70.126  1.00  0.00     0.586 C  
HETATM    8  C   UNL     1      -7.432  11.054  66.277  1.00  0.00    -0.105 C  
HETATM    9  H   UNL     1     -10.888  13.561  68.238  1.00  0.00     0.000 HD 
HETATM   10  C   UNL     1     -11.771  13.646  70.572  1.00  0.00    -0.175 C  
HETATM   11  C   UNL     1      -8.443   9.943  65.927  1.00  0.00    -0.137 C  
HETATM   12  O   UNL     1      -9.715  14.850  70.913  1.00  0.00     0.914 OA 
HETATM   13  C   UNL     1     -11.442  12.154  70.604  1.00  0.00     0.762 C  
HETATM   14  C   UNL     1      -8.191   8.605  66.704  1.00  0.00    -0.107 C  
HETATM   15  C   UNL     1     -12.528  11.126  71.042  1.00  0.00    -0.506 C  
HETATM   16  C   UNL     1      -9.111   6.225  69.123  1.00  0.00    -0.130 C  
HETATM   17  O   UNL     1     -11.007  11.869  69.297  1.00  0.00    -0.339 OA 
HETATM   18  H   UNL     1     -10.802  10.942  69.318  1.00  0.00     0.000 HD 
HETATM   19  C   UNL     1     -12.459   9.700  70.319  1.00  0.00     0.217 C  
HETATM   20  C   UNL     1     -12.331  10.998  72.578  1.00  0.00     2.033 C  
HETATM   21  C   UNL     1     -14.001  11.591  70.860  1.00  0.00     2.395 C  
HETATM   22  C   UNL     1      -9.409   7.714  67.070  1.00  0.00    -0.195 C  
HETATM   23  C   UNL     1     -11.328   9.334  69.313  1.00  0.00     0.176 C  
HETATM   24  O   UNL     1     -13.346   8.863  70.537  1.00  0.00     0.439 OA 
HETATM   25  H   UNL     1     -11.854   6.272  68.186  1.00  0.00     0.000 HD 
HETATM   26  C   UNL     1      -9.618   7.585  68.619  1.00  0.00    -0.151 C  
HETATM   27  C   UNL     1     -11.068   7.822  69.154  1.00  0.00     0.162 C  
HETATM   28  C   UNL     1     -11.549   9.950  67.919  1.00  0.00     0.624 C  
HETATM   29  O   UNL     1     -12.014   7.203  68.284  1.00  0.00     1.219 OA 
ENDROOT
BRANCH   3  30
HETATM   30  C   UNL     1      -9.144  16.097  68.150  1.00  0.00    -0.189 C  
HETATM   31  C   UNL     1      -8.697  16.804  69.231  1.00  0.00     0.024 C  
HETATM   32  C   UNL     1      -9.373  16.736  66.799  1.00  0.00    -0.263 C  
BRANCH  31  33
HETATM   33  C   UNL     1      -8.072  18.103  69.222  1.00  0.00     0.219 A  
HETATM   34  C   UNL     1      -7.781  18.818  68.057  1.00  0.00    -0.263 A  
HETATM   35  S   UNL     1      -6.825  20.184  68.432  1.00  0.00    -0.261 SA 
HETATM   36  C   UNL     1      -6.793  19.694  70.083  1.00  0.00    -0.010 A  
HETATM   37  N   UNL     1      -7.456  18.585  70.352  1.00  0.00     1.729 NA 
HETATM   38  C   UNL     1      -6.025  20.503  71.073  1.00  0.00    -0.138 C  
ENDBRANCH  31  33
ENDBRANCH   3  30
TORSDOF 2
ENDMDL
MODEL       80
REMARK 921   NORMALIZED FREE ENERGY PREDICTED BY IDOCK:   11.37 KCAL/MOL
REMARK 922        TOTAL FREE ENERGY PREDICTED BY IDOCK:   12.81 KCAL/MOL
REMARK 923 INTER-LIGAND FREE ENERGY PREDICTED BY IDOCK:   10.62 KCAL/MOL
REMARK 924 INTRA-LIGAND FREE ENERGY PREDICTED BY IDOCK:    2.19 KCAL/MOL
REMARK 927      BINDING AFFINITY PREDICTED BY RF-SCORE:    0.00 PKD
ROOT
HETATM    1  C   UNL     1      -7.302  14.094  71.742  1.00  0.00     3.981 C  
HETATM    2  C   UNL     1      -7.559  15.148  70.629  1.00  0.00     1.146 C  
HETATM    3  C   UNL     1      -9.080  15.296  70.183  1.00  0.00     0.481 C  
HETATM    4  N   UNL     1      -9.309  14.608  68.915  1.00  0.00    -0.286 N  
HETATM    5  O   UNL     1      -5.931  14.284  72.138  1.00  0.00    -0.160 OA 
HETATM    6  C   UNL     1      -6.228  12.444  73.631  1.00  0.00     3.340 C  
HETATM    7  C   UNL     1     -10.558  14.233  68.425  1.00  0.00    -0.253 C  
HETATM    8  C   UNL     1      -6.218  12.898  72.178  1.00  0.00     2.504 C  
HETATM    9  H   UNL     1      -8.493  14.386  68.345  1.00  0.00     0.000 HD 
HETATM   10  C   UNL     1     -10.461  13.470  67.112  1.00  0.00    -0.256 C  
HETATM   11  C   UNL     1      -5.268  12.072  71.288  1.00  0.00    -0.080 C  
HETATM   12  O   UNL     1     -11.611  14.360  69.031  1.00  0.00    -0.261 OA 
HETATM   13  C   UNL     1      -9.899  12.104  67.505  1.00  0.00    -0.191 C  
HETATM   14  C   UNL     1      -5.421  10.525  71.482  1.00  0.00     0.055 C  
HETATM   15  C   UNL     1      -9.671  11.014  66.415  1.00  0.00    -0.235 C  
HETATM   16  C   UNL     1      -6.394   7.353  70.320  1.00  0.00    -0.034 C  
HETATM   17  O   UNL     1      -8.684  12.405  68.148  1.00  0.00    -0.179 OA 
HETATM   18  H   UNL     1      -8.334  11.556  68.392  1.00  0.00     0.000 HD 
HETATM   19  C   UNL     1      -8.425  10.041  66.664  1.00  0.00    -0.125 C  
HETATM   20  C   UNL     1     -11.010  10.228  66.381  1.00  0.00     0.077 C  
HETATM   21  C   UNL     1      -9.476  11.545  64.967  1.00  0.00    -0.174 C  
HETATM   22  C   UNL     1      -5.167   9.592  70.268  1.00  0.00    -0.028 C  
HETATM   23  C   UNL     1      -7.553  10.122  67.951  1.00  0.00    -0.089 C  
HETATM   24  O   UNL     1      -8.116   9.213  65.795  1.00  0.00    -0.107 OA 
HETATM   25  H   UNL     1      -5.147   7.864  67.754  1.00  0.00     0.000 HD 
HETATM   26  C   UNL     1      -6.453   8.808  69.830  1.00  0.00    -0.038 C  
HETATM   27  C   UNL     1      -6.801   8.823  68.306  1.00  0.00    -0.066 C  
HETATM   28  C   UNL     1      -6.546  11.287  67.917  1.00  0.00    -0.059 C  
HETATM   29  O   UNL     1      -5.610   8.664  67.535  1.00  0.00    -0.038 OA 
ENDROOT
BRANCH   3  30
HETATM   30  C   UNL     1      -9.787  16.668  69.957  1.00  0.00     0.603 C  
HETATM   31  C   UNL     1      -9.068  17.818  69.793  1.00  0.00     1.193 C  
HETATM   32  C   UNL     1     -11.222  16.532  69.498  1.00  0.00    -0.169 C  
BRANCH  31  33
HETATM   33  C   UNL     1      -9.378  18.918  68.915  1.00  0.00    -0.290 A  
HETATM   34  C   UNL     1      -9.969  20.111  69.341  1.00  0.00     0.054 A  
HETATM   35  S   UNL     1     -10.407  21.062  67.990  1.00  0.00     1.092 SA 
HETATM   36  C   UNL     1      -9.864  19.806  66.944  1.00  0.00    -0.400 A  
HETATM   37  N   UNL     1      -9.379  18.740  67.552  1.00  0.00    -0.288 NA 
HETATM   38  C   UNL     1      -9.995  19.975  65.467  1.00  0.00    -0.096 C  
ENDBRANCH  31  33
ENDBRANCH   3  30
TORSDOF 2
ENDMDL
MODEL       81
REMARK 921   NORMALIZED FREE ENERGY PREDICTED BY IDOCK:   12.57 KCAL/MOL
REMARK 922        TOTAL FREE ENERGY PREDICTED BY IDOCK:   14.16 KCAL/MOL
REMARK 923 INTER-LIGAND FREE ENERGY PREDICTED BY IDOCK:   13.93 KCAL/MOL
REMARK 924 INTRA-LIGAND FREE ENERGY PREDICTED BY IDOCK:    0.23 KCAL/MOL
REMARK 927      BINDING AFFINITY PREDICTED BY RF-SCORE:    0.00 PKD
ROOT
HETATM    1  C   UNL     1      -9.182  14.823  66.520  1.00  0.00    -0.276 C  
HETATM    2  C   UNL     1      -8.827  13.617  67.434  1.00  0.00    -0.221 C  
HETATM    3  C   UNL     1     -10.064  12.714  67.866  1.00  0.00    -0.222 C  
HETATM    4  N   UNL     1     -10.464  13.018  69.238  1.00  0.00    -0.420 N  
HETATM    5  O   UNL     1      -7.917  15.353  66.081  1.00  0.00     0.291 OA 
HETATM    6  C   UNL     1      -9.155  17.045  64.938  1.00  0.00     3.352 C  
HETATM    7  C   UNL     1     -11.696  12.691  69.801  1.00  0.00    -0.284 C  
HETATM    8  C   UNL     1      -8.806  16.435  66.288  1.00  0.00    -0.332 C  
HETATM    9  H   UNL     1      -9.790  13.506  69.828  1.00  0.00     0.000 HD 
HETATM   10  C   UNL     1     -11.836  13.206  71.226  1.00  0.00     0.683 C  
HETATM   11  C   UNL     1      -8.258  17.464  67.298  1.00  0.00    -0.221 C  
HETATM   12  O   UNL     1     -12.626  12.184  69.195  1.00  0.00     0.201 OA 
HETATM   13  C   UNL     1     -11.995  14.718  71.073  1.00  0.00    -0.331 C  
HETATM   14  C   UNL     1      -9.116  18.772  67.380  1.00  0.00    -0.293 C  
HETATM   15  C   UNL     1     -12.190  15.612  72.334  1.00  0.00    -0.538 C  
HETATM   16  C   UNL     1     -11.315  20.915  69.094  1.00  0.00     2.026 C  
HETATM   17  O   UNL     1     -10.843  15.116  70.372  1.00  0.00    -0.385 OA 
HETATM   18  H   UNL     1     -10.942  16.056  70.277  1.00  0.00     0.000 HD 
HETATM   19  C   UNL     1     -11.552  17.077  72.245  1.00  0.00     0.651 C  
HETATM   20  C   UNL     1     -13.730  15.671  72.522  1.00  0.00    -0.651 C  
HETATM   21  C   UNL     1     -11.641  15.022  73.664  1.00  0.00     0.047 C  
HETATM   22  C   UNL     1      -9.204  19.523  68.737  1.00  0.00    -0.394 C  
HETATM   23  C   UNL     1     -10.862  17.605  70.953  1.00  0.00     1.860 C  
HETATM   24  O   UNL     1     -11.575  17.813  73.242  1.00  0.00     0.532 OA 
HETATM   25  H   UNL     1      -9.740  20.662  71.515  1.00  0.00     0.000 HD 
HETATM   26  C   UNL     1     -10.659  19.544  69.321  1.00  0.00     0.443 C  
HETATM   27  C   UNL     1     -10.819  19.141  70.823  1.00  0.00     3.158 C  
HETATM   28  C   UNL     1      -9.437  17.050  70.770  1.00  0.00     3.841 C  
HETATM   29  O   UNL     1      -9.766  19.716  71.595  1.00  0.00     2.178 OA 
ENDROOT
BRANCH   3  30
HETATM   30  C   UNL     1     -10.046  11.155  67.855  1.00  0.00    -0.195 C  
HETATM   31  C   UNL     1     -10.026  10.453  66.683  1.00  0.00    -0.262 C  
HETATM   32  C   UNL     1      -9.604  10.554  69.171  1.00  0.00    -0.214 C  
BRANCH  31  33
HETATM   33  C   UNL     1      -9.315   9.228  66.415  1.00  0.00    -0.192 A  
HETATM   34  C   UNL     1      -9.920   8.070  65.920  1.00  0.00     0.462 A  
HETATM   35  S   UNL     1      -8.817   6.765  65.972  1.00  0.00    -0.101 SA 
HETATM   36  C   UNL     1      -7.652   7.795  66.714  1.00  0.00    -0.098 A  
HETATM   37  N   UNL     1      -8.047   9.038  66.912  1.00  0.00    -0.111 NA 
HETATM   38  C   UNL     1      -6.324   7.237  67.103  1.00  0.00    -0.051 C  
ENDBRANCH  31  33
ENDBRANCH   3  30
TORSDOF 2
ENDMDL
MODEL       82
REMARK 921   NORMALIZED FREE ENERGY PREDICTED BY IDOCK:   13.03 KCAL/MOL
REMARK 922        TOTAL FREE ENERGY PREDICTED BY IDOCK:   14.67 KCAL/MOL
REMARK 923 INTER-LIGAND FREE ENERGY PREDICTED BY IDOCK:   14.34 KCAL/MOL
REMARK 924 INTRA-LIGAND FREE ENERGY PREDICTED BY IDOCK:    0.33 KCAL/MOL
REMARK 927      BINDING AFFINITY PREDICTED BY RF-SCORE:    0.00 PKD
ROOT
HETATM    1  C   UNL     1     -11.199   9.633  66.655  1.00  0.00     0.770 C  
HETATM    2  C   UNL     1      -9.944   8.766  66.953  1.00  0.00    -0.327 C  
HETATM    3  C   UNL     1      -9.593   8.600  68.497  1.00  0.00    -0.154 C  
HETATM    4  N   UNL     1      -8.482   9.475  68.865  1.00  0.00    -0.120 N  
HETATM    5  O   UNL     1     -11.453   9.465  65.248  1.00  0.00     3.908 OA 
HETATM    6  C   UNL     1     -13.257  11.007  65.508  1.00  0.00     7.570 C  
HETATM    7  C   UNL     1      -8.158   9.849  70.168  1.00  0.00    -0.146 C  
HETATM    8  C   UNL     1     -11.751  10.804  65.598  1.00  0.00     1.522 C  
HETATM    9  H   UNL     1      -7.900   9.840  68.111  1.00  0.00     0.000 HD 
HETATM   10  C   UNL     1      -6.992  10.824  70.218  1.00  0.00     0.120 C  
HETATM   11  C   UNL     1     -10.948  11.824  64.767  1.00  0.00    -0.360 C  
HETATM   12  O   UNL     1      -8.810   9.558  71.158  1.00  0.00    -0.249 OA 
HETATM   13  C   UNL     1      -7.570  12.138  69.691  1.00  0.00     0.827 C  
HETATM   14  C   UNL     1     -11.415  13.305  64.977  1.00  0.00    -0.329 C  
HETATM   15  C   UNL     1      -6.670  13.407  69.608  1.00  0.00     0.056 C  
HETATM   16  C   UNL     1     -10.890  16.560  66.197  1.00  0.00    -0.050 C  
HETATM   17  O   UNL     1      -8.060  11.810  68.414  1.00  0.00    -0.140 OA 
HETATM   18  H   UNL     1      -8.419  12.626  68.086  1.00  0.00     0.000 HD 
HETATM   19  C   UNL     1      -6.988  14.400  68.394  1.00  0.00    -0.109 C  
HETATM   20  C   UNL     1      -6.870  14.103  70.982  1.00  0.00     0.963 C  
HETATM   21  C   UNL     1      -5.142  13.138  69.510  1.00  0.00    -0.076 C  
HETATM   22  C   UNL     1     -10.363  14.442  64.872  1.00  0.00    -0.419 C  
HETATM   23  C   UNL     1      -8.174  14.160  67.415  1.00  0.00    -0.207 C  
HETATM   24  O   UNL     1      -6.253  15.379  68.199  1.00  0.00    -0.106 OA 
HETATM   25  H   UNL     1      -8.188  16.562  65.145  1.00  0.00     0.000 HD 
HETATM   26  C   UNL     1     -10.163  15.206  66.226  1.00  0.00    -0.300 C  
HETATM   27  C   UNL     1      -8.689  15.425  66.699  1.00  0.00    -0.296 C  
HETATM   28  C   UNL     1      -7.866  13.081  66.359  1.00  0.00     1.013 C  
HETATM   29  O   UNL     1      -7.871  15.783  65.586  1.00  0.00     1.302 OA 
ENDROOT
BRANCH   3  30
HETATM   30  C   UNL     1      -9.189   7.245  69.153  1.00  0.00    -0.139 C  
HETATM   31  C   UNL     1     -10.043   6.179  69.164  1.00  0.00    -0.212 C  
HETATM   32  C   UNL     1      -7.696   7.093  69.339  1.00  0.00    -0.107 C  
BRANCH  31  33
HETATM   33  C   UNL     1      -9.699   4.787  69.012  1.00  0.00    -0.178 A  
HETATM   34  C   UNL     1     -10.146   3.986  67.958  1.00  0.00     0.244 A  
HETATM   35  S   UNL     1      -9.742   2.352  68.253  1.00  0.00     0.376 SA 
HETATM   36  C   UNL     1      -9.083   2.803  69.780  1.00  0.00    -0.122 A  
HETATM   37  N   UNL     1      -9.149   4.090  70.061  1.00  0.00    -0.105 NA 
HETATM   38  C   UNL     1      -8.523   1.749  70.675  1.00  0.00    -0.081 C  
ENDBRANCH  31  33
ENDBRANCH   3  30
TORSDOF 2
ENDMDL
MODEL       83
REMARK 921   NORMALIZED FREE ENERGY PREDICTED BY IDOCK:   14.48 KCAL/MOL
REMARK 922        TOTAL FREE ENERGY PREDICTED BY IDOCK:   16.29 KCAL/MOL
REMARK 923 INTER-LIGAND FREE ENERGY PREDICTED BY IDOCK:   16.26 KCAL/MOL
REMARK 924 INTRA-LIGAND FREE ENERGY PREDICTED BY IDOCK:    0.03 KCAL/MOL
REMARK 927      BINDING AFFINITY PREDICTED BY RF-SCORE:    0.00 PKD
ROOT
HETATM    1  C   UNL     1     -12.749  14.194  67.258  1.00  0.00     0.603 C  
HETATM    2  C   UNL     1     -12.221  12.835  66.721  1.00  0.00    -0.134 C  
HETATM    3  C   UNL     1     -11.495  11.921  67.803  1.00  0.00    -0.319 C  
HETATM    4  N   UNL     1     -10.044  11.999  67.645  1.00  0.00    -0.194 N  
HETATM    5  O   UNL     1     -13.547  14.741  66.191  1.00  0.00     1.241 OA 
HETATM    6  C   UNL     1     -13.885  16.653  67.581  1.00  0.00     8.416 C  
HETATM    7  C   UNL     1      -9.116  11.630  68.616  1.00  0.00    -0.100 C  
HETATM    8  C   UNL     1     -12.867  15.805  66.830  1.00  0.00     3.012 C  
HETATM    9  H   UNL     1      -9.685  12.350  66.758  1.00  0.00     0.000 HD 
HETATM   10  C   UNL     1      -7.683  11.895  68.178  1.00  0.00    -0.126 C  
HETATM   11  C   UNL     1     -11.997  16.621  65.853  1.00  0.00     2.182 C  
HETATM   12  O   UNL     1      -9.397  11.272  69.749  1.00  0.00     0.612 OA 
HETATM   13  C   UNL     1      -7.543  13.416  68.228  1.00  0.00    -0.135 C  
HETATM   14  C   UNL     1     -11.410  17.929  66.485  1.00  0.00     1.095 C  
HETATM   15  C   UNL     1      -6.184  14.085  67.861  1.00  0.00    -0.164 C  
HETATM   16  C   UNL     1      -8.707  19.829  67.685  1.00  0.00    -0.383 C  
HETATM   17  O   UNL     1      -8.558  13.883  67.373  1.00  0.00    -0.178 OA 
HETATM   18  H   UNL     1      -8.471  14.828  67.404  1.00  0.00     0.000 HD 
HETATM   19  C   UNL     1      -6.291  15.517  67.153  1.00  0.00     0.182 C  
HETATM   20  C   UNL     1      -5.428  14.172  69.215  1.00  0.00    -0.081 C  
HETATM   21  C   UNL     1      -5.258  13.252  66.931  1.00  0.00     1.033 C  
HETATM   22  C   UNL     1     -10.025  18.436  65.999  1.00  0.00    -0.228 C  
HETATM   23  C   UNL     1      -7.655  16.232  66.928  1.00  0.00    -0.279 C  
HETATM   24  O   UNL     1      -5.261  16.069  66.739  1.00  0.00    -0.270 OA 
HETATM   25  H   UNL     1      -7.114  19.099  65.375  1.00  0.00     0.000 HD 
HETATM   26  C   UNL     1      -8.943  18.415  67.134  1.00  0.00    -0.268 C  
HETATM   27  C   UNL     1      -7.566  17.765  66.780  1.00  0.00    -0.216 C  
HETATM   28  C   UNL     1      -8.437  15.661  65.730  1.00  0.00     0.786 C  
HETATM   29  O   UNL     1      -7.169  18.155  65.466  1.00  0.00    -0.539 OA 
ENDROOT
BRANCH   3  30
HETATM   30  C   UNL     1     -11.739  10.388  67.948  1.00  0.00     0.323 C  
HETATM   31  C   UNL     1     -11.114   9.490  67.129  1.00  0.00     0.163 C  
HETATM   32  C   UNL     1     -12.320   9.999  69.289  1.00  0.00     0.690 C  
BRANCH  31  33
HETATM   33  C   UNL     1     -10.612   8.188  67.489  1.00  0.00    -0.221 A  
HETATM   34  C   UNL     1     -11.374   7.212  68.137  1.00  0.00     0.345 A  
HETATM   35  S   UNL     1     -10.374   5.912  68.618  1.00  0.00    -0.238 SA 
HETATM   36  C   UNL     1      -9.001   6.760  68.015  1.00  0.00    -0.117 A  
HETATM   37  N   UNL     1      -9.260   7.938  67.480  1.00  0.00    -0.135 NA 
HETATM   38  C   UNL     1      -7.646   6.151  68.151  1.00  0.00    -0.098 C  
ENDBRANCH  31  33
ENDBRANCH   3  30
TORSDOF 2
ENDMDL
MODEL       84
REMARK 921   NORMALIZED FREE ENERGY PREDICTED BY IDOCK:   15.96 KCAL/MOL
REMARK 922        TOTAL FREE ENERGY PREDICTED BY IDOCK:   17.94 KCAL/MOL
REMARK 923 INTER-LIGAND FREE ENERGY PREDICTED BY IDOCK:   17.75 KCAL/MOL
REMARK 924 INTRA-LIGAND FREE ENERGY PREDICTED BY IDOCK:    0.19 KCAL/MOL
REMARK 927      BINDING AFFINITY PREDICTED BY RF-SCORE:    0.00 PKD
ROOT
HETATM    1  C   UNL     1     -10.523  11.746  68.308  1.00  0.00    -0.206 C  
HETATM    2  C   UNL     1      -9.401  12.244  69.261  1.00  0.00     0.803 C  
HETATM    3  C   UNL     1      -7.953  12.331  68.606  1.00  0.00    -0.050 C  
HETATM    4  N   UNL     1      -7.136  11.193  69.021  1.00  0.00    -0.104 N  
HETATM    5  O   UNL     1     -11.753  11.956  69.026  1.00  0.00    -0.284 OA 
HETATM    6  C   UNL     1     -12.873  10.966  67.164  1.00  0.00     6.236 C  
HETATM    7  C   UNL     1      -5.978  10.765  68.374  1.00  0.00    -0.043 C  
HETATM    8  C   UNL     1     -11.868  10.754  68.287  1.00  0.00    -0.001 C  
HETATM    9  H   UNL     1      -7.436  10.673  69.845  1.00  0.00     0.000 HD 
HETATM   10  C   UNL     1      -5.393   9.510  69.004  1.00  0.00    -0.036 C  
HETATM   11  C   UNL     1     -12.200   9.541  69.180  1.00  0.00     1.401 C  
HETATM   12  O   UNL     1      -5.545  11.237  67.335  1.00  0.00    -0.046 OA 
HETATM   13  C   UNL     1      -6.359   8.395  68.604  1.00  0.00    -0.053 C  
HETATM   14  C   UNL     1     -12.547   8.247  68.369  1.00  0.00     6.733 C  
HETATM   15  C   UNL     1      -6.084   6.928  69.051  1.00  0.00    -0.026 C  
HETATM   16  C   UNL     1     -11.786   4.990  67.286  1.00  0.00     4.184 C  
HETATM   17  O   UNL     1      -7.604   8.825  69.099  1.00  0.00    -0.084 OA 
HETATM   18  H   UNL     1      -8.204   8.132  68.850  1.00  0.00     0.000 HD 
HETATM   19  C   UNL     1      -7.383   6.041  69.343  1.00  0.00    -0.079 C  
HETATM   20  C   UNL     1      -5.235   6.334  67.894  1.00  0.00    -0.004 C  
HETATM   21  C   UNL     1      -5.203   6.770  70.323  1.00  0.00    -0.018 C  
HETATM   22  C   UNL     1     -12.178   6.865  68.974  1.00  0.00     1.724 C  
HETATM   23  C   UNL     1      -8.825   6.580  69.110  1.00  0.00    -0.128 C  
HETATM   24  O   UNL     1      -7.250   4.896  69.799  1.00  0.00    -0.053 OA 
HETATM   25  H   UNL     1     -10.992   4.237  69.971  1.00  0.00     0.000 HD 
HETATM   26  C   UNL     1     -11.115   6.095  68.115  1.00  0.00    -0.328 C  
HETATM   27  C   UNL     1      -9.895   5.492  68.884  1.00  0.00    -0.157 C  
HETATM   28  C   UNL     1      -9.300   7.518  70.235  1.00  0.00    -0.161 C  
HETATM   29  O   UNL     1     -10.333   4.908  70.110  1.00  0.00    -0.265 OA 
ENDROOT
BRANCH   3  30
HETATM   30  C   UNL     1      -6.983  13.535  68.805  1.00  0.00    -0.102 C  
HETATM   31  C   UNL     1      -6.786  14.458  67.817  1.00  0.00    -0.191 C  
HETATM   32  C   UNL     1      -6.673  13.820  70.258  1.00  0.00     0.252 C  
BRANCH  31  33
HETATM   33  C   UNL     1      -6.596  15.878  67.979  1.00  0.00    -0.131 A  
HETATM   34  C   UNL     1      -6.784  16.555  69.188  1.00  0.00    -0.213 A  
HETATM   35  S   UNL     1      -6.712  18.243  68.930  1.00  0.00    -0.254 SA 
HETATM   36  C   UNL     1      -6.522  17.965  67.241  1.00  0.00    -0.164 A  
HETATM   37  N   UNL     1      -6.505  16.697  66.879  1.00  0.00    -0.192 NA 
HETATM   38  C   UNL     1      -6.419  19.130  66.314  1.00  0.00    -0.213 C  
ENDBRANCH  31  33
ENDBRANCH   3  30
TORSDOF 2
ENDMDL
MODEL       85
REMARK 921   NORMALIZED FREE ENERGY PREDICTED BY IDOCK:   18.16 KCAL/MOL
REMARK 922        TOTAL FREE ENERGY PREDICTED BY IDOCK:   20.40 KCAL/MOL
REMARK 923 INTER-LIGAND FREE ENERGY PREDICTED BY IDOCK:   19.15 KCAL/MOL
REMARK 924 INTRA-LIGAND FREE ENERGY PREDICTED BY IDOCK:    1.25 KCAL/MOL
REMARK 927      BINDING AFFINITY PREDICTED BY RF-SCORE:    0.00 PKD
ROOT
HETATM    1  C   UNL     1      -7.087   9.438  72.036  1.00  0.00     0.608 C  
HETATM    2  C   UNL     1      -8.216   8.417  71.723  1.00  0.00    -0.200 C  
HETATM    3  C   UNL     1      -7.753   7.132  70.907  1.00  0.00    -0.094 C  
HETATM    4  N   UNL     1      -8.135   7.254  69.502  1.00  0.00    -0.127 N  
HETATM    5  O   UNL     1      -7.671  10.383  72.951  1.00  0.00     4.799 OA 
HETATM    6  C   UNL     1      -5.591  11.555  72.886  1.00  0.00     1.406 C  
HETATM    7  C   UNL     1      -7.590   6.509  68.459  1.00  0.00    -0.097 C  
HETATM    8  C   UNL     1      -6.796  11.083  72.085  1.00  0.00     4.808 C  
HETATM    9  H   UNL     1      -8.856   7.937  69.268  1.00  0.00     0.000 HD 
HETATM   10  C   UNL     1      -8.144   6.918  67.103  1.00  0.00    -0.117 C  
HETATM   11  C   UNL     1      -7.506  12.222  71.324  1.00  0.00     7.046 C  
HETATM   12  O   UNL     1      -6.667   5.718  68.576  1.00  0.00    -0.053 OA 
HETATM   13  C   UNL     1      -7.512   8.282  66.826  1.00  0.00    -0.087 C  
HETATM   14  C   UNL     1      -6.522  13.147  70.530  1.00  0.00     0.449 C  
HETATM   15  C   UNL     1      -7.826   9.031  65.496  1.00  0.00    -0.096 C  
HETATM   16  C   UNL     1      -5.189  14.358  67.511  1.00  0.00     0.224 C  
HETATM   17  O   UNL     1      -7.898   9.069  67.926  1.00  0.00    -0.099 OA 
HETATM   18  H   UNL     1      -7.505   9.917  67.755  1.00  0.00     0.000 HD 
HETATM   19  C   UNL     1      -7.861  10.628  65.597  1.00  0.00    -0.123 C  
HETATM   20  C   UNL     1      -6.721   8.544  64.519  1.00  0.00    -0.066 C  
HETATM   21  C   UNL     1      -9.169   8.647  64.813  1.00  0.00     0.324 C  
HETATM   22  C   UNL     1      -7.013  13.797  69.208  1.00  0.00    -0.042 C  
HETATM   23  C   UNL     1      -7.517  11.384  66.913  1.00  0.00    -0.147 C  
HETATM   24  O   UNL     1      -8.202  11.292  64.608  1.00  0.00     0.323 OA 
HETATM   25  H   UNL     1      -7.851  14.631  66.396  1.00  0.00     0.000 HD 
HETATM   26  C   UNL     1      -6.209  13.299  67.957  1.00  0.00    -0.129 C  
HETATM   27  C   UNL     1      -7.047  12.840  66.719  1.00  0.00     0.574 C  
HETATM   28  C   UNL     1      -8.673  11.366  67.931  1.00  0.00    -0.145 C  
HETATM   29  O   UNL     1      -8.141  13.734  66.516  1.00  0.00     0.348 OA 
ENDROOT
BRANCH   3  30
HETATM   30  C   UNL     1      -8.197   5.678  71.254  1.00  0.00    -0.125 C  
HETATM   31  C   UNL     1      -8.190   5.222  72.541  1.00  0.00    -0.114 C  
HETATM   32  C   UNL     1      -9.024   5.030  70.166  1.00  0.00    -0.147 C  
BRANCH  31  33
HETATM   33  C   UNL     1      -9.147   4.336  73.155  1.00  0.00    -0.110 A  
HETATM   34  C   UNL     1      -8.798   3.171  73.845  1.00  0.00    -0.076 A  
HETATM   35  S   UNL     1     -10.200   2.263  74.206  1.00  0.00    -0.135 SA 
HETATM   36  C   UNL     1     -11.154   3.422  73.362  1.00  0.00    -0.186 A  
HETATM   37  N   UNL     1     -10.482   4.432  72.843  1.00  0.00    -0.180 NA 
HETATM   38  C   UNL     1     -12.627   3.213  73.246  1.00  0.00     0.935 C  
ENDBRANCH  31  33
ENDBRANCH   3  30
TORSDOF 2
ENDMDL
MODEL       86
REMARK 921   NORMALIZED FREE ENERGY PREDICTED BY IDOCK:   18.55 KCAL/MOL
REMARK 922        TOTAL FREE ENERGY PREDICTED BY IDOCK:   20.83 KCAL/MOL
REMARK 923 INTER-LIGAND FREE ENERGY PREDICTED BY IDOCK:   19.92 KCAL/MOL
REMARK 924 INTRA-LIGAND FREE ENERGY PREDICTED BY IDOCK:    0.91 KCAL/MOL
REMARK 927      BINDING AFFINITY PREDICTED BY RF-SCORE:    0.00 PKD
ROOT
HETATM    1  C   UNL     1      -9.606  13.571  66.186  1.00  0.00    -0.204 C  
HETATM    2  C   UNL     1      -9.980  13.926  67.652  1.00  0.00    -0.237 C  
HETATM    3  C   UNL     1      -8.749  14.310  68.585  1.00  0.00    -0.150 C  
HETATM    4  N   UNL     1      -8.399  13.190  69.455  1.00  0.00     0.232 N  
HETATM    5  O   UNL     1     -10.860  13.480  65.485  1.00  0.00    -0.280 OA 
HETATM    6  C   UNL     1      -9.600  12.873  63.549  1.00  0.00     1.512 C  
HETATM    7  C   UNL     1      -7.183  13.046  70.120  1.00  0.00     1.356 C  
HETATM    8  C   UNL     1      -9.989  12.490  64.970  1.00  0.00    -0.176 C  
HETATM    9  H   UNL     1      -9.096  12.457  69.583  1.00  0.00     0.000 HD 
HETATM   10  C   UNL     1      -7.095  11.737  70.891  1.00  0.00     3.214 C  
HETATM   11  C   UNL     1     -10.579  11.070  65.079  1.00  0.00    -0.315 C  
HETATM   12  O   UNL     1      -6.229  13.797  69.997  1.00  0.00    -0.138 OA 
HETATM   13  C   UNL     1      -6.944  10.667  69.810  1.00  0.00    -0.145 C  
HETATM   14  C   UNL     1      -9.737   9.986  64.323  1.00  0.00    -0.242 C  
HETATM   15  C   UNL     1      -6.800   9.168  70.213  1.00  0.00    -0.055 C  
HETATM   16  C   UNL     1      -7.616   7.182  64.316  1.00  0.00    -0.112 C  
HETATM   17  O   UNL     1      -8.077  10.840  68.994  1.00  0.00    -0.136 OA 
HETATM   18  H   UNL     1      -7.983  10.175  68.322  1.00  0.00     0.000 HD 
HETATM   19  C   UNL     1      -7.448   8.116  69.196  1.00  0.00    -0.087 C  
HETATM   20  C   UNL     1      -5.267   8.960  70.350  1.00  0.00    -0.020 C  
HETATM   21  C   UNL     1      -7.387   8.789  71.602  1.00  0.00    -0.098 C  
HETATM   22  C   UNL     1      -9.701   8.541  64.889  1.00  0.00     1.245 C  
HETATM   23  C   UNL     1      -8.100   8.555  67.851  1.00  0.00    -0.115 C  
HETATM   24  O   UNL     1      -7.465   6.913  69.493  1.00  0.00    -0.091 OA 
HETATM   25  H   UNL     1      -9.267   5.875  66.308  1.00  0.00     0.000 HD 
HETATM   26  C   UNL     1      -8.266   8.110  65.353  1.00  0.00    -0.147 C  
HETATM   27  C   UNL     1      -8.152   7.457  66.769  1.00  0.00    -0.123 C  
HETATM   28  C   UNL     1      -9.513   9.139  68.036  1.00  0.00    -0.157 C  
HETATM   29  O   UNL     1      -9.235   6.552  66.974  1.00  0.00    -0.127 OA 
ENDROOT
BRANCH   3  30
HETATM   30  C   UNL     1      -8.754  15.517  69.573  1.00  0.00    -0.223 C  
HETATM   31  C   UNL     1      -8.900  16.799  69.126  1.00  0.00    -0.105 C  
HETATM   32  C   UNL     1      -9.037  15.117  71.004  1.00  0.00     2.488 C  
BRANCH  31  33
HETATM   33  C   UNL     1      -9.624  17.867  69.769  1.00  0.00     0.833 A  
HETATM   34  C   UNL     1      -9.601  19.195  69.334  1.00  0.00    -0.044 A  
HETATM   35  S   UNL     1     -10.368  20.201  70.483  1.00  0.00     1.973 SA 
HETATM   36  C   UNL     1     -10.604  18.834  71.504  1.00  0.00     3.260 A  
HETATM   37  N   UNL     1     -10.148  17.692  71.028  1.00  0.00     2.942 NA 
HETATM   38  C   UNL     1     -11.259  19.017  72.832  1.00  0.00     4.390 C  
ENDBRANCH  31  33
ENDBRANCH   3  30
TORSDOF 2
ENDMDL
MODEL       87
REMARK 921   NORMALIZED FREE ENERGY PREDICTED BY IDOCK:   20.36 KCAL/MOL
REMARK 922        TOTAL FREE ENERGY PREDICTED BY IDOCK:   22.85 KCAL/MOL
REMARK 923 INTER-LIGAND FREE ENERGY PREDICTED BY IDOCK:   22.95 KCAL/MOL
REMARK 924 INTRA-LIGAND FREE ENERGY PREDICTED BY IDOCK:   -0.10 KCAL/MOL
REMARK 927      BINDING AFFINITY PREDICTED BY RF-SCORE:    0.00 PKD
ROOT
HETATM    1  C   UNL     1      -7.769  17.175  69.567  1.00  0.00     0.367 C  
HETATM    2  C   UNL     1      -8.080  15.752  70.109  1.00  0.00     0.812 C  
HETATM    3  C   UNL     1      -7.305  14.570  69.377  1.00  0.00    -0.098 C  
HETATM    4  N   UNL     1      -8.191  13.883  68.441  1.00  0.00    -0.151 N  
HETATM    5  O   UNL     1      -8.388  18.082  70.499  1.00  0.00     3.230 OA 
HETATM    6  C   UNL     1      -7.642  19.858  69.087  1.00  0.00    -0.141 C  
HETATM    7  C   UNL     1      -7.767  13.062  67.398  1.00  0.00    -0.155 C  
HETATM    8  C   UNL     1      -8.522  18.621  69.196  1.00  0.00     0.051 C  
HETATM    9  H   UNL     1      -9.196  14.015  68.559  1.00  0.00     0.000 HD 
HETATM   10  C   UNL     1      -8.926  12.550  66.555  1.00  0.00    -0.133 C  
HETATM   11  C   UNL     1      -9.993  18.884  68.815  1.00  0.00    -0.466 C  
HETATM   12  O   UNL     1      -6.602  12.878  67.085  1.00  0.00    -0.165 OA 
HETATM   13  C   UNL     1      -9.397  13.773  65.769  1.00  0.00     0.153 C  
HETATM   14  C   UNL     1     -10.156  19.679  67.475  1.00  0.00    -0.538 C  
HETATM   15  C   UNL     1     -10.577  13.643  64.760  1.00  0.00    -0.436 C  
HETATM   16  C   UNL     1     -11.102  19.861  64.094  1.00  0.00     4.754 C  
HETATM   17  O   UNL     1      -9.711  14.720  66.760  1.00  0.00    -0.236 OA 
HETATM   18  H   UNL     1     -10.004  15.480  66.271  1.00  0.00     0.000 HD 
HETATM   19  C   UNL     1     -11.512  14.935  64.623  1.00  0.00    -0.379 C  
HETATM   20  C   UNL     1      -9.887  13.292  63.413  1.00  0.00     2.539 C  
HETATM   21  C   UNL     1     -11.561  12.470  65.029  1.00  0.00    -0.392 C  
HETATM   22  C   UNL     1     -11.399  19.399  66.587  1.00  0.00     0.303 C  
HETATM   23  C   UNL     1     -11.209  16.262  65.379  1.00  0.00     0.037 C  
HETATM   24  O   UNL     1     -12.530  14.878  63.918  1.00  0.00    -0.806 OA 
HETATM   25  H   UNL     1     -13.574  18.459  64.667  1.00  0.00     0.000 HD 
HETATM   26  C   UNL     1     -11.020  18.791  65.193  1.00  0.00     0.969 C  
HETATM   27  C   UNL     1     -11.818  17.526  64.738  1.00  0.00     3.012 C  
HETATM   28  C   UNL     1     -11.620  16.210  66.862  1.00  0.00     0.582 C  
HETATM   29  O   UNL     1     -13.199  17.680  65.062  1.00  0.00     9.000 OA 
ENDROOT
BRANCH   3  30
HETATM   30  C   UNL     1      -6.621  13.387  70.127  1.00  0.00     0.201 C  
HETATM   31  C   UNL     1      -7.229  12.168  70.235  1.00  0.00     1.740 C  
HETATM   32  C   UNL     1      -5.129  13.569  70.295  1.00  0.00    -0.097 C  
BRANCH  31  33
HETATM   33  C   UNL     1      -6.598  10.874  70.183  1.00  0.00    -0.120 A  
HETATM   34  C   UNL     1      -6.592  10.056  69.050  1.00  0.00    -0.052 A  
HETATM   35  S   UNL     1      -5.974   8.512  69.446  1.00  0.00    -0.037 SA 
HETATM   36  C   UNL     1      -5.836   9.002  71.091  1.00  0.00    -0.051 A  
HETATM   37  N   UNL     1      -6.218  10.240  71.342  1.00  0.00    -0.308 NA 
HETATM   38  C   UNL     1      -5.338   8.028  72.106  1.00  0.00    -0.035 C  
ENDBRANCH  31  33
ENDBRANCH   3  30
TORSDOF 2
ENDMDL
MODEL       88
REMARK 921   NORMALIZED FREE ENERGY PREDICTED BY IDOCK:   23.24 KCAL/MOL
REMARK 922        TOTAL FREE ENERGY PREDICTED BY IDOCK:   26.07 KCAL/MOL
REMARK 923 INTER-LIGAND FREE ENERGY PREDICTED BY IDOCK:   24.90 KCAL/MOL
REMARK 924 INTRA-LIGAND FREE ENERGY PREDICTED BY IDOCK:    1.17 KCAL/MOL
REMARK 927      BINDING AFFINITY PREDICTED BY RF-SCORE:    0.00 PKD
ROOT
HETATM    1  C   UNL     1      -7.187   9.579  72.514  1.00  0.00     1.341 C  
HETATM    2  C   UNL     1      -7.656  10.368  71.259  1.00  0.00     2.391 C  
HETATM    3  C   UNL     1      -9.234  10.490  71.093  1.00  0.00     3.584 C  
HETATM    4  N   UNL     1      -9.715   9.547  70.086  1.00  0.00    -0.231 N  
HETATM    5  O   UNL     1      -5.764   9.784  72.583  1.00  0.00    -0.302 OA 
HETATM    6  C   UNL     1      -5.766   8.343  74.487  1.00  0.00    -0.108 C  
HETATM    7  C   UNL     1     -11.039   9.135  69.946  1.00  0.00    -0.159 C  
HETATM    8  C   UNL     1      -6.044   8.459  72.995  1.00  0.00    -0.082 C  
HETATM    9  H   UNL     1      -9.030   9.161  69.436  1.00  0.00     0.000 HD 
HETATM   10  C   UNL     1     -11.209   8.094  68.850  1.00  0.00     0.421 C  
HETATM   11  C   UNL     1      -5.295   7.407  72.153  1.00  0.00    -0.036 C  
HETATM   12  O   UNL     1     -11.949   9.447  70.698  1.00  0.00    -0.256 OA 
HETATM   13  C   UNL     1     -10.586   6.824  69.430  1.00  0.00    -0.233 C  
HETATM   14  C   UNL     1      -5.413   5.952  72.723  1.00  0.00    -0.031 C  
HETATM   15  C   UNL     1     -10.586   5.507  68.597  1.00  0.00    -0.215 C  
HETATM   16  C   UNL     1      -6.615   2.654  72.531  1.00  0.00    -0.018 C  
HETATM   17  O   UNL     1      -9.266   7.199  69.740  1.00  0.00    -0.145 OA 
HETATM   18  H   UNL     1      -8.879   6.410  70.100  1.00  0.00     0.000 HD 
HETATM   19  C   UNL     1      -9.320   4.553  68.817  1.00  0.00    -0.146 C  
HETATM   20  C   UNL     1     -11.909   4.802  69.004  1.00  0.00     7.204 C  
HETATM   21  C   UNL     1     -10.681   5.689  67.056  1.00  0.00    -0.332 C  
HETATM   22  C   UNL     1      -5.412   4.759  71.730  1.00  0.00    -0.004 C  
HETATM   23  C   UNL     1      -8.209   4.876  69.859  1.00  0.00    -0.073 C  
HETATM   24  O   UNL     1      -9.195   3.536  68.119  1.00  0.00    -0.144 OA 
HETATM   25  H   UNL     1      -5.901   2.513  69.725  1.00  0.00     0.000 HD 
HETATM   26  C   UNL     1      -6.763   3.963  71.741  1.00  0.00    -0.023 C  
HETATM   27  C   UNL     1      -7.407   3.653  70.351  1.00  0.00    -0.041 C  
HETATM   28  C   UNL     1      -7.223   5.951  69.364  1.00  0.00    -0.067 C  
HETATM   29  O   UNL     1      -6.395   3.266  69.422  1.00  0.00    -0.028 OA 
ENDROOT
BRANCH   3  30
HETATM   30  C   UNL     1      -9.965  11.809  70.699  1.00  0.00     4.620 C  
HETATM   31  C   UNL     1     -11.256  12.046  71.079  1.00  0.00     2.242 C  
HETATM   32  C   UNL     1      -9.020  12.918  70.295  1.00  0.00     4.868 C  
BRANCH  31  33
HETATM   33  C   UNL     1     -11.828  13.307  71.478  1.00  0.00     1.065 A  
HETATM   34  C   UNL     1     -13.065  13.434  72.117  1.00  0.00    -0.388 A  
HETATM   35  S   UNL     1     -13.514  15.080  72.201  1.00  0.00    -0.458 SA 
HETATM   36  C   UNL     1     -12.094  15.501  71.322  1.00  0.00    -0.386 A  
HETATM   37  N   UNL     1     -11.321  14.486  70.985  1.00  0.00    -0.094 NA 
HETATM   38  C   UNL     1     -11.841  16.931  70.979  1.00  0.00     1.161 C  
ENDBRANCH  31  33
ENDBRANCH   3  30
TORSDOF 2
ENDMDL
MODEL       89
REMARK 921   NORMALIZED FREE ENERGY PREDICTED BY IDOCK:   24.64 KCAL/MOL
REMARK 922        TOTAL FREE ENERGY PREDICTED BY IDOCK:   27.63 KCAL/MOL
REMARK 923 INTER-LIGAND FREE ENERGY PREDICTED BY IDOCK:   28.11 KCAL/MOL
REMARK 924 INTRA-LIGAND FREE ENERGY PREDICTED BY IDOCK:   -0.48 KCAL/MOL
REMARK 927      BINDING AFFINITY PREDICTED BY RF-SCORE:    0.00 PKD
ROOT
HETATM    1  C   UNL     1      -8.288   7.311  65.176  1.00  0.00    -0.075 C  
HETATM    2  C   UNL     1      -7.302   7.217  66.374  1.00  0.00    -0.079 C  
HETATM    3  C   UNL     1      -7.981   7.300  67.811  1.00  0.00    -0.115 C  
HETATM    4  N   UNL     1      -7.797   8.630  68.387  1.00  0.00    -0.104 N  
HETATM    5  O   UNL     1      -7.503   6.994  64.012  1.00  0.00    -0.083 OA 
HETATM    6  C   UNL     1      -9.468   7.404  62.719  1.00  0.00     2.588 C  
HETATM    7  C   UNL     1      -8.546   9.155  69.438  1.00  0.00    -0.138 C  
HETATM    8  C   UNL     1      -8.433   8.002  63.662  1.00  0.00     0.159 C  
HETATM    9  H   UNL     1      -7.065   9.218  67.989  1.00  0.00     0.000 HD 
HETATM   10  C   UNL     1      -8.162  10.591  69.762  1.00  0.00     0.050 C  
HETATM   11  C   UNL     1      -7.752   9.265  63.096  1.00  0.00    -0.118 C  
HETATM   12  O   UNL     1      -9.503   8.602  69.956  1.00  0.00    -0.161 OA 
HETATM   13  C   UNL     1      -8.716  11.408  68.595  1.00  0.00    -0.121 C  
HETATM   14  C   UNL     1      -8.762  10.303  62.500  1.00  0.00    -0.237 C  
HETATM   15  C   UNL     1      -8.538  12.956  68.574  1.00  0.00    -0.042 C  
HETATM   16  C   UNL     1     -10.415  13.404  62.602  1.00  0.00     5.261 C  
HETATM   17  O   UNL     1      -8.112  10.838  67.459  1.00  0.00    -0.110 OA 
HETATM   18  H   UNL     1      -8.456  11.345  66.734  1.00  0.00     0.000 HD 
HETATM   19  C   UNL     1      -8.359  13.610  67.124  1.00  0.00    -0.137 C  
HETATM   20  C   UNL     1      -9.808  13.492  69.289  1.00  0.00     0.467 C  
HETATM   21  C   UNL     1      -7.343  13.503  69.405  1.00  0.00     0.255 C  
HETATM   22  C   UNL     1      -8.417  11.815  62.588  1.00  0.00     0.746 C  
HETATM   23  C   UNL     1      -8.446  12.768  65.817  1.00  0.00     1.237 C  
HETATM   24  O   UNL     1      -8.112  14.820  67.028  1.00  0.00    -0.205 OA 
HETATM   25  H   UNL     1      -7.929  14.757  63.229  1.00  0.00     0.000 HD 
HETATM   26  C   UNL     1      -9.431  12.614  63.478  1.00  0.00     1.075 C  
HETATM   27  C   UNL     1      -8.820  13.569  64.554  1.00  0.00     3.757 C  
HETATM   28  C   UNL     1      -7.161  11.967  65.537  1.00  0.00     2.349 C  
HETATM   29  O   UNL     1      -7.699  14.262  64.008  1.00  0.00    12.415 OA 
ENDROOT
BRANCH   3  30
HETATM   30  C   UNL     1      -7.611   6.362  69.001  1.00  0.00    -0.100 C  
HETATM   31  C   UNL     1      -8.420   5.323  69.364  1.00  0.00    -0.094 C  
HETATM   32  C   UNL     1      -6.147   6.421  69.375  1.00  0.00    -0.029 C  
BRANCH  31  33
HETATM   33  C   UNL     1      -8.010   4.022  69.829  1.00  0.00    -0.055 A  
HETATM   34  C   UNL     1      -7.558   3.002  68.988  1.00  0.00    -0.047 A  
HETATM   35  S   UNL     1      -7.407   1.543  69.866  1.00  0.00    -0.036 SA 
HETATM   36  C   UNL     1      -8.022   2.336  71.266  1.00  0.00    -0.043 A  
HETATM   37  N   UNL     1      -8.320   3.611  71.104  1.00  0.00    -0.067 NA 
HETATM   38  C   UNL     1      -8.203   1.559  72.527  1.00  0.00    -0.052 C  
ENDBRANCH  31  33
ENDBRANCH   3  30
TORSDOF 2
ENDMDL
MODEL       90
REMARK 921   NORMALIZED FREE ENERGY PREDICTED BY IDOCK:   28.39 KCAL/MOL
REMARK 922        TOTAL FREE ENERGY PREDICTED BY IDOCK:   31.82 KCAL/MOL
REMARK 923 INTER-LIGAND FREE ENERGY PREDICTED BY IDOCK:   28.85 KCAL/MOL
REMARK 924 INTRA-LIGAND FREE ENERGY PREDICTED BY IDOCK:    2.97 KCAL/MOL
REMARK 927      BINDING AFFINITY PREDICTED BY RF-SCORE:    0.00 PKD
ROOT
HETATM    1  C   UNL     1      -7.716  12.616  66.868  1.00  0.00     0.090 C  
HETATM    2  C   UNL     1      -8.800  13.643  67.298  1.00  0.00    -0.227 C  
HETATM    3  C   UNL     1      -8.778  14.037  68.840  1.00  0.00     0.063 C  
HETATM    4  N   UNL     1      -9.841  13.340  69.560  1.00  0.00     0.249 N  
HETATM    5  O   UNL     1      -7.776  12.580  65.430  1.00  0.00     2.375 OA 
HETATM    6  C   UNL     1      -6.083  10.897  65.519  1.00  0.00     0.004 C  
HETATM    7  C   UNL     1      -9.889  13.168  70.942  1.00  0.00     7.116 C  
HETATM    8  C   UNL     1      -7.509  11.271  65.898  1.00  0.00     0.193 C  
HETATM    9  H   UNL     1     -10.605  12.948  69.010  1.00  0.00     0.000 HD 
HETATM   10  C   UNL     1     -11.084  12.337  71.382  1.00  0.00     4.213 C  
HETATM   11  C   UNL     1      -8.556  10.246  65.416  1.00  0.00    -0.169 C  
HETATM   12  O   UNL     1      -9.009  13.509  71.717  1.00  0.00     9.966 OA 
HETATM   13  C   UNL     1     -10.744  10.914  70.941  1.00  0.00     1.442 C  
HETATM   14  C   UNL     1      -8.169   8.762  65.735  1.00  0.00    -0.121 C  
HETATM   15  C   UNL     1     -11.734   9.748  71.238  1.00  0.00    -0.472 C  
HETATM   16  C   UNL     1      -8.653   5.760  67.499  1.00  0.00    -0.105 C  
HETATM   17  O   UNL     1     -10.532  11.025  69.554  1.00  0.00    -0.383 OA 
HETATM   18  H   UNL     1     -10.321  10.141  69.280  1.00  0.00     0.000 HD 
HETATM   19  C   UNL     1     -11.777   8.583  70.142  1.00  0.00     0.195 C  
HETATM   20  C   UNL     1     -11.281   9.212  72.624  1.00  0.00     0.736 C  
HETATM   21  C   UNL     1     -13.220  10.165  71.431  1.00  0.00    -0.474 C  
HETATM   22  C   UNL     1      -9.301   7.740  66.023  1.00  0.00    -0.102 C  
HETATM   23  C   UNL     1     -10.829   8.571  68.907  1.00  0.00    -0.009 C  
HETATM   24  O   UNL     1     -12.609   7.672  70.253  1.00  0.00     0.367 OA 
HETATM   25  H   UNL     1     -11.514   5.916  67.062  1.00  0.00     0.000 HD 
HETATM   26  C   UNL     1      -9.247   7.177  67.485  1.00  0.00    -0.131 C  
HETATM   27  C   UNL     1     -10.588   7.178  68.289  1.00  0.00    -0.188 C  
HETATM   28  C   UNL     1     -11.284   9.536  67.796  1.00  0.00     0.147 C  
HETATM   29  O   UNL     1     -11.662   6.774  67.442  1.00  0.00     0.287 OA 
ENDROOT
BRANCH   3  30
HETATM   30  C   UNL     1      -8.918  15.500  69.363  1.00  0.00    -0.275 C  
HETATM   31  C   UNL     1      -8.764  16.570  68.528  1.00  0.00    -0.228 C  
HETATM   32  C   UNL     1      -9.653  15.595  70.681  1.00  0.00     1.139 C  
BRANCH  31  33
HETATM   33  C   UNL     1      -9.504  17.807  68.555  1.00  0.00    -0.304 A  
HETATM   34  C   UNL     1     -10.568  18.058  69.425  1.00  0.00     0.478 A  
HETATM   35  S   UNL     1     -11.346  19.516  68.992  1.00  0.00     3.180 SA 
HETATM   36  C   UNL     1     -10.282  19.671  67.647  1.00  0.00    -0.435 A  
HETATM   37  N   UNL     1      -9.393  18.704  67.520  1.00  0.00    -0.281 NA 
HETATM   38  C   UNL     1     -10.437  20.830  66.720  1.00  0.00     0.510 C  
ENDBRANCH  31  33
ENDBRANCH   3  30
TORSDOF 2
ENDMDL
MODEL       91
REMARK 921   NORMALIZED FREE ENERGY PREDICTED BY IDOCK:   30.85 KCAL/MOL
REMARK 922        TOTAL FREE ENERGY PREDICTED BY IDOCK:   34.57 KCAL/MOL
REMARK 923 INTER-LIGAND FREE ENERGY PREDICTED BY IDOCK:   33.72 KCAL/MOL
REMARK 924 INTRA-LIGAND FREE ENERGY PREDICTED BY IDOCK:    0.86 KCAL/MOL
REMARK 927      BINDING AFFINITY PREDICTED BY RF-SCORE:    0.00 PKD
ROOT
HETATM    1  C   UNL     1     -10.660   8.332  66.157  1.00  0.00     1.036 C  
HETATM    2  C   UNL     1     -10.553   9.350  67.327  1.00  0.00    -0.314 C  
HETATM    3  C   UNL     1      -9.091   9.925  67.585  1.00  0.00    -0.131 C  
HETATM    4  N   UNL     1      -8.481   9.268  68.738  1.00  0.00    -0.127 N  
HETATM    5  O   UNL     1     -12.071   8.121  65.964  1.00  0.00     6.791 OA 
HETATM    6  C   UNL     1     -11.484   6.544  64.269  1.00  0.00    11.401 C  
HETATM    7  C   UNL     1      -7.116   9.261  69.022  1.00  0.00    -0.067 C  
HETATM    8  C   UNL     1     -11.403   6.892  65.749  1.00  0.00     4.030 C  
HETATM    9  H   UNL     1      -9.099   8.778  69.384  1.00  0.00     0.000 HD 
HETATM   10  C   UNL     1      -6.785   8.432  70.254  1.00  0.00    -0.036 C  
HETATM   11  C   UNL     1     -11.924   5.768  66.668  1.00  0.00     2.601 C  
HETATM   12  O   UNL     1      -6.252   9.733  68.301  1.00  0.00    -0.050 OA 
HETATM   13  C   UNL     1      -6.980   6.984  69.804  1.00  0.00    -0.059 C  
HETATM   14  C   UNL     1     -11.360   4.353  66.302  1.00  0.00     2.273 C  
HETATM   15  C   UNL     1      -6.711   5.816  70.800  1.00  0.00    -0.052 C  
HETATM   16  C   UNL     1      -9.341   1.563  67.007  1.00  0.00     0.021 C  
HETATM   17  O   UNL     1      -8.313   6.939  69.356  1.00  0.00    -0.129 OA 
HETATM   18  H   UNL     1      -8.434   6.040  69.077  1.00  0.00     0.000 HD 
HETATM   19  C   UNL     1      -7.644   4.528  70.619  1.00  0.00    -0.053 C  
HETATM   20  C   UNL     1      -5.212   5.471  70.582  1.00  0.00    -0.005 C  
HETATM   21  C   UNL     1      -6.828   6.181  72.307  1.00  0.00    -0.073 C  
HETATM   22  C   UNL     1     -11.142   3.320  67.441  1.00  0.00     6.104 C  
HETATM   23  C   UNL     1      -8.688   4.414  69.470  1.00  0.00    -0.117 C  
HETATM   24  O   UNL     1      -7.562   3.598  71.434  1.00  0.00    -0.053 OA 
HETATM   25  H   UNL     1     -10.274   1.528  69.752  1.00  0.00     0.000 HD 
HETATM   26  C   UNL     1      -9.633   2.938  67.628  1.00  0.00    -0.057 C  
HETATM   27  C   UNL     1      -9.075   2.971  69.088  1.00  0.00    -0.138 C  
HETATM   28  C   UNL     1      -9.972   5.217  69.750  1.00  0.00    -0.313 C  
HETATM   29  O   UNL     1     -10.035   2.417  69.987  1.00  0.00     0.152 OA 
ENDROOT
BRANCH   3  30
HETATM   30  C   UNL     1      -8.787  11.431  67.853  1.00  0.00    -0.149 C  
HETATM   31  C   UNL     1      -8.304  11.854  69.058  1.00  0.00     0.227 C  
HETATM   32  C   UNL     1      -8.641  12.245  66.586  1.00  0.00    -0.099 C  
BRANCH  31  33
HETATM   33  C   UNL     1      -7.336  12.896  69.289  1.00  0.00     0.246 A  
HETATM   34  C   UNL     1      -6.356  13.267  68.364  1.00  0.00    -0.086 A  
HETATM   35  S   UNL     1      -5.249  14.351  69.086  1.00  0.00    -0.078 SA 
HETATM   36  C   UNL     1      -6.087  14.192  70.583  1.00  0.00    -0.170 A  
HETATM   37  N   UNL     1      -7.133  13.388  70.557  1.00  0.00     1.069 NA 
HETATM   38  C   UNL     1      -5.587  14.921  71.784  1.00  0.00     0.123 C  
ENDBRANCH  31  33
ENDBRANCH   3  30
TORSDOF 2
ENDMDL
MODEL       92
REMARK 921   NORMALIZED FREE ENERGY PREDICTED BY IDOCK:   30.93 KCAL/MOL
REMARK 922        TOTAL FREE ENERGY PREDICTED BY IDOCK:   34.66 KCAL/MOL
REMARK 923 INTER-LIGAND FREE ENERGY PREDICTED BY IDOCK:   33.75 KCAL/MOL
REMARK 924 INTRA-LIGAND FREE ENERGY PREDICTED BY IDOCK:    0.92 KCAL/MOL
REMARK 927      BINDING AFFINITY PREDICTED BY RF-SCORE:    0.00 PKD
ROOT
HETATM    1  C   UNL     1     -10.370  13.656  65.695  1.00  0.00    -0.300 C  
HETATM    2  C   UNL     1      -9.312  13.102  66.690  1.00  0.00    -0.242 C  
HETATM    3  C   UNL     1      -9.901  12.570  68.070  1.00  0.00    -0.214 C  
HETATM    4  N   UNL     1      -9.680  13.550  69.130  1.00  0.00    -0.332 N  
HETATM    5  O   UNL     1      -9.659  13.865  64.461  1.00  0.00     0.189 OA 
HETATM    6  C   UNL     1     -11.700  14.722  63.566  1.00  0.00     1.028 C  
HETATM    7  C   UNL     1     -10.363  13.578  70.345  1.00  0.00     2.422 C  
HETATM    8  C   UNL     1     -10.608  14.905  64.611  1.00  0.00    -0.179 C  
HETATM    9  H   UNL     1      -8.974  14.267  68.969  1.00  0.00     0.000 HD 
HETATM   10  C   UNL     1      -9.958  14.763  71.210  1.00  0.00     2.151 C  
HETATM   11  C   UNL     1      -9.962  16.304  64.578  1.00  0.00     1.991 C  
HETATM   12  O   UNL     1     -11.286  12.838  70.643  1.00  0.00     0.503 OA 
HETATM   13  C   UNL     1     -10.581  15.973  70.516  1.00  0.00    -0.013 C  
HETATM   14  C   UNL     1     -11.005  17.471  64.521  1.00  0.00     1.705 C  
HETATM   15  C   UNL     1     -10.404  17.397  71.124  1.00  0.00     2.773 C  
HETATM   16  C   UNL     1     -12.646  20.214  65.985  1.00  0.00     5.737 C  
HETATM   17  O   UNL     1     -10.050  15.935  69.214  1.00  0.00    -0.216 OA 
HETATM   18  H   UNL     1     -10.437  16.688  68.783  1.00  0.00     0.000 HD 
HETATM   19  C   UNL     1     -10.314  18.593  70.065  1.00  0.00     1.236 C  
HETATM   20  C   UNL     1     -11.626  17.560  72.068  1.00  0.00     2.045 C  
HETATM   21  C   UNL     1      -9.159  17.583  72.038  1.00  0.00    12.662 C  
HETATM   22  C   UNL     1     -10.654  18.821  65.204  1.00  0.00     0.876 C  
HETATM   23  C   UNL     1     -10.483  18.361  68.535  1.00  0.00    -0.219 C  
HETATM   24  O   UNL     1     -10.072  19.742  70.462  1.00  0.00     0.462 OA 
HETATM   25  H   UNL     1     -10.124  21.250  66.971  1.00  0.00     0.000 HD 
HETATM   26  C   UNL     1     -11.610  19.158  66.400  1.00  0.00     1.291 C  
HETATM   27  C   UNL     1     -10.933  19.602  67.737  1.00  0.00    -0.079 C  
HETATM   28  C   UNL     1      -9.218  17.778  67.877  1.00  0.00    -0.265 C  
HETATM   29  O   UNL     1      -9.847  20.485  67.462  1.00  0.00    -0.433 OA 
ENDROOT
BRANCH   3  30
HETATM   30  C   UNL     1      -9.459  11.235  68.744  1.00  0.00    -0.147 C  
HETATM   31  C   UNL     1     -10.227  10.635  69.701  1.00  0.00    -0.156 C  
HETATM   32  C   UNL     1      -8.412  10.484  67.952  1.00  0.00    -0.119 C  
BRANCH  31  33
HETATM   33  C   UNL     1     -10.431   9.221  69.892  1.00  0.00    -0.227 A  
HETATM   34  C   UNL     1     -11.663   8.582  69.719  1.00  0.00     0.542 A  
HETATM   35  S   UNL     1     -11.568   6.969  70.275  1.00  0.00    -0.223 SA 
HETATM   36  C   UNL     1      -9.944   7.249  70.777  1.00  0.00    -0.186 A  
HETATM   37  N   UNL     1      -9.487   8.465  70.545  1.00  0.00    -0.166 NA 
HETATM   38  C   UNL     1      -9.185   6.153  71.446  1.00  0.00    -0.149 C  
ENDBRANCH  31  33
ENDBRANCH   3  30
TORSDOF 2
ENDMDL
MODEL       93
REMARK 921   NORMALIZED FREE ENERGY PREDICTED BY IDOCK:   32.79 KCAL/MOL
REMARK 922        TOTAL FREE ENERGY PREDICTED BY IDOCK:   36.73 KCAL/MOL
REMARK 923 INTER-LIGAND FREE ENERGY PREDICTED BY IDOCK:   35.84 KCAL/MOL
REMARK 924 INTRA-LIGAND FREE ENERGY PREDICTED BY IDOCK:    0.89 KCAL/MOL
REMARK 927      BINDING AFFINITY PREDICTED BY RF-SCORE:    0.00 PKD
ROOT
HETATM    1  C   UNL     1     -10.601   8.509  65.736  1.00  0.00     1.941 C  
HETATM    2  C   UNL     1     -10.513   9.548  66.889  1.00  0.00    -0.279 C  
HETATM    3  C   UNL     1      -9.056  10.131  67.158  1.00  0.00    -0.135 C  
HETATM    4  N   UNL     1      -8.462   9.496  68.332  1.00  0.00    -0.118 N  
HETATM    5  O   UNL     1     -12.008   8.292  65.526  1.00  0.00     8.504 OA 
HETATM    6  C   UNL     1     -11.394   6.686  63.869  1.00  0.00    13.760 C  
HETATM    7  C   UNL     1      -7.102   9.497  68.636  1.00  0.00    -0.069 C  
HETATM    8  C   UNL     1     -11.335   7.060  65.343  1.00  0.00     6.455 C  
HETATM    9  H   UNL     1      -9.089   9.016  68.977  1.00  0.00     0.000 HD 
HETATM   10  C   UNL     1      -6.788   8.691  69.888  1.00  0.00    -0.042 C  
HETATM   11  C   UNL     1     -11.868   5.952  66.275  1.00  0.00     2.068 C  
HETATM   12  O   UNL     1      -6.228   9.957  67.919  1.00  0.00    -0.051 OA 
HETATM   13  C   UNL     1      -6.973   7.235  69.461  1.00  0.00    -0.057 C  
HETATM   14  C   UNL     1     -11.296   4.532  65.944  1.00  0.00     1.249 C  
HETATM   15  C   UNL     1      -6.717   6.086  70.482  1.00  0.00    -0.053 C  
HETATM   16  C   UNL     1      -9.283   1.759  66.729  1.00  0.00    -0.007 C  
HETATM   17  O   UNL     1      -8.299   7.179  68.995  1.00  0.00    -0.124 OA 
HETATM   18  H   UNL     1      -8.414   6.275  68.730  1.00  0.00     0.000 HD 
HETATM   19  C   UNL     1      -7.645   4.793  70.311  1.00  0.00    -0.057 C  
HETATM   20  C   UNL     1      -5.215   5.740  70.293  1.00  0.00    -0.009 C  
HETATM   21  C   UNL     1      -6.857   6.478  71.980  1.00  0.00    -0.068 C  
HETATM   22  C   UNL     1     -11.093   3.520  67.104  1.00  0.00     5.077 C  
HETATM   23  C   UNL     1      -8.671   4.656  69.149  1.00  0.00    -0.112 C  
HETATM   24  O   UNL     1      -7.573   3.878  71.144  1.00  0.00    -0.046 OA 
HETATM   25  H   UNL     1     -10.257   1.773  69.460  1.00  0.00     0.000 HD 
HETATM   26  C   UNL     1      -9.586   3.144  67.320  1.00  0.00    -0.058 C  
HETATM   27  C   UNL     1      -9.051   3.205  68.787  1.00  0.00    -0.150 C  
HETATM   28  C   UNL     1      -9.961   5.461  69.395  1.00  0.00    -0.280 C  
HETATM   29  O   UNL     1     -10.023   2.666  69.682  1.00  0.00     0.209 OA 
ENDROOT
BRANCH   3  30
HETATM   30  C   UNL     1      -8.759  11.642  67.402  1.00  0.00    -0.155 C  
HETATM   31  C   UNL     1      -9.092  12.590  66.477  1.00  0.00    -0.177 C  
HETATM   32  C   UNL     1      -8.518  11.976  68.858  1.00  0.00     0.170 C  
BRANCH  31  33
HETATM   33  C   UNL     1      -9.585  13.920  66.732  1.00  0.00    -0.283 A  
HETATM   34  C   UNL     1     -10.247  14.292  67.906  1.00  0.00    -0.237 A  
HETATM   35  S   UNL     1     -10.896  15.864  67.739  1.00  0.00    -0.313 SA 
HETATM   36  C   UNL     1     -10.332  15.911  66.112  1.00  0.00    -0.328 A  
HETATM   37  N   UNL     1      -9.693  14.830  65.708  1.00  0.00    -0.330 NA 
HETATM   38  C   UNL     1     -10.612  17.114  65.274  1.00  0.00    -0.057 C  
ENDBRANCH  31  33
ENDBRANCH   3  30
TORSDOF 2
ENDMDL
MODEL       94
REMARK 921   NORMALIZED FREE ENERGY PREDICTED BY IDOCK:   37.67 KCAL/MOL
REMARK 922        TOTAL FREE ENERGY PREDICTED BY IDOCK:   42.19 KCAL/MOL
REMARK 923 INTER-LIGAND FREE ENERGY PREDICTED BY IDOCK:   40.40 KCAL/MOL
REMARK 924 INTRA-LIGAND FREE ENERGY PREDICTED BY IDOCK:    1.79 KCAL/MOL
REMARK 927      BINDING AFFINITY PREDICTED BY RF-SCORE:    0.00 PKD
ROOT
HETATM    1  C   UNL     1      -9.887  16.120  71.048  1.00  0.00     2.226 C  
HETATM    2  C   UNL     1     -11.108  15.181  70.841  1.00  0.00    -0.289 C  
HETATM    3  C   UNL     1     -10.807  13.859  70.007  1.00  0.00     0.381 C  
HETATM    4  N   UNL     1     -11.293  13.999  68.636  1.00  0.00    -0.258 N  
HETATM    5  O   UNL     1     -10.325  17.111  71.995  1.00  0.00     3.492 OA 
HETATM    6  C   UNL     1      -8.179  18.128  71.746  1.00  0.00    11.350 C  
HETATM    7  C   UNL     1     -10.890  13.209  67.562  1.00  0.00    -0.255 C  
HETATM    8  C   UNL     1      -9.476  17.740  71.052  1.00  0.00     5.510 C  
HETATM    9  H   UNL     1     -11.979  14.731  68.452  1.00  0.00     0.000 HD 
HETATM   10  C   UNL     1     -11.523  13.648  66.250  1.00  0.00    -0.352 C  
HETATM   11  C   UNL     1     -10.162  18.921  70.336  1.00  0.00     1.514 C  
HETATM   12  O   UNL     1     -10.020  12.354  67.614  1.00  0.00    -0.194 OA 
HETATM   13  C   UNL     1     -10.818  14.960  65.905  1.00  0.00    -0.334 C  
HETATM   14  C   UNL     1      -9.183  19.767  69.453  1.00  0.00     0.129 C  
HETATM   15  C   UNL     1     -11.185  15.720  64.596  1.00  0.00    -0.373 C  
HETATM   16  C   UNL     1      -8.017  20.856  66.320  1.00  0.00     0.394 C  
HETATM   17  O   UNL     1     -11.056  15.781  67.023  1.00  0.00    -0.270 OA 
HETATM   18  H   UNL     1     -10.618  16.596  66.809  1.00  0.00     0.000 HD 
HETATM   19  C   UNL     1     -11.098  17.316  64.678  1.00  0.00     0.803 C  
HETATM   20  C   UNL     1     -10.202  15.148  63.538  1.00  0.00     5.640 C  
HETATM   21  C   UNL     1     -12.604  15.430  64.029  1.00  0.00     0.388 C  
HETATM   22  C   UNL     1      -9.732  20.441  68.166  1.00  0.00    -0.289 C  
HETATM   23  C   UNL     1     -10.594  18.055  65.952  1.00  0.00    -0.225 C  
HETATM   24  O   UNL     1     -11.470  17.997  63.711  1.00  0.00     3.133 OA 
HETATM   25  H   UNL     1     -10.736  21.314  65.421  1.00  0.00     0.000 HD 
HETATM   26  C   UNL     1      -9.071  19.877  66.861  1.00  0.00    -0.452 C  
HETATM   27  C   UNL     1     -10.038  19.472  65.702  1.00  0.00    -0.087 C  
HETATM   28  C   UNL     1     -11.661  18.128  67.060  1.00  0.00     1.993 C  
HETATM   29  O   UNL     1     -11.078  20.441  65.576  1.00  0.00     0.088 OA 
ENDROOT
BRANCH   3  30
HETATM   30  C   UNL     1     -11.324  12.444  70.407  1.00  0.00     0.535 C  
HETATM   31  C   UNL     1     -11.818  11.578  69.473  1.00  0.00    -0.419 C  
HETATM   32  C   UNL     1     -10.821  11.984  71.757  1.00  0.00     7.237 C  
BRANCH  31  33
HETATM   33  C   UNL     1     -11.650  10.147  69.439  1.00  0.00    -0.087 A  
HETATM   34  C   UNL     1     -11.865   9.313  70.540  1.00  0.00    -0.124 A  
HETATM   35  S   UNL     1     -11.327   7.729  70.187  1.00  0.00    -0.031 SA 
HETATM   36  C   UNL     1     -10.779   8.271  68.647  1.00  0.00    -0.027 A  
HETATM   37  N   UNL     1     -10.983   9.550  68.396  1.00  0.00    -0.128 NA 
HETATM   38  C   UNL     1     -10.104   7.307  67.730  1.00  0.00    -0.225 C  
ENDBRANCH  31  33
ENDBRANCH   3  30
TORSDOF 2
ENDMDL
MODEL       95
REMARK 921   NORMALIZED FREE ENERGY PREDICTED BY IDOCK:   38.02 KCAL/MOL
REMARK 922        TOTAL FREE ENERGY PREDICTED BY IDOCK:   42.58 KCAL/MOL
REMARK 923 INTER-LIGAND FREE ENERGY PREDICTED BY IDOCK:   42.05 KCAL/MOL
REMARK 924 INTRA-LIGAND FREE ENERGY PREDICTED BY IDOCK:    0.53 KCAL/MOL
REMARK 927      BINDING AFFINITY PREDICTED BY RF-SCORE:    0.00 PKD
ROOT
HETATM    1  C   UNL     1      -6.686   8.466  68.349  1.00  0.00    -0.064 C  
HETATM    2  C   UNL     1      -7.232   9.507  67.332  1.00  0.00    -0.087 C  
HETATM    3  C   UNL     1      -8.657  10.116  67.693  1.00  0.00    -0.118 C  
HETATM    4  N   UNL     1      -9.699   9.492  66.881  1.00  0.00    -0.171 N  
HETATM    5  O   UNL     1      -5.323   8.225  67.952  1.00  0.00    -0.032 OA 
HETATM    6  C   UNL     1      -5.213   6.629  69.725  1.00  0.00    -0.014 C  
HETATM    7  C   UNL     1     -11.061   9.517  67.174  1.00  0.00     0.233 C  
HETATM    8  C   UNL     1      -5.878   7.005  68.409  1.00  0.00    -0.022 C  
HETATM    9  H   UNL     1      -9.407   9.001  66.035  1.00  0.00     0.000 HD 
HETATM   10  C   UNL     1     -11.883   8.716  66.174  1.00  0.00     6.890 C  
HETATM   11  C   UNL     1      -5.802   5.888  67.348  1.00  0.00    -0.017 C  
HETATM   12  O   UNL     1     -11.547   9.992  68.187  1.00  0.00    -0.144 OA 
HETATM   13  C   UNL     1     -11.560   7.257  66.494  1.00  0.00     2.521 C  
HETATM   14  C   UNL     1      -6.205   4.478  67.898  1.00  0.00    -0.036 C  
HETATM   15  C   UNL     1     -12.238   6.113  65.683  1.00  0.00     5.172 C  
HETATM   16  C   UNL     1      -8.407   1.741  68.047  1.00  0.00    -0.076 C  
HETATM   17  O   UNL     1     -10.161   7.178  66.363  1.00  0.00    -0.457 OA 
HETATM   18  H   UNL     1      -9.960   6.272  66.562  1.00  0.00     0.000 HD 
HETATM   19  C   UNL     1     -11.345   4.804  65.459  1.00  0.00     0.579 C  
HETATM   20  C   UNL     1     -13.529   5.794  66.486  1.00  0.00    14.613 C  
HETATM   21  C   UNL     1     -12.732   6.503  64.261  1.00  0.00    13.021 C  
HETATM   22  C   UNL     1      -6.892   3.470  66.936  1.00  0.00    -0.053 C  
HETATM   23  C   UNL     1      -9.929   4.649  66.085  1.00  0.00    -0.266 C  
HETATM   24  O   UNL     1     -11.774   3.891  64.739  1.00  0.00     0.417 OA 
HETATM   25  H   UNL     1      -8.666   1.738  65.160  1.00  0.00     0.000 HD 
HETATM   26  C   UNL     1      -8.356   3.121  67.373  1.00  0.00    -0.090 C  
HETATM   27  C   UNL     1      -9.456   3.191  66.265  1.00  0.00    -0.038 C  
HETATM   28  C   UNL     1      -8.848   5.431  65.316  1.00  0.00    -0.132 C  
HETATM   29  O   UNL     1      -8.957   2.636  65.049  1.00  0.00    -0.122 OA 
ENDROOT
BRANCH   3  30
HETATM   30  C   UNL     1      -9.005  11.632  67.585  1.00  0.00    -0.166 C  
HETATM   31  C   UNL     1      -9.118  12.249  66.371  1.00  0.00    -0.158 C  
HETATM   32  C   UNL     1      -9.626  12.194  68.844  1.00  0.00     0.133 C  
BRANCH  31  33
HETATM   33  C   UNL     1     -10.059  13.277  66.003  1.00  0.00    -0.299 A  
HETATM   34  C   UNL     1      -9.919  14.091  64.875  1.00  0.00    -0.126 A  
HETATM   35  S   UNL     1     -11.082  15.343  64.910  1.00  0.00    -0.386 SA 
HETATM   36  C   UNL     1     -11.631  14.775  66.440  1.00  0.00    -0.299 A  
HETATM   37  N   UNL     1     -10.998  13.715  66.905  1.00  0.00    -0.287 NA 
HETATM   38  C   UNL     1     -12.730  15.503  67.140  1.00  0.00     2.127 C  
ENDBRANCH  31  33
ENDBRANCH   3  30
TORSDOF 2
ENDMDL
MODEL       96
REMARK 921   NORMALIZED FREE ENERGY PREDICTED BY IDOCK:   40.32 KCAL/MOL
REMARK 922        TOTAL FREE ENERGY PREDICTED BY IDOCK:   45.15 KCAL/MOL
REMARK 923 INTER-LIGAND FREE ENERGY PREDICTED BY IDOCK:   44.87 KCAL/MOL
REMARK 924 INTRA-LIGAND FREE ENERGY PREDICTED BY IDOCK:    0.28 KCAL/MOL
REMARK 927      BINDING AFFINITY PREDICTED BY RF-SCORE:    0.00 PKD
ROOT
HETATM    1  C   UNL     1     -10.892  14.327  71.230  1.00  0.00     1.610 C  
HETATM    2  C   UNL     1      -9.771  15.254  70.684  1.00  0.00     0.836 C  
HETATM    3  C   UNL     1      -9.749  15.421  69.101  1.00  0.00    -0.252 C  
HETATM    4  N   UNL     1      -8.691  14.600  68.516  1.00  0.00    -0.172 N  
HETATM    5  O   UNL     1     -10.864  14.498  72.659  1.00  0.00     1.356 OA 
HETATM    6  C   UNL     1     -12.601  12.863  72.772  1.00  0.00     1.170 C  
HETATM    7  C   UNL     1      -8.619  14.230  67.174  1.00  0.00    -0.216 C  
HETATM    8  C   UNL     1     -11.157  13.142  72.378  1.00  0.00     6.766 C  
HETATM    9  H   UNL     1      -7.950  14.274  69.136  1.00  0.00     0.000 HD 
HETATM   10  C   UNL     1      -7.438  13.314  66.889  1.00  0.00     0.413 C  
HETATM   11  C   UNL     1     -10.150  12.172  73.029  1.00  0.00    21.524 C  
HETATM   12  O   UNL     1      -9.472  14.476  66.336  1.00  0.00    -0.276 OA 
HETATM   13  C   UNL     1      -7.828  11.978  67.522  1.00  0.00    -0.155 C  
HETATM   14  C   UNL     1     -10.573  10.668  72.918  1.00  0.00    10.159 C  
HETATM   15  C   UNL     1      -6.865  10.758  67.421  1.00  0.00    -0.078 C  
HETATM   16  C   UNL     1     -10.136   7.431  71.618  1.00  0.00    -0.200 C  
HETATM   17  O   UNL     1      -8.066  12.294  68.872  1.00  0.00    -0.334 OA 
HETATM   18  H   UNL     1      -8.308  11.465  69.266  1.00  0.00     0.000 HD 
HETATM   19  C   UNL     1      -6.878   9.763  68.675  1.00  0.00    -0.051 C  
HETATM   20  C   UNL     1      -7.303  10.038  66.116  1.00  0.00    -0.109 C  
HETATM   21  C   UNL     1      -5.364  11.105  67.207  1.00  0.00    -0.049 C  
HETATM   22  C   UNL     1      -9.463   9.587  72.808  1.00  0.00     3.085 C  
HETATM   23  C   UNL     1      -7.852   9.953  69.874  1.00  0.00    -0.182 C  
HETATM   24  O   UNL     1      -6.069   8.825  68.716  1.00  0.00    -0.044 OA 
HETATM   25  H   UNL     1      -7.281   7.577  72.100  1.00  0.00     0.000 HD 
HETATM   26  C   UNL     1      -9.502   8.819  71.442  1.00  0.00    -0.330 C  
HETATM   27  C   UNL     1      -8.145   8.671  70.680  1.00  0.00    -0.120 C  
HETATM   28  C   UNL     1      -7.393  11.057  70.845  1.00  0.00     2.533 C  
HETATM   29  O   UNL     1      -7.100   8.367  71.603  1.00  0.00    -0.074 OA 
ENDROOT
BRANCH   3  30
HETATM   30  C   UNL     1      -9.557  16.788  68.376  1.00  0.00    -0.241 C  
HETATM   31  C   UNL     1      -8.459  17.566  68.607  1.00  0.00    -0.258 C  
HETATM   32  C   UNL     1     -10.407  16.929  67.133  1.00  0.00    -0.304 C  
BRANCH  31  33
HETATM   33  C   UNL     1      -7.740  18.364  67.646  1.00  0.00    -0.230 A  
HETATM   34  C   UNL     1      -7.912  19.743  67.495  1.00  0.00    -0.289 A  
HETATM   35  S   UNL     1      -7.085  20.287  66.102  1.00  0.00    -0.241 SA 
HETATM   36  C   UNL     1      -6.629  18.664  65.753  1.00  0.00    -0.269 A  
HETATM   37  N   UNL     1      -7.056  17.763  66.616  1.00  0.00    -0.202 NA 
HETATM   38  C   UNL     1      -5.832  18.376  64.525  1.00  0.00     0.090 C  
ENDBRANCH  31  33
ENDBRANCH   3  30
TORSDOF 2
ENDMDL
MODEL       97
REMARK 921   NORMALIZED FREE ENERGY PREDICTED BY IDOCK:   44.26 KCAL/MOL
REMARK 922        TOTAL FREE ENERGY PREDICTED BY IDOCK:   49.55 KCAL/MOL
REMARK 923 INTER-LIGAND FREE ENERGY PREDICTED BY IDOCK:   49.68 KCAL/MOL
REMARK 924 INTRA-LIGAND FREE ENERGY PREDICTED BY IDOCK:   -0.12 KCAL/MOL
REMARK 927      BINDING AFFINITY PREDICTED BY RF-SCORE:    0.00 PKD
ROOT
HETATM    1  C   UNL     1      -9.516  12.161  66.506  1.00  0.00    -0.231 C  
HETATM    2  C   UNL     1      -8.692  11.067  67.241  1.00  0.00    -0.129 C  
HETATM    3  C   UNL     1      -9.262  10.638  68.664  1.00  0.00    -0.181 C  
HETATM    4  N   UNL     1      -8.485  11.261  69.733  1.00  0.00     0.212 N  
HETATM    5  O   UNL     1      -8.962  12.228  65.179  1.00  0.00     0.381 OA 
HETATM    6  C   UNL     1     -10.508  13.997  64.750  1.00  0.00    -0.445 C  
HETATM    7  C   UNL     1      -8.910  11.396  71.053  1.00  0.00     7.529 C  
HETATM    8  C   UNL     1      -9.318  13.538  65.581  1.00  0.00     0.268 C  
HETATM    9  H   UNL     1      -7.562  11.623  69.495  1.00  0.00     0.000 HD 
HETATM   10  C   UNL     1      -7.906  12.151  71.911  1.00  0.00    13.151 C  
HETATM   11  C   UNL     1      -8.126  14.516  65.530  1.00  0.00     4.213 C  
HETATM   12  O   UNL     1     -10.017  11.086  71.464  1.00  0.00     4.341 OA 
HETATM   13  C   UNL     1      -8.012  13.601  71.438  1.00  0.00     7.139 C  
HETATM   14  C   UNL     1      -8.537  16.011  65.756  1.00  0.00     0.287 C  
HETATM   15  C   UNL     1      -7.137  14.704  72.105  1.00  0.00     2.874 C  
HETATM   16  C   UNL     1      -8.565  18.940  67.700  1.00  0.00    -0.304 C  
HETATM   17  O   UNL     1      -7.736  13.534  70.060  1.00  0.00     0.451 OA 
HETATM   18  H   UNL     1      -7.802  14.434  69.766  1.00  0.00     0.000 HD 
HETATM   19  C   UNL     1      -6.668  15.890  71.139  1.00  0.00     1.941 C  
HETATM   20  C   UNL     1      -8.017  15.231  73.271  1.00  0.00     9.712 C  
HETATM   21  C   UNL     1      -5.828  14.203  72.779  1.00  0.00     0.164 C  
HETATM   22  C   UNL     1      -7.531  16.963  66.458  1.00  0.00    -0.328 C  
HETATM   23  C   UNL     1      -7.130  15.983  69.655  1.00  0.00    -0.105 C  
HETATM   24  O   UNL     1      -5.888  16.753  71.567  1.00  0.00     0.689 OA 
HETATM   25  H   UNL     1      -5.737  18.640  68.267  1.00  0.00     0.000 HD 
HETATM   26  C   UNL     1      -8.063  17.494  67.834  1.00  0.00    -0.230 C  
HETATM   27  C   UNL     1      -7.084  17.401  69.049  1.00  0.00    -0.233 C  
HETATM   28  C   UNL     1      -6.361  15.022  68.730  1.00  0.00    -0.082 C  
HETATM   29  O   UNL     1      -5.766  17.767  68.640  1.00  0.00    -0.166 OA 
ENDROOT
BRANCH   3  30
HETATM   30  C   UNL     1      -9.374   9.159  69.143  1.00  0.00    -0.152 C  
HETATM   31  C   UNL     1      -8.397   8.584  69.905  1.00  0.00    -0.123 C  
HETATM   32  C   UNL     1     -10.785   8.617  69.086  1.00  0.00    -0.136 C  
BRANCH  31  33
HETATM   33  C   UNL     1      -8.575   7.645  70.985  1.00  0.00    -0.131 A  
HETATM   34  C   UNL     1      -8.133   7.870  72.292  1.00  0.00    -0.127 A  
HETATM   35  S   UNL     1      -8.297   6.443  73.218  1.00  0.00    -0.117 SA 
HETATM   36  C   UNL     1      -8.860   5.613  71.818  1.00  0.00    -0.136 A  
HETATM   37  N   UNL     1      -8.931   6.344  70.722  1.00  0.00    -0.144 NA 
HETATM   38  C   UNL     1      -9.196   4.162  71.912  1.00  0.00    -0.176 C  
ENDBRANCH  31  33
ENDBRANCH   3  30
TORSDOF 2
ENDMDL
MODEL       98
REMARK 921   NORMALIZED FREE ENERGY PREDICTED BY IDOCK:   46.04 KCAL/MOL
REMARK 922        TOTAL FREE ENERGY PREDICTED BY IDOCK:   51.53 KCAL/MOL
REMARK 923 INTER-LIGAND FREE ENERGY PREDICTED BY IDOCK:   50.96 KCAL/MOL
REMARK 924 INTRA-LIGAND FREE ENERGY PREDICTED BY IDOCK:    0.58 KCAL/MOL
REMARK 927      BINDING AFFINITY PREDICTED BY RF-SCORE:    0.00 PKD
ROOT
HETATM    1  C   UNL     1     -13.049  16.046  71.458  1.00  0.00     0.066 C  
HETATM    2  C   UNL     1     -13.899  14.806  71.062  1.00  0.00    -0.278 C  
HETATM    3  C   UNL     1     -13.184  13.402  71.288  1.00  0.00    -0.174 C  
HETATM    4  N   UNL     1     -12.693  12.869  70.019  1.00  0.00     0.152 N  
HETATM    5  O   UNL     1     -13.953  17.164  71.386  1.00  0.00     6.607 OA 
HETATM    6  C   UNL     1     -12.096  18.551  71.963  1.00  0.00     8.931 C  
HETATM    7  C   UNL     1     -11.730  11.870  69.891  1.00  0.00    -0.308 C  
HETATM    8  C   UNL     1     -12.679  17.590  70.937  1.00  0.00     9.410 C  
HETATM    9  H   UNL     1     -13.085  13.259  69.161  1.00  0.00     0.000 HD 
HETATM   10  C   UNL     1     -11.380  11.584  68.439  1.00  0.00    -0.342 C  
HETATM   11  C   UNL     1     -12.721  18.174  69.510  1.00  0.00    12.281 C  
HETATM   12  O   UNL     1     -11.116  11.372  70.821  1.00  0.00     0.590 OA 
HETATM   13  C   UNL     1     -10.573  12.803  67.992  1.00  0.00    -0.226 C  
HETATM   14  C   UNL     1     -11.376  18.849  69.074  1.00  0.00     2.565 C  
HETATM   15  C   UNL     1     -10.007  12.874  66.542  1.00  0.00    -0.259 C  
HETATM   16  C   UNL     1      -8.462  18.930  67.109  1.00  0.00    -0.290 C  
HETATM   17  O   UNL     1     -11.433  13.891  68.229  1.00  0.00    -0.274 OA 
HETATM   18  H   UNL     1     -10.931  14.648  67.952  1.00  0.00     0.000 HD 
HETATM   19  C   UNL     1      -9.937  14.339  65.901  1.00  0.00    -0.319 C  
HETATM   20  C   UNL     1      -8.597  12.232  66.654  1.00  0.00    -0.099 C  
HETATM   21  C   UNL     1     -10.761  12.016  65.487  1.00  0.00    -0.318 C  
HETATM   22  C   UNL     1     -10.969  18.803  67.576  1.00  0.00    -0.273 C  
HETATM   23  C   UNL     1     -10.324  15.616  66.704  1.00  0.00    -0.290 C  
HETATM   24  O   UNL     1      -9.595  14.470  64.717  1.00  0.00     0.138 OA 
HETATM   25  H   UNL     1      -9.990  18.253  64.740  1.00  0.00     0.000 HD 
HETATM   26  C   UNL     1      -9.653  17.986  67.333  1.00  0.00    -0.272 C  
HETATM   27  C   UNL     1      -9.688  16.923  66.188  1.00  0.00    -0.272 C  
HETATM   28  C   UNL     1     -11.848  15.813  66.812  1.00  0.00     0.648 C  
HETATM   29  O   UNL     1     -10.382  17.448  65.058  1.00  0.00    -0.327 OA 
ENDROOT
BRANCH   3  30
HETATM   30  C   UNL     1     -13.885  12.164  71.926  1.00  0.00     0.237 C  
HETATM   31  C   UNL     1     -14.347  11.135  71.156  1.00  0.00     3.093 C  
HETATM   32  C   UNL     1     -13.596  12.009  73.403  1.00  0.00     4.947 C  
BRANCH  31  33
HETATM   33  C   UNL     1     -14.322   9.730  71.476  1.00  0.00     0.453 A  
HETATM   34  C   UNL     1     -14.343   9.228  72.781  1.00  0.00     0.225 A  
HETATM   35  S   UNL     1     -14.048   7.545  72.765  1.00  0.00     0.951 SA 
HETATM   36  C   UNL     1     -13.835   7.609  71.057  1.00  0.00    -0.001 A  
HETATM   37  N   UNL     1     -13.977   8.805  70.519  1.00  0.00     0.722 NA 
HETATM   38  C   UNL     1     -13.487   6.363  70.315  1.00  0.00     3.263 C  
ENDBRANCH  31  33
ENDBRANCH   3  30
TORSDOF 2
ENDMDL
MODEL       99
REMARK 921   NORMALIZED FREE ENERGY PREDICTED BY IDOCK:   47.94 KCAL/MOL
REMARK 922        TOTAL FREE ENERGY PREDICTED BY IDOCK:   53.66 KCAL/MOL
REMARK 923 INTER-LIGAND FREE ENERGY PREDICTED BY IDOCK:   53.15 KCAL/MOL
REMARK 924 INTRA-LIGAND FREE ENERGY PREDICTED BY IDOCK:    0.51 KCAL/MOL
REMARK 927      BINDING AFFINITY PREDICTED BY RF-SCORE:    0.00 PKD
ROOT
HETATM    1  C   UNL     1      -7.923  17.466  69.670  1.00  0.00     0.806 C  
HETATM    2  C   UNL     1      -8.798  16.305  70.223  1.00  0.00     1.706 C  
HETATM    3  C   UNL     1      -8.543  14.889  69.542  1.00  0.00     0.010 C  
HETATM    4  N   UNL     1      -9.601  14.587  68.581  1.00  0.00    -0.218 N  
HETATM    5  O   UNL     1      -8.153  18.573  70.561  1.00  0.00     2.549 OA 
HETATM    6  C   UNL     1      -6.712  19.854  69.152  1.00  0.00    -0.359 C  
HETATM    7  C   UNL     1      -9.512  13.632  67.570  1.00  0.00    -0.222 C  
HETATM    8  C   UNL     1      -8.018  19.079  69.245  1.00  0.00    -0.014 C  
HETATM    9  H   UNL     1     -10.470  15.115  68.656  1.00  0.00     0.000 HD 
HETATM   10  C   UNL     1     -10.752  13.603  66.690  1.00  0.00    -0.280 C  
HETATM   11  C   UNL     1      -9.246  19.899  68.799  1.00  0.00    -0.171 C  
HETATM   12  O   UNL     1      -8.510  12.986  67.309  1.00  0.00    -0.188 OA 
HETATM   13  C   UNL     1     -10.665  14.886  65.864  1.00  0.00    -0.323 C  
HETATM   14  C   UNL     1      -9.033  20.650  67.441  1.00  0.00    -0.361 C  
HETATM   15  C   UNL     1     -11.766  15.211  64.810  1.00  0.00    -0.331 C  
HETATM   16  C   UNL     1      -9.721  21.091  64.022  1.00  0.00     4.093 C  
HETATM   17  O   UNL     1     -10.602  15.911  66.826  1.00  0.00    -0.314 OA 
HETATM   18  H   UNL     1     -10.548  16.708  66.314  1.00  0.00     0.000 HD 
HETATM   19  C   UNL     1     -12.097  16.764  64.614  1.00  0.00     1.841 C  
HETATM   20  C   UNL     1     -11.235  14.570  63.499  1.00  0.00     1.552 C  
HETATM   21  C   UNL     1     -13.147  14.541  65.058  1.00  0.00     0.321 C  
HETATM   22  C   UNL     1     -10.256  20.866  66.508  1.00  0.00     0.576 C  
HETATM   23  C   UNL     1     -11.309  17.881  65.360  1.00  0.00     1.229 C  
HETATM   24  O   UNL     1     -13.029  17.099  63.869  1.00  0.00     3.912 OA 
HETATM   25  H   UNL     1     -12.565  20.819  64.516  1.00  0.00     0.000 HD 
HETATM   26  C   UNL     1     -10.111  20.113  65.140  1.00  0.00     0.574 C  
HETATM   27  C   UNL     1     -11.336  19.262  64.674  1.00  0.00     3.209 C  
HETATM   28  C   UNL     1     -11.752  18.045  66.826  1.00  0.00     2.180 C  
HETATM   29  O   UNL     1     -12.547  19.968  64.938  1.00  0.00     5.644 OA 
ENDROOT
BRANCH   3  30
HETATM   30  C   UNL     1      -8.416  13.555  70.339  1.00  0.00     4.035 C  
HETATM   31  C   UNL     1      -9.508  12.961  70.907  1.00  0.00     8.998 C  
HETATM   32  C   UNL     1      -7.144  12.796  70.036  1.00  0.00     0.912 C  
BRANCH  31  33
HETATM   33  C   UNL     1      -9.780  11.549  71.001  1.00  0.00     6.883 A  
HETATM   34  C   UNL     1     -10.929  11.016  71.591  1.00  0.00     3.462 A  
HETATM   35  S   UNL     1     -10.778   9.320  71.739  1.00  0.00    -0.103 SA 
HETATM   36  C   UNL     1      -9.184   9.417  71.093  1.00  0.00    -0.030 A  
HETATM   37  N   UNL     1      -8.780  10.633  70.778  1.00  0.00     1.702 NA 
HETATM   38  C   UNL     1      -8.371   8.174  70.959  1.00  0.00    -0.129 C  
ENDBRANCH  31  33
ENDBRANCH   3  30
TORSDOF 2
ENDMDL
MODEL      100
REMARK 921   NORMALIZED FREE ENERGY PREDICTED BY IDOCK:   50.57 KCAL/MOL
REMARK 922        TOTAL FREE ENERGY PREDICTED BY IDOCK:   56.60 KCAL/MOL
REMARK 923 INTER-LIGAND FREE ENERGY PREDICTED BY IDOCK:   54.39 KCAL/MOL
REMARK 924 INTRA-LIGAND FREE ENERGY PREDICTED BY IDOCK:    2.21 KCAL/MOL
REMARK 927      BINDING AFFINITY PREDICTED BY RF-SCORE:    0.00 PKD
ROOT
HETATM    1  C   UNL     1      -9.028  12.773  66.588  1.00  0.00    -0.150 C  
HETATM    2  C   UNL     1      -9.373  12.285  68.024  1.00  0.00    -0.195 C  
HETATM    3  C   UNL     1     -10.918  12.341  68.399  1.00  0.00    -0.236 C  
HETATM    4  N   UNL     1     -11.196  13.499  69.246  1.00  0.00    -0.361 N  
HETATM    5  O   UNL     1      -7.644  12.430  66.392  1.00  0.00     0.317 OA 
HETATM    6  C   UNL     1      -7.811  13.473  64.250  1.00  0.00    11.880 C  
HETATM    7  C   UNL     1     -12.459  14.048  69.458  1.00  0.00    -0.115 C  
HETATM    8  C   UNL     1      -7.891  13.671  65.757  1.00  0.00     3.764 C  
HETATM    9  H   UNL     1     -10.405  13.938  69.717  1.00  0.00     0.000 HD 
HETATM   10  C   UNL     1     -12.410  15.292  70.333  1.00  0.00    -0.422 C  
HETATM   11  C   UNL     1      -6.966  14.793  66.274  1.00  0.00     3.331 C  
HETATM   12  O   UNL     1     -13.480  13.682  68.899  1.00  0.00     2.615 OA 
HETATM   13  C   UNL     1     -11.790  16.365  69.438  1.00  0.00     0.138 C  
HETATM   14  C   UNL     1      -7.066  16.115  65.440  1.00  0.00     4.609 C  
HETATM   15  C   UNL     1     -11.591  17.812  69.982  1.00  0.00     3.518 C  
HETATM   16  C   UNL     1      -8.013  19.485  65.105  1.00  0.00     1.007 C  
HETATM   17  O   UNL     1     -10.552  15.819  69.054  1.00  0.00    -0.210 OA 
HETATM   18  H   UNL     1     -10.167  16.486  68.498  1.00  0.00     0.000 HD 
HETATM   19  C   UNL     1     -10.307  18.587  69.423  1.00  0.00     0.368 C  
HETATM   20  C   UNL     1     -12.908  18.542  69.603  1.00  0.00    16.301 C  
HETATM   21  C   UNL     1     -11.487  17.938  71.528  1.00  0.00     3.431 C  
HETATM   22  C   UNL     1      -6.852  17.472  66.164  1.00  0.00    -0.311 C  
HETATM   23  C   UNL     1      -9.371  17.971  68.342  1.00  0.00    -0.306 C  
HETATM   24  O   UNL     1     -10.022  19.703  69.881  1.00  0.00    -0.081 OA 
HETATM   25  H   UNL     1      -6.918  20.096  67.719  1.00  0.00     0.000 HD 
HETATM   26  C   UNL     1      -8.137  18.370  66.155  1.00  0.00    -0.201 C  
HETATM   27  C   UNL     1      -8.565  18.998  67.521  1.00  0.00    -0.286 C  
HETATM   28  C   UNL     1      -8.400  16.925  68.922  1.00  0.00    -0.208 C  
HETATM   29  O   UNL     1      -7.414  19.463  68.224  1.00  0.00    -0.282 OA 
ENDROOT
BRANCH   3  30
HETATM   30  C   UNL     1     -11.674  11.193  69.137  1.00  0.00    -0.408 C  
HETATM   31  C   UNL     1     -10.996  10.213  69.804  1.00  0.00    -0.325 C  
HETATM   32  C   UNL     1     -13.124  11.517  69.418  1.00  0.00     1.455 C  
BRANCH  31  33
HETATM   33  C   UNL     1     -11.378   9.581  71.043  1.00  0.00    -0.352 A  
HETATM   34  C   UNL     1     -11.051  10.084  72.305  1.00  0.00     2.173 A  
HETATM   35  S   UNL     1     -11.453   8.942  73.512  1.00  0.00     4.180 SA 
HETATM   36  C   UNL     1     -11.951   7.839  72.286  1.00  0.00    -0.309 A  
HETATM   37  N   UNL     1     -11.835   8.285  71.049  1.00  0.00    -0.279 NA 
HETATM   38  C   UNL     1     -12.439   6.484  72.674  1.00  0.00     0.345 C  
ENDBRANCH  31  33
ENDBRANCH   3  30
TORSDOF 2
ENDMDL
MODEL      101
REMARK 921   NORMALIZED FREE ENERGY PREDICTED BY IDOCK:   56.46 KCAL/MOL
REMARK 922        TOTAL FREE ENERGY PREDICTED BY IDOCK:   63.17 KCAL/MOL
REMARK 923 INTER-LIGAND FREE ENERGY PREDICTED BY IDOCK:   61.25 KCAL/MOL
REMARK 924 INTRA-LIGAND FREE ENERGY PREDICTED BY IDOCK:    1.92 KCAL/MOL
REMARK 927      BINDING AFFINITY PREDICTED BY RF-SCORE:    0.00 PKD
ROOT
HETATM    1  C   UNL     1     -10.586  10.376  71.571  1.00  0.00     1.957 C  
HETATM    2  C   UNL     1      -9.091  10.662  71.260  1.00  0.00     4.803 C  
HETATM    3  C   UNL     1      -8.754  10.873  69.718  1.00  0.00     0.610 C  
HETATM    4  N   UNL     1      -8.142   9.670  69.160  1.00  0.00    -0.097 N  
HETATM    5  O   UNL     1     -10.696  10.441  73.005  1.00  0.00     6.193 OA 
HETATM    6  C   UNL     1     -12.996   9.859  72.740  1.00  0.00     0.451 C  
HETATM    7  C   UNL     1      -8.054   9.377  67.800  1.00  0.00    -0.107 C  
HETATM    8  C   UNL     1     -11.554   9.417  72.539  1.00  0.00     0.728 C  
HETATM    9  H   UNL     1      -7.749   8.994  69.815  1.00  0.00     0.000 HD 
HETATM   10  C   UNL     1      -7.426   8.016  67.541  1.00  0.00    -0.097 C  
HETATM   11  C   UNL     1     -11.242   8.049  73.179  1.00  0.00    -0.105 C  
HETATM   12  O   UNL     1      -8.550  10.048  66.909  1.00  0.00    -0.125 OA 
HETATM   13  C   UNL     1      -8.495   7.012  67.970  1.00  0.00    -0.125 C  
HETATM   14  C   UNL     1     -12.308   6.949  72.851  1.00  0.00     0.713 C  
HETATM   15  C   UNL     1      -8.228   5.483  67.833  1.00  0.00    -0.100 C  
HETATM   16  C   UNL     1     -13.279   3.979  71.241  1.00  0.00    12.321 C  
HETATM   17  O   UNL     1      -8.754   7.338  69.314  1.00  0.00    -0.136 OA 
HETATM   18  H   UNL     1      -9.418   6.715  69.581  1.00  0.00     0.000 HD 
HETATM   19  C   UNL     1      -8.902   4.562  68.955  1.00  0.00    -0.088 C  
HETATM   20  C   UNL     1      -8.755   5.133  66.414  1.00  0.00    -0.113 C  
HETATM   21  C   UNL     1      -6.731   5.063  67.824  1.00  0.00    -0.055 C  
HETATM   22  C   UNL     1     -11.846   5.471  72.738  1.00  0.00    -0.169 C  
HETATM   23  C   UNL     1      -9.836   5.146  70.056  1.00  0.00    -0.295 C  
HETATM   24  O   UNL     1      -8.656   3.348  68.975  1.00  0.00    -0.071 OA 
HETATM   25  H   UNL     1     -10.809   2.689  72.041  1.00  0.00     0.000 HD 
HETATM   26  C   UNL     1     -12.041   4.887  71.295  1.00  0.00     3.243 C  
HETATM   27  C   UNL     1     -10.822   4.132  70.672  1.00  0.00     1.621 C  
HETATM   28  C   UNL     1      -9.058   5.837  71.192  1.00  0.00    -0.157 C  
HETATM   29  O   UNL     1     -10.201   3.313  71.662  1.00  0.00    -0.092 OA 
ENDROOT
BRANCH   3  30
HETATM   30  C   UNL     1      -7.827  12.006  69.180  1.00  0.00     0.247 C  
HETATM   31  C   UNL     1      -7.237  11.916  67.952  1.00  0.00    -0.095 C  
HETATM   32  C   UNL     1      -8.017  13.324  69.898  1.00  0.00     1.850 C  
BRANCH  31  33
HETATM   33  C   UNL     1      -7.012  12.988  67.015  1.00  0.00     0.313 A  
HETATM   34  C   UNL     1      -7.150  12.852  65.630  1.00  0.00     5.041 A  
HETATM   35  S   UNL     1      -6.562  14.251  64.844  1.00  0.00    18.804 SA 
HETATM   36  C   UNL     1      -6.095  14.899  66.370  1.00  0.00     3.648 A  
HETATM   37  N   UNL     1      -6.361  14.132  67.410  1.00  0.00    -0.308 NA 
HETATM   38  C   UNL     1      -5.417  16.226  66.425  1.00  0.00     1.038 C  
ENDBRANCH  31  33
ENDBRANCH   3  30
TORSDOF 2
ENDMDL
MODEL      102
REMARK 921   NORMALIZED FREE ENERGY PREDICTED BY IDOCK:   57.73 KCAL/MOL
REMARK 922        TOTAL FREE ENERGY PREDICTED BY IDOCK:   64.59 KCAL/MOL
REMARK 923 INTER-LIGAND FREE ENERGY PREDICTED BY IDOCK:   63.60 KCAL/MOL
REMARK 924 INTRA-LIGAND FREE ENERGY PREDICTED BY IDOCK:    0.99 KCAL/MOL
REMARK 927      BINDING AFFINITY PREDICTED BY RF-SCORE:    0.00 PKD
ROOT
HETATM    1  C   UNL     1      -8.538   8.339  70.882  1.00  0.00    -0.137 C  
HETATM    2  C   UNL     1      -9.406   8.427  69.595  1.00  0.00    -0.161 C  
HETATM    3  C   UNL     1      -8.584   8.512  68.235  1.00  0.00    -0.139 C  
HETATM    4  N   UNL     1      -8.564   9.885  67.736  1.00  0.00    -0.121 N  
HETATM    5  O   UNL     1      -9.464   8.050  71.946  1.00  0.00    -0.157 OA 
HETATM    6  C   UNL     1      -7.602   8.157  73.437  1.00  0.00    -0.200 C  
HETATM    7  C   UNL     1      -7.662  10.379  66.796  1.00  0.00    -0.114 C  
HETATM    8  C   UNL     1      -8.468   8.922  72.446  1.00  0.00     0.264 C  
HETATM    9  H   UNL     1      -9.262  10.531  68.104  1.00  0.00     0.000 HD 
HETATM   10  C   UNL     1      -7.853  11.866  66.535  1.00  0.00     0.076 C  
HETATM   11  C   UNL     1      -9.060  10.221  73.031  1.00  0.00     9.576 C  
HETATM   12  O   UNL     1      -6.724   9.750  66.331  1.00  0.00    -0.076 OA 
HETATM   13  C   UNL     1      -7.331  12.546  67.800  1.00  0.00    -0.124 C  
HETATM   14  C   UNL     1      -8.006  11.101  73.785  1.00  0.00    14.020 C  
HETATM   15  C   UNL     1      -7.340  14.101  67.909  1.00  0.00    -0.163 C  
HETATM   16  C   UNL     1      -6.022  13.992  74.043  1.00  0.00     0.138 C  
HETATM   17  O   UNL     1      -8.102  11.986  68.835  1.00  0.00    -0.329 OA 
HETATM   18  H   UNL     1      -7.778  12.409  69.621  1.00  0.00     0.000 HD 
HETATM   19  C   UNL     1      -7.588  14.688  69.377  1.00  0.00    -0.081 C  
HETATM   20  C   UNL     1      -5.954  14.527  67.350  1.00  0.00     0.253 C  
HETATM   21  C   UNL     1      -8.380  14.828  67.010  1.00  0.00    -0.228 C  
HETATM   22  C   UNL     1      -8.174  12.645  73.768  1.00  0.00    16.254 C  
HETATM   23  C   UNL     1      -7.722  13.769  70.626  1.00  0.00     2.854 C  
HETATM   24  O   UNL     1      -7.710  15.912  69.531  1.00  0.00    -0.223 OA 
HETATM   25  H   UNL     1      -8.272  15.655  73.284  1.00  0.00     0.000 HD 
HETATM   26  C   UNL     1      -6.996  13.371  73.030  1.00  0.00     5.417 C  
HETATM   27  C   UNL     1      -7.390  14.450  71.970  1.00  0.00     3.868 C  
HETATM   28  C   UNL     1      -9.109  13.107  70.733  1.00  0.00     7.934 C  
HETATM   29  O   UNL     1      -8.477  15.235  72.456  1.00  0.00     6.193 OA 
ENDROOT
BRANCH   3  30
HETATM   30  C   UNL     1      -8.935   7.692  66.956  1.00  0.00    -0.148 C  
HETATM   31  C   UNL     1      -8.031   7.532  65.945  1.00  0.00    -0.117 C  
HETATM   32  C   UNL     1     -10.115   6.766  67.146  1.00  0.00    -0.249 C  
BRANCH  31  33
HETATM   33  C   UNL     1      -7.828   6.355  65.138  1.00  0.00    -0.111 A  
HETATM   34  C   UNL     1      -8.159   6.274  63.782  1.00  0.00    -0.050 A  
HETATM   35  S   UNL     1      -8.010   4.661  63.239  1.00  0.00    -0.088 SA 
HETATM   36  C   UNL     1      -7.600   4.172  64.838  1.00  0.00    -0.077 A  
HETATM   37  N   UNL     1      -7.567   5.143  65.731  1.00  0.00    -0.082 NA 
HETATM   38  C   UNL     1      -7.342   2.729  65.120  1.00  0.00    -0.067 C  
ENDBRANCH  31  33
ENDBRANCH   3  30
TORSDOF 2
ENDMDL
MODEL      103
REMARK 921   NORMALIZED FREE ENERGY PREDICTED BY IDOCK:   58.30 KCAL/MOL
REMARK 922        TOTAL FREE ENERGY PREDICTED BY IDOCK:   65.23 KCAL/MOL
REMARK 923 INTER-LIGAND FREE ENERGY PREDICTED BY IDOCK:   63.64 KCAL/MOL
REMARK 924 INTRA-LIGAND FREE ENERGY PREDICTED BY IDOCK:    1.59 KCAL/MOL
REMARK 927      BINDING AFFINITY PREDICTED BY RF-SCORE:    0.00 PKD
ROOT
HETATM    1  C   UNL     1      -7.030  10.741  71.895  1.00  0.00     3.866 C  
HETATM    2  C   UNL     1      -8.142   9.715  71.540  1.00  0.00     1.014 C  
HETATM    3  C   UNL     1      -8.232   9.329  69.998  1.00  0.00    -0.154 C  
HETATM    4  N   UNL     1      -9.345  10.030  69.361  1.00  0.00    -0.211 N  
HETATM    5  O   UNL     1      -6.984  10.769  73.334  1.00  0.00     4.010 OA 
HETATM    6  C   UNL     1      -5.304  12.454  73.131  1.00  0.00     0.754 C  
HETATM    7  C   UNL     1      -9.494  10.208  67.987  1.00  0.00    -0.145 C  
HETATM    8  C   UNL     1      -6.754  12.081  72.854  1.00  0.00     7.333 C  
HETATM    9  H   UNL     1     -10.067  10.418  69.968  1.00  0.00     0.000 HD 
HETATM   10  C   UNL     1     -10.719  11.041  67.640  1.00  0.00    -0.281 C  
HETATM   11  C   UNL     1      -7.763  13.102  73.418  1.00  0.00    11.136 C  
HETATM   12  O   UNL     1      -8.673   9.873  67.148  1.00  0.00    -0.131 OA 
HETATM   13  C   UNL     1     -10.348  12.462  68.063  1.00  0.00    -0.216 C  
HETATM   14  C   UNL     1      -7.401  14.588  73.080  1.00  0.00     4.952 C  
HETATM   15  C   UNL     1     -11.358  13.628  67.845  1.00  0.00    -0.325 C  
HETATM   16  C   UNL     1      -8.014  17.599  71.372  1.00  0.00     8.793 C  
HETATM   17  O   UNL     1     -10.036  12.344  69.430  1.00  0.00    -0.176 OA 
HETATM   18  H   UNL     1      -9.805  13.226  69.693  1.00  0.00     0.000 HD 
HETATM   19  C   UNL     1     -11.321  14.787  68.948  1.00  0.00    -0.282 C  
HETATM   20  C   UNL     1     -11.008  14.173  66.433  1.00  0.00    -0.311 C  
HETATM   21  C   UNL     1     -12.854  13.211  67.760  1.00  0.00     1.713 C  
HETATM   22  C   UNL     1      -8.552  15.610  72.880  1.00  0.00    11.591 C  
HETATM   23  C   UNL     1     -10.286  14.794  70.111  1.00  0.00     0.217 C  
HETATM   24  O   UNL     1     -12.161  15.698  68.903  1.00  0.00    -0.319 OA 
HETATM   25  H   UNL     1     -10.836  17.438  72.016  1.00  0.00     0.000 HD 
HETATM   26  C   UNL     1      -8.606  16.182  71.421  1.00  0.00     6.129 C  
HETATM   27  C   UNL     1     -10.001  16.183  70.717  1.00  0.00     1.402 C  
HETATM   28  C   UNL     1     -10.658  13.822  71.246  1.00  0.00     3.791 C  
HETATM   29  O   UNL     1     -11.011  16.582  71.642  1.00  0.00     0.340 OA 
ENDROOT
BRANCH   3  30
HETATM   30  C   UNL     1      -8.409   7.870  69.478  1.00  0.00    -0.131 C  
HETATM   31  C   UNL     1      -7.842   6.811  70.130  1.00  0.00    -0.107 C  
HETATM   32  C   UNL     1      -9.574   7.711  68.528  1.00  0.00    -0.149 C  
BRANCH  31  33
HETATM   33  C   UNL     1      -8.406   5.497  70.307  1.00  0.00    -0.110 A  
HETATM   34  C   UNL     1      -8.443   4.524  69.304  1.00  0.00    -0.078 A  
HETATM   35  S   UNL     1      -9.403   3.202  69.806  1.00  0.00    -0.129 SA 
HETATM   36  C   UNL     1      -9.765   4.036  71.269  1.00  0.00    -0.185 A  
HETATM   37  N   UNL     1      -9.207   5.225  71.390  1.00  0.00    -0.144 NA 
HETATM   38  C   UNL     1     -10.678   3.403  72.265  1.00  0.00     0.185 C  
ENDBRANCH  31  33
ENDBRANCH   3  30
TORSDOF 2
ENDMDL
MODEL      104
REMARK 921   NORMALIZED FREE ENERGY PREDICTED BY IDOCK:   58.92 KCAL/MOL
REMARK 922        TOTAL FREE ENERGY PREDICTED BY IDOCK:   65.92 KCAL/MOL
REMARK 923 INTER-LIGAND FREE ENERGY PREDICTED BY IDOCK:   65.68 KCAL/MOL
REMARK 924 INTRA-LIGAND FREE ENERGY PREDICTED BY IDOCK:    0.24 KCAL/MOL
REMARK 927      BINDING AFFINITY PREDICTED BY RF-SCORE:    0.00 PKD
ROOT
HETATM    1  C   UNL     1      -6.583   8.342  68.171  1.00  0.00    -0.057 C  
HETATM    2  C   UNL     1      -7.131   9.549  67.360  1.00  0.00    -0.086 C  
HETATM    3  C   UNL     1      -8.351  10.315  68.037  1.00  0.00    -0.114 C  
HETATM    4  N   UNL     1      -9.609   9.933  67.399  1.00  0.00    -0.152 N  
HETATM    5  O   UNL     1      -5.371   7.951  67.499  1.00  0.00    -0.030 OA 
HETATM    6  C   UNL     1      -5.197   6.181  69.092  1.00  0.00    -0.004 C  
HETATM    7  C   UNL     1     -10.874  10.122  67.954  1.00  0.00    -0.284 C  
HETATM    8  C   UNL     1      -6.021   6.782  67.963  1.00  0.00    -0.031 C  
HETATM    9  H   UNL     1      -9.558   9.496  66.479  1.00  0.00     0.000 HD 
HETATM   10  C   UNL     1     -11.981   9.555  67.078  1.00  0.00     4.372 C  
HETATM   11  C   UNL     1      -6.319   5.781  66.827  1.00  0.00    -0.038 C  
HETATM   12  O   UNL     1     -11.085  10.555  69.075  1.00  0.00    -0.219 OA 
HETATM   13  C   UNL     1     -11.842   8.039  67.219  1.00  0.00     3.468 C  
HETATM   14  C   UNL     1      -6.835   4.394  67.339  1.00  0.00    -0.055 C  
HETATM   15  C   UNL     1     -12.830   7.093  66.473  1.00  0.00    11.087 C  
HETATM   16  C   UNL     1      -9.382   1.999  67.712  1.00  0.00    -0.187 C  
HETATM   17  O   UNL     1     -10.521   7.775  66.812  1.00  0.00    -0.388 OA 
HETATM   18  H   UNL     1     -10.435   6.834  66.899  1.00  0.00     0.000 HD 
HETATM   19  C   UNL     1     -12.214   5.701  65.982  1.00  0.00     3.743 C  
HETATM   20  C   UNL     1     -13.987   6.880  67.487  1.00  0.00    21.408 C  
HETATM   21  C   UNL     1     -13.505   7.695  65.208  1.00  0.00    19.726 C  
HETATM   22  C   UNL     1      -7.837   3.599  66.458  1.00  0.00    -0.088 C  
HETATM   23  C   UNL     1     -10.750   5.281  66.307  1.00  0.00    -0.260 C  
HETATM   24  O   UNL     1     -12.906   4.937  65.294  1.00  0.00     3.768 OA 
HETATM   25  H   UNL     1     -10.158   2.331  64.938  1.00  0.00     0.000 HD 
HETATM   26  C   UNL     1      -9.235   3.419  67.146  1.00  0.00    -0.218 C  
HETATM   27  C   UNL     1     -10.492   3.760  66.282  1.00  0.00     0.929 C  
HETATM   28  C   UNL     1      -9.716   5.976  65.402  1.00  0.00     0.571 C  
HETATM   29  O   UNL     1     -10.317   3.268  64.954  1.00  0.00     0.049 OA 
ENDROOT
BRANCH   3  30
HETATM   30  C   UNL     1      -8.466  11.868  68.112  1.00  0.00    -0.163 C  
HETATM   31  C   UNL     1      -7.543  12.616  68.786  1.00  0.00    -0.022 C  
HETATM   32  C   UNL     1      -9.365  12.453  67.045  1.00  0.00    -0.204 C  
BRANCH  31  33
HETATM   33  C   UNL     1      -7.034  13.912  68.413  1.00  0.00    -0.102 A  
HETATM   34  C   UNL     1      -5.779  14.117  67.832  1.00  0.00    -0.112 A  
HETATM   35  S   UNL     1      -5.430  15.788  67.767  1.00  0.00    -0.110 SA 
HETATM   36  C   UNL     1      -6.914  16.118  68.578  1.00  0.00    -0.137 A  
HETATM   37  N   UNL     1      -7.636  15.056  68.879  1.00  0.00    -0.133 NA 
HETATM   38  C   UNL     1      -7.271  17.529  68.906  1.00  0.00    -0.249 C  
ENDBRANCH  31  33
ENDBRANCH   3  30
TORSDOF 2
ENDMDL
MODEL      105
REMARK 921   NORMALIZED FREE ENERGY PREDICTED BY IDOCK:   65.12 KCAL/MOL
REMARK 922        TOTAL FREE ENERGY PREDICTED BY IDOCK:   72.84 KCAL/MOL
REMARK 923 INTER-LIGAND FREE ENERGY PREDICTED BY IDOCK:   72.60 KCAL/MOL
REMARK 924 INTRA-LIGAND FREE ENERGY PREDICTED BY IDOCK:    0.25 KCAL/MOL
REMARK 927      BINDING AFFINITY PREDICTED BY RF-SCORE:    0.00 PKD
ROOT
HETATM    1  C   UNL     1      -9.629   9.090  70.191  1.00  0.00    -0.193 C  
HETATM    2  C   UNL     1     -10.434   9.032  68.862  1.00  0.00    -0.231 C  
HETATM    3  C   UNL     1      -9.593   9.363  67.552  1.00  0.00    -0.141 C  
HETATM    4  N   UNL     1      -9.870  10.724  67.099  1.00  0.00    -0.181 N  
HETATM    5  O   UNL     1     -10.510   8.549  71.193  1.00  0.00    -0.203 OA 
HETATM    6  C   UNL     1      -8.793   9.017  72.786  1.00  0.00     0.770 C  
HETATM    7  C   UNL     1      -9.065  11.452  66.225  1.00  0.00    -0.202 C  
HETATM    8  C   UNL     1      -9.767   9.605  71.775  1.00  0.00     1.133 C  
HETATM    9  H   UNL     1     -10.715  11.174  67.449  1.00  0.00     0.000 HD 
HETATM   10  C   UNL     1      -9.584  12.865  66.002  1.00  0.00    -0.172 C  
HETATM   11  C   UNL     1     -10.670  10.706  72.367  1.00  0.00     6.610 C  
HETATM   12  O   UNL     1      -7.987  11.076  65.793  1.00  0.00    -0.121 OA 
HETATM   13  C   UNL     1      -9.292  13.592  67.314  1.00  0.00    -0.233 C  
HETATM   14  C   UNL     1      -9.884  11.771  73.205  1.00  0.00    23.166 C  
HETATM   15  C   UNL     1      -9.666  15.096  67.472  1.00  0.00    -0.205 C  
HETATM   16  C   UNL     1      -8.638  15.027  73.662  1.00  0.00    10.637 C  
HETATM   17  O   UNL     1      -9.958  12.825  68.288  1.00  0.00    -0.223 OA 
HETATM   18  H   UNL     1      -9.777  13.276  69.103  1.00  0.00     0.000 HD 
HETATM   19  C   UNL     1     -10.110  15.546  68.942  1.00  0.00    -0.214 C  
HETATM   20  C   UNL     1      -8.393  15.853  67.003  1.00  0.00    -0.255 C  
HETATM   21  C   UNL     1     -10.804  15.603  66.542  1.00  0.00    -0.260 C  
HETATM   22  C   UNL     1     -10.404  13.234  73.228  1.00  0.00    12.949 C  
HETATM   23  C   UNL     1     -10.084  14.567  70.153  1.00  0.00     0.595 C  
HETATM   24  O   UNL     1     -10.519  16.701  69.128  1.00  0.00    -0.293 OA 
HETATM   25  H   UNL     1     -11.176  16.159  72.835  1.00  0.00     0.000 HD 
HETATM   26  C   UNL     1      -9.395  14.243  72.579  1.00  0.00     8.636 C  
HETATM   27  C   UNL     1      -9.979  15.247  71.533  1.00  0.00     2.031 C  
HETATM   28  C   UNL     1     -11.282  13.601  70.163  1.00  0.00     0.139 C  
HETATM   29  O   UNL     1     -11.240  15.740  71.985  1.00  0.00    -0.304 OA 
ENDROOT
BRANCH   3  30
HETATM   30  C   UNL     1      -9.687   8.540  66.231  1.00  0.00    -0.300 C  
HETATM   31  C   UNL     1      -8.842   7.495  65.985  1.00  0.00    -0.179 C  
HETATM   32  C   UNL     1     -11.012   8.699  65.520  1.00  0.00     4.108 C  
BRANCH  31  33
HETATM   33  C   UNL     1      -9.161   6.256  65.321  1.00  0.00     0.381 A  
HETATM   34  C   UNL     1      -8.222   5.261  65.036  1.00  0.00    -0.134 A  
HETATM   35  S   UNL     1      -8.919   4.068  64.031  1.00  0.00    -0.137 SA 
HETATM   36  C   UNL     1     -10.377   4.984  63.975  1.00  0.00     1.161 A  
HETATM   37  N   UNL     1     -10.360   6.109  64.665  1.00  0.00     3.091 NA 
HETATM   38  C   UNL     1     -11.523   4.487  63.160  1.00  0.00     1.370 C  
ENDBRANCH  31  33
ENDBRANCH   3  30
TORSDOF 2
ENDMDL
MODEL      106
REMARK 921   NORMALIZED FREE ENERGY PREDICTED BY IDOCK:   69.63 KCAL/MOL
REMARK 922        TOTAL FREE ENERGY PREDICTED BY IDOCK:   77.89 KCAL/MOL
REMARK 923 INTER-LIGAND FREE ENERGY PREDICTED BY IDOCK:   75.46 KCAL/MOL
REMARK 924 INTRA-LIGAND FREE ENERGY PREDICTED BY IDOCK:    2.43 KCAL/MOL
REMARK 927      BINDING AFFINITY PREDICTED BY RF-SCORE:    0.00 PKD
ROOT
HETATM    1  C   UNL     1      -8.161  12.264  72.189  1.00  0.00    17.880 C  
HETATM    2  C   UNL     1      -8.463  13.683  71.629  1.00  0.00    10.232 C  
HETATM    3  C   UNL     1      -9.997  13.969  71.315  1.00  0.00     4.950 C  
HETATM    4  N   UNL     1     -10.250  13.874  69.879  1.00  0.00     0.116 N  
HETATM    5  O   UNL     1      -6.783  12.303  72.602  1.00  0.00     4.814 OA 
HETATM    6  C   UNL     1      -7.014   9.999  73.186  1.00  0.00     2.763 C  
HETATM    7  C   UNL     1     -11.507  13.710  69.300  1.00  0.00    -0.291 C  
HETATM    8  C   UNL     1      -7.049  11.023  72.060  1.00  0.00     5.608 C  
HETATM    9  H   UNL     1      -9.446  13.932  69.254  1.00  0.00     0.000 HD 
HETATM   10  C   UNL     1     -11.434  13.574  67.787  1.00  0.00    -0.349 C  
HETATM   11  C   UNL     1      -6.112  10.672  70.887  1.00  0.00     0.040 C  
HETATM   12  O   UNL     1     -12.544  13.544  69.922  1.00  0.00    -0.187 OA 
HETATM   13  C   UNL     1     -10.842  12.184  67.556  1.00  0.00    -0.243 C  
HETATM   14  C   UNL     1      -6.237   9.184  70.414  1.00  0.00    -0.048 C  
HETATM   15  C   UNL     1     -10.628  11.659  66.104  1.00  0.00    -0.306 C  
HETATM   16  C   UNL     1      -7.197   6.774  68.040  1.00  0.00    -0.091 C  
HETATM   17  O   UNL     1      -9.615  12.214  68.243  1.00  0.00    -0.206 OA 
HETATM   18  H   UNL     1      -9.247  11.350  68.100  1.00  0.00     0.000 HD 
HETATM   19  C   UNL     1      -9.362  10.703  65.896  1.00  0.00    -0.190 C  
HETATM   20  C   UNL     1     -11.956  10.929  65.766  1.00  0.00     1.969 C  
HETATM   21  C   UNL     1     -10.479  12.756  65.012  1.00  0.00    -0.334 C  
HETATM   22  C   UNL     1      -6.003   8.856  68.914  1.00  0.00    -0.044 C  
HETATM   23  C   UNL     1      -8.457  10.254  67.081  1.00  0.00    -0.125 C  
HETATM   24  O   UNL     1      -9.064  10.326  64.754  1.00  0.00    -0.183 OA 
HETATM   25  H   UNL     1      -6.025   8.349  65.906  1.00  0.00     0.000 HD 
HETATM   26  C   UNL     1      -7.289   8.298  68.211  1.00  0.00    -0.095 C  
HETATM   27  C   UNL     1      -7.677   8.945  66.842  1.00  0.00    -0.098 C  
HETATM   28  C   UNL     1      -7.468  11.349  67.524  1.00  0.00    -0.113 C  
HETATM   29  O   UNL     1      -6.506   9.155  66.054  1.00  0.00    -0.066 OA 
ENDROOT
BRANCH   3  30
HETATM   30  C   UNL     1     -10.729  15.290  71.702  1.00  0.00     0.304 C  
HETATM   31  C   UNL     1     -10.045  16.356  72.214  1.00  0.00     5.408 C  
HETATM   32  C   UNL     1     -12.090  15.430  71.057  1.00  0.00    -0.417 C  
BRANCH  31  33
HETATM   33  C   UNL     1     -10.292  17.753  71.955  1.00  0.00     4.861 A  
HETATM   34  C   UNL     1     -11.244  18.514  72.640  1.00  0.00     3.381 A  
HETATM   35  S   UNL     1     -11.421  20.040  71.891  1.00  0.00    11.783 SA 
HETATM   36  C   UNL     1     -10.296  19.562  70.677  1.00  0.00     1.648 A  
HETATM   37  N   UNL     1      -9.808  18.344  70.813  1.00  0.00     2.667 NA 
HETATM   38  C   UNL     1      -9.973  20.505  69.567  1.00  0.00     0.421 C  
ENDBRANCH  31  33
ENDBRANCH   3  30
TORSDOF 2
ENDMDL
MODEL      107
REMARK 921   NORMALIZED FREE ENERGY PREDICTED BY IDOCK:   72.40 KCAL/MOL
REMARK 922        TOTAL FREE ENERGY PREDICTED BY IDOCK:   80.98 KCAL/MOL
REMARK 923 INTER-LIGAND FREE ENERGY PREDICTED BY IDOCK:   79.07 KCAL/MOL
REMARK 924 INTRA-LIGAND FREE ENERGY PREDICTED BY IDOCK:    1.91 KCAL/MOL
REMARK 927      BINDING AFFINITY PREDICTED BY RF-SCORE:    0.00 PKD
ROOT
HETATM    1  C   UNL     1     -11.224   9.674  71.697  1.00  0.00    -0.217 C  
HETATM    2  C   UNL     1      -9.783   9.984  72.190  1.00  0.00     4.066 C  
HETATM    3  C   UNL     1      -8.924  10.905  71.216  1.00  0.00     6.365 C  
HETATM    4  N   UNL     1      -7.973  10.096  70.457  1.00  0.00    -0.104 N  
HETATM    5  O   UNL     1     -11.876   9.032  72.809  1.00  0.00     0.015 OA 
HETATM    6  C   UNL     1     -13.790   8.798  71.400  1.00  0.00    -0.318 C  
HETATM    7  C   UNL     1      -7.334  10.504  69.287  1.00  0.00    -0.113 C  
HETATM    8  C   UNL     1     -12.331   8.424  71.614  1.00  0.00    -0.320 C  
HETATM    9  H   UNL     1      -7.761   9.163  70.809  1.00  0.00     0.000 HD 
HETATM   10  C   UNL     1      -6.458   9.412  68.694  1.00  0.00    -0.052 C  
HETATM   11  C   UNL     1     -12.083   6.902  71.596  1.00  0.00    -0.394 C  
HETATM   12  O   UNL     1      -7.550  11.556  68.706  1.00  0.00    -0.127 OA 
HETATM   13  C   UNL     1      -7.447   8.394  68.126  1.00  0.00    -0.097 C  
HETATM   14  C   UNL     1     -12.769   6.174  70.390  1.00  0.00     1.822 C  
HETATM   15  C   UNL     1      -6.923   7.117  67.404  1.00  0.00    -0.079 C  
HETATM   16  C   UNL     1     -12.601   4.445  67.333  1.00  0.00    16.077 C  
HETATM   17  O   UNL     1      -8.241   8.033  69.230  1.00  0.00    -0.123 OA 
HETATM   18  H   UNL     1      -8.855   7.400  68.877  1.00  0.00     0.000 HD 
HETATM   19  C   UNL     1      -7.825   5.807  67.577  1.00  0.00    -0.101 C  
HETATM   20  C   UNL     1      -6.814   7.542  65.914  1.00  0.00    -0.057 C  
HETATM   21  C   UNL     1      -5.489   6.665  67.801  1.00  0.00    -0.011 C  
HETATM   22  C   UNL     1     -12.082   4.918  69.788  1.00  0.00     7.450 C  
HETATM   23  C   UNL     1      -9.182   5.829  68.341  1.00  0.00    -0.121 C  
HETATM   24  O   UNL     1      -7.426   4.727  67.119  1.00  0.00    -0.083 OA 
HETATM   25  H   UNL     1     -10.455   2.779  68.346  1.00  0.00     0.000 HD 
HETATM   26  C   UNL     1     -11.627   5.131  68.303  1.00  0.00     3.415 C  
HETATM   27  C   UNL     1     -10.165   4.707  67.949  1.00  0.00     0.048 C  
HETATM   28  C   UNL     1      -9.005   5.824  69.871  1.00  0.00    -0.139 C  
HETATM   29  O   UNL     1      -9.849   3.471  68.587  1.00  0.00    -0.042 OA 
ENDROOT
BRANCH   3  30
HETATM   30  C   UNL     1      -8.043  12.096  71.703  1.00  0.00    13.189 C  
HETATM   31  C   UNL     1      -7.115  12.673  70.883  1.00  0.00     3.514 C  
HETATM   32  C   UNL     1      -8.610  12.802  72.915  1.00  0.00    21.075 C  
BRANCH  31  33
HETATM   33  C   UNL     1      -6.775  14.071  70.803  1.00  0.00     0.501 A  
HETATM   34  C   UNL     1      -6.440  14.723  69.613  1.00  0.00    -0.150 A  
HETATM   35  S   UNL     1      -5.861  16.295  69.950  1.00  0.00    -0.179 SA 
HETATM   36  C   UNL     1      -6.015  15.978  71.636  1.00  0.00     1.245 A  
HETATM   37  N   UNL     1      -6.474  14.780  71.942  1.00  0.00     0.806 NA 
HETATM   38  C   UNL     1      -5.609  17.025  72.618  1.00  0.00     2.309 C  
ENDBRANCH  31  33
ENDBRANCH   3  30
TORSDOF 2
ENDMDL
