MODEL        1
REMARK 921   NORMALIZED FREE ENERGY PREDICTED BY IDOCK:   -6.97 KCAL/MOL
REMARK 922        TOTAL FREE ENERGY PREDICTED BY IDOCK:   -7.91 KCAL/MOL
REMARK 923 INTER-LIGAND FREE ENERGY PREDICTED BY IDOCK:   -7.78 KCAL/MOL
REMARK 924 INTRA-LIGAND FREE ENERGY PREDICTED BY IDOCK:   -0.13 KCAL/MOL
REMARK 927      BINDING AFFINITY PREDICTED BY RF-SCORE:    0.00 PKD
ROOT
HETATM    1 NA   UNL     1      -8.267  11.203  63.927  1.00  0.00    -0.301 Na 
HETATM    2 NA   UNL     2      -9.759   7.139  69.627  1.00  0.00    -0.153 Na 
HETATM    3 NA   UNL     3      -8.217  14.990  65.590  1.00  0.00    -0.327 Na 
HETATM    4 NA   UNL     4      -8.628  11.166  70.158  1.00  0.00    -0.338 Na 
HETATM    5  C   UNL     5     -10.655  10.210  66.054  1.00  0.00    -0.071 C  
HETATM    6  C   UNL     5     -11.121  11.129  67.136  1.00  0.00    -0.352 A  
HETATM    7  C   UNL     5     -11.247  12.513  67.041  1.00  0.00    -0.302 A  
HETATM    8  C   UNL     5     -11.366  10.515  68.361  1.00  0.00    -0.328 A  
HETATM    9  C   UNL     5     -11.680  13.274  68.184  1.00  0.00    -0.397 A  
HETATM   10  C   UNL     5     -11.546  11.258  69.518  1.00  0.00    -0.328 A  
HETATM   11  C   UNL     5     -11.988  14.655  68.111  1.00  0.00    -0.281 A  
HETATM   12  C   UNL     5     -11.803  12.634  69.446  1.00  0.00    -0.356 A  
HETATM   13  C   UNL     5     -12.433  15.371  69.228  1.00  0.00    -0.004 A  
HETATM   14  C   UNL     5     -12.202  13.385  70.576  1.00  0.00    -0.425 A  
HETATM   15  C   UNL     5     -12.537  14.734  70.460  1.00  0.00    -0.416 A  
ENDROOT
BRANCH   7  16
HETATM   16  O   UNL     5     -11.067  13.203  65.880  1.00  0.00    -0.277 OA 
HETATM   17  O   UNL     5     -11.385  13.435  63.410  1.00  0.00    -0.095 OA 
HETATM   18  O   UNL     5     -13.092  12.254  64.611  1.00  0.00    -0.770 OA 
HETATM   19  P   UNL     5     -12.151  13.454  64.714  1.00  0.00    -0.438 P  
HETATM   20  O   UNL     5     -12.986  14.685  64.965  1.00  0.00    -0.465 OA 
ENDBRANCH   7  16
BRANCH  10  21
HETATM   21  O   UNL     5     -11.338  10.632  70.721  1.00  0.00    -0.301 OA 
HETATM   22  P   UNL     5     -12.553   9.946  71.579  1.00  0.00    -0.467 P  
HETATM   23  O   UNL     5     -13.613   9.448  70.583  1.00  0.00     0.032 OA 
HETATM   24  O   UNL     5     -13.240  10.982  72.437  1.00  0.00    -0.259 OA 
HETATM   25  O   UNL     5     -11.987   8.724  72.224  1.00  0.00    -0.365 OA 
ENDBRANCH  10  21
TORSDOF 2
ENDMDL
MODEL        2
REMARK 921   NORMALIZED FREE ENERGY PREDICTED BY IDOCK:   -6.73 KCAL/MOL
REMARK 922        TOTAL FREE ENERGY PREDICTED BY IDOCK:   -7.64 KCAL/MOL
REMARK 923 INTER-LIGAND FREE ENERGY PREDICTED BY IDOCK:   -7.72 KCAL/MOL
REMARK 924 INTRA-LIGAND FREE ENERGY PREDICTED BY IDOCK:    0.08 KCAL/MOL
REMARK 927      BINDING AFFINITY PREDICTED BY RF-SCORE:    0.00 PKD
ROOT
HETATM    1 NA   UNL     1      -7.234  11.246  66.552  1.00  0.00    -0.103 Na 
HETATM    2 NA   UNL     2      -9.982   5.844  70.359  1.00  0.00    -0.157 Na 
HETATM    3 NA   UNL     3      -7.941  14.470  69.044  1.00  0.00    -0.110 Na 
HETATM    4 NA   UNL     4      -9.351   9.592  72.185  1.00  0.00    -0.213 Na 
HETATM    5  C   UNL     5     -10.049   9.741  67.564  1.00  0.00    -0.246 C  
HETATM    6  C   UNL     5     -10.870  10.348  68.654  1.00  0.00    -0.270 A  
HETATM    7  C   UNL     5     -11.066  11.709  68.875  1.00  0.00    -0.232 A  
HETATM    8  C   UNL     5     -11.408   9.437  69.559  1.00  0.00     0.026 A  
HETATM    9  C   UNL     5     -11.863  12.148  69.991  1.00  0.00    -0.383 A  
HETATM   10  C   UNL     5     -11.964   9.854  70.758  1.00  0.00    -0.323 A  
HETATM   11  C   UNL     5     -12.238  13.502  70.177  1.00  0.00    -0.400 A  
HETATM   12  C   UNL     5     -12.292  11.203  70.960  1.00  0.00    -0.487 A  
HETATM   13  C   UNL     5     -13.034  13.904  71.255  1.00  0.00    -0.414 A  
HETATM   14  C   UNL     5     -13.050  11.635  72.072  1.00  0.00    -0.433 A  
HETATM   15  C   UNL     5     -13.437  12.969  72.203  1.00  0.00    -0.638 A  
ENDROOT
BRANCH   7  16
HETATM   16  O   UNL     5     -10.614  12.676  68.028  1.00  0.00    -0.210 OA 
HETATM   17  O   UNL     5     -10.167  13.514  65.714  1.00  0.00    -0.286 OA 
HETATM   18  O   UNL     5     -12.011  12.002  65.976  1.00  0.00    -0.559 OA 
HETATM   19  P   UNL     5     -11.300  13.173  66.656  1.00  0.00    -0.358 P  
HETATM   20  O   UNL     5     -12.312  14.267  66.885  1.00  0.00    -0.408 OA 
ENDBRANCH   7  16
BRANCH  10  21
HETATM   21  O   UNL     5     -12.062   8.936  71.774  1.00  0.00    -0.315 OA 
HETATM   22  P   UNL     5     -12.532   7.388  71.520  1.00  0.00    -0.370 P  
HETATM   23  O   UNL     5     -12.082   6.983  70.107  1.00  0.00    -0.166 OA 
HETATM   24  O   UNL     5     -14.039   7.290  71.524  1.00  0.00    -0.419 OA 
HETATM   25  O   UNL     5     -11.743   6.539  72.463  1.00  0.00    -0.250 OA 
ENDBRANCH  10  21
TORSDOF 2
ENDMDL
MODEL        3
REMARK 921   NORMALIZED FREE ENERGY PREDICTED BY IDOCK:   -6.57 KCAL/MOL
REMARK 922        TOTAL FREE ENERGY PREDICTED BY IDOCK:   -7.46 KCAL/MOL
REMARK 923 INTER-LIGAND FREE ENERGY PREDICTED BY IDOCK:   -8.15 KCAL/MOL
REMARK 924 INTRA-LIGAND FREE ENERGY PREDICTED BY IDOCK:    0.69 KCAL/MOL
REMARK 927      BINDING AFFINITY PREDICTED BY RF-SCORE:    0.00 PKD
ROOT
HETATM    1 NA   UNL     1      -9.850   9.246  68.761  1.00  0.00    -0.147 Na 
HETATM    2 NA   UNL     2     -13.673  13.561  73.003  1.00  0.00    -0.475 Na 
HETATM    3 NA   UNL     3      -6.971  11.836  67.309  1.00  0.00    -0.076 Na 
HETATM    4 NA   UNL     4      -9.924  14.829  71.549  1.00  0.00    -0.431 Na 
HETATM    5  C   UNL     5     -12.126  11.700  68.862  1.00  0.00    -0.253 C  
HETATM    6  C   UNL     5     -11.729  13.102  68.532  1.00  0.00    -0.387 A  
HETATM    7  C   UNL     5     -10.796  13.487  67.572  1.00  0.00    -0.264 A  
HETATM    8  C   UNL     5     -12.308  14.080  69.335  1.00  0.00    -0.247 A  
HETATM    9  C   UNL     5     -10.491  14.882  67.386  1.00  0.00    -0.255 A  
HETATM   10  C   UNL     5     -11.845  15.386  69.329  1.00  0.00    -0.343 A  
HETATM   11  C   UNL     5      -9.682  15.353  66.323  1.00  0.00    -0.325 A  
HETATM   12  C   UNL     5     -11.006  15.839  68.300  1.00  0.00    -0.325 A  
HETATM   13  C   UNL     5      -9.419  16.715  66.144  1.00  0.00    -0.319 A  
HETATM   14  C   UNL     5     -10.685  17.206  68.138  1.00  0.00    -0.366 A  
HETATM   15  C   UNL     5      -9.919  17.640  67.054  1.00  0.00    -0.320 A  
ENDROOT
BRANCH   7  16
HETATM   16  O   UNL     5     -10.203  12.611  66.712  1.00  0.00    -0.232 OA 
HETATM   17  O   UNL     5     -10.328  10.647  65.169  1.00  0.00    -0.299 OA 
HETATM   18  O   UNL     5     -12.303  11.993  65.363  1.00  0.00    -0.457 OA 
HETATM   19  P   UNL     5     -10.778  12.085  65.302  1.00  0.00    -0.309 P  
HETATM   20  O   UNL     5     -10.408  12.994  64.157  1.00  0.00    -0.419 OA 
ENDBRANCH   7  16
BRANCH  10  21
HETATM   21  O   UNL     5     -12.128  16.173  70.418  1.00  0.00    -0.247 OA 
HETATM   22  P   UNL     5     -12.664  15.554  71.836  1.00  0.00    -0.477 P  
HETATM   23  O   UNL     5     -12.069  14.145  71.991  1.00  0.00    -0.154 OA 
HETATM   24  O   UNL     5     -14.162  15.374  71.797  1.00  0.00    -0.504 OA 
HETATM   25  O   UNL     5     -12.056  16.380  72.922  1.00  0.00    -0.516 OA 
ENDBRANCH  10  21
TORSDOF 2
ENDMDL
MODEL        4
REMARK 921   NORMALIZED FREE ENERGY PREDICTED BY IDOCK:   -6.56 KCAL/MOL
REMARK 922        TOTAL FREE ENERGY PREDICTED BY IDOCK:   -7.46 KCAL/MOL
REMARK 923 INTER-LIGAND FREE ENERGY PREDICTED BY IDOCK:   -7.26 KCAL/MOL
REMARK 924 INTRA-LIGAND FREE ENERGY PREDICTED BY IDOCK:   -0.19 KCAL/MOL
REMARK 927      BINDING AFFINITY PREDICTED BY RF-SCORE:    0.00 PKD
ROOT
HETATM    1 NA   UNL     1      -9.551  15.064  71.014  1.00  0.00    -0.420 Na 
HETATM    2 NA   UNL     2      -7.200   8.820  68.424  1.00  0.00    -0.067 Na 
HETATM    3 NA   UNL     3     -13.139  15.506  69.004  1.00  0.00    -0.527 Na 
HETATM    4 NA   UNL     4     -11.192  10.001  67.754  1.00  0.00    -0.221 Na 
HETATM    5  C   UNL     5      -8.173  13.516  68.384  1.00  0.00    -0.141 C  
HETATM    6  C   UNL     5      -9.004  13.200  67.183  1.00  0.00    -0.228 A  
HETATM    7  C   UNL     5     -10.034  13.984  66.667  1.00  0.00    -0.278 A  
HETATM    8  C   UNL     5      -8.747  11.962  66.602  1.00  0.00    -0.185 A  
HETATM    9  C   UNL     5     -10.771  13.532  65.516  1.00  0.00    -0.293 A  
HETATM   10  C   UNL     5      -9.602  11.417  65.656  1.00  0.00    -0.231 A  
HETATM   11  C   UNL     5     -11.713  14.349  64.843  1.00  0.00    -0.408 A  
HETATM   12  C   UNL     5     -10.566  12.215  65.025  1.00  0.00    -0.330 A  
HETATM   13  C   UNL     5     -12.400  13.901  63.710  1.00  0.00    -0.260 A  
HETATM   14  C   UNL     5     -11.309  11.759  63.912  1.00  0.00    -0.494 A  
HETATM   15  C   UNL     5     -12.199  12.604  63.247  1.00  0.00    -0.512 A  
ENDROOT
BRANCH   7  16
HETATM   16  O   UNL     5     -10.338  15.225  67.140  1.00  0.00    -0.256 OA 
HETATM   17  O   UNL     5      -9.633  17.492  67.926  1.00  0.00    -0.265 OA 
HETATM   18  O   UNL     5      -8.226  16.428  66.300  1.00  0.00    -0.308 OA 
HETATM   19  P   UNL     5      -9.692  16.630  66.685  1.00  0.00    -0.299 P  
HETATM   20  O   UNL     5     -10.408  17.233  65.503  1.00  0.00    -0.614 OA 
ENDBRANCH   7  16
BRANCH  10  21
HETATM   21  O   UNL     5      -9.558  10.059  65.458  1.00  0.00    -0.223 OA 
HETATM   22  P   UNL     5      -8.493   9.353  64.433  1.00  0.00    -0.195 P  
HETATM   23  O   UNL     5      -7.219  10.214  64.407  1.00  0.00    -0.138 OA 
HETATM   24  O   UNL     5      -9.034   9.364  63.024  1.00  0.00    -0.237 OA 
HETATM   25  O   UNL     5      -8.098   8.052  65.053  1.00  0.00    -0.132 OA 
ENDBRANCH  10  21
TORSDOF 2
ENDMDL
MODEL        5
REMARK 921   NORMALIZED FREE ENERGY PREDICTED BY IDOCK:   -6.51 KCAL/MOL
REMARK 922        TOTAL FREE ENERGY PREDICTED BY IDOCK:   -7.40 KCAL/MOL
REMARK 923 INTER-LIGAND FREE ENERGY PREDICTED BY IDOCK:   -7.30 KCAL/MOL
REMARK 924 INTRA-LIGAND FREE ENERGY PREDICTED BY IDOCK:   -0.10 KCAL/MOL
REMARK 927      BINDING AFFINITY PREDICTED BY RF-SCORE:    0.00 PKD
ROOT
HETATM    1 NA   UNL     1      -8.208  12.116  62.846  1.00  0.00    -0.422 Na 
HETATM    2 NA   UNL     2      -7.924   6.276  66.974  1.00  0.00    -0.095 Na 
HETATM    3 NA   UNL     3      -8.685  15.108  65.660  1.00  0.00    -0.363 Na 
HETATM    4 NA   UNL     4      -7.583  10.100  68.719  1.00  0.00    -0.071 Na 
HETATM    5  C   UNL     5      -9.979   9.968  64.706  1.00  0.00    -0.248 C  
HETATM    6  C   UNL     5     -10.452  10.370  66.065  1.00  0.00    -0.211 A  
HETATM    7  C   UNL     5     -10.874  11.643  66.445  1.00  0.00    -0.287 A  
HETATM    8  C   UNL     5     -10.371   9.373  67.032  1.00  0.00    -0.322 A  
HETATM    9  C   UNL     5     -11.273  11.889  67.807  1.00  0.00    -0.330 A  
HETATM   10  C   UNL     5     -10.520   9.661  68.381  1.00  0.00    -0.223 A  
HETATM   11  C   UNL     5     -11.867  13.107  68.221  1.00  0.00    -0.384 A  
HETATM   12  C   UNL     5     -11.064  10.887  68.791  1.00  0.00    -0.310 A  
HETATM   13  C   UNL     5     -12.272  13.317  69.543  1.00  0.00    -0.233 A  
HETATM   14  C   UNL     5     -11.429  11.136  70.133  1.00  0.00    -0.361 A  
HETATM   15  C   UNL     5     -12.050  12.331  70.499  1.00  0.00    -0.371 A  
ENDROOT
BRANCH   7  16
HETATM   16  O   UNL     5     -11.023  12.674  65.568  1.00  0.00    -0.270 OA 
HETATM   17  O   UNL     5     -11.807  13.571  63.369  1.00  0.00    -0.369 OA 
HETATM   18  O   UNL     5     -13.047  11.735  64.289  1.00  0.00    -0.449 OA 
HETATM   19  P   UNL     5     -12.323  13.023  64.681  1.00  0.00    -0.390 P  
HETATM   20  O   UNL     5     -13.299  13.905  65.419  1.00  0.00    -0.710 OA 
ENDBRANCH   7  16
BRANCH  10  21
HETATM   21  O   UNL     5     -10.002   8.770  69.288  1.00  0.00    -0.183 OA 
HETATM   22  P   UNL     5     -10.666   7.297  69.551  1.00  0.00    -0.171 P  
HETATM   23  O   UNL     5     -11.313   6.827  68.238  1.00  0.00    -0.116 OA 
HETATM   24  O   UNL     5     -11.788   7.398  70.557  1.00  0.00    -0.254 OA 
HETATM   25  O   UNL     5      -9.535   6.356  69.814  1.00  0.00    -0.151 OA 
ENDBRANCH  10  21
TORSDOF 2
ENDMDL
MODEL        6
REMARK 921   NORMALIZED FREE ENERGY PREDICTED BY IDOCK:   -6.49 KCAL/MOL
REMARK 922        TOTAL FREE ENERGY PREDICTED BY IDOCK:   -7.38 KCAL/MOL
REMARK 923 INTER-LIGAND FREE ENERGY PREDICTED BY IDOCK:   -8.57 KCAL/MOL
REMARK 924 INTRA-LIGAND FREE ENERGY PREDICTED BY IDOCK:    1.19 KCAL/MOL
REMARK 927      BINDING AFFINITY PREDICTED BY RF-SCORE:    0.00 PKD
ROOT
HETATM    1 NA   UNL     1     -11.831  17.179  71.614  1.00  0.00    -0.627 Na 
HETATM    2 NA   UNL     2      -8.392  14.482  65.946  1.00  0.00    -0.396 Na 
HETATM    3 NA   UNL     3     -11.488  14.094  74.347  1.00  0.00    -0.200 Na 
HETATM    4 NA   UNL     4      -8.041  12.603  69.704  1.00  0.00    -0.313 Na 
HETATM    5  C   UNL     5     -11.996  15.014  69.065  1.00  0.00    -0.298 C  
HETATM    6  C   UNL     5     -11.822  13.551  69.314  1.00  0.00    -0.392 A  
HETATM    7  C   UNL     5     -12.258  12.852  70.437  1.00  0.00    -0.304 A  
HETATM    8  C   UNL     5     -11.081  12.876  68.349  1.00  0.00    -0.293 A  
HETATM    9  C   UNL     5     -11.989  11.442  70.554  1.00  0.00    -0.451 A  
HETATM   10  C   UNL     5     -10.613  11.589  68.568  1.00  0.00    -0.210 A  
HETATM   11  C   UNL     5     -12.544  10.640  71.582  1.00  0.00    -0.482 A  
HETATM   12  C   UNL     5     -11.129  10.813  69.615  1.00  0.00    -0.339 A  
HETATM   13  C   UNL     5     -12.291   9.267  71.663  1.00  0.00    -0.450 A  
HETATM   14  C   UNL     5     -10.840   9.435  69.743  1.00  0.00    -0.250 A  
HETATM   15  C   UNL     5     -11.436   8.667  70.744  1.00  0.00    -0.293 A  
ENDROOT
BRANCH   7  16
HETATM   16  O   UNL     5     -13.022  13.412  71.417  1.00  0.00    -0.352 OA 
HETATM   17  O   UNL     5     -13.230  14.678  73.565  1.00  0.00    -0.546 OA 
HETATM   18  O   UNL     5     -11.319  15.173  72.201  1.00  0.00    -0.419 OA 
HETATM   19  P   UNL     5     -12.811  14.846  72.121  1.00  0.00    -0.383 P  
HETATM   20  O   UNL     5     -13.495  15.960  71.368  1.00  0.00    -0.481 OA 
ENDBRANCH   7  16
BRANCH  10  21
HETATM   21  O   UNL     5      -9.551  11.156  67.814  1.00  0.00    -0.167 OA 
HETATM   22  P   UNL     5      -9.733  10.548  66.304  1.00  0.00    -0.225 P  
HETATM   23  O   UNL     5     -10.952  11.231  65.663  1.00  0.00    -0.231 OA 
HETATM   24  O   UNL     5     -10.062   9.076  66.366  1.00  0.00    -0.294 OA 
HETATM   25  O   UNL     5      -8.546  10.998  65.514  1.00  0.00    -0.173 OA 
ENDBRANCH  10  21
TORSDOF 2
ENDMDL
MODEL        7
REMARK 921   NORMALIZED FREE ENERGY PREDICTED BY IDOCK:   -6.44 KCAL/MOL
REMARK 922        TOTAL FREE ENERGY PREDICTED BY IDOCK:   -7.32 KCAL/MOL
REMARK 923 INTER-LIGAND FREE ENERGY PREDICTED BY IDOCK:   -7.09 KCAL/MOL
REMARK 924 INTRA-LIGAND FREE ENERGY PREDICTED BY IDOCK:   -0.23 KCAL/MOL
REMARK 927      BINDING AFFINITY PREDICTED BY RF-SCORE:    0.00 PKD
ROOT
HETATM    1 NA   UNL     1      -9.081   8.035  64.760  1.00  0.00    -0.336 Na 
HETATM    2 NA   UNL     2      -9.747  15.159  64.952  1.00  0.00    -0.287 Na 
HETATM    3 NA   UNL     3     -12.270   6.833  67.102  1.00  0.00    -0.674 Na 
HETATM    4 NA   UNL     4     -12.905  12.717  66.310  1.00  0.00    -0.356 Na 
HETATM    5  C   UNL     5      -8.654  10.793  66.610  1.00  0.00    -0.143 C  
HETATM    6  C   UNL     5      -9.615  11.113  67.707  1.00  0.00    -0.180 A  
HETATM    7  C   UNL     5     -10.251  10.192  68.538  1.00  0.00    -0.174 A  
HETATM    8  C   UNL     5      -9.941  12.460  67.827  1.00  0.00    -0.205 A  
HETATM    9  C   UNL     5     -11.182  10.649  69.536  1.00  0.00    -0.331 A  
HETATM   10  C   UNL     5     -11.005  12.879  68.612  1.00  0.00    -0.261 A  
HETATM   11  C   UNL     5     -11.734   9.789  70.518  1.00  0.00    -0.343 A  
HETATM   12  C   UNL     5     -11.582  12.011  69.550  1.00  0.00    -0.389 A  
HETATM   13  C   UNL     5     -12.617  10.257  71.496  1.00  0.00    -0.544 A  
HETATM   14  C   UNL     5     -12.517  12.457  70.511  1.00  0.00    -0.270 A  
HETATM   15  C   UNL     5     -13.010  11.592  71.490  1.00  0.00    -0.485 A  
ENDROOT
BRANCH   7  16
HETATM   16  O   UNL     5      -9.973   8.858  68.525  1.00  0.00    -0.167 OA 
HETATM   17  O   UNL     5      -8.337   6.972  68.380  1.00  0.00    -0.123 OA 
HETATM   18  O   UNL     5      -7.546   9.014  69.358  1.00  0.00    -0.074 OA 
HETATM   19  P   UNL     5      -8.771   8.102  69.286  1.00  0.00    -0.140 P  
HETATM   20  O   UNL     5      -9.144   7.705  70.693  1.00  0.00    -0.155 OA 
ENDBRANCH   7  16
BRANCH  10  21
HETATM   21  O   UNL     5     -11.549  14.112  68.350  1.00  0.00    -0.281 OA 
HETATM   22  P   UNL     5     -10.957  15.492  69.004  1.00  0.00    -0.304 P  
HETATM   23  O   UNL     5      -9.446  15.306  69.215  1.00  0.00    -0.224 OA 
HETATM   24  O   UNL     5     -11.546  15.718  70.376  1.00  0.00    -0.303 OA 
HETATM   25  O   UNL     5     -11.100  16.556  67.964  1.00  0.00    -0.345 OA 
ENDBRANCH  10  21
TORSDOF 2
ENDMDL
MODEL        8
REMARK 921   NORMALIZED FREE ENERGY PREDICTED BY IDOCK:   -6.27 KCAL/MOL
REMARK 922        TOTAL FREE ENERGY PREDICTED BY IDOCK:   -7.13 KCAL/MOL
REMARK 923 INTER-LIGAND FREE ENERGY PREDICTED BY IDOCK:   -7.00 KCAL/MOL
REMARK 924 INTRA-LIGAND FREE ENERGY PREDICTED BY IDOCK:   -0.14 KCAL/MOL
REMARK 927      BINDING AFFINITY PREDICTED BY RF-SCORE:    0.00 PKD
ROOT
HETATM    1 NA   UNL     1      -8.645   7.414  66.394  1.00  0.00    -0.101 Na 
HETATM    2 NA   UNL     2      -9.106  14.422  65.018  1.00  0.00    -0.486 Na 
HETATM    3 NA   UNL     3     -12.174   6.727  68.436  1.00  0.00    -0.508 Na 
HETATM    4 NA   UNL     4     -12.502  12.319  66.368  1.00  0.00    -0.366 Na 
HETATM    5  C   UNL     5      -8.402  10.496  67.680  1.00  0.00    -0.114 C  
HETATM    6  C   UNL     5      -9.501  11.037  68.534  1.00  0.00    -0.188 A  
HETATM    7  C   UNL     5     -10.278  10.309  69.433  1.00  0.00    -0.235 A  
HETATM    8  C   UNL     5      -9.798  12.381  68.325  1.00  0.00    -0.224 A  
HETATM    9  C   UNL     5     -11.328  10.965  70.168  1.00  0.00    -0.367 A  
HETATM   10  C   UNL     5     -10.950  12.954  68.841  1.00  0.00    -0.228 A  
HETATM   11  C   UNL     5     -12.043  10.328  71.213  1.00  0.00    -0.479 A  
HETATM   12  C   UNL     5     -11.683  12.301  69.842  1.00  0.00    -0.346 A  
HETATM   13  C   UNL     5     -13.042  10.991  71.933  1.00  0.00    -0.525 A  
HETATM   14  C   UNL     5     -12.733  12.938  70.543  1.00  0.00    -0.090 A  
HETATM   15  C   UNL     5     -13.388  12.295  71.595  1.00  0.00    -0.252 A  
ENDROOT
BRANCH   7  16
HETATM   16  O   UNL     5     -10.044   9.002  69.736  1.00  0.00    -0.187 OA 
HETATM   17  O   UNL     5      -8.474   7.149  70.334  1.00  0.00    -0.136 OA 
HETATM   18  O   UNL     5      -7.874   9.352  71.071  1.00  0.00    -0.289 OA 
HETATM   19  P   UNL     5      -9.074   8.423  70.886  1.00  0.00    -0.189 P  
HETATM   20  O   UNL     5      -9.777   8.293  72.214  1.00  0.00    -0.233 OA 
ENDBRANCH   7  16
BRANCH  10  21
HETATM   21  O   UNL     5     -11.412  14.107  68.255  1.00  0.00    -0.270 OA 
HETATM   22  P   UNL     5     -10.948  15.595  68.755  1.00  0.00    -0.326 P  
HETATM   23  O   UNL     5      -9.515  15.487  69.301  1.00  0.00    -0.229 OA 
HETATM   24  O   UNL     5     -11.804  16.051  69.912  1.00  0.00    -0.315 OA 
HETATM   25  O   UNL     5     -10.859  16.450  67.533  1.00  0.00    -0.315 OA 
ENDBRANCH  10  21
TORSDOF 2
ENDMDL
MODEL        9
REMARK 921   NORMALIZED FREE ENERGY PREDICTED BY IDOCK:   -6.23 KCAL/MOL
REMARK 922        TOTAL FREE ENERGY PREDICTED BY IDOCK:   -7.08 KCAL/MOL
REMARK 923 INTER-LIGAND FREE ENERGY PREDICTED BY IDOCK:   -7.14 KCAL/MOL
REMARK 924 INTRA-LIGAND FREE ENERGY PREDICTED BY IDOCK:    0.05 KCAL/MOL
REMARK 927      BINDING AFFINITY PREDICTED BY RF-SCORE:    0.00 PKD
ROOT
HETATM    1 NA   UNL     1      -9.554  14.892  70.969  1.00  0.00    -0.429 Na 
HETATM    2 NA   UNL     2      -7.933   8.309  68.673  1.00  0.00    -0.099 Na 
HETATM    3 NA   UNL     3     -13.025  15.681  68.864  1.00  0.00    -0.557 Na 
HETATM    4 NA   UNL     4     -11.739   9.935  67.869  1.00  0.00    -0.463 Na 
HETATM    5  C   UNL     5      -8.328  13.083  68.431  1.00  0.00    -0.118 C  
HETATM    6  C   UNL     5      -9.169  12.821  67.225  1.00  0.00    -0.203 A  
HETATM    7  C   UNL     5     -10.087  13.701  66.657  1.00  0.00    -0.277 A  
HETATM    8  C   UNL     5      -9.055  11.538  66.698  1.00  0.00    -0.193 A  
HETATM    9  C   UNL     5     -10.854  13.296  65.507  1.00  0.00    -0.297 A  
HETATM   10  C   UNL     5      -9.953  11.062  65.755  1.00  0.00    -0.244 A  
HETATM   11  C   UNL     5     -11.678  14.192  64.782  1.00  0.00    -0.416 A  
HETATM   12  C   UNL     5     -10.801  11.945  65.071  1.00  0.00    -0.351 A  
HETATM   13  C   UNL     5     -12.394  13.784  63.652  1.00  0.00    -0.256 A  
HETATM   14  C   UNL     5     -11.574  11.537  63.961  1.00  0.00    -0.280 A  
HETATM   15  C   UNL     5     -12.343  12.456  63.244  1.00  0.00    -0.497 A  
ENDROOT
BRANCH   7  16
HETATM   16  O   UNL     5     -10.247  14.988  67.075  1.00  0.00    -0.252 OA 
HETATM   17  O   UNL     5      -9.287  17.167  67.843  1.00  0.00    -0.241 OA 
HETATM   18  O   UNL     5      -7.943  15.865  66.343  1.00  0.00    -0.244 OA 
HETATM   19  P   UNL     5      -9.388  16.276  66.625  1.00  0.00    -0.294 P  
HETATM   20  O   UNL     5      -9.941  16.928  65.383  1.00  0.00    -0.568 OA 
ENDBRANCH   7  16
BRANCH  10  21
HETATM   21  O   UNL     5     -10.070   9.702  65.609  1.00  0.00    -0.296 OA 
HETATM   22  P   UNL     5      -8.770   8.708  65.544  1.00  0.00    -0.141 P  
HETATM   23  O   UNL     5      -7.652   9.335  66.392  1.00  0.00    -0.092 OA 
HETATM   24  O   UNL     5      -8.235   8.636  64.134  1.00  0.00    -0.160 OA 
HETATM   25  O   UNL     5      -9.159   7.446  66.243  1.00  0.00    -0.166 OA 
ENDBRANCH  10  21
TORSDOF 2
ENDMDL
MODEL       10
REMARK 921   NORMALIZED FREE ENERGY PREDICTED BY IDOCK:   -6.23 KCAL/MOL
REMARK 922        TOTAL FREE ENERGY PREDICTED BY IDOCK:   -7.08 KCAL/MOL
REMARK 923 INTER-LIGAND FREE ENERGY PREDICTED BY IDOCK:   -6.85 KCAL/MOL
REMARK 924 INTRA-LIGAND FREE ENERGY PREDICTED BY IDOCK:   -0.23 KCAL/MOL
REMARK 927      BINDING AFFINITY PREDICTED BY RF-SCORE:    0.00 PKD
ROOT
HETATM    1 NA   UNL     1     -10.120  20.726  64.670  1.00  0.00    -0.451 Na 
HETATM    2 NA   UNL     2     -13.900  14.696  65.434  1.00  0.00    -0.670 Na 
HETATM    3 NA   UNL     3      -6.289  19.254  64.159  1.00  0.00    -0.249 Na 
HETATM    4 NA   UNL     4      -9.929  14.522  64.027  1.00  0.00    -0.422 Na 
HETATM    5  C   UNL     5     -10.903  18.208  66.734  1.00  0.00    -0.078 C  
HETATM    6  C   UNL     5      -9.923  17.105  66.972  1.00  0.00    -0.287 A  
HETATM    7  C   UNL     5      -8.538  17.237  67.040  1.00  0.00    -0.227 A  
HETATM    8  C   UNL     5     -10.481  15.832  67.048  1.00  0.00    -0.309 A  
HETATM    9  C   UNL     5      -7.716  16.073  67.245  1.00  0.00    -0.215 A  
HETATM   10  C   UNL     5      -9.691  14.694  67.002  1.00  0.00    -0.243 A  
HETATM   11  C   UNL     5      -6.322  16.154  67.489  1.00  0.00    -0.195 A  
HETATM   12  C   UNL     5      -8.305  14.781  67.196  1.00  0.00    -0.240 A  
HETATM   13  C   UNL     5      -5.545  15.013  67.711  1.00  0.00    -0.088 A  
HETATM   14  C   UNL     5      -7.496  13.636  67.369  1.00  0.00    -0.139 A  
HETATM   15  C   UNL     5      -6.133  13.754  67.648  1.00  0.00    -0.096 A  
ENDROOT
BRANCH   7  16
HETATM   16  O   UNL     5      -7.899  18.440  67.014  1.00  0.00    -0.219 OA 
HETATM   17  O   UNL     5      -7.761  20.851  67.666  1.00  0.00    -0.252 OA 
HETATM   18  O   UNL     5      -8.865  19.378  69.205  1.00  0.00    -0.300 OA 
HETATM   19  P   UNL     5      -7.677  19.456  68.245  1.00  0.00    -0.338 P  
HETATM   20  O   UNL     5      -6.423  19.146  69.024  1.00  0.00    -0.259 OA 
ENDBRANCH   7  16
BRANCH  10  21
HETATM   21  O   UNL     5     -10.287  13.513  66.635  1.00  0.00    -0.264 OA 
HETATM   22  P   UNL     5     -11.122  12.583  67.694  1.00  0.00    -0.294 P  
HETATM   23  O   UNL     5     -11.749  13.510  68.748  1.00  0.00    -0.293 OA 
HETATM   24  O   UNL     5     -10.182  11.671  68.445  1.00  0.00    -0.195 OA 
HETATM   25  O   UNL     5     -12.264  11.989  66.936  1.00  0.00    -0.529 OA 
ENDBRANCH  10  21
TORSDOF 2
ENDMDL
MODEL       11
REMARK 921   NORMALIZED FREE ENERGY PREDICTED BY IDOCK:   -6.13 KCAL/MOL
REMARK 922        TOTAL FREE ENERGY PREDICTED BY IDOCK:   -6.97 KCAL/MOL
REMARK 923 INTER-LIGAND FREE ENERGY PREDICTED BY IDOCK:   -7.07 KCAL/MOL
REMARK 924 INTRA-LIGAND FREE ENERGY PREDICTED BY IDOCK:    0.09 KCAL/MOL
REMARK 927      BINDING AFFINITY PREDICTED BY RF-SCORE:    0.00 PKD
ROOT
HETATM    1 NA   UNL     1      -9.175   9.650  70.844  1.00  0.00    -0.188 Na 
HETATM    2 NA   UNL     2     -12.551  14.903  67.345  1.00  0.00    -0.514 Na 
HETATM    3 NA   UNL     3      -5.982   8.886  68.329  1.00  0.00    -0.037 Na 
HETATM    4 NA   UNL     4      -8.649  13.786  66.201  1.00  0.00    -0.391 Na 
HETATM    5  C   UNL     5     -11.148  10.406  68.247  1.00  0.00    -0.338 C  
HETATM    6  C   UNL     5     -10.582  10.445  66.865  1.00  0.00    -0.293 A  
HETATM    7  C   UNL     5      -9.591   9.607  66.359  1.00  0.00    -0.210 A  
HETATM    8  C   UNL     5     -11.059  11.479  66.065  1.00  0.00    -0.289 A  
HETATM    9  C   UNL     5      -9.120   9.784  65.010  1.00  0.00    -0.280 A  
HETATM   10  C   UNL     5     -10.445  11.806  64.865  1.00  0.00    -0.287 A  
HETATM   11  C   UNL     5      -8.240   8.870  64.380  1.00  0.00    -0.164 A  
HETATM   12  C   UNL     5      -9.537  10.920  64.266  1.00  0.00    -0.318 A  
HETATM   13  C   UNL     5      -7.815   9.047  63.059  1.00  0.00    -0.131 A  
HETATM   14  C   UNL     5      -9.055  11.113  62.952  1.00  0.00    -0.324 A  
HETATM   15  C   UNL     5      -8.222  10.170  62.347  1.00  0.00    -0.170 A  
ENDROOT
BRANCH   7  16
HETATM   16  O   UNL     5      -9.087   8.544  67.047  1.00  0.00    -0.136 OA 
HETATM   17  O   UNL     5      -9.411   6.545  68.515  1.00  0.00    -0.126 OA 
HETATM   18  O   UNL     5     -11.215   7.100  67.035  1.00  0.00    -0.277 OA 
HETATM   19  P   UNL     5      -9.689   7.050  67.117  1.00  0.00    -0.187 P  
HETATM   20  O   UNL     5      -9.187   6.178  65.994  1.00  0.00    -0.157 OA 
ENDBRANCH   7  16
BRANCH  10  21
HETATM   21  O   UNL     5     -10.656  13.064  64.358  1.00  0.00    -0.367 OA 
HETATM   22  P   UNL     5     -12.154  13.701  64.180  1.00  0.00    -0.325 P  
HETATM   23  O   UNL     5     -13.052  13.115  65.282  1.00  0.00    -0.678 OA 
HETATM   24  O   UNL     5     -12.760  13.262  62.869  1.00  0.00    -0.473 OA 
HETATM   25  O   UNL     5     -12.037  15.161  64.478  1.00  0.00    -0.407 OA 
ENDBRANCH  10  21
TORSDOF 2
ENDMDL
MODEL       12
REMARK 921   NORMALIZED FREE ENERGY PREDICTED BY IDOCK:   -6.09 KCAL/MOL
REMARK 922        TOTAL FREE ENERGY PREDICTED BY IDOCK:   -6.92 KCAL/MOL
REMARK 923 INTER-LIGAND FREE ENERGY PREDICTED BY IDOCK:   -6.70 KCAL/MOL
REMARK 924 INTRA-LIGAND FREE ENERGY PREDICTED BY IDOCK:   -0.22 KCAL/MOL
REMARK 927      BINDING AFFINITY PREDICTED BY RF-SCORE:    0.00 PKD
ROOT
HETATM    1 NA   UNL     1     -14.234  14.303  65.344  1.00  0.00    -0.751 Na 
HETATM    2 NA   UNL     2     -10.522  20.415  65.647  1.00  0.00    -0.377 Na 
HETATM    3 NA   UNL     3     -12.649  12.202  68.534  1.00  0.00    -0.282 Na 
HETATM    4 NA   UNL     4     -10.405  17.724  68.891  1.00  0.00    -0.272 Na 
HETATM    5  C   UNL     5     -11.285  15.768  64.736  1.00  0.00    -0.375 C  
HETATM    6  C   UNL     5     -10.131  15.533  65.655  1.00  0.00    -0.406 A  
HETATM    7  C   UNL     5      -9.836  14.343  66.316  1.00  0.00    -0.304 A  
HETATM    8  C   UNL     5      -9.348  16.655  65.910  1.00  0.00    -0.192 A  
HETATM    9  C   UNL     5      -8.701  14.276  67.199  1.00  0.00    -0.243 A  
HETATM   10  C   UNL     5      -8.411  16.664  66.932  1.00  0.00    -0.215 A  
HETATM   11  C   UNL     5      -8.248  13.061  67.771  1.00  0.00    -0.168 A  
HETATM   12  C   UNL     5      -7.999  15.465  67.530  1.00  0.00    -0.192 A  
HETATM   13  C   UNL     5      -7.127  13.012  68.606  1.00  0.00    -0.103 A  
HETATM   14  C   UNL     5      -6.902  15.406  68.419  1.00  0.00    -0.115 A  
HETATM   15  C   UNL     5      -6.457  14.186  68.931  1.00  0.00    -0.094 A  
ENDROOT
BRANCH   7  16
HETATM   16  O   UNL     5     -10.518  13.182  66.106  1.00  0.00    -0.272 OA 
HETATM   17  O   UNL     5     -11.701  11.593  64.579  1.00  0.00    -0.234 OA 
HETATM   18  O   UNL     5      -9.928  12.894  63.620  1.00  0.00    -0.282 OA 
HETATM   19  P   UNL     5     -10.326  12.142  64.890  1.00  0.00    -0.296 P  
HETATM   20  O   UNL     5      -9.261  11.113  65.179  1.00  0.00    -0.216 OA 
ENDBRANCH   7  16
BRANCH  10  21
HETATM   21  O   UNL     5      -8.005  17.882  67.420  1.00  0.00    -0.209 OA 
HETATM   22  P   UNL     5      -6.844  18.778  66.692  1.00  0.00    -0.212 P  
HETATM   23  O   UNL     5      -6.901  18.492  65.183  1.00  0.00    -0.528 OA 
HETATM   24  O   UNL     5      -5.475  18.336  67.151  1.00  0.00    -0.131 OA 
HETATM   25  O   UNL     5      -7.241  20.210  66.856  1.00  0.00    -0.233 OA 
ENDBRANCH  10  21
TORSDOF 2
ENDMDL
MODEL       13
REMARK 921   NORMALIZED FREE ENERGY PREDICTED BY IDOCK:   -6.03 KCAL/MOL
REMARK 922        TOTAL FREE ENERGY PREDICTED BY IDOCK:   -6.86 KCAL/MOL
REMARK 923 INTER-LIGAND FREE ENERGY PREDICTED BY IDOCK:   -7.69 KCAL/MOL
REMARK 924 INTRA-LIGAND FREE ENERGY PREDICTED BY IDOCK:    0.83 KCAL/MOL
REMARK 927      BINDING AFFINITY PREDICTED BY RF-SCORE:    0.00 PKD
ROOT
HETATM    1 NA   UNL     1      -8.076  11.102  66.747  1.00  0.00    -0.115 Na 
HETATM    2 NA   UNL     2     -12.666   6.846  70.218  1.00  0.00    -0.490 Na 
HETATM    3 NA   UNL     3      -7.496  14.132  69.501  1.00  0.00    -0.123 Na 
HETATM    4 NA   UNL     4     -10.652   9.907  72.304  1.00  0.00    -0.126 Na 
HETATM    5  C   UNL     5     -11.250  10.697  67.735  1.00  0.00    -0.383 C  
HETATM    6  C   UNL     5     -11.776  11.476  68.896  1.00  0.00    -0.403 A  
HETATM    7  C   UNL     5     -11.438  12.787  69.227  1.00  0.00    -0.289 A  
HETATM    8  C   UNL     5     -12.618  10.765  69.746  1.00  0.00    -0.126 A  
HETATM    9  C   UNL     5     -12.005  13.400  70.400  1.00  0.00    -0.358 A  
HETATM   10  C   UNL     5     -12.971  11.260  70.992  1.00  0.00    -0.211 A  
HETATM   11  C   UNL     5     -11.837  14.774  70.702  1.00  0.00    -0.364 A  
HETATM   12  C   UNL     5     -12.760  12.610  71.307  1.00  0.00    -0.354 A  
HETATM   13  C   UNL     5     -12.417  15.356  71.833  1.00  0.00    -0.452 A  
HETATM   14  C   UNL     5     -13.294  13.202  72.474  1.00  0.00    -0.525 A  
HETATM   15  C   UNL     5     -13.144  14.568  72.720  1.00  0.00    -0.589 A  
ENDROOT
BRANCH   7  16
HETATM   16  O   UNL     5     -10.654  13.578  68.441  1.00  0.00    -0.236 OA 
HETATM   17  O   UNL     5     -10.093  14.569  66.215  1.00  0.00    -0.273 OA 
HETATM   18  O   UNL     5     -12.407  14.095  66.633  1.00  0.00    -0.455 OA 
HETATM   19  P   UNL     5     -11.138  14.616  67.307  1.00  0.00    -0.349 P  
HETATM   20  O   UNL     5     -11.433  15.983  67.871  1.00  0.00    -0.270 OA 
ENDBRANCH   7  16
BRANCH  10  21
HETATM   21  O   UNL     5     -13.409  10.366  71.937  1.00  0.00    -0.412 OA 
HETATM   22  P   UNL     5     -13.159   8.753  71.805  1.00  0.00    -0.390 P  
HETATM   23  O   UNL     5     -11.843   8.538  71.040  1.00  0.00    -0.284 OA 
HETATM   24  O   UNL     5     -14.241   8.121  70.962  1.00  0.00    -0.176 OA 
HETATM   25  O   UNL     5     -12.920   8.240  73.188  1.00  0.00     0.066 OA 
ENDBRANCH  10  21
TORSDOF 2
ENDMDL
MODEL       14
REMARK 921   NORMALIZED FREE ENERGY PREDICTED BY IDOCK:   -5.91 KCAL/MOL
REMARK 922        TOTAL FREE ENERGY PREDICTED BY IDOCK:   -6.73 KCAL/MOL
REMARK 923 INTER-LIGAND FREE ENERGY PREDICTED BY IDOCK:   -6.52 KCAL/MOL
REMARK 924 INTRA-LIGAND FREE ENERGY PREDICTED BY IDOCK:   -0.21 KCAL/MOL
REMARK 927      BINDING AFFINITY PREDICTED BY RF-SCORE:    0.00 PKD
ROOT
HETATM    1 NA   UNL     1      -6.727   5.860  68.865  1.00  0.00    -0.041 Na 
HETATM    2 NA   UNL     2      -8.761  11.815  65.454  1.00  0.00    -0.281 Na 
HETATM    3 NA   UNL     3     -10.274   4.639  70.606  1.00  0.00    -0.166 Na 
HETATM    4 NA   UNL     4     -11.670   9.164  66.967  1.00  0.00    -0.223 Na 
HETATM    5  C   UNL     5      -7.569   9.082  69.211  1.00  0.00    -0.079 C  
HETATM    6  C   UNL     5      -8.917   9.450  69.740  1.00  0.00    -0.199 A  
HETATM    7  C   UNL     5      -9.632   8.762  70.718  1.00  0.00    -0.208 A  
HETATM    8  C   UNL     5      -9.514  10.540  69.114  1.00  0.00    -0.205 A  
HETATM    9  C   UNL     5     -10.941   9.220  71.105  1.00  0.00    -0.409 A  
HETATM   10  C   UNL     5     -10.855  10.837  69.306  1.00  0.00    -0.242 A  
HETATM   11  C   UNL     5     -11.649   8.671  72.203  1.00  0.00    -0.440 A  
HETATM   12  C   UNL     5     -11.568  10.257  70.364  1.00  0.00    -0.411 A  
HETATM   13  C   UNL     5     -12.909   9.147  72.579  1.00  0.00    -0.387 A  
HETATM   14  C   UNL     5     -12.865  10.689  70.724  1.00  0.00    -0.439 A  
HETATM   15  C   UNL     5     -13.517  10.155  71.837  1.00  0.00    -0.426 A  
ENDROOT
BRANCH   7  16
HETATM   16  O   UNL     5      -9.121   7.708  71.415  1.00  0.00    -0.132 OA 
HETATM   17  O   UNL     5      -7.232   6.604  72.627  1.00  0.00    -0.079 OA 
HETATM   18  O   UNL     5      -7.301   9.001  72.689  1.00  0.00    -0.331 OA 
HETATM   19  P   UNL     5      -8.197   7.764  72.734  1.00  0.00    -0.154 P  
HETATM   20  O   UNL     5      -9.012   7.821  74.002  1.00  0.00    -0.258 OA 
ENDBRANCH   7  16
BRANCH  10  21
HETATM   21  O   UNL     5     -11.483  11.608  68.359  1.00  0.00    -0.246 OA 
HETATM   22  P   UNL     5     -11.306  13.234  68.290  1.00  0.00    -0.349 P  
HETATM   23  O   UNL     5      -9.901  13.580  68.809  1.00  0.00    -0.165 OA 
HETATM   24  O   UNL     5     -12.277  13.909  69.229  1.00  0.00    -0.346 OA 
HETATM   25  O   UNL     5     -11.314  13.606  66.842  1.00  0.00    -0.307 OA 
ENDBRANCH  10  21
TORSDOF 2
ENDMDL
MODEL       15
REMARK 921   NORMALIZED FREE ENERGY PREDICTED BY IDOCK:   -5.88 KCAL/MOL
REMARK 922        TOTAL FREE ENERGY PREDICTED BY IDOCK:   -6.69 KCAL/MOL
REMARK 923 INTER-LIGAND FREE ENERGY PREDICTED BY IDOCK:   -6.76 KCAL/MOL
REMARK 924 INTRA-LIGAND FREE ENERGY PREDICTED BY IDOCK:    0.07 KCAL/MOL
REMARK 927      BINDING AFFINITY PREDICTED BY RF-SCORE:    0.00 PKD
ROOT
HETATM    1 NA   UNL     1      -6.643  12.200  70.004  1.00  0.00    -0.113 Na 
HETATM    2 NA   UNL     2      -6.491  19.262  68.849  1.00  0.00    -0.211 Na 
HETATM    3 NA   UNL     3      -7.995  10.785  66.360  1.00  0.00    -0.111 Na 
HETATM    4 NA   UNL     4      -6.935  16.612  65.600  1.00  0.00    -0.119 Na 
HETATM    5  C   UNL     5      -8.482  14.982  69.700  1.00  0.00    -0.002 C  
HETATM    6  C   UNL     5      -9.250  15.236  68.445  1.00  0.00    -0.194 A  
HETATM    7  C   UNL     5      -9.881  14.274  67.658  1.00  0.00    -0.224 A  
HETATM    8  C   UNL     5      -9.244  16.559  68.011  1.00  0.00    -0.214 A  
HETATM    9  C   UNL     5     -10.561  14.668  66.451  1.00  0.00    -0.301 A  
HETATM   10  C   UNL     5      -9.681  16.904  66.742  1.00  0.00    -0.266 A  
HETATM   11  C   UNL     5     -11.360  13.773  65.698  1.00  0.00    -0.311 A  
HETATM   12  C   UNL     5     -10.432  16.000  65.977  1.00  0.00    -0.356 A  
HETATM   13  C   UNL     5     -12.034  14.181  64.542  1.00  0.00    -0.476 A  
HETATM   14  C   UNL     5     -11.075  16.382  64.777  1.00  0.00    -0.246 A  
HETATM   15  C   UNL     5     -11.888  15.486  64.082  1.00  0.00    -0.094 A  
ENDROOT
BRANCH   7  16
HETATM   16  O   UNL     5      -9.976  12.962  68.014  1.00  0.00    -0.222 OA 
HETATM   17  O   UNL     5     -10.571  11.190  69.676  1.00  0.00    -0.163 OA 
HETATM   18  O   UNL     5     -11.838  13.225  69.768  1.00  0.00    -0.308 OA 
HETATM   19  P   UNL     5     -11.194  12.245  68.788  1.00  0.00    -0.299 P  
HETATM   20  O   UNL     5     -12.263  11.755  67.843  1.00  0.00    -0.538 OA 
ENDBRANCH   7  16
BRANCH  10  21
HETATM   21  O   UNL     5      -9.250  18.097  66.217  1.00  0.00    -0.410 OA 
HETATM   22  P   UNL     5     -10.115  19.482  66.350  1.00  0.00    -0.526 P  
HETATM   23  O   UNL     5     -10.910  19.419  67.664  1.00  0.00    -0.455 OA 
HETATM   24  O   UNL     5     -11.140  19.568  65.244  1.00  0.00    -0.406 OA 
HETATM   25  O   UNL     5      -9.128  20.590  66.518  1.00  0.00    -0.195 OA 
ENDBRANCH  10  21
TORSDOF 2
ENDMDL
MODEL       16
REMARK 921   NORMALIZED FREE ENERGY PREDICTED BY IDOCK:   -5.75 KCAL/MOL
REMARK 922        TOTAL FREE ENERGY PREDICTED BY IDOCK:   -6.55 KCAL/MOL
REMARK 923 INTER-LIGAND FREE ENERGY PREDICTED BY IDOCK:   -6.63 KCAL/MOL
REMARK 924 INTRA-LIGAND FREE ENERGY PREDICTED BY IDOCK:    0.08 KCAL/MOL
REMARK 927      BINDING AFFINITY PREDICTED BY RF-SCORE:    0.00 PKD
ROOT
HETATM    1 NA   UNL     1     -12.814  14.343  65.145  1.00  0.00    -0.408 Na 
HETATM    2 NA   UNL     2     -14.356   9.519  70.203  1.00  0.00    -0.665 Na 
HETATM    3 NA   UNL     3      -9.363  12.762  63.505  1.00  0.00    -0.539 Na 
HETATM    4 NA   UNL     4     -11.476   8.625  67.256  1.00  0.00    -0.464 Na 
HETATM    5  C   UNL     5     -12.006  13.178  68.179  1.00  0.00    -0.333 C  
HETATM    6  C   UNL     5     -10.793  12.323  68.352  1.00  0.00    -0.257 A  
HETATM    7  C   UNL     5      -9.591  12.454  67.661  1.00  0.00    -0.193 A  
HETATM    8  C   UNL     5     -10.947  11.260  69.237  1.00  0.00    -0.297 A  
HETATM    9  C   UNL     5      -8.514  11.531  67.913  1.00  0.00    -0.142 A  
HETATM   10  C   UNL     5     -10.014  10.236  69.304  1.00  0.00    -0.227 A  
HETATM   11  C   UNL     5      -7.216  11.705  67.373  1.00  0.00    -0.128 A  
HETATM   12  C   UNL     5      -8.745  10.391  68.728  1.00  0.00    -0.146 A  
HETATM   13  C   UNL     5      -6.177  10.811  67.651  1.00  0.00    -0.052 A  
HETATM   14  C   UNL     5      -7.699   9.468  68.955  1.00  0.00    -0.076 A  
HETATM   15  C   UNL     5      -6.421   9.692  68.441  1.00  0.00    -0.052 A  
ENDROOT
BRANCH   7  16
HETATM   16  O   UNL     5      -9.328  13.480  66.804  1.00  0.00    -0.247 OA 
HETATM   17  O   UNL     5      -9.497  15.896  66.177  1.00  0.00    -0.285 OA 
HETATM   18  O   UNL     5      -9.453  15.390  68.522  1.00  0.00    -0.191 OA 
HETATM   19  P   UNL     5      -8.847  14.971  67.182  1.00  0.00    -0.240 P  
HETATM   20  O   UNL     5      -7.346  15.077  67.293  1.00  0.00    -0.199 OA 
ENDBRANCH   7  16
BRANCH  10  21
HETATM   21  O   UNL     5     -10.416   9.036  69.835  1.00  0.00    -0.202 OA 
HETATM   22  P   UNL     5     -11.203   8.926  71.267  1.00  0.00    -0.358 P  
HETATM   23  O   UNL     5     -12.033  10.207  71.451  1.00  0.00    -0.369 OA 
HETATM   24  O   UNL     5     -10.216   8.899  72.409  1.00  0.00    -0.251 OA 
HETATM   25  O   UNL     5     -12.190   7.812  71.130  1.00  0.00    -0.308 OA 
ENDBRANCH  10  21
TORSDOF 2
ENDMDL
MODEL       17
REMARK 921   NORMALIZED FREE ENERGY PREDICTED BY IDOCK:   -5.73 KCAL/MOL
REMARK 922        TOTAL FREE ENERGY PREDICTED BY IDOCK:   -6.53 KCAL/MOL
REMARK 923 INTER-LIGAND FREE ENERGY PREDICTED BY IDOCK:   -6.32 KCAL/MOL
REMARK 924 INTRA-LIGAND FREE ENERGY PREDICTED BY IDOCK:   -0.21 KCAL/MOL
REMARK 927      BINDING AFFINITY PREDICTED BY RF-SCORE:    0.00 PKD
ROOT
HETATM    1 NA   UNL     1     -10.606  18.252  70.653  1.00  0.00    -0.193 Na 
HETATM    2 NA   UNL     2      -5.958  12.815  70.898  1.00  0.00    -0.148 Na 
HETATM    3 NA   UNL     3     -13.778  16.551  68.615  1.00  0.00     0.288 Na 
HETATM    4 NA   UNL     4      -9.959  12.108  69.771  1.00  0.00    -0.388 Na 
HETATM    5  C   UNL     5      -8.401  16.431  68.910  1.00  0.00    -0.234 C  
HETATM    6  C   UNL     5      -8.883  15.401  67.942  1.00  0.00    -0.168 A  
HETATM    7  C   UNL     5     -10.019  15.493  67.140  1.00  0.00    -0.242 A  
HETATM    8  C   UNL     5      -8.146  14.220  67.928  1.00  0.00    -0.152 A  
HETATM    9  C   UNL     5     -10.377  14.400  66.274  1.00  0.00    -0.300 A  
HETATM   10  C   UNL     5      -8.615  13.084  67.286  1.00  0.00    -0.206 A  
HETATM   11  C   UNL     5     -11.417  14.492  65.317  1.00  0.00    -0.355 A  
HETATM   12  C   UNL     5      -9.676  13.169  66.374  1.00  0.00    -0.269 A  
HETATM   13  C   UNL     5     -11.732  13.428  64.466  1.00  0.00    -0.422 A  
HETATM   14  C   UNL     5     -10.043  12.085  65.544  1.00  0.00    -0.281 A  
HETATM   15  C   UNL     5     -11.046  12.223  64.583  1.00  0.00    -0.358 A  
ENDROOT
BRANCH   7  16
HETATM   16  O   UNL     5     -10.784  16.617  67.055  1.00  0.00    -0.278 OA 
HETATM   17  O   UNL     5     -10.997  19.106  66.915  1.00  0.00    -0.394 OA 
HETATM   18  O   UNL     5      -9.025  18.135  65.953  1.00  0.00    -0.503 OA 
HETATM   19  P   UNL     5     -10.527  17.906  66.122  1.00  0.00    -0.100 P  
HETATM   20  O   UNL     5     -11.135  17.751  64.750  1.00  0.00    -0.852 OA 
ENDBRANCH   7  16
BRANCH  10  21
HETATM   21  O   UNL     5      -8.096  11.872  67.668  1.00  0.00    -0.131 OA 
HETATM   22  P   UNL     5      -6.627  11.347  67.171  1.00  0.00    -0.142 P  
HETATM   23  O   UNL     5      -5.730  12.578  66.962  1.00  0.00    -0.315 OA 
HETATM   24  O   UNL     5      -6.737  10.676  65.823  1.00  0.00    -0.127 OA 
HETATM   25  O   UNL     5      -6.031  10.592  68.315  1.00  0.00    -0.047 OA 
ENDBRANCH  10  21
TORSDOF 2
ENDMDL
MODEL       18
REMARK 921   NORMALIZED FREE ENERGY PREDICTED BY IDOCK:   -5.61 KCAL/MOL
REMARK 922        TOTAL FREE ENERGY PREDICTED BY IDOCK:   -6.39 KCAL/MOL
REMARK 923 INTER-LIGAND FREE ENERGY PREDICTED BY IDOCK:   -7.07 KCAL/MOL
REMARK 924 INTRA-LIGAND FREE ENERGY PREDICTED BY IDOCK:    0.68 KCAL/MOL
REMARK 927      BINDING AFFINITY PREDICTED BY RF-SCORE:    0.00 PKD
ROOT
HETATM    1 NA   UNL     1      -7.750  12.110  66.167  1.00  0.00    -0.328 Na 
HETATM    2 NA   UNL     2      -9.304   5.385  64.275  1.00  0.00    -0.293 Na 
HETATM    3 NA   UNL     3      -7.223  11.730  70.251  1.00  0.00    -0.351 Na 
HETATM    4 NA   UNL     4      -7.746   6.180  68.112  1.00  0.00    -0.084 Na 
HETATM    5  C   UNL     5     -10.097   9.722  66.163  1.00  0.00    -0.315 C  
HETATM    6  C   UNL     5     -10.404   8.974  67.419  1.00  0.00    -0.335 A  
HETATM    7  C   UNL     5     -10.395   9.498  68.710  1.00  0.00    -0.208 A  
HETATM    8  C   UNL     5     -10.636   7.613  67.249  1.00  0.00    -0.388 A  
HETATM    9  C   UNL     5     -10.683   8.644  69.833  1.00  0.00    -0.227 A  
HETATM   10  C   UNL     5     -10.673   6.746  68.330  1.00  0.00    -0.232 A  
HETATM   11  C   UNL     5     -10.854   9.142  71.149  1.00  0.00    -0.381 A  
HETATM   12  C   UNL     5     -10.795   7.242  69.636  1.00  0.00    -0.238 A  
HETATM   13  C   UNL     5     -11.159   8.298  72.222  1.00  0.00    -0.429 A  
HETATM   14  C   UNL     5     -11.049   6.398  70.741  1.00  0.00    -0.365 A  
HETATM   15  C   UNL     5     -11.253   6.926  72.017  1.00  0.00    -0.292 A  
ENDROOT
BRANCH   7  16
HETATM   16  O   UNL     5     -10.216  10.822  68.979  1.00  0.00    -0.197 OA 
HETATM   17  O   UNL     5     -10.553  13.231  68.396  1.00  0.00    -0.240 OA 
HETATM   18  O   UNL     5     -12.266  11.703  67.701  1.00  0.00    -0.544 OA 
HETATM   19  P   UNL     5     -11.306  12.002  68.853  1.00  0.00    -0.322 P  
HETATM   20  O   UNL     5     -12.121  12.165  70.112  1.00  0.00    -0.324 OA 
ENDBRANCH   7  16
BRANCH  10  21
HETATM   21  O   UNL     5     -10.458   5.411  68.091  1.00  0.00    -0.178 OA 
HETATM   22  P   UNL     5      -9.794   4.863  66.698  1.00  0.00    -0.250 P  
HETATM   23  O   UNL     5      -8.830   5.941  66.176  1.00  0.00    -0.138 OA 
HETATM   24  O   UNL     5     -10.856   4.702  65.637  1.00  0.00    -0.292 OA 
HETATM   25  O   UNL     5      -8.942   3.690  67.061  1.00  0.00    -0.122 OA 
ENDBRANCH  10  21
TORSDOF 2
ENDMDL
MODEL       19
REMARK 921   NORMALIZED FREE ENERGY PREDICTED BY IDOCK:   -5.60 KCAL/MOL
REMARK 922        TOTAL FREE ENERGY PREDICTED BY IDOCK:   -6.38 KCAL/MOL
REMARK 923 INTER-LIGAND FREE ENERGY PREDICTED BY IDOCK:   -6.18 KCAL/MOL
REMARK 924 INTRA-LIGAND FREE ENERGY PREDICTED BY IDOCK:   -0.20 KCAL/MOL
REMARK 927      BINDING AFFINITY PREDICTED BY RF-SCORE:    0.00 PKD
ROOT
HETATM    1 NA   UNL     1      -6.144  17.775  70.886  1.00  0.00    -0.211 Na 
HETATM    2 NA   UNL     2      -7.579  10.774  70.501  1.00  0.00    -0.276 Na 
HETATM    3 NA   UNL     3      -9.554  19.421  69.221  1.00  0.00    -0.319 Na 
HETATM    4 NA   UNL     4     -10.653  13.586  69.852  1.00  0.00    -0.414 Na 
HETATM    5  C   UNL     5      -6.344  15.111  68.868  1.00  0.00    -0.090 C  
HETATM    6  C   UNL     5      -7.513  14.954  67.951  1.00  0.00    -0.153 A  
HETATM    7  C   UNL     5      -8.185  15.982  67.292  1.00  0.00    -0.182 A  
HETATM    8  C   UNL     5      -7.995  13.654  67.833  1.00  0.00    -0.161 A  
HETATM    9  C   UNL     5      -9.321  15.679  66.461  1.00  0.00    -0.305 A  
HETATM   10  C   UNL     5      -9.218  13.388  67.237  1.00  0.00    -0.222 A  
HETATM   11  C   UNL     5      -9.944  16.648  65.636  1.00  0.00    -0.197 A  
HETATM   12  C   UNL     5      -9.858  14.364  66.460  1.00  0.00    -0.298 A  
HETATM   13  C   UNL     5     -11.031  16.328  64.816  1.00  0.00    -0.288 A  
HETATM   14  C   UNL     5     -10.990  14.071  65.666  1.00  0.00    -0.300 A  
HETATM   15  C   UNL     5     -11.554  15.039  64.834  1.00  0.00    -0.374 A  
ENDROOT
BRANCH   7  16
HETATM   16  O   UNL     5      -7.771  17.280  67.314  1.00  0.00    -0.179 OA 
HETATM   17  O   UNL     5      -5.941  18.985  67.331  1.00  0.00    -0.180 OA 
HETATM   18  O   UNL     5      -5.477  16.916  66.210  1.00  0.00    -0.349 OA 
HETATM   19  P   UNL     5      -6.586  17.942  66.445  1.00  0.00    -0.287 P  
HETATM   20  O   UNL     5      -7.065  18.431  65.102  1.00  0.00    -0.469 OA 
ENDBRANCH   7  16
BRANCH  10  21
HETATM   21  O   UNL     5      -9.834  12.199  67.538  1.00  0.00    -0.187 OA 
HETATM   22  P   UNL     5      -9.523  10.815  66.720  1.00  0.00    -0.181 P  
HETATM   23  O   UNL     5      -8.065  10.869  66.236  1.00  0.00    -0.157 OA 
HETATM   24  O   UNL     5     -10.375  10.738  65.475  1.00  0.00    -0.265 OA 
HETATM   25  O   UNL     5      -9.586   9.703  67.716  1.00  0.00    -0.137 OA 
ENDBRANCH  10  21
TORSDOF 2
ENDMDL
MODEL       20
REMARK 921   NORMALIZED FREE ENERGY PREDICTED BY IDOCK:   -5.54 KCAL/MOL
REMARK 922        TOTAL FREE ENERGY PREDICTED BY IDOCK:   -6.31 KCAL/MOL
REMARK 923 INTER-LIGAND FREE ENERGY PREDICTED BY IDOCK:   -7.53 KCAL/MOL
REMARK 924 INTRA-LIGAND FREE ENERGY PREDICTED BY IDOCK:    1.22 KCAL/MOL
REMARK 927      BINDING AFFINITY PREDICTED BY RF-SCORE:    0.00 PKD
ROOT
HETATM    1 NA   UNL     1      -7.693  19.345  68.602  1.00  0.00    -0.262 Na 
HETATM    2 NA   UNL     2      -6.694  12.573  70.691  1.00  0.00    -0.364 Na 
HETATM    3 NA   UNL     3     -11.607  19.241  67.268  1.00  0.00    -0.448 Na 
HETATM    4 NA   UNL     4     -10.589  13.965  69.872  1.00  0.00    -0.377 Na 
HETATM    5  C   UNL     5      -7.175  16.197  67.586  1.00  0.00    -0.169 C  
HETATM    6  C   UNL     5      -8.306  15.396  67.028  1.00  0.00    -0.268 A  
HETATM    7  C   UNL     5      -9.350  15.883  66.243  1.00  0.00    -0.322 A  
HETATM    8  C   UNL     5      -8.327  14.060  67.418  1.00  0.00    -0.207 A  
HETATM    9  C   UNL     5     -10.392  14.993  65.803  1.00  0.00    -0.354 A  
HETATM   10  C   UNL     5      -9.441  13.263  67.204  1.00  0.00    -0.240 A  
HETATM   11  C   UNL     5     -11.386  15.381  64.871  1.00  0.00    -0.367 A  
HETATM   12  C   UNL     5     -10.448  13.670  66.317  1.00  0.00    -0.291 A  
HETATM   13  C   UNL     5     -12.375  14.493  64.436  1.00  0.00    -0.437 A  
HETATM   14  C   UNL     5     -11.486  12.802  65.908  1.00  0.00    -0.399 A  
HETATM   15  C   UNL     5     -12.425  13.205  64.957  1.00  0.00    -0.516 A  
ENDROOT
BRANCH   7  16
HETATM   16  O   UNL     5      -9.401  17.163  65.779  1.00  0.00    -0.523 OA 
HETATM   17  O   UNL     5     -10.059  19.560  66.058  1.00  0.00    -0.422 OA 
HETATM   18  O   UNL     5      -9.550  18.340  68.060  1.00  0.00    -0.285 OA 
HETATM   19  P   UNL     5      -9.112  18.515  66.606  1.00  0.00    -0.291 P  
HETATM   20  O   UNL     5      -7.650  18.890  66.598  1.00  0.00    -0.224 OA 
ENDBRANCH   7  16
BRANCH  10  21
HETATM   21  O   UNL     5      -9.583  12.137  67.977  1.00  0.00    -0.191 OA 
HETATM   22  P   UNL     5      -8.968  10.684  67.538  1.00  0.00    -0.135 P  
HETATM   23  O   UNL     5      -7.699  10.938  66.708  1.00  0.00    -0.127 OA 
HETATM   24  O   UNL     5      -9.928   9.962  66.623  1.00  0.00    -0.194 OA 
HETATM   25  O   UNL     5      -8.512  10.013  68.793  1.00  0.00    -0.114 OA 
ENDBRANCH  10  21
TORSDOF 2
ENDMDL
MODEL       21
REMARK 921   NORMALIZED FREE ENERGY PREDICTED BY IDOCK:   -5.53 KCAL/MOL
REMARK 922        TOTAL FREE ENERGY PREDICTED BY IDOCK:   -6.30 KCAL/MOL
REMARK 923 INTER-LIGAND FREE ENERGY PREDICTED BY IDOCK:   -6.08 KCAL/MOL
REMARK 924 INTRA-LIGAND FREE ENERGY PREDICTED BY IDOCK:   -0.22 KCAL/MOL
REMARK 927      BINDING AFFINITY PREDICTED BY RF-SCORE:    0.00 PKD
ROOT
HETATM    1 NA   UNL     1      -9.722  15.123  70.768  1.00  0.00    -0.430 Na 
HETATM    2 NA   UNL     2      -5.571   9.601  68.898  1.00  0.00    -0.036 Na 
HETATM    3 NA   UNL     3     -13.186  14.319  68.657  1.00  0.00    -0.483 Na 
HETATM    4 NA   UNL     4      -9.697   9.514  68.033  1.00  0.00    -0.136 Na 
HETATM    5  C   UNL     5      -7.836  13.792  68.343  1.00  0.00    -0.143 C  
HETATM    6  C   UNL     5      -8.484  13.137  67.167  1.00  0.00    -0.173 A  
HETATM    7  C   UNL     5      -9.668  13.538  66.552  1.00  0.00    -0.283 A  
HETATM    8  C   UNL     5      -7.858  11.975  66.726  1.00  0.00    -0.036 A  
HETATM    9  C   UNL     5     -10.190  12.784  65.442  1.00  0.00    -0.299 A  
HETATM   10  C   UNL     5      -8.476  11.119  65.827  1.00  0.00    -0.076 A  
HETATM   11  C   UNL     5     -11.292  13.227  64.669  1.00  0.00    -0.372 A  
HETATM   12  C   UNL     5      -9.596  11.542  65.097  1.00  0.00    -0.235 A  
HETATM   13  C   UNL     5     -11.768  12.493  63.577  1.00  0.00    -0.595 A  
HETATM   14  C   UNL     5     -10.124  10.786  64.025  1.00  0.00    -0.410 A  
HETATM   15  C   UNL     5     -11.184  11.272  63.258  1.00  0.00    -0.015 A  
ENDROOT
BRANCH   7  16
HETATM   16  O   UNL     5     -10.335  14.678  66.886  1.00  0.00    -0.260 OA 
HETATM   17  O   UNL     5     -10.339  17.109  67.477  1.00  0.00    -0.320 OA 
HETATM   18  O   UNL     5      -8.579  16.352  66.033  1.00  0.00    -0.358 OA 
HETATM   19  P   UNL     5     -10.068  16.166  66.325  1.00  0.00    -0.358 P  
HETATM   20  O   UNL     5     -10.834  16.446  65.057  1.00  0.00    -0.591 OA 
ENDBRANCH   7  16
BRANCH  10  21
HETATM   21  O   UNL     5      -8.038   9.819  65.774  1.00  0.00    -0.114 OA 
HETATM   22  P   UNL     5      -6.703   9.373  64.938  1.00  0.00    -0.094 P  
HETATM   23  O   UNL     5      -5.720  10.555  64.949  1.00  0.00    -0.133 OA 
HETATM   24  O   UNL     5      -7.048   9.130  63.488  1.00  0.00    -0.089 OA 
HETATM   25  O   UNL     5      -6.047   8.285  65.724  1.00  0.00    -0.044 OA 
ENDBRANCH  10  21
TORSDOF 2
ENDMDL
MODEL       22
REMARK 921   NORMALIZED FREE ENERGY PREDICTED BY IDOCK:   -5.52 KCAL/MOL
REMARK 922        TOTAL FREE ENERGY PREDICTED BY IDOCK:   -6.30 KCAL/MOL
REMARK 923 INTER-LIGAND FREE ENERGY PREDICTED BY IDOCK:   -7.47 KCAL/MOL
REMARK 924 INTRA-LIGAND FREE ENERGY PREDICTED BY IDOCK:    1.17 KCAL/MOL
REMARK 927      BINDING AFFINITY PREDICTED BY RF-SCORE:    0.00 PKD
ROOT
HETATM    1 NA   UNL     1     -13.403  14.531  66.397  1.00  0.00    -0.589 Na 
HETATM    2 NA   UNL     2      -9.866  10.366  71.019  1.00  0.00    -0.310 Na 
HETATM    3 NA   UNL     3     -13.664  12.070  63.083  1.00  0.00    -0.650 Na 
HETATM    4 NA   UNL     4     -11.481   8.697  67.500  1.00  0.00    -0.503 Na 
HETATM    5  C   UNL     5     -10.425  13.243  67.223  1.00  0.00    -0.247 C  
HETATM    6  C   UNL     5      -9.861  12.102  66.440  1.00  0.00    -0.242 A  
HETATM    7  C   UNL     5      -9.996  11.900  65.069  1.00  0.00    -0.248 A  
HETATM    8  C   UNL     5      -9.216  11.131  67.201  1.00  0.00    -0.165 A  
HETATM    9  C   UNL     5      -9.421  10.731  64.455  1.00  0.00    -0.297 A  
HETATM   10  C   UNL     5      -8.877   9.900  66.663  1.00  0.00    -0.135 A  
HETATM   11  C   UNL     5      -9.377  10.548  63.051  1.00  0.00    -0.343 A  
HETATM   12  C   UNL     5      -8.879   9.705  65.274  1.00  0.00    -0.204 A  
HETATM   13  C   UNL     5      -8.791   9.417  62.474  1.00  0.00    -0.243 A  
HETATM   14  C   UNL     5      -8.340   8.544  64.676  1.00  0.00    -0.156 A  
HETATM   15  C   UNL     5      -8.275   8.414  63.288  1.00  0.00    -0.119 A  
ENDROOT
BRANCH   7  16
HETATM   16  O   UNL     5     -10.576  12.807  64.233  1.00  0.00    -0.353 OA 
HETATM   17  O   UNL     5     -12.596  13.743  63.093  1.00  0.00    -0.793 OA 
HETATM   18  O   UNL     5     -12.943  12.718  65.234  1.00  0.00    -0.690 OA 
HETATM   19  P   UNL     5     -11.962  13.598  64.458  1.00  0.00    -0.437 P  
HETATM   20  O   UNL     5     -11.771  14.880  65.230  1.00  0.00    -0.335 OA 
ENDBRANCH   7  16
BRANCH  10  21
HETATM   21  O   UNL     5      -8.667   8.856  67.530  1.00  0.00    -0.123 OA 
HETATM   22  P   UNL     5      -7.232   8.608  68.278  1.00  0.00    -0.088 P  
HETATM   23  O   UNL     5      -6.564   9.977  68.487  1.00  0.00    -0.053 OA 
HETATM   24  O   UNL     5      -6.303   7.822  67.385  1.00  0.00    -0.051 OA 
HETATM   25  O   UNL     5      -7.544   8.089  69.644  1.00  0.00    -0.092 OA 
ENDBRANCH  10  21
TORSDOF 2
ENDMDL
MODEL       23
REMARK 921   NORMALIZED FREE ENERGY PREDICTED BY IDOCK:   -5.51 KCAL/MOL
REMARK 922        TOTAL FREE ENERGY PREDICTED BY IDOCK:   -6.27 KCAL/MOL
REMARK 923 INTER-LIGAND FREE ENERGY PREDICTED BY IDOCK:   -7.46 KCAL/MOL
REMARK 924 INTRA-LIGAND FREE ENERGY PREDICTED BY IDOCK:    1.18 KCAL/MOL
REMARK 927      BINDING AFFINITY PREDICTED BY RF-SCORE:    0.00 PKD
ROOT
HETATM    1 NA   UNL     1     -13.938  14.195  65.383  1.00  0.00    -0.790 Na 
HETATM    2 NA   UNL     2     -10.485  20.463  65.281  1.00  0.00    -0.429 Na 
HETATM    3 NA   UNL     3     -12.333  12.410  68.750  1.00  0.00    -0.284 Na 
HETATM    4 NA   UNL     4     -10.323  18.032  68.722  1.00  0.00    -0.284 Na 
HETATM    5  C   UNL     5     -11.040  15.733  64.714  1.00  0.00    -0.413 C  
HETATM    6  C   UNL     5      -9.896  15.617  65.667  1.00  0.00    -0.369 A  
HETATM    7  C   UNL     5      -9.565  14.494  66.422  1.00  0.00    -0.303 A  
HETATM    8  C   UNL     5      -9.164  16.787  65.849  1.00  0.00    -0.142 A  
HETATM    9  C   UNL     5      -8.446  14.541  67.327  1.00  0.00    -0.234 A  
HETATM   10  C   UNL     5      -8.249  16.913  66.883  1.00  0.00    -0.213 A  
HETATM   11  C   UNL     5      -7.956  13.393  67.997  1.00  0.00    -0.148 A  
HETATM   12  C   UNL     5      -7.800  15.781  67.578  1.00  0.00    -0.182 A  
HETATM   13  C   UNL     5      -6.851  13.455  68.852  1.00  0.00    -0.111 A  
HETATM   14  C   UNL     5      -6.719  15.836  68.487  1.00  0.00    -0.119 A  
HETATM   15  C   UNL     5      -6.235  14.678  69.098  1.00  0.00    -0.105 A  
ENDROOT
BRANCH   7  16
HETATM   16  O   UNL     5     -10.195  13.293  66.290  1.00  0.00    -0.282 OA 
HETATM   17  O   UNL     5     -12.028  11.711  66.916  1.00  0.00    -0.567 OA 
HETATM   18  O   UNL     5     -12.528  14.053  67.060  1.00  0.00    -0.326 OA 
HETATM   19  P   UNL     5     -11.782  13.025  66.209  1.00  0.00    -0.416 P  
HETATM   20  O   UNL     5     -12.307  13.116  64.798  1.00  0.00    -0.400 OA 
ENDBRANCH   7  16
BRANCH  10  21
HETATM   21  O   UNL     5      -7.903  18.180  67.283  1.00  0.00    -0.217 OA 
HETATM   22  P   UNL     5      -6.821  19.096  66.464  1.00  0.00    -0.215 P  
HETATM   23  O   UNL     5      -6.906  18.715  64.978  1.00  0.00    -0.511 OA 
HETATM   24  O   UNL     5      -5.414  18.764  66.902  1.00  0.00    -0.141 OA 
HETATM   25  O   UNL     5      -7.298  20.509  66.555  1.00  0.00    -0.261 OA 
ENDBRANCH  10  21
TORSDOF 2
ENDMDL
MODEL       24
REMARK 921   NORMALIZED FREE ENERGY PREDICTED BY IDOCK:   -5.50 KCAL/MOL
REMARK 922        TOTAL FREE ENERGY PREDICTED BY IDOCK:   -6.27 KCAL/MOL
REMARK 923 INTER-LIGAND FREE ENERGY PREDICTED BY IDOCK:   -6.08 KCAL/MOL
REMARK 924 INTRA-LIGAND FREE ENERGY PREDICTED BY IDOCK:   -0.19 KCAL/MOL
REMARK 927      BINDING AFFINITY PREDICTED BY RF-SCORE:    0.00 PKD
ROOT
HETATM    1 NA   UNL     1      -9.766   8.149  74.282  1.00  0.00    -0.366 Na 
HETATM    2 NA   UNL     2     -11.140  14.318  70.922  1.00  0.00    -0.419 Na 
HETATM    3 NA   UNL     3      -6.676   6.621  71.996  1.00  0.00    -0.052 Na 
HETATM    4 NA   UNL     4      -7.615  12.181  70.032  1.00  0.00    -0.333 Na 
HETATM    5  C   UNL     5     -11.166   9.568  71.591  1.00  0.00    -0.378 C  
HETATM    6  C   UNL     5     -10.471   9.511  70.270  1.00  0.00    -0.319 A  
HETATM    7  C   UNL     5      -9.710   8.448  69.787  1.00  0.00    -0.180 A  
HETATM    8  C   UNL     5     -10.551  10.677  69.514  1.00  0.00    -0.265 A  
HETATM    9  C   UNL     5      -9.071   8.549  68.501  1.00  0.00    -0.135 A  
HETATM   10  C   UNL     5      -9.749  10.871  68.400  1.00  0.00    -0.176 A  
HETATM   11  C   UNL     5      -8.424   7.452  67.880  1.00  0.00    -0.122 A  
HETATM   12  C   UNL     5      -9.071   9.792  67.814  1.00  0.00    -0.138 A  
HETATM   13  C   UNL     5      -7.832   7.564  66.618  1.00  0.00    -0.106 A  
HETATM   14  C   UNL     5      -8.421   9.902  66.564  1.00  0.00    -0.127 A  
HETATM   15  C   UNL     5      -7.829   8.791  65.962  1.00  0.00    -0.105 A  
ENDROOT
BRANCH   7  16
HETATM   16  O   UNL     5      -9.601   7.253  70.432  1.00  0.00    -0.166 OA 
HETATM   17  O   UNL     5     -10.628   5.357  71.701  1.00  0.00    -0.227 OA 
HETATM   18  O   UNL     5     -12.032   6.477  70.110  1.00  0.00    -0.383 OA 
HETATM   19  P   UNL     5     -10.599   5.991  70.327  1.00  0.00    -0.322 P  
HETATM   20  O   UNL     5     -10.238   5.069  69.189  1.00  0.00    -0.207 OA 
ENDBRANCH   7  16
BRANCH  10  21
HETATM   21  O   UNL     5      -9.543  12.160  67.975  1.00  0.00    -0.191 OA 
HETATM   22  P   UNL     5     -10.529  12.900  66.897  1.00  0.00    -0.249 P  
HETATM   23  O   UNL     5     -11.944  12.328  67.079  1.00  0.00    -0.576 OA 
HETATM   24  O   UNL     5     -10.117  12.556  65.486  1.00  0.00    -0.267 OA 
HETATM   25  O   UNL     5     -10.609  14.335  67.303  1.00  0.00    -0.274 OA 
ENDBRANCH  10  21
TORSDOF 2
ENDMDL
MODEL       25
REMARK 921   NORMALIZED FREE ENERGY PREDICTED BY IDOCK:   -5.48 KCAL/MOL
REMARK 922        TOTAL FREE ENERGY PREDICTED BY IDOCK:   -6.25 KCAL/MOL
REMARK 923 INTER-LIGAND FREE ENERGY PREDICTED BY IDOCK:   -6.93 KCAL/MOL
REMARK 924 INTRA-LIGAND FREE ENERGY PREDICTED BY IDOCK:    0.68 KCAL/MOL
REMARK 927      BINDING AFFINITY PREDICTED BY RF-SCORE:    0.00 PKD
ROOT
HETATM    1 NA   UNL     1      -9.492  13.166  63.778  1.00  0.00    -0.576 Na 
HETATM    2 NA   UNL     2      -7.639  19.357  66.855  1.00  0.00    -0.221 Na 
HETATM    3 NA   UNL     3     -13.220  12.490  65.437  1.00  0.00    -0.436 Na 
HETATM    4 NA   UNL     4     -11.621  17.994  67.111  1.00  0.00    -0.149 Na 
HETATM    5  C   UNL     5      -8.414  14.631  66.589  1.00  0.00    -0.052 C  
HETATM    6  C   UNL     5      -9.359  14.855  67.725  1.00  0.00    -0.194 A  
HETATM    7  C   UNL     5     -10.396  14.008  68.110  1.00  0.00    -0.241 A  
HETATM    8  C   UNL     5      -9.206  16.071  68.383  1.00  0.00    -0.196 A  
HETATM    9  C   UNL     5     -11.250  14.373  69.211  1.00  0.00    -0.308 A  
HETATM   10  C   UNL     5     -10.162  16.535  69.273  1.00  0.00    -0.290 A  
HETATM   11  C   UNL     5     -12.212  13.489  69.758  1.00  0.00    -0.330 A  
HETATM   12  C   UNL     5     -11.143  15.671  69.779  1.00  0.00    -0.315 A  
HETATM   13  C   UNL     5     -13.013  13.854  70.845  1.00  0.00    -0.316 A  
HETATM   14  C   UNL     5     -11.999  16.042  70.841  1.00  0.00    -0.376 A  
HETATM   15  C   UNL     5     -12.907  15.132  71.384  1.00  0.00    -0.457 A  
ENDROOT
BRANCH   7  16
HETATM   16  O   UNL     5     -10.606  12.782  67.554  1.00  0.00    -0.225 OA 
HETATM   17  O   UNL     5      -9.732  10.660  66.560  1.00  0.00    -0.182 OA 
HETATM   18  O   UNL     5      -8.349  11.733  68.200  1.00  0.00    -0.141 OA 
HETATM   19  P   UNL     5      -9.807  11.417  67.867  1.00  0.00    -0.189 P  
HETATM   20  O   UNL     5     -10.400  10.660  69.029  1.00  0.00    -0.196 OA 
ENDBRANCH   7  16
BRANCH  10  21
HETATM   21  O   UNL     5     -10.192  17.882  69.538  1.00  0.00    -0.147 OA 
HETATM   22  P   UNL     5      -9.428  18.982  68.595  1.00  0.00    -0.393 P  
HETATM   23  O   UNL     5      -9.414  18.443  67.156  1.00  0.00    -0.273 OA 
HETATM   24  O   UNL     5      -7.982  19.112  69.008  1.00  0.00    -0.328 OA 
HETATM   25  O   UNL     5     -10.293  20.201  68.571  1.00  0.00    -0.403 OA 
ENDBRANCH  10  21
TORSDOF 2
ENDMDL
MODEL       26
REMARK 921   NORMALIZED FREE ENERGY PREDICTED BY IDOCK:   -5.47 KCAL/MOL
REMARK 922        TOTAL FREE ENERGY PREDICTED BY IDOCK:   -6.23 KCAL/MOL
REMARK 923 INTER-LIGAND FREE ENERGY PREDICTED BY IDOCK:   -6.01 KCAL/MOL
REMARK 924 INTRA-LIGAND FREE ENERGY PREDICTED BY IDOCK:   -0.22 KCAL/MOL
REMARK 927      BINDING AFFINITY PREDICTED BY RF-SCORE:    0.00 PKD
ROOT
HETATM    1 NA   UNL     1     -13.287  15.502  69.557  1.00  0.00    -0.551 Na 
HETATM    2 NA   UNL     2      -9.845   9.635  71.783  1.00  0.00    -0.271 Na 
HETATM    3 NA   UNL     3     -14.321  14.450  65.693  1.00  0.00    -0.589 Na 
HETATM    4 NA   UNL     4     -12.118   9.516  68.234  1.00  0.00    -0.405 Na 
HETATM    5  C   UNL     5     -10.450  13.734  69.368  1.00  0.00     0.140 C  
HETATM    6  C   UNL     5     -10.162  12.910  68.156  1.00  0.00    -0.239 A  
HETATM    7  C   UNL     5     -10.497  13.234  66.843  1.00  0.00    -0.261 A  
HETATM    8  C   UNL     5      -9.576  11.674  68.413  1.00  0.00    -0.195 A  
HETATM    9  C   UNL     5     -10.182  12.321  65.776  1.00  0.00    -0.281 A  
HETATM   10  C   UNL     5      -9.492  10.697  67.433  1.00  0.00    -0.154 A  
HETATM   11  C   UNL     5     -10.343  12.658  64.409  1.00  0.00    -0.386 A  
HETATM   12  C   UNL     5      -9.697  11.022  66.085  1.00  0.00    -0.257 A  
HETATM   13  C   UNL     5     -10.006  11.765  63.386  1.00  0.00    -0.446 A  
HETATM   14  C   UNL     5      -9.414  10.113  65.040  1.00  0.00    -0.330 A  
HETATM   15  C   UNL     5      -9.544  10.493  63.703  1.00  0.00    -0.370 A  
ENDROOT
BRANCH   7  16
HETATM   16  O   UNL     5     -11.038  14.432  66.484  1.00  0.00    -0.317 OA 
HETATM   17  O   UNL     5     -11.130  16.925  66.662  1.00  0.00     0.059 OA 
HETATM   18  O   UNL     5      -8.992  15.895  67.018  1.00  0.00    -0.197 OA 
HETATM   19  P   UNL     5     -10.253  15.801  66.157  1.00  0.00    -0.358 P  
HETATM   20  O   UNL     5      -9.840  15.893  64.709  1.00  0.00    -0.105 OA 
ENDBRANCH   7  16
BRANCH  10  21
HETATM   21  O   UNL     5      -9.329   9.395  67.837  1.00  0.00    -0.129 OA 
HETATM   22  P   UNL     5      -7.861   8.756  68.181  1.00  0.00    -0.102 P  
HETATM   23  O   UNL     5      -6.969   9.885  68.721  1.00  0.00    -0.060 OA 
HETATM   24  O   UNL     5      -7.194   8.263  66.920  1.00  0.00    -0.080 OA 
HETATM   25  O   UNL     5      -8.061   7.809  69.319  1.00  0.00    -0.122 OA 
ENDBRANCH  10  21
TORSDOF 2
ENDMDL
MODEL       27
REMARK 921   NORMALIZED FREE ENERGY PREDICTED BY IDOCK:   -5.38 KCAL/MOL
REMARK 922        TOTAL FREE ENERGY PREDICTED BY IDOCK:   -6.13 KCAL/MOL
REMARK 923 INTER-LIGAND FREE ENERGY PREDICTED BY IDOCK:   -5.90 KCAL/MOL
REMARK 924 INTRA-LIGAND FREE ENERGY PREDICTED BY IDOCK:   -0.23 KCAL/MOL
REMARK 927      BINDING AFFINITY PREDICTED BY RF-SCORE:    0.00 PKD
ROOT
HETATM    1 NA   UNL     1      -6.608   5.012  69.399  1.00  0.00    -0.031 Na 
HETATM    2 NA   UNL     2      -8.966   9.605  64.442  1.00  0.00    -0.154 Na 
HETATM    3 NA   UNL     3      -9.987   4.483  71.724  1.00  0.00    -0.139 Na 
HETATM    4 NA   UNL     4     -11.717   7.635  66.957  1.00  0.00    -0.489 Na 
HETATM    5  C   UNL     5      -7.441   8.193  68.764  1.00  0.00    -0.090 C  
HETATM    6  C   UNL     5      -8.743   8.737  69.256  1.00  0.00    -0.135 A  
HETATM    7  C   UNL     5      -9.368   8.412  70.458  1.00  0.00    -0.162 A  
HETATM    8  C   UNL     5      -9.399   9.581  68.366  1.00  0.00    -0.137 A  
HETATM    9  C   UNL     5     -10.643   8.995  70.785  1.00  0.00    -0.300 A  
HETATM   10  C   UNL     5     -10.721   9.951  68.562  1.00  0.00    -0.226 A  
HETATM   11  C   UNL     5     -11.252   8.839  72.054  1.00  0.00    -0.443 A  
HETATM   12  C   UNL     5     -11.338   9.753  69.805  1.00  0.00    -0.201 A  
HETATM   13  C   UNL     5     -12.480   9.436  72.361  1.00  0.00    -0.254 A  
HETATM   14  C   UNL     5     -12.603  10.304  70.113  1.00  0.00    -0.137 A  
HETATM   15  C   UNL     5     -13.155  10.166  71.388  1.00  0.00    -0.512 A  
ENDROOT
BRANCH   7  16
HETATM   16  O   UNL     5      -8.792   7.625  71.411  1.00  0.00    -0.129 OA 
HETATM   17  O   UNL     5      -6.792   6.904  72.728  1.00  0.00    -0.069 OA 
HETATM   18  O   UNL     5      -6.838   9.189  71.999  1.00  0.00    -0.301 OA 
HETATM   19  P   UNL     5      -7.733   8.074  72.539  1.00  0.00    -0.129 P  
HETATM   20  O   UNL     5      -8.408   8.578  73.791  1.00  0.00    -0.362 OA 
ENDBRANCH   7  16
BRANCH  10  21
HETATM   21  O   UNL     5     -11.432  10.392  67.474  1.00  0.00    -0.386 OA 
HETATM   22  P   UNL     5     -11.329  11.929  66.918  1.00  0.00    -0.271 P  
HETATM   23  O   UNL     5      -9.914  12.448  67.221  1.00  0.00    -0.204 OA 
HETATM   24  O   UNL     5     -12.275  12.827  67.679  1.00  0.00    -0.321 OA 
HETATM   25  O   UNL     5     -11.432  11.855  65.429  1.00  0.00    -0.320 OA 
ENDBRANCH  10  21
TORSDOF 2
ENDMDL
MODEL       28
REMARK 921   NORMALIZED FREE ENERGY PREDICTED BY IDOCK:   -5.32 KCAL/MOL
REMARK 922        TOTAL FREE ENERGY PREDICTED BY IDOCK:   -6.07 KCAL/MOL
REMARK 923 INTER-LIGAND FREE ENERGY PREDICTED BY IDOCK:   -5.86 KCAL/MOL
REMARK 924 INTRA-LIGAND FREE ENERGY PREDICTED BY IDOCK:   -0.21 KCAL/MOL
REMARK 927      BINDING AFFINITY PREDICTED BY RF-SCORE:    0.00 PKD
ROOT
HETATM    1 NA   UNL     1     -12.420   9.144  70.006  1.00  0.00    -0.475 Na 
HETATM    2 NA   UNL     2     -13.534  16.194  69.474  1.00  0.00    -0.633 Na 
HETATM    3 NA   UNL     3      -8.378   8.998  70.868  1.00  0.00    -0.092 Na 
HETATM    4 NA   UNL     4      -9.935  14.756  71.136  1.00  0.00    -0.470 Na 
HETATM    5  C   UNL     5     -12.000  11.864  68.098  1.00  0.00    -0.222 C  
HETATM    6  C   UNL     5     -10.658  12.513  68.007  1.00  0.00    -0.237 A  
HETATM    7  C   UNL     5      -9.427  11.859  68.017  1.00  0.00    -0.197 A  
HETATM    8  C   UNL     5     -10.679  13.904  67.995  1.00  0.00    -0.255 A  
HETATM    9  C   UNL     5      -8.208  12.624  67.954  1.00  0.00    -0.170 A  
HETATM   10  C   UNL     5      -9.522  14.645  68.178  1.00  0.00    -0.212 A  
HETATM   11  C   UNL     5      -6.936  12.023  67.793  1.00  0.00    -0.103 A  
HETATM   12  C   UNL     5      -8.263  14.039  68.065  1.00  0.00    -0.155 A  
HETATM   13  C   UNL     5      -5.766  12.785  67.708  1.00  0.00    -0.131 A  
HETATM   14  C   UNL     5      -7.066  14.790  68.033  1.00  0.00    -0.147 A  
HETATM   15  C   UNL     5      -5.833  14.169  67.831  1.00  0.00    -0.133 A  
ENDROOT
BRANCH   7  16
HETATM   16  O   UNL     5      -9.300  10.503  67.990  1.00  0.00    -0.142 OA 
HETATM   17  O   UNL     5      -9.995   8.264  67.118  1.00  0.00    -0.191 OA 
HETATM   18  O   UNL     5     -10.240  10.126  65.626  1.00  0.00    -0.275 OA 
HETATM   19  P   UNL     5      -9.313   9.545  66.694  1.00  0.00    -0.185 P  
HETATM   20  O   UNL     5      -7.941   9.385  66.087  1.00  0.00    -0.108 OA 
ENDBRANCH   7  16
BRANCH  10  21
HETATM   21  O   UNL     5      -9.653  15.946  68.597  1.00  0.00    -0.196 OA 
HETATM   22  P   UNL     5      -9.828  17.194  67.550  1.00  0.00    -0.284 P  
HETATM   23  O   UNL     5     -10.562  16.669  66.306  1.00  0.00    -0.286 OA 
HETATM   24  O   UNL     5      -8.478  17.670  67.070  1.00  0.00    -0.223 OA 
HETATM   25  O   UNL     5     -10.758  18.169  68.196  1.00  0.00    -0.339 OA 
ENDBRANCH  10  21
TORSDOF 2
ENDMDL
MODEL       29
REMARK 921   NORMALIZED FREE ENERGY PREDICTED BY IDOCK:   -5.30 KCAL/MOL
REMARK 922        TOTAL FREE ENERGY PREDICTED BY IDOCK:   -6.04 KCAL/MOL
REMARK 923 INTER-LIGAND FREE ENERGY PREDICTED BY IDOCK:   -7.41 KCAL/MOL
REMARK 924 INTRA-LIGAND FREE ENERGY PREDICTED BY IDOCK:    1.37 KCAL/MOL
REMARK 927      BINDING AFFINITY PREDICTED BY RF-SCORE:    0.00 PKD
ROOT
HETATM    1 NA   UNL     1      -9.953  16.593  68.974  1.00  0.00    -0.202 Na 
HETATM    2 NA   UNL     2      -6.881  10.654  66.421  1.00  0.00    -0.080 Na 
HETATM    3 NA   UNL     3     -11.233  15.337  72.701  1.00  0.00    -0.373 Na 
HETATM    4 NA   UNL     4      -7.875  10.912  70.510  1.00  0.00    -0.328 Na 
HETATM    5  C   UNL     5     -10.489  13.554  67.673  1.00  0.00    -0.239 C  
HETATM    6  C   UNL     5     -10.914  12.427  68.558  1.00  0.00    -0.277 A  
HETATM    7  C   UNL     5     -11.757  12.523  69.663  1.00  0.00    -0.302 A  
HETATM    8  C   UNL     5     -10.329  11.200  68.264  1.00  0.00    -0.198 A  
HETATM    9  C   UNL     5     -12.054  11.350  70.443  1.00  0.00    -0.473 A  
HETATM   10  C   UNL     5     -10.415  10.130  69.143  1.00  0.00    -0.222 A  
HETATM   11  C   UNL     5     -13.027  11.342  71.473  1.00  0.00    -0.520 A  
HETATM   12  C   UNL     5     -11.347  10.144  70.191  1.00  0.00    -0.372 A  
HETATM   13  C   UNL     5     -13.319  10.184  72.202  1.00  0.00    -0.431 A  
HETATM   14  C   UNL     5     -11.615   8.998  70.973  1.00  0.00    -0.360 A  
HETATM   15  C   UNL     5     -12.610   9.014  71.952  1.00  0.00    -0.452 A  
ENDROOT
BRANCH   7  16
HETATM   16  O   UNL     5     -12.408  13.669  70.010  1.00  0.00    -0.322 OA 
HETATM   17  O   UNL     5     -12.460  15.877  71.183  1.00  0.00    -0.445 OA 
HETATM   18  O   UNL     5     -10.327  15.137  70.372  1.00  0.00    -0.163 OA 
HETATM   19  P   UNL     5     -11.814  15.167  70.015  1.00  0.00    -0.377 P  
HETATM   20  O   UNL     5     -11.961  15.845  68.675  1.00  0.00    -0.338 OA 
ENDBRANCH   7  16
BRANCH  10  21
HETATM   21  O   UNL     5      -9.482   9.130  69.030  1.00  0.00    -0.149 OA 
HETATM   22  P   UNL     5      -9.745   7.776  68.148  1.00  0.00    -0.165 P  
HETATM   23  O   UNL     5     -10.678   8.143  66.983  1.00  0.00    -0.321 OA 
HETATM   24  O   UNL     5     -10.487   6.749  68.970  1.00  0.00    -0.184 OA 
HETATM   25  O   UNL     5      -8.437   7.406  67.528  1.00  0.00    -0.115 OA 
ENDBRANCH  10  21
TORSDOF 2
ENDMDL
MODEL       30
REMARK 921   NORMALIZED FREE ENERGY PREDICTED BY IDOCK:   -5.29 KCAL/MOL
REMARK 922        TOTAL FREE ENERGY PREDICTED BY IDOCK:   -6.03 KCAL/MOL
REMARK 923 INTER-LIGAND FREE ENERGY PREDICTED BY IDOCK:   -5.81 KCAL/MOL
REMARK 924 INTRA-LIGAND FREE ENERGY PREDICTED BY IDOCK:   -0.23 KCAL/MOL
REMARK 927      BINDING AFFINITY PREDICTED BY RF-SCORE:    0.00 PKD
ROOT
HETATM    1 NA   UNL     1     -12.418  14.233  65.706  1.00  0.00    -0.355 Na 
HETATM    2 NA   UNL     2     -14.311   9.033  70.245  1.00  0.00    -0.581 Na 
HETATM    3 NA   UNL     3      -9.206  12.511  63.752  1.00  0.00    -0.489 Na 
HETATM    4 NA   UNL     4     -11.633   8.200  67.096  1.00  0.00    -0.468 Na 
HETATM    5  C   UNL     5     -11.647  12.644  68.550  1.00  0.00    -0.363 C  
HETATM    6  C   UNL     5     -10.528  11.655  68.574  1.00  0.00    -0.236 A  
HETATM    7  C   UNL     5      -9.339  11.743  67.852  1.00  0.00    -0.184 A  
HETATM    8  C   UNL     5     -10.767  10.517  69.338  1.00  0.00    -0.277 A  
HETATM    9  C   UNL     5      -8.360  10.692  67.953  1.00  0.00    -0.120 A  
HETATM   10  C   UNL     5      -9.946   9.403  69.250  1.00  0.00    -0.181 A  
HETATM   11  C   UNL     5      -7.068  10.793  67.381  1.00  0.00    -0.091 A  
HETATM   12  C   UNL     5      -8.686   9.493  68.642  1.00  0.00    -0.127 A  
HETATM   13  C   UNL     5      -6.121   9.772  67.512  1.00  0.00    -0.058 A  
HETATM   14  C   UNL     5      -7.738   8.448  68.718  1.00  0.00    -0.102 A  
HETATM   15  C   UNL     5      -6.459   8.599  68.179  1.00  0.00    -0.060 A  
ENDROOT
BRANCH   7  16
HETATM   16  O   UNL     5      -8.995  12.830  67.107  1.00  0.00    -0.198 OA 
HETATM   17  O   UNL     5      -8.875  15.308  66.790  1.00  0.00    -0.232 OA 
HETATM   18  O   UNL     5      -8.753  14.501  69.046  1.00  0.00    -0.138 OA 
HETATM   19  P   UNL     5      -8.294  14.187  67.622  1.00  0.00    -0.212 P  
HETATM   20  O   UNL     5      -6.789  14.088  67.625  1.00  0.00    -0.166 OA 
ENDBRANCH   7  16
BRANCH  10  21
HETATM   21  O   UNL     5     -10.458   8.196  69.658  1.00  0.00    -0.219 OA 
HETATM   22  P   UNL     5     -10.406   7.700  71.218  1.00  0.00    -0.198 P  
HETATM   23  O   UNL     5     -10.472   8.948  72.114  1.00  0.00    -0.336 OA 
HETATM   24  O   UNL     5      -9.081   7.040  71.516  1.00  0.00    -0.140 OA 
HETATM   25  O   UNL     5     -11.671   6.945  71.470  1.00  0.00    -0.276 OA 
ENDBRANCH  10  21
TORSDOF 2
ENDMDL
MODEL       31
REMARK 921   NORMALIZED FREE ENERGY PREDICTED BY IDOCK:   -5.20 KCAL/MOL
REMARK 922        TOTAL FREE ENERGY PREDICTED BY IDOCK:   -5.93 KCAL/MOL
REMARK 923 INTER-LIGAND FREE ENERGY PREDICTED BY IDOCK:   -5.72 KCAL/MOL
REMARK 924 INTRA-LIGAND FREE ENERGY PREDICTED BY IDOCK:   -0.21 KCAL/MOL
REMARK 927      BINDING AFFINITY PREDICTED BY RF-SCORE:    0.00 PKD
ROOT
HETATM    1 NA   UNL     1      -6.058  11.391  66.599  1.00  0.00    -0.064 Na 
HETATM    2 NA   UNL     2      -6.811   5.217  70.141  1.00  0.00    -0.035 Na 
HETATM    3 NA   UNL     3      -8.158  14.006  69.018  1.00  0.00    -0.126 Na 
HETATM    4 NA   UNL     4      -7.830   8.853  72.018  1.00  0.00    -0.110 Na 
HETATM    5  C   UNL     5      -8.146   8.884  67.353  1.00  0.00    -0.108 C  
HETATM    6  C   UNL     5      -9.225   9.090  68.365  1.00  0.00    -0.137 A  
HETATM    7  C   UNL     5      -9.949  10.263  68.568  1.00  0.00    -0.164 A  
HETATM    8  C   UNL     5      -9.442   8.012  69.218  1.00  0.00    -0.155 A  
HETATM    9  C   UNL     5     -10.943  10.322  69.608  1.00  0.00    -0.314 A  
HETATM   10  C   UNL     5     -10.214   8.140  70.362  1.00  0.00    -0.201 A  
HETATM   11  C   UNL     5     -11.826  11.420  69.761  1.00  0.00    -0.435 A  
HETATM   12  C   UNL     5     -11.052   9.251  70.534  1.00  0.00    -0.317 A  
HETATM   13  C   UNL     5     -12.802  11.447  70.762  1.00  0.00    -0.255 A  
HETATM   14  C   UNL     5     -12.008   9.319  71.574  1.00  0.00    -0.439 A  
HETATM   15  C   UNL     5     -12.890  10.396  71.669  1.00  0.00    -0.579 A  
ENDROOT
BRANCH   7  16
HETATM   16  O   UNL     5      -9.838  11.358  67.765  1.00  0.00    -0.170 OA 
HETATM   17  O   UNL     5      -9.571  12.385  65.500  1.00  0.00    -0.184 OA 
HETATM   18  O   UNL     5     -10.716  10.279  65.603  1.00  0.00    -0.055 OA 
HETATM   19  P   UNL     5     -10.556  11.606  66.344  1.00  0.00    -0.276 P  
HETATM   20  O   UNL     5     -11.923  12.228  66.494  1.00  0.00    -0.596 OA 
ENDBRANCH   7  16
BRANCH  10  21
HETATM   21  O   UNL     5     -10.033   7.220  71.365  1.00  0.00    -0.187 OA 
HETATM   22  P   UNL     5     -10.857   5.806  71.422  1.00  0.00    -0.183 P  
HETATM   23  O   UNL     5     -11.159   5.376  69.977  1.00  0.00    -0.170 OA 
HETATM   24  O   UNL     5     -12.198   6.006  72.087  1.00  0.00    -0.288 OA 
HETATM   25  O   UNL     5      -9.917   4.782  71.969  1.00  0.00    -0.172 OA 
ENDBRANCH  10  21
TORSDOF 2
ENDMDL
MODEL       32
REMARK 921   NORMALIZED FREE ENERGY PREDICTED BY IDOCK:   -5.19 KCAL/MOL
REMARK 922        TOTAL FREE ENERGY PREDICTED BY IDOCK:   -5.93 KCAL/MOL
REMARK 923 INTER-LIGAND FREE ENERGY PREDICTED BY IDOCK:   -5.85 KCAL/MOL
REMARK 924 INTRA-LIGAND FREE ENERGY PREDICTED BY IDOCK:   -0.08 KCAL/MOL
REMARK 927      BINDING AFFINITY PREDICTED BY RF-SCORE:    0.00 PKD
ROOT
HETATM    1 NA   UNL     1     -10.121   3.132  71.216  1.00  0.00    -0.151 Na 
HETATM    2 NA   UNL     2      -8.807   5.564  64.615  1.00  0.00    -0.143 Na 
HETATM    3 NA   UNL     3     -13.121   5.689  72.469  1.00  0.00    -0.402 Na 
HETATM    4 NA   UNL     4     -12.260   6.836  66.672  1.00  0.00    -0.575 Na 
HETATM    5  C   UNL     5      -8.690   5.561  69.409  1.00  0.00    -0.107 C  
HETATM    6  C   UNL     5      -9.351   6.895  69.296  1.00  0.00    -0.144 A  
HETATM    7  C   UNL     5     -10.077   7.541  70.295  1.00  0.00    -0.194 A  
HETATM    8  C   UNL     5      -9.280   7.479  68.034  1.00  0.00    -0.137 A  
HETATM    9  C   UNL     5     -10.687   8.817  70.027  1.00  0.00    -0.236 A  
HETATM   10  C   UNL     5     -10.059   8.577  67.702  1.00  0.00    -0.213 A  
HETATM   11  C   UNL     5     -11.294   9.602  71.039  1.00  0.00    -0.444 A  
HETATM   12  C   UNL     5     -10.699   9.325  68.701  1.00  0.00    -0.180 A  
HETATM   13  C   UNL     5     -11.859  10.851  70.764  1.00  0.00    -0.424 A  
HETATM   14  C   UNL     5     -11.322  10.564  68.430  1.00  0.00    -0.328 A  
HETATM   15  C   UNL     5     -11.874  11.330  69.458  1.00  0.00    -0.427 A  
ENDROOT
BRANCH   7  16
HETATM   16  O   UNL     5     -10.174   7.071  71.570  1.00  0.00    -0.198 OA 
HETATM   17  O   UNL     5      -9.187   5.887  73.539  1.00  0.00    -0.132 OA 
HETATM   18  O   UNL     5      -7.662   7.075  72.120  1.00  0.00    -0.091 OA 
HETATM   19  P   UNL     5      -9.061   7.159  72.732  1.00  0.00    -0.149 P  
HETATM   20  O   UNL     5      -9.153   8.444  73.517  1.00  0.00    -0.194 OA 
ENDBRANCH   7  16
BRANCH  10  21
HETATM   21  O   UNL     5     -10.284   8.824  66.370  1.00  0.00    -0.289 OA 
HETATM   22  P   UNL     5      -9.349   9.843  65.494  1.00  0.00    -0.263 P  
HETATM   23  O   UNL     5      -7.927   9.801  66.077  1.00  0.00    -0.107 OA 
HETATM   24  O   UNL     5      -9.826  11.266  65.658  1.00  0.00    -0.214 OA 
HETATM   25  O   UNL     5      -9.249   9.261  64.121  1.00  0.00    -0.110 OA 
ENDBRANCH  10  21
TORSDOF 2
ENDMDL
MODEL       33
REMARK 921   NORMALIZED FREE ENERGY PREDICTED BY IDOCK:   -5.15 KCAL/MOL
REMARK 922        TOTAL FREE ENERGY PREDICTED BY IDOCK:   -5.88 KCAL/MOL
REMARK 923 INTER-LIGAND FREE ENERGY PREDICTED BY IDOCK:   -5.97 KCAL/MOL
REMARK 924 INTRA-LIGAND FREE ENERGY PREDICTED BY IDOCK:    0.09 KCAL/MOL
REMARK 927      BINDING AFFINITY PREDICTED BY RF-SCORE:    0.00 PKD
ROOT
HETATM    1 NA   UNL     1      -9.582   6.372  66.781  1.00  0.00    -0.127 Na 
HETATM    2 NA   UNL     2      -9.305  12.917  63.898  1.00  0.00    -0.537 Na 
HETATM    3 NA   UNL     3     -12.905   6.674  69.224  1.00  0.00    -0.458 Na 
HETATM    4 NA   UNL     4     -12.758  11.684  65.979  1.00  0.00     0.033 Na 
HETATM    5  C   UNL     5      -8.798   9.584  67.309  1.00  0.00    -0.136 C  
HETATM    6  C   UNL     5      -9.711  10.454  68.111  1.00  0.00    -0.165 A  
HETATM    7  C   UNL     5     -10.463  10.059  69.215  1.00  0.00    -0.225 A  
HETATM    8  C   UNL     5      -9.857  11.752  67.629  1.00  0.00    -0.192 A  
HETATM    9  C   UNL     5     -11.327  11.005  69.871  1.00  0.00    -0.364 A  
HETATM   10  C   UNL     5     -10.857  12.588  68.100  1.00  0.00    -0.222 A  
HETATM   11  C   UNL     5     -11.989  10.719  71.091  1.00  0.00    -0.361 A  
HETATM   12  C   UNL     5     -11.544  12.280  69.283  1.00  0.00    -0.383 A  
HETATM   13  C   UNL     5     -12.804  11.662  71.725  1.00  0.00    -0.418 A  
HETATM   14  C   UNL     5     -12.414  13.201  69.909  1.00  0.00    -0.091 A  
HETATM   15  C   UNL     5     -13.017  12.902  71.132  1.00  0.00    -0.259 A  
ENDROOT
BRANCH   7  16
HETATM   16  O   UNL     5     -10.363   8.825  69.784  1.00  0.00    -0.200 OA 
HETATM   17  O   UNL     5      -8.993   6.866  70.518  1.00  0.00    -0.153 OA 
HETATM   18  O   UNL     5      -7.917   9.009  70.555  1.00  0.00    -0.104 OA 
HETATM   19  P   UNL     5      -9.252   8.321  70.838  1.00  0.00    -0.175 P  
HETATM   20  O   UNL     5      -9.640   8.618  72.265  1.00  0.00    -0.293 OA 
ENDBRANCH   7  16
BRANCH  10  21
HETATM   21  O   UNL     5     -11.234  13.646  67.310  1.00  0.00    -0.292 OA 
HETATM   22  P   UNL     5     -10.151  14.562  66.491  1.00  0.00    -0.295 P  
HETATM   23  O   UNL     5      -8.955  13.668  66.125  1.00  0.00     0.024 OA 
HETATM   24  O   UNL     5      -9.603  15.651  67.382  1.00  0.00    -0.215 OA 
HETATM   25  O   UNL     5     -10.798  14.935  65.196  1.00  0.00    -0.358 OA 
ENDBRANCH  10  21
TORSDOF 2
ENDMDL
MODEL       34
REMARK 921   NORMALIZED FREE ENERGY PREDICTED BY IDOCK:   -5.14 KCAL/MOL
REMARK 922        TOTAL FREE ENERGY PREDICTED BY IDOCK:   -5.87 KCAL/MOL
REMARK 923 INTER-LIGAND FREE ENERGY PREDICTED BY IDOCK:   -7.05 KCAL/MOL
REMARK 924 INTRA-LIGAND FREE ENERGY PREDICTED BY IDOCK:    1.18 KCAL/MOL
REMARK 927      BINDING AFFINITY PREDICTED BY RF-SCORE:    0.00 PKD
ROOT
HETATM    1 NA   UNL     1     -10.532   9.481  72.432  1.00  0.00    -0.274 Na 
HETATM    2 NA   UNL     2     -12.594  15.140  68.565  1.00  0.00    -0.498 Na 
HETATM    3 NA   UNL     3      -7.301   8.106  70.247  1.00  0.00    -0.051 Na 
HETATM    4 NA   UNL     4      -8.858  13.333  67.816  1.00  0.00    -0.145 Na 
HETATM    5  C   UNL     5     -12.091  10.494  69.647  1.00  0.00    -0.241 C  
HETATM    6  C   UNL     5     -11.400  10.396  68.327  1.00  0.00    -0.292 A  
HETATM    7  C   UNL     5     -10.527   9.386  67.929  1.00  0.00    -0.243 A  
HETATM    8  C   UNL     5     -11.611  11.475  67.473  1.00  0.00    -0.322 A  
HETATM    9  C   UNL     5      -9.909   9.442  66.630  1.00  0.00    -0.309 A  
HETATM   10  C   UNL     5     -10.840  11.657  66.335  1.00  0.00    -0.287 A  
HETATM   11  C   UNL     5      -9.147   8.372  66.098  1.00  0.00    -0.238 A  
HETATM   12  C   UNL     5     -10.050  10.612  65.837  1.00  0.00    -0.321 A  
HETATM   13  C   UNL     5      -8.576   8.436  64.823  1.00  0.00    -0.077 A  
HETATM   14  C   UNL     5      -9.420  10.681  64.573  1.00  0.00    -0.313 A  
HETATM   15  C   UNL     5      -8.712   9.593  64.063  1.00  0.00    -0.240 A  
ENDROOT
BRANCH   7  16
HETATM   16  O   UNL     5     -10.284   8.271  68.674  1.00  0.00    -0.197 OA 
HETATM   17  O   UNL     5      -8.981   7.069  70.438  1.00  0.00    -0.153 OA 
HETATM   18  O   UNL     5      -9.189   9.446  70.683  1.00  0.00    -0.244 OA 
HETATM   19  P   UNL     5      -9.966   8.201  70.253  1.00  0.00    -0.194 P  
HETATM   20  O   UNL     5     -11.220   8.120  71.086  1.00  0.00    -0.247 OA 
ENDBRANCH   7  16
BRANCH  10  21
HETATM   21  O   UNL     5     -10.780  12.918  65.796  1.00  0.00    -0.267 OA 
HETATM   22  P   UNL     5     -11.887  13.471  64.723  1.00  0.00    -0.430 P  
HETATM   23  O   UNL     5     -13.230  12.791  65.035  1.00  0.00    -0.768 OA 
HETATM   24  O   UNL     5     -11.518  13.045  63.322  1.00  0.00    -0.383 OA 
HETATM   25  O   UNL     5     -12.082  14.923  65.017  1.00  0.00    -0.313 OA 
ENDBRANCH  10  21
TORSDOF 2
ENDMDL
MODEL       35
REMARK 921   NORMALIZED FREE ENERGY PREDICTED BY IDOCK:   -5.05 KCAL/MOL
REMARK 922        TOTAL FREE ENERGY PREDICTED BY IDOCK:   -5.77 KCAL/MOL
REMARK 923 INTER-LIGAND FREE ENERGY PREDICTED BY IDOCK:   -6.95 KCAL/MOL
REMARK 924 INTRA-LIGAND FREE ENERGY PREDICTED BY IDOCK:    1.19 KCAL/MOL
REMARK 927      BINDING AFFINITY PREDICTED BY RF-SCORE:    0.00 PKD
ROOT
HETATM    1 NA   UNL     1      -9.458  13.942  64.980  1.00  0.00    -0.455 Na 
HETATM    2 NA   UNL     2      -7.286   7.155  65.652  1.00  0.00    -0.062 Na 
HETATM    3 NA   UNL     3     -10.133  14.998  68.921  1.00  0.00    -0.185 Na 
HETATM    4 NA   UNL     4      -7.517   9.633  69.056  1.00  0.00    -0.063 Na 
HETATM    5  C   UNL     5     -10.416  10.789  65.574  1.00  0.00    -0.264 C  
HETATM    6  C   UNL     5     -10.749  10.358  66.965  1.00  0.00    -0.298 A  
HETATM    7  C   UNL     5     -11.373  11.136  67.938  1.00  0.00    -0.309 A  
HETATM    8  C   UNL     5     -10.307   9.084  67.306  1.00  0.00    -0.342 A  
HETATM    9  C   UNL     5     -11.603  10.594  69.252  1.00  0.00    -0.346 A  
HETATM   10  C   UNL     5     -10.306   8.649  68.623  1.00  0.00    -0.193 A  
HETATM   11  C   UNL     5     -12.375  11.264  70.232  1.00  0.00    -0.389 A  
HETATM   12  C   UNL     5     -11.033   9.341  69.602  1.00  0.00    -0.192 A  
HETATM   13  C   UNL     5     -12.608  10.708  71.495  1.00  0.00    -0.517 A  
HETATM   14  C   UNL     5     -11.232   8.818  70.900  1.00  0.00    -0.320 A  
HETATM   15  C   UNL     5     -12.033   9.486  71.828  1.00  0.00    -0.443 A  
ENDROOT
BRANCH   7  16
HETATM   16  O   UNL     5     -11.875  12.379  67.694  1.00  0.00    -0.394 OA 
HETATM   17  O   UNL     5     -11.595  14.863  67.591  1.00  0.00    -0.338 OA 
HETATM   18  O   UNL     5      -9.645  13.538  67.151  1.00  0.00    -0.226 OA 
HETATM   19  P   UNL     5     -11.153  13.587  66.908  1.00  0.00    -0.312 P  
HETATM   20  O   UNL     5     -11.392  13.526  65.420  1.00  0.00    -0.288 OA 
ENDBRANCH   7  16
BRANCH  10  21
HETATM   21  O   UNL     5      -9.475   7.607  68.953  1.00  0.00    -0.149 OA 
HETATM   22  P   UNL     5      -9.922   6.040  68.795  1.00  0.00    -0.178 P  
HETATM   23  O   UNL     5     -10.906   5.944  67.618  1.00  0.00    -0.276 OA 
HETATM   24  O   UNL     5     -10.686   5.586  70.016  1.00  0.00    -0.313 OA 
HETATM   25  O   UNL     5      -8.703   5.285  68.376  1.00  0.00    -0.099 OA 
ENDBRANCH  10  21
TORSDOF 2
ENDMDL
MODEL       36
REMARK 921   NORMALIZED FREE ENERGY PREDICTED BY IDOCK:   -5.04 KCAL/MOL
REMARK 922        TOTAL FREE ENERGY PREDICTED BY IDOCK:   -5.76 KCAL/MOL
REMARK 923 INTER-LIGAND FREE ENERGY PREDICTED BY IDOCK:   -5.71 KCAL/MOL
REMARK 924 INTRA-LIGAND FREE ENERGY PREDICTED BY IDOCK:   -0.05 KCAL/MOL
REMARK 927      BINDING AFFINITY PREDICTED BY RF-SCORE:    0.00 PKD
ROOT
HETATM    1 NA   UNL     1     -10.977  10.308  63.655  1.00  0.00    -0.463 Na 
HETATM    2 NA   UNL     2     -14.246   9.847  70.005  1.00  0.00    -0.650 Na 
HETATM    3 NA   UNL     3      -8.855   6.760  63.546  1.00  0.00    -0.336 Na 
HETATM    4 NA   UNL     4     -12.396   6.442  68.343  1.00  0.00    -0.410 Na 
HETATM    5  C   UNL     5     -10.593  10.533  66.974  1.00  0.00    -0.310 C  
HETATM    6  C   UNL     5      -9.933   9.424  67.726  1.00  0.00    -0.228 A  
HETATM    7  C   UNL     5      -8.874   8.640  67.273  1.00  0.00    -0.133 A  
HETATM    8  C   UNL     5     -10.509   9.127  68.957  1.00  0.00    -0.238 A  
HETATM    9  C   UNL     5      -8.359   7.581  68.102  1.00  0.00    -0.125 A  
HETATM   10  C   UNL     5     -10.182   7.969  69.647  1.00  0.00    -0.208 A  
HETATM   11  C   UNL     5      -7.185   6.858  67.776  1.00  0.00    -0.091 A  
HETATM   12  C   UNL     5      -9.046   7.227  69.293  1.00  0.00    -0.138 A  
HETATM   13  C   UNL     5      -6.686   5.850  68.608  1.00  0.00    -0.064 A  
HETATM   14  C   UNL     5      -8.558   6.170  70.095  1.00  0.00    -0.133 A  
HETATM   15  C   UNL     5      -7.376   5.506  69.766  1.00  0.00    -0.066 A  
ENDROOT
BRANCH   7  16
HETATM   16  O   UNL     5      -8.219   8.874  66.101  1.00  0.00    -0.110 OA 
HETATM   17  O   UNL     5      -7.239  10.453  64.428  1.00  0.00    -0.104 OA 
HETATM   18  O   UNL     5      -7.246  11.173  66.716  1.00  0.00    -0.131 OA 
HETATM   19  P   UNL     5      -7.039   9.940  65.837  1.00  0.00    -0.120 P  
HETATM   20  O   UNL     5      -5.675   9.372  66.139  1.00  0.00    -0.051 OA 
ENDBRANCH   7  16
BRANCH  10  21
HETATM   21  O   UNL     5     -11.069   7.511  70.589  1.00  0.00    -0.256 OA 
HETATM   22  P   UNL     5     -11.406   8.343  71.959  1.00  0.00    -0.386 P  
HETATM   23  O   UNL     5     -11.258   9.842  71.651  1.00  0.00    -0.331 OA 
HETATM   24  O   UNL     5     -10.383   8.032  73.026  1.00  0.00    -0.329 OA 
HETATM   25  O   UNL     5     -12.854   8.122  72.250  1.00  0.00    -0.300 OA 
ENDBRANCH  10  21
TORSDOF 2
ENDMDL
MODEL       37
REMARK 921   NORMALIZED FREE ENERGY PREDICTED BY IDOCK:   -5.01 KCAL/MOL
REMARK 922        TOTAL FREE ENERGY PREDICTED BY IDOCK:   -5.72 KCAL/MOL
REMARK 923 INTER-LIGAND FREE ENERGY PREDICTED BY IDOCK:   -6.38 KCAL/MOL
REMARK 924 INTRA-LIGAND FREE ENERGY PREDICTED BY IDOCK:    0.66 KCAL/MOL
REMARK 927      BINDING AFFINITY PREDICTED BY RF-SCORE:    0.00 PKD
ROOT
HETATM    1 NA   UNL     1      -5.212  11.695  67.816  1.00  0.00    -0.042 Na 
HETATM    2 NA   UNL     2      -8.282  18.022  69.150  1.00  0.00    -0.262 Na 
HETATM    3 NA   UNL     3      -6.524  10.923  63.971  1.00  0.00    -0.259 Na 
HETATM    4 NA   UNL     4      -8.192  16.521  65.211  1.00  0.00    -0.135 Na 
HETATM    5  C   UNL     5      -8.073  13.266  68.566  1.00  0.00    -0.094 C  
HETATM    6  C   UNL     5      -9.106  13.482  67.509  1.00  0.00    -0.214 A  
HETATM    7  C   UNL     5      -9.413  12.608  66.468  1.00  0.00    -0.247 A  
HETATM    8  C   UNL     5      -9.743  14.719  67.556  1.00  0.00    -0.213 A  
HETATM    9  C   UNL     5     -10.416  12.968  65.501  1.00  0.00    -0.297 A  
HETATM   10  C   UNL     5     -10.524  15.169  66.502  1.00  0.00    -0.291 A  
HETATM   11  C   UNL     5     -10.894  12.062  64.521  1.00  0.00    -0.363 A  
HETATM   12  C   UNL     5     -10.957  14.281  65.507  1.00  0.00    -0.319 A  
HETATM   13  C   UNL     5     -11.888  12.423  63.606  1.00  0.00    -0.610 A  
HETATM   14  C   UNL     5     -11.921  14.647  64.541  1.00  0.00    -0.473 A  
HETATM   15  C   UNL     5     -12.399  13.717  63.616  1.00  0.00    -0.256 A  
ENDROOT
BRANCH   7  16
HETATM   16  O   UNL     5      -8.874  11.361  66.356  1.00  0.00    -0.184 OA 
HETATM   17  O   UNL     5      -8.098   9.219  67.387  1.00  0.00    -0.109 OA 
HETATM   18  O   UNL     5      -9.893  10.362  68.494  1.00  0.00    -0.157 OA 
HETATM   19  P   UNL     5      -9.352  10.018  67.107  1.00  0.00    -0.154 P  
HETATM   20  O   UNL     5     -10.434   9.291  66.348  1.00  0.00    -0.208 OA 
ENDBRANCH   7  16
BRANCH  10  21
HETATM   21  O   UNL     5     -10.748  16.520  66.401  1.00  0.00    -0.261 OA 
HETATM   22  P   UNL     5      -9.834  17.625  67.191  1.00  0.00    -0.335 P  
HETATM   23  O   UNL     5      -8.415  17.051  67.335  1.00  0.00    -0.192 OA 
HETATM   24  O   UNL     5     -10.349  17.824  68.597  1.00  0.00    -0.363 OA 
HETATM   25  O   UNL     5      -9.710  18.807  66.286  1.00  0.00    -0.343 OA 
ENDBRANCH  10  21
TORSDOF 2
ENDMDL
MODEL       38
REMARK 921   NORMALIZED FREE ENERGY PREDICTED BY IDOCK:   -4.97 KCAL/MOL
REMARK 922        TOTAL FREE ENERGY PREDICTED BY IDOCK:   -5.68 KCAL/MOL
REMARK 923 INTER-LIGAND FREE ENERGY PREDICTED BY IDOCK:   -5.79 KCAL/MOL
REMARK 924 INTRA-LIGAND FREE ENERGY PREDICTED BY IDOCK:    0.11 KCAL/MOL
REMARK 927      BINDING AFFINITY PREDICTED BY RF-SCORE:    0.00 PKD
ROOT
HETATM    1 NA   UNL     1     -13.903  12.505  64.634  1.00  0.00    -0.706 Na 
HETATM    2 NA   UNL     2     -11.473  19.073  66.111  1.00  0.00    -0.186 Na 
HETATM    3 NA   UNL     3     -12.279  10.296  67.730  1.00  0.00    -0.407 Na 
HETATM    4 NA   UNL     4     -11.176  16.024  69.007  1.00  0.00    -0.224 Na 
HETATM    5  C   UNL     5     -11.241  14.536  64.575  1.00  0.00    -0.302 C  
HETATM    6  C   UNL     5     -10.162  14.383  65.597  1.00  0.00    -0.371 A  
HETATM    7  C   UNL     5      -9.715  13.183  66.147  1.00  0.00    -0.248 A  
HETATM    8  C   UNL     5      -9.637  15.579  66.078  1.00  0.00    -0.380 A  
HETATM    9  C   UNL     5      -8.683  13.195  67.152  1.00  0.00    -0.214 A  
HETATM   10  C   UNL     5      -8.828  15.611  67.204  1.00  0.00    -0.208 A  
HETATM   11  C   UNL     5      -8.068  12.012  67.630  1.00  0.00    -0.155 A  
HETATM   12  C   UNL     5      -8.257  14.432  67.704  1.00  0.00    -0.185 A  
HETATM   13  C   UNL     5      -7.049  12.046  68.587  1.00  0.00    -0.103 A  
HETATM   14  C   UNL     5      -7.265  14.445  68.711  1.00  0.00    -0.128 A  
HETATM   15  C   UNL     5      -6.651  13.264  69.129  1.00  0.00    -0.105 A  
ENDROOT
BRANCH   7  16
HETATM   16  O   UNL     5     -10.138  11.961  65.719  1.00  0.00    -0.226 OA 
HETATM   17  O   UNL     5     -10.888  10.430  63.889  1.00  0.00     0.421 OA 
HETATM   18  O   UNL     5      -9.356  12.172  63.279  1.00  0.00    -0.186 OA 
HETATM   19  P   UNL     5      -9.671  11.174  64.393  1.00  0.00    -0.280 P  
HETATM   20  O   UNL     5      -8.442  10.332  64.629  1.00  0.00    -0.164 OA 
ENDBRANCH   7  16
BRANCH  10  21
HETATM   21  O   UNL     5      -8.713  16.802  67.877  1.00  0.00    -0.198 OA 
HETATM   22  P   UNL     5      -8.516  18.234  67.106  1.00  0.00    -0.262 P  
HETATM   23  O   UNL     5      -9.228  18.141  65.747  1.00  0.00    -0.469 OA 
HETATM   24  O   UNL     5      -7.057  18.469  66.799  1.00  0.00    -0.201 OA 
HETATM   25  O   UNL     5      -9.269  19.254  67.897  1.00  0.00    -0.300 OA 
ENDBRANCH  10  21
TORSDOF 2
ENDMDL
MODEL       39
REMARK 921   NORMALIZED FREE ENERGY PREDICTED BY IDOCK:   -4.97 KCAL/MOL
REMARK 922        TOTAL FREE ENERGY PREDICTED BY IDOCK:   -5.67 KCAL/MOL
REMARK 923 INTER-LIGAND FREE ENERGY PREDICTED BY IDOCK:   -9.09 KCAL/MOL
REMARK 924 INTRA-LIGAND FREE ENERGY PREDICTED BY IDOCK:    3.42 KCAL/MOL
REMARK 927      BINDING AFFINITY PREDICTED BY RF-SCORE:    0.00 PKD
ROOT
HETATM    1 NA   UNL     1     -13.444  11.523  71.170  1.00  0.00    -0.342 Na 
HETATM    2 NA   UNL     2     -12.195  10.767  64.163  1.00  0.00    -0.040 Na 
HETATM    3 NA   UNL     3     -13.987  15.611  71.487  1.00  0.00    -0.393 Na 
HETATM    4 NA   UNL     4     -13.715  14.410  65.644  1.00  0.00    -0.640 Na 
HETATM    5  C   UNL     5     -11.207  11.927  68.711  1.00  0.00    -0.314 C  
HETATM    6  C   UNL     5     -10.934  13.290  68.166  1.00  0.00    -0.278 A  
HETATM    7  C   UNL     5     -10.919  14.478  68.893  1.00  0.00    -0.256 A  
HETATM    8  C   UNL     5     -10.763  13.347  66.786  1.00  0.00    -0.277 A  
HETATM    9  C   UNL     5     -10.670  15.728  68.222  1.00  0.00    -0.281 A  
HETATM   10  C   UNL     5     -10.766  14.555  66.106  1.00  0.00    -0.310 A  
HETATM   11  C   UNL     5     -10.477  16.946  68.920  1.00  0.00    -0.346 A  
HETATM   12  C   UNL     5     -10.622  15.764  66.803  1.00  0.00    -0.309 A  
HETATM   13  C   UNL     5     -10.210  18.144  68.251  1.00  0.00    -0.402 A  
HETATM   14  C   UNL     5     -10.406  16.993  66.141  1.00  0.00    -0.326 A  
HETATM   15  C   UNL     5     -10.178  18.167  66.861  1.00  0.00    -0.380 A  
ENDROOT
BRANCH   7  16
HETATM   16  O   UNL     5     -11.038  14.526  70.250  1.00  0.00    -0.166 OA 
HETATM   17  O   UNL     5     -11.931  15.600  72.325  1.00  0.00    -0.376 OA 
HETATM   18  O   UNL     5     -13.270  15.800  70.344  1.00  0.00    -0.365 OA 
HETATM   19  P   UNL     5     -12.372  14.823  71.104  1.00  0.00    -0.393 P  
HETATM   20  O   UNL     5     -13.168  13.572  71.378  1.00  0.00    -0.331 OA 
ENDBRANCH   7  16
BRANCH  10  21
HETATM   21  O   UNL     5     -11.041  14.535  64.761  1.00  0.00    -0.382 OA 
HETATM   22  P   UNL     5     -11.744  13.252  64.026  1.00  0.00    -0.410 P  
HETATM   23  O   UNL     5     -12.666  12.567  65.048  1.00  0.00    -0.649 OA 
HETATM   24  O   UNL     5     -10.702  12.227  63.649  1.00  0.00    -0.403 OA 
HETATM   25  O   UNL     5     -12.642  13.804  62.966  1.00  0.00    -0.721 OA 
ENDBRANCH  10  21
TORSDOF 2
ENDMDL
MODEL       40
REMARK 921   NORMALIZED FREE ENERGY PREDICTED BY IDOCK:   -4.94 KCAL/MOL
REMARK 922        TOTAL FREE ENERGY PREDICTED BY IDOCK:   -5.64 KCAL/MOL
REMARK 923 INTER-LIGAND FREE ENERGY PREDICTED BY IDOCK:   -5.47 KCAL/MOL
REMARK 924 INTRA-LIGAND FREE ENERGY PREDICTED BY IDOCK:   -0.18 KCAL/MOL
REMARK 927      BINDING AFFINITY PREDICTED BY RF-SCORE:    0.00 PKD
ROOT
HETATM    1 NA   UNL     1     -13.218  12.640  65.272  1.00  0.00    -0.479 Na 
HETATM    2 NA   UNL     2     -12.192   7.220  69.831  1.00  0.00    -0.474 Na 
HETATM    3 NA   UNL     3      -9.415  13.175  63.737  1.00  0.00    -0.576 Na 
HETATM    4 NA   UNL     4      -9.208   8.187  67.014  1.00  0.00    -0.126 Na 
HETATM    5  C   UNL     5     -11.980  11.743  68.251  1.00  0.00    -0.236 C  
HETATM    6  C   UNL     5     -10.505  11.600  68.434  1.00  0.00    -0.230 A  
HETATM    7  C   UNL     5      -9.522  12.384  67.834  1.00  0.00    -0.198 A  
HETATM    8  C   UNL     5     -10.114  10.521  69.222  1.00  0.00    -0.244 A  
HETATM    9  C   UNL     5      -8.131  12.105  68.082  1.00  0.00    -0.161 A  
HETATM   10  C   UNL     5      -8.794  10.103  69.270  1.00  0.00    -0.183 A  
HETATM   11  C   UNL     5      -7.090  12.959  67.641  1.00  0.00    -0.151 A  
HETATM   12  C   UNL     5      -7.767  10.929  68.789  1.00  0.00    -0.129 A  
HETATM   13  C   UNL     5      -5.746  12.685  67.915  1.00  0.00    -0.110 A  
HETATM   14  C   UNL     5      -6.402  10.638  69.010  1.00  0.00    -0.046 A  
HETATM   15  C   UNL     5      -5.404  11.522  68.598  1.00  0.00    -0.042 A  
ENDROOT
BRANCH   7  16
HETATM   16  O   UNL     5      -9.801  13.482  67.077  1.00  0.00    -0.239 OA 
HETATM   17  O   UNL     5     -11.144  15.546  66.640  1.00  0.00    -0.293 OA 
HETATM   18  O   UNL     5     -10.865  14.906  68.935  1.00  0.00    -0.233 OA 
HETATM   19  P   UNL     5     -10.125  14.972  67.599  1.00  0.00    -0.232 P  
HETATM   20  O   UNL     5      -8.876  15.795  67.796  1.00  0.00    -0.170 OA 
ENDBRANCH   7  16
BRANCH  10  21
HETATM   21  O   UNL     5      -8.542   8.817  69.680  1.00  0.00    -0.125 OA 
HETATM   22  P   UNL     5      -8.636   8.358  71.249  1.00  0.00    -0.193 P  
HETATM   23  O   UNL     5      -9.702   9.229  71.934  1.00  0.00    -0.260 OA 
HETATM   24  O   UNL     5      -7.337   8.651  71.960  1.00  0.00    -0.181 OA 
HETATM   25  O   UNL     5      -9.174   6.964  71.258  1.00  0.00    -0.156 OA 
ENDBRANCH  10  21
TORSDOF 2
ENDMDL
MODEL       41
REMARK 921   NORMALIZED FREE ENERGY PREDICTED BY IDOCK:   -4.90 KCAL/MOL
REMARK 922        TOTAL FREE ENERGY PREDICTED BY IDOCK:   -5.60 KCAL/MOL
REMARK 923 INTER-LIGAND FREE ENERGY PREDICTED BY IDOCK:   -5.39 KCAL/MOL
REMARK 924 INTRA-LIGAND FREE ENERGY PREDICTED BY IDOCK:   -0.20 KCAL/MOL
REMARK 927      BINDING AFFINITY PREDICTED BY RF-SCORE:    0.00 PKD
ROOT
HETATM    1 NA   UNL     1     -12.966  12.511  65.636  1.00  0.00    -0.428 Na 
HETATM    2 NA   UNL     2     -14.367   8.041  71.047  1.00  0.00    -0.381 Na 
HETATM    3 NA   UNL     3      -9.943  10.503  63.652  1.00  0.00    -0.231 Na 
HETATM    4 NA   UNL     4     -12.000   6.741  67.809  1.00  0.00    -0.546 Na 
HETATM    5  C   UNL     5     -11.910  11.350  68.594  1.00  0.00    -0.377 C  
HETATM    6  C   UNL     5     -10.785  10.369  68.653  1.00  0.00    -0.250 A  
HETATM    7  C   UNL     5      -9.673  10.343  67.815  1.00  0.00    -0.160 A  
HETATM    8  C   UNL     5     -10.940   9.356  69.595  1.00  0.00    -0.216 A  
HETATM    9  C   UNL     5      -8.680   9.312  67.972  1.00  0.00    -0.125 A  
HETATM   10  C   UNL     5     -10.123   8.236  69.591  1.00  0.00    -0.199 A  
HETATM   11  C   UNL     5      -7.450   9.322  67.269  1.00  0.00    -0.091 A  
HETATM   12  C   UNL     5      -8.928   8.229  68.857  1.00  0.00    -0.144 A  
HETATM   13  C   UNL     5      -6.487   8.325  67.455  1.00  0.00    -0.058 A  
HETATM   14  C   UNL     5      -7.968   7.201  68.992  1.00  0.00    -0.120 A  
HETATM   15  C   UNL     5      -6.749   7.263  68.316  1.00  0.00    -0.054 A  
ENDROOT
BRANCH   7  16
HETATM   16  O   UNL     5      -9.412  11.307  66.888  1.00  0.00    -0.173 OA 
HETATM   17  O   UNL     5      -9.337  13.712  66.206  1.00  0.00    -0.231 OA 
HETATM   18  O   UNL     5      -8.982  13.239  68.531  1.00  0.00    -0.155 OA 
HETATM   19  P   UNL     5      -8.668  12.717  67.128  1.00  0.00    -0.176 P  
HETATM   20  O   UNL     5      -7.170  12.604  66.993  1.00  0.00    -0.075 OA 
ENDBRANCH   7  16
BRANCH  10  21
HETATM   21  O   UNL     5     -10.582   7.104  70.218  1.00  0.00    -0.216 OA 
HETATM   22  P   UNL     5     -10.554   6.927  71.846  1.00  0.00    -0.217 P  
HETATM   23  O   UNL     5     -10.713   8.320  72.477  1.00  0.00    -0.322 OA 
HETATM   24  O   UNL     5      -9.206   6.416  72.296  1.00  0.00    -0.141 OA 
HETATM   25  O   UNL     5     -11.784   6.164  72.217  1.00  0.00    -0.309 OA 
ENDBRANCH  10  21
TORSDOF 2
ENDMDL
MODEL       42
REMARK 921   NORMALIZED FREE ENERGY PREDICTED BY IDOCK:   -4.90 KCAL/MOL
REMARK 922        TOTAL FREE ENERGY PREDICTED BY IDOCK:   -5.59 KCAL/MOL
REMARK 923 INTER-LIGAND FREE ENERGY PREDICTED BY IDOCK:   -6.25 KCAL/MOL
REMARK 924 INTRA-LIGAND FREE ENERGY PREDICTED BY IDOCK:    0.65 KCAL/MOL
REMARK 927      BINDING AFFINITY PREDICTED BY RF-SCORE:    0.00 PKD
ROOT
HETATM    1 NA   UNL     1      -8.977   7.579  63.475  1.00  0.00    -0.364 Na 
HETATM    2 NA   UNL     2      -9.256  14.514  65.221  1.00  0.00    -0.442 Na 
HETATM    3 NA   UNL     3     -11.982   5.999  65.837  1.00  0.00    -0.579 Na 
HETATM    4 NA   UNL     4     -12.389  11.933  66.364  1.00  0.00    -0.321 Na 
HETATM    5  C   UNL     5      -8.233   9.865  65.805  1.00  0.00    -0.125 C  
HETATM    6  C   UNL     5      -9.066   9.971  67.041  1.00  0.00    -0.159 A  
HETATM    7  C   UNL     5      -9.664   8.914  67.722  1.00  0.00    -0.160 A  
HETATM    8  C   UNL     5      -9.310  11.272  67.473  1.00  0.00    -0.166 A  
HETATM    9  C   UNL     5     -10.470   9.174  68.887  1.00  0.00    -0.239 A  
HETATM   10  C   UNL     5     -10.269  11.545  68.436  1.00  0.00    -0.205 A  
HETATM   11  C   UNL     5     -10.968   8.142  69.719  1.00  0.00    -0.133 A  
HETATM   12  C   UNL     5     -10.797  10.514  69.227  1.00  0.00    -0.284 A  
HETATM   13  C   UNL     5     -11.727   8.417  70.861  1.00  0.00    -0.269 A  
HETATM   14  C   UNL     5     -11.610  10.772  70.353  1.00  0.00    -0.431 A  
HETATM   15  C   UNL     5     -12.049   9.733  71.175  1.00  0.00    -0.460 A  
ENDROOT
BRANCH   7  16
HETATM   16  O   UNL     5      -9.458   7.606  67.401  1.00  0.00    -0.136 OA 
HETATM   17  O   UNL     5      -7.945   5.749  66.680  1.00  0.00    -0.100 OA 
HETATM   18  O   UNL     5      -6.950   7.517  67.961  1.00  0.00    -0.068 OA 
HETATM   19  P   UNL     5      -8.220   6.674  67.845  1.00  0.00    -0.120 P  
HETATM   20  O   UNL     5      -8.458   5.999  69.173  1.00  0.00    -0.113 OA 
ENDBRANCH   7  16
BRANCH  10  21
HETATM   21  O   UNL     5     -10.772  12.821  68.497  1.00  0.00    -0.241 OA 
HETATM   22  P   UNL     5     -10.583  13.901  67.281  1.00  0.00    -0.278 P  
HETATM   23  O   UNL     5     -10.524  13.119  65.958  1.00  0.00    -0.274 OA 
HETATM   24  O   UNL     5      -9.254  14.607  67.408  1.00  0.00    -0.187 OA 
HETATM   25  O   UNL     5     -11.837  14.710  67.226  1.00  0.00    -0.392 OA 
ENDBRANCH  10  21
TORSDOF 2
ENDMDL
MODEL       43
REMARK 921   NORMALIZED FREE ENERGY PREDICTED BY IDOCK:   -4.84 KCAL/MOL
REMARK 922        TOTAL FREE ENERGY PREDICTED BY IDOCK:   -5.53 KCAL/MOL
REMARK 923 INTER-LIGAND FREE ENERGY PREDICTED BY IDOCK:   -5.55 KCAL/MOL
REMARK 924 INTRA-LIGAND FREE ENERGY PREDICTED BY IDOCK:    0.02 KCAL/MOL
REMARK 927      BINDING AFFINITY PREDICTED BY RF-SCORE:    0.00 PKD
ROOT
HETATM    1 NA   UNL     1     -10.110   6.960  67.880  1.00  0.00    -0.138 Na 
HETATM    2 NA   UNL     2     -13.975  11.891  64.421  1.00  0.00    -0.701 Na 
HETATM    3 NA   UNL     3      -8.549   9.164  71.012  1.00  0.00    -0.114 Na 
HETATM    4 NA   UNL     4     -12.518  12.702  68.294  1.00  0.00    -0.307 Na 
HETATM    5  C   UNL     5     -10.000   9.616  65.845  1.00  0.00    -0.351 C  
HETATM    6  C   UNL     5      -9.586  10.949  66.378  1.00  0.00    -0.229 A  
HETATM    7  C   UNL     5      -8.622  11.179  67.357  1.00  0.00    -0.137 A  
HETATM    8  C   UNL     5     -10.310  12.029  65.882  1.00  0.00    -0.278 A  
HETATM    9  C   UNL     5      -8.350  12.524  67.795  1.00  0.00    -0.170 A  
HETATM   10  C   UNL     5     -10.226  13.284  66.467  1.00  0.00    -0.283 A  
HETATM   11  C   UNL     5      -7.275  12.844  68.660  1.00  0.00    -0.098 A  
HETATM   12  C   UNL     5      -9.188  13.585  67.360  1.00  0.00    -0.223 A  
HETATM   13  C   UNL     5      -7.012  14.160  69.053  1.00  0.00    -0.112 A  
HETATM   14  C   UNL     5      -8.941  14.902  67.810  1.00  0.00    -0.177 A  
HETATM   15  C   UNL     5      -7.848  15.188  68.629  1.00  0.00    -0.140 A  
ENDROOT
BRANCH   7  16
HETATM   16  O   UNL     5      -7.835  10.196  67.877  1.00  0.00    -0.099 OA 
HETATM   17  O   UNL     5      -6.455   8.129  67.595  1.00  0.00    -0.054 OA 
HETATM   18  O   UNL     5      -6.542   9.631  65.727  1.00  0.00    -0.075 OA 
HETATM   19  P   UNL     5      -6.472   9.602  67.254  1.00  0.00    -0.070 P  
HETATM   20  O   UNL     5      -5.257  10.387  67.682  1.00  0.00    -0.037 OA 
ENDBRANCH   7  16
BRANCH  10  21
HETATM   21  O   UNL     5     -11.254  14.166  66.243  1.00  0.00    -0.317 OA 
HETATM   22  P   UNL     5     -11.658  14.685  64.744  1.00  0.00    -0.387 P  
HETATM   23  O   UNL     5     -11.330  13.560  63.748  1.00  0.00    -0.272 OA 
HETATM   24  O   UNL     5     -10.798  15.860  64.345  1.00  0.00    -0.465 OA 
HETATM   25  O   UNL     5     -13.145  14.830  64.726  1.00  0.00    -0.313 OA 
ENDBRANCH  10  21
TORSDOF 2
ENDMDL
MODEL       44
REMARK 921   NORMALIZED FREE ENERGY PREDICTED BY IDOCK:   -4.71 KCAL/MOL
REMARK 922        TOTAL FREE ENERGY PREDICTED BY IDOCK:   -5.39 KCAL/MOL
REMARK 923 INTER-LIGAND FREE ENERGY PREDICTED BY IDOCK:   -5.45 KCAL/MOL
REMARK 924 INTRA-LIGAND FREE ENERGY PREDICTED BY IDOCK:    0.05 KCAL/MOL
REMARK 927      BINDING AFFINITY PREDICTED BY RF-SCORE:    0.00 PKD
ROOT
HETATM    1 NA   UNL     1      -9.522  11.008  70.172  1.00  0.00    -0.386 Na 
HETATM    2 NA   UNL     2      -9.087   8.190  63.607  1.00  0.00    -0.404 Na 
HETATM    3 NA   UNL     3      -7.724   8.072  72.464  1.00  0.00    -0.075 Na 
HETATM    4 NA   UNL     4      -6.860   6.506  66.767  1.00  0.00    -0.049 Na 
HETATM    5  C   UNL     5     -10.767   8.720  68.068  1.00  0.00    -0.151 C  
HETATM    6  C   UNL     5     -10.409   7.279  68.234  1.00  0.00    -0.227 A  
HETATM    7  C   UNL     5     -10.208   6.616  69.443  1.00  0.00    -0.183 A  
HETATM    8  C   UNL     5     -10.186   6.590  67.045  1.00  0.00    -0.277 A  
HETATM    9  C   UNL     5      -9.834   5.226  69.445  1.00  0.00    -0.265 A  
HETATM   10  C   UNL     5      -9.597   5.336  67.038  1.00  0.00    -0.142 A  
HETATM   11  C   UNL     5      -9.777   4.451  70.630  1.00  0.00    -0.283 A  
HETATM   12  C   UNL     5      -9.497   4.589  68.221  1.00  0.00    -0.205 A  
HETATM   13  C   UNL     5      -9.436   3.095  70.608  1.00  0.00    -0.233 A  
HETATM   14  C   UNL     5      -9.103   3.232  68.223  1.00  0.00    -0.211 A  
HETATM   15  C   UNL     5      -9.097   2.487  69.403  1.00  0.00    -0.186 A  
ENDROOT
BRANCH   7  16
HETATM   16  O   UNL     5     -10.437   7.190  70.657  1.00  0.00    -0.207 OA 
HETATM   17  O   UNL     5     -11.907   8.473  72.221  1.00  0.00    -0.358 OA 
HETATM   18  O   UNL     5     -13.005   7.096  70.593  1.00  0.00    -0.104 OA 
HETATM   19  P   UNL     5     -11.794   7.136  71.525  1.00  0.00    -0.355 P  
HETATM   20  O   UNL     5     -11.852   5.924  72.422  1.00  0.00    -0.311 OA 
ENDBRANCH   7  16
BRANCH  10  21
HETATM   21  O   UNL     5      -9.006   4.911  65.874  1.00  0.00    -0.125 OA 
HETATM   22  P   UNL     5      -9.783   3.964  64.787  1.00  0.00    -0.192 P  
HETATM   23  O   UNL     5     -11.282   4.296  64.856  1.00  0.00    -0.296 OA 
HETATM   24  O   UNL     5      -9.658   2.510  65.173  1.00  0.00    -0.073 OA 
HETATM   25  O   UNL     5      -9.326   4.400  63.433  1.00  0.00    -0.147 OA 
ENDBRANCH  10  21
TORSDOF 2
ENDMDL
MODEL       45
REMARK 921   NORMALIZED FREE ENERGY PREDICTED BY IDOCK:   -4.70 KCAL/MOL
REMARK 922        TOTAL FREE ENERGY PREDICTED BY IDOCK:   -5.37 KCAL/MOL
REMARK 923 INTER-LIGAND FREE ENERGY PREDICTED BY IDOCK:   -6.10 KCAL/MOL
REMARK 924 INTRA-LIGAND FREE ENERGY PREDICTED BY IDOCK:    0.73 KCAL/MOL
REMARK 927      BINDING AFFINITY PREDICTED BY RF-SCORE:    0.00 PKD
ROOT
HETATM    1 NA   UNL     1      -7.432  14.770  71.095  1.00  0.00    -0.164 Na 
HETATM    2 NA   UNL     2      -7.385   8.237  68.172  1.00  0.00    -0.076 Na 
HETATM    3 NA   UNL     3     -11.105  16.214  69.858  1.00  0.00    -0.216 Na 
HETATM    4 NA   UNL     4     -10.973  10.446  68.318  1.00  0.00    -0.172 Na 
HETATM    5  C   UNL     5      -7.071  13.022  68.262  1.00  0.00    -0.103 C  
HETATM    6  C   UNL     5      -8.181  12.982  67.262  1.00  0.00    -0.174 A  
HETATM    7  C   UNL     5      -9.049  14.028  66.957  1.00  0.00    -0.246 A  
HETATM    8  C   UNL     5      -8.383  11.744  66.659  1.00  0.00    -0.136 A  
HETATM    9  C   UNL     5     -10.097  13.831  65.988  1.00  0.00    -0.320 A  
HETATM   10  C   UNL     5      -9.524  11.480  65.917  1.00  0.00    -0.230 A  
HETATM   11  C   UNL     5     -10.905  14.891  65.510  1.00  0.00    -0.365 A  
HETATM   12  C   UNL     5     -10.350  12.527  65.485  1.00  0.00    -0.303 A  
HETATM   13  C   UNL     5     -11.901  14.684  64.549  1.00  0.00    -0.442 A  
HETATM   14  C   UNL     5     -11.395  12.326  64.555  1.00  0.00    -0.385 A  
HETATM   15  C   UNL     5     -12.146  13.400  64.075  1.00  0.00    -0.506 A  
ENDROOT
BRANCH   7  16
HETATM   16  O   UNL     5      -8.913  15.285  67.463  1.00  0.00    -0.178 OA 
HETATM   17  O   UNL     5      -7.478  17.167  68.272  1.00  0.00    -0.200 OA 
HETATM   18  O   UNL     5      -6.540  15.744  66.584  1.00  0.00    -0.136 OA 
HETATM   19  P   UNL     5      -7.847  16.409  67.017  1.00  0.00    -0.267 P  
HETATM   20  O   UNL     5      -8.348  17.249  65.869  1.00  0.00    -0.533 OA 
ENDBRANCH   7  16
BRANCH  10  21
HETATM   21  O   UNL     5      -9.881  10.167  65.735  1.00  0.00    -0.229 OA 
HETATM   22  P   UNL     5      -9.260   8.951  66.640  1.00  0.00    -0.201 P  
HETATM   23  O   UNL     5      -8.944   9.514  68.035  1.00  0.00    -0.124 OA 
HETATM   24  O   UNL     5      -7.942   8.489  66.067  1.00  0.00    -0.101 OA 
HETATM   25  O   UNL     5     -10.359   7.958  66.836  1.00  0.00    -0.298 OA 
ENDBRANCH  10  21
TORSDOF 2
ENDMDL
MODEL       46
REMARK 921   NORMALIZED FREE ENERGY PREDICTED BY IDOCK:   -4.69 KCAL/MOL
REMARK 922        TOTAL FREE ENERGY PREDICTED BY IDOCK:   -5.36 KCAL/MOL
REMARK 923 INTER-LIGAND FREE ENERGY PREDICTED BY IDOCK:   -5.14 KCAL/MOL
REMARK 924 INTRA-LIGAND FREE ENERGY PREDICTED BY IDOCK:   -0.22 KCAL/MOL
REMARK 927      BINDING AFFINITY PREDICTED BY RF-SCORE:    0.00 PKD
ROOT
HETATM    1 NA   UNL     1      -7.870  12.848  66.147  1.00  0.00    -0.367 Na 
HETATM    2 NA   UNL     2      -6.989   5.957  64.425  1.00  0.00    -0.041 Na 
HETATM    3 NA   UNL     3      -7.228  12.779  70.231  1.00  0.00    -0.341 Na 
HETATM    4 NA   UNL     4      -5.792   7.342  68.224  1.00  0.00    -0.019 Na 
HETATM    5  C   UNL     5      -9.237   9.792  66.225  1.00  0.00    -0.207 C  
HETATM    6  C   UNL     5      -9.259   9.017  67.502  1.00  0.00    -0.152 A  
HETATM    7  C   UNL     5      -9.429   9.543  68.781  1.00  0.00    -0.147 A  
HETATM    8  C   UNL     5      -9.004   7.656  67.365  1.00  0.00    -0.130 A  
HETATM    9  C   UNL     5      -9.397   8.671  69.926  1.00  0.00    -0.160 A  
HETATM   10  C   UNL     5      -8.731   6.858  68.466  1.00  0.00    -0.125 A  
HETATM   11  C   UNL     5      -9.726   9.111  71.232  1.00  0.00    -0.351 A  
HETATM   12  C   UNL     5      -9.014   7.313  69.762  1.00  0.00    -0.142 A  
HETATM   13  C   UNL     5      -9.713   8.242  72.327  1.00  0.00    -0.362 A  
HETATM   14  C   UNL     5      -8.953   6.462  70.888  1.00  0.00    -0.144 A  
HETATM   15  C   UNL     5      -9.324   6.918  72.154  1.00  0.00    -0.147 A  
ENDROOT
BRANCH   7  16
HETATM   16  O   UNL     5      -9.721  10.853  69.017  1.00  0.00    -0.202 OA 
HETATM   17  O   UNL     5     -10.994  12.936  68.473  1.00  0.00    -0.239 OA 
HETATM   18  O   UNL     5     -12.090  10.852  68.017  1.00  0.00    -0.563 OA 
HETATM   19  P   UNL     5     -11.178  11.543  69.031  1.00  0.00    -0.307 P  
HETATM   20  O   UNL     5     -11.836  11.462  70.386  1.00  0.00    -0.336 OA 
ENDBRANCH   7  16
BRANCH  10  21
HETATM   21  O   UNL     5      -8.066   5.676  68.254  1.00  0.00    -0.102 OA 
HETATM   22  P   UNL     5      -8.837   4.297  67.823  1.00  0.00    -0.125 P  
HETATM   23  O   UNL     5     -10.076   4.684  67.000  1.00  0.00    -0.203 OA 
HETATM   24  O   UNL     5      -9.355   3.581  69.048  1.00  0.00    -0.151 OA 
HETATM   25  O   UNL     5      -7.928   3.572  66.884  1.00  0.00    -0.080 OA 
ENDBRANCH  10  21
TORSDOF 2
ENDMDL
MODEL       47
REMARK 921   NORMALIZED FREE ENERGY PREDICTED BY IDOCK:   -4.67 KCAL/MOL
REMARK 922        TOTAL FREE ENERGY PREDICTED BY IDOCK:   -5.34 KCAL/MOL
REMARK 923 INTER-LIGAND FREE ENERGY PREDICTED BY IDOCK:   -6.51 KCAL/MOL
REMARK 924 INTRA-LIGAND FREE ENERGY PREDICTED BY IDOCK:    1.17 KCAL/MOL
REMARK 927      BINDING AFFINITY PREDICTED BY RF-SCORE:    0.00 PKD
ROOT
HETATM    1 NA   UNL     1     -11.604  14.416  63.074  1.00  0.00    -0.430 Na 
HETATM    2 NA   UNL     2      -5.911  10.102  62.615  1.00  0.00    -0.087 Na 
HETATM    3 NA   UNL     3     -11.812  15.097  67.148  1.00  0.00    -0.338 Na 
HETATM    4 NA   UNL     4      -6.690  12.177  66.202  1.00  0.00    -0.347 Na 
HETATM    5  C   UNL     5     -10.454  11.310  63.568  1.00  0.00    -0.457 C  
HETATM    6  C   UNL     5     -10.151  10.836  64.952  1.00  0.00    -0.387 A  
HETATM    7  C   UNL     5     -10.856  11.169  66.107  1.00  0.00    -0.185 A  
HETATM    8  C   UNL     5      -9.005  10.056  65.067  1.00  0.00    -0.234 A  
HETATM    9  C   UNL     5     -10.426  10.659  67.382  1.00  0.00    -0.280 A  
HETATM   10  C   UNL     5      -8.451   9.764  66.304  1.00  0.00    -0.123 A  
HETATM   11  C   UNL     5     -11.186  10.820  68.567  1.00  0.00    -0.340 A  
HETATM   12  C   UNL     5      -9.188   9.969  67.480  1.00  0.00    -0.151 A  
HETATM   13  C   UNL     5     -10.764  10.294  69.792  1.00  0.00    -0.328 A  
HETATM   14  C   UNL     5      -8.749   9.491  68.735  1.00  0.00    -0.128 A  
HETATM   15  C   UNL     5      -9.543   9.632  69.874  1.00  0.00    -0.260 A  
ENDROOT
BRANCH   7  16
HETATM   16  O   UNL     5     -12.009  11.895  66.096  1.00  0.00    -0.537 OA 
HETATM   17  O   UNL     5     -13.206  14.090  66.163  1.00  0.00    -0.124 OA 
HETATM   18  O   UNL     5     -11.019  14.083  65.178  1.00  0.00    -0.319 OA 
HETATM   19  P   UNL     5     -12.300  13.256  65.284  1.00  0.00    -0.478 P  
HETATM   20  O   UNL     5     -12.806  12.993  63.887  1.00  0.00    -0.664 OA 
ENDBRANCH   7  16
BRANCH  10  21
HETATM   21  O   UNL     5      -7.129   9.396  66.345  1.00  0.00    -0.086 OA 
HETATM   22  P   UNL     5      -6.635   7.859  66.070  1.00  0.00    -0.050 P  
HETATM   23  O   UNL     5      -7.622   7.213  65.085  1.00  0.00    -0.088 OA 
HETATM   24  O   UNL     5      -6.718   7.046  67.340  1.00  0.00    -0.062 OA 
HETATM   25  O   UNL     5      -5.331   7.950  65.347  1.00  0.00    -0.028 OA 
ENDBRANCH  10  21
TORSDOF 2
ENDMDL
MODEL       48
REMARK 921   NORMALIZED FREE ENERGY PREDICTED BY IDOCK:   -4.61 KCAL/MOL
REMARK 922        TOTAL FREE ENERGY PREDICTED BY IDOCK:   -5.27 KCAL/MOL
REMARK 923 INTER-LIGAND FREE ENERGY PREDICTED BY IDOCK:   -6.72 KCAL/MOL
REMARK 924 INTRA-LIGAND FREE ENERGY PREDICTED BY IDOCK:    1.45 KCAL/MOL
REMARK 927      BINDING AFFINITY PREDICTED BY RF-SCORE:    0.00 PKD
ROOT
HETATM    1 NA   UNL     1     -13.015  14.817  66.332  1.00  0.00    -0.393 Na 
HETATM    2 NA   UNL     2     -14.391   9.222  70.579  1.00  0.00    -0.598 Na 
HETATM    3 NA   UNL     3      -9.650  13.523  64.307  1.00  0.00    -0.557 Na 
HETATM    4 NA   UNL     4     -11.644   8.824  67.405  1.00  0.00    -0.478 Na 
HETATM    5  C   UNL     5     -12.093  13.161  69.093  1.00  0.00    -0.261 C  
HETATM    6  C   UNL     5     -10.882  12.287  69.070  1.00  0.00    -0.197 A  
HETATM    7  C   UNL     5      -9.708  12.528  68.361  1.00  0.00    -0.189 A  
HETATM    8  C   UNL     5     -11.009  11.092  69.772  1.00  0.00    -0.258 A  
HETATM    9  C   UNL     5      -8.630  11.574  68.410  1.00  0.00    -0.159 A  
HETATM   10  C   UNL     5     -10.083  10.069  69.629  1.00  0.00    -0.236 A  
HETATM   11  C   UNL     5      -7.354  11.832  67.852  1.00  0.00    -0.098 A  
HETATM   12  C   UNL     5      -8.838  10.315  69.033  1.00  0.00    -0.170 A  
HETATM   13  C   UNL     5      -6.312  10.903  67.933  1.00  0.00    -0.057 A  
HETATM   14  C   UNL     5      -7.791   9.365  69.059  1.00  0.00    -0.079 A  
HETATM   15  C   UNL     5      -6.534   9.668  68.535  1.00  0.00    -0.051 A  
ENDROOT
BRANCH   7  16
HETATM   16  O   UNL     5      -9.472  13.682  67.675  1.00  0.00    -0.208 OA 
HETATM   17  O   UNL     5      -9.614  15.044  65.582  1.00  0.00    -0.333 OA 
HETATM   18  O   UNL     5     -11.352  13.430  65.940  1.00  0.00    -0.303 OA 
HETATM   19  P   UNL     5     -10.476  14.446  66.672  1.00  0.00    -0.284 P  
HETATM   20  O   UNL     5     -11.381  15.413  67.394  1.00  0.00    -0.319 OA 
ENDBRANCH   7  16
BRANCH  10  21
HETATM   21  O   UNL     5     -10.474   8.798  69.970  1.00  0.00    -0.202 OA 
HETATM   22  P   UNL     5     -11.337   8.475  71.323  1.00  0.00    -0.305 P  
HETATM   23  O   UNL     5     -12.219   9.698  71.625  1.00  0.00    -0.360 OA 
HETATM   24  O   UNL     5     -10.416   8.320  72.509  1.00  0.00    -0.311 OA 
HETATM   25  O   UNL     5     -12.276   7.365  70.979  1.00  0.00    -0.315 OA 
ENDBRANCH  10  21
TORSDOF 2
ENDMDL
MODEL       49
REMARK 921   NORMALIZED FREE ENERGY PREDICTED BY IDOCK:   -4.60 KCAL/MOL
REMARK 922        TOTAL FREE ENERGY PREDICTED BY IDOCK:   -5.26 KCAL/MOL
REMARK 923 INTER-LIGAND FREE ENERGY PREDICTED BY IDOCK:   -7.29 KCAL/MOL
REMARK 924 INTRA-LIGAND FREE ENERGY PREDICTED BY IDOCK:    2.04 KCAL/MOL
REMARK 927      BINDING AFFINITY PREDICTED BY RF-SCORE:    0.00 PKD
ROOT
HETATM    1 NA   UNL     1      -9.068  14.221  64.798  1.00  0.00    -0.440 Na 
HETATM    2 NA   UNL     2      -9.473   7.713  67.748  1.00  0.00    -0.135 Na 
HETATM    3 NA   UNL     3      -9.306  16.665  68.125  1.00  0.00    -0.197 Na 
HETATM    4 NA   UNL     4      -8.787  11.085  70.185  1.00  0.00    -0.361 Na 
HETATM    5  C   UNL     5     -11.091  11.958  66.212  1.00  0.00    -0.364 C  
HETATM    6  C   UNL     5     -11.552  12.145  67.620  1.00  0.00    -0.413 A  
HETATM    7  C   UNL     5     -11.852  13.360  68.233  1.00  0.00    -0.358 A  
HETATM    8  C   UNL     5     -11.595  10.981  68.382  1.00  0.00    -0.372 A  
HETATM    9  C   UNL     5     -12.256  13.386  69.615  1.00  0.00    -0.279 A  
HETATM   10  C   UNL     5     -11.745  11.024  69.759  1.00  0.00    -0.335 A  
HETATM   11  C   UNL     5     -12.733  14.560  70.249  1.00  0.00    -0.325 A  
HETATM   12  C   UNL     5     -12.172  12.201  70.392  1.00  0.00    -0.378 A  
HETATM   13  C   UNL     5     -13.145  14.559  71.586  1.00  0.00    -0.416 A  
HETATM   14  C   UNL     5     -12.541  12.230  71.756  1.00  0.00    -0.132 A  
HETATM   15  C   UNL     5     -13.046  13.394  72.338  1.00  0.00    -0.469 A  
ENDROOT
BRANCH   7  16
HETATM   16  O   UNL     5     -11.875  14.548  67.565  1.00  0.00    -0.378 OA 
HETATM   17  O   UNL     5     -10.723  16.607  66.738  1.00  0.00    -0.253 OA 
HETATM   18  O   UNL     5      -9.382  14.628  66.940  1.00  0.00    -0.220 OA 
HETATM   19  P   UNL     5     -10.775  15.110  66.531  1.00  0.00    -0.309 P  
HETATM   20  O   UNL     5     -11.032  14.653  65.117  1.00  0.00    -0.339 OA 
ENDBRANCH   7  16
BRANCH  10  21
HETATM   21  O   UNL     5     -11.342   9.930  70.484  1.00  0.00    -0.278 OA 
HETATM   22  P   UNL     5     -10.353   8.781  69.866  1.00  0.00    -0.215 P  
HETATM   23  O   UNL     5      -9.427   9.455  68.840  1.00  0.00    -0.150 OA 
HETATM   24  O   UNL     5     -11.153   7.757  69.097  1.00  0.00    -0.028 OA 
HETATM   25  O   UNL     5      -9.470   8.328  70.983  1.00  0.00    -0.151 OA 
ENDBRANCH  10  21
TORSDOF 2
ENDMDL
MODEL       50
REMARK 921   NORMALIZED FREE ENERGY PREDICTED BY IDOCK:   -4.58 KCAL/MOL
REMARK 922        TOTAL FREE ENERGY PREDICTED BY IDOCK:   -5.24 KCAL/MOL
REMARK 923 INTER-LIGAND FREE ENERGY PREDICTED BY IDOCK:   -5.15 KCAL/MOL
REMARK 924 INTRA-LIGAND FREE ENERGY PREDICTED BY IDOCK:   -0.09 KCAL/MOL
REMARK 927      BINDING AFFINITY PREDICTED BY RF-SCORE:    0.00 PKD
ROOT
HETATM    1 NA   UNL     1      -5.527   7.902  69.181  1.00  0.00    -0.021 Na 
HETATM    2 NA   UNL     2      -7.173  14.586  71.140  1.00  0.00    -0.329 Na 
HETATM    3 NA   UNL     3      -6.012   8.089  65.078  1.00  0.00    -0.039 Na 
HETATM    4 NA   UNL     4      -6.500  13.695  67.074  1.00  0.00    -0.170 Na 
HETATM    5  C   UNL     5      -8.006  10.101  69.658  1.00  0.00    -0.181 C  
HETATM    6  C   UNL     5      -8.665  10.751  68.485  1.00  0.00    -0.149 A  
HETATM    7  C   UNL     5      -8.915  10.157  67.250  1.00  0.00    -0.135 A  
HETATM    8  C   UNL     5      -8.969  12.098  68.656  1.00  0.00    -0.004 A  
HETATM    9  C   UNL     5      -9.532  10.922  66.198  1.00  0.00    -0.230 A  
HETATM   10  C   UNL     5      -9.335  12.897  67.583  1.00  0.00    -0.195 A  
HETATM   11  C   UNL     5      -9.964  10.338  64.981  1.00  0.00    -0.393 A  
HETATM   12  C   UNL     5      -9.717  12.320  66.364  1.00  0.00    -0.243 A  
HETATM   13  C   UNL     5     -10.586  11.094  63.981  1.00  0.00    -0.436 A  
HETATM   14  C   UNL     5     -10.297  13.078  65.322  1.00  0.00    -0.318 A  
HETATM   15  C   UNL     5     -10.749  12.465  64.152  1.00  0.00    -0.414 A  
ENDROOT
BRANCH   7  16
HETATM   16  O   UNL     5      -8.689   8.837  66.995  1.00  0.00    -0.121 OA 
HETATM   17  O   UNL     5      -8.584   6.456  67.754  1.00  0.00    -0.117 OA 
HETATM   18  O   UNL     5     -10.157   7.878  68.876  1.00  0.00    -0.186 OA 
HETATM   19  P   UNL     5      -9.563   7.580  67.499  1.00  0.00    -0.159 P  
HETATM   20  O   UNL     5     -10.697   7.259  66.558  1.00  0.00    -0.128 OA 
ENDBRANCH   7  16
BRANCH  10  21
HETATM   21  O   UNL     5      -9.187  14.255  67.715  1.00  0.00    -0.184 OA 
HETATM   22  P   UNL     5     -10.270  15.184  68.520  1.00  0.00    -0.244 P  
HETATM   23  O   UNL     5     -10.892  14.328  69.635  1.00  0.00    -0.184 OA 
HETATM   24  O   UNL     5     -11.408  15.574  67.607  1.00  0.00    -0.324 OA 
HETATM   25  O   UNL     5      -9.488  16.255  69.209  1.00  0.00    -0.242 OA 
ENDBRANCH  10  21
TORSDOF 2
ENDMDL
MODEL       51
REMARK 921   NORMALIZED FREE ENERGY PREDICTED BY IDOCK:   -4.57 KCAL/MOL
REMARK 922        TOTAL FREE ENERGY PREDICTED BY IDOCK:   -5.24 KCAL/MOL
REMARK 923 INTER-LIGAND FREE ENERGY PREDICTED BY IDOCK:   -5.06 KCAL/MOL
REMARK 924 INTRA-LIGAND FREE ENERGY PREDICTED BY IDOCK:   -0.18 KCAL/MOL
REMARK 927      BINDING AFFINITY PREDICTED BY RF-SCORE:    0.00 PKD
ROOT
HETATM    1 NA   UNL     1     -13.646  14.318  66.227  1.00  0.00    -0.532 Na 
HETATM    2 NA   UNL     2     -11.704   7.896  68.722  1.00  0.00    -0.405 Na 
HETATM    3 NA   UNL     3     -10.190  15.556  64.323  1.00  0.00    -0.424 Na 
HETATM    4 NA   UNL     4      -9.292   9.860  65.875  1.00  0.00    -0.139 Na 
HETATM    5  C   UNL     5     -11.877  12.686  68.556  1.00  0.00    -0.342 C  
HETATM    6  C   UNL     5     -10.390  12.606  68.444  1.00  0.00    -0.241 A  
HETATM    7  C   UNL     5      -9.547  13.601  67.954  1.00  0.00    -0.223 A  
HETATM    8  C   UNL     5      -9.842  11.377  68.798  1.00  0.00    -0.175 A  
HETATM    9  C   UNL     5      -8.129  13.367  67.877  1.00  0.00    -0.162 A  
HETATM   10  C   UNL     5      -8.524  11.062  68.502  1.00  0.00    -0.153 A  
HETATM   11  C   UNL     5      -7.202  14.387  67.547  1.00  0.00    -0.202 A  
HETATM   12  C   UNL     5      -7.619  12.065  68.130  1.00  0.00    -0.120 A  
HETATM   13  C   UNL     5      -5.825  14.145  67.503  1.00  0.00     0.107 A  
HETATM   14  C   UNL     5      -6.230  11.825  68.027  1.00  0.00    -0.052 A  
HETATM   15  C   UNL     5      -5.341  12.863  67.741  1.00  0.00    -0.114 A  
ENDROOT
BRANCH   7  16
HETATM   16  O   UNL     5      -9.981  14.848  67.618  1.00  0.00    -0.224 OA 
HETATM   17  O   UNL     5     -11.410  16.853  68.057  1.00  0.00    -0.190 OA 
HETATM   18  O   UNL     5     -10.687  15.603  69.972  1.00  0.00    -0.289 OA 
HETATM   19  P   UNL     5     -10.218  16.100  68.604  1.00  0.00    -0.275 P  
HETATM   20  O   UNL     5      -8.966  16.916  68.806  1.00  0.00    -0.260 OA 
ENDBRANCH   7  16
BRANCH  10  21
HETATM   21  O   UNL     5      -8.176   9.734  68.460  1.00  0.00    -0.103 OA 
HETATM   22  P   UNL     5      -7.608   8.932  69.770  1.00  0.00    -0.080 P  
HETATM   23  O   UNL     5      -8.241   9.561  71.022  1.00  0.00    -0.301 OA 
HETATM   24  O   UNL     5      -6.118   9.138  69.907  1.00  0.00    -0.037 OA 
HETATM   25  O   UNL     5      -8.148   7.541  69.690  1.00  0.00    -0.122 OA 
ENDBRANCH  10  21
TORSDOF 2
ENDMDL
MODEL       52
REMARK 921   NORMALIZED FREE ENERGY PREDICTED BY IDOCK:   -4.57 KCAL/MOL
REMARK 922        TOTAL FREE ENERGY PREDICTED BY IDOCK:   -5.23 KCAL/MOL
REMARK 923 INTER-LIGAND FREE ENERGY PREDICTED BY IDOCK:   -6.73 KCAL/MOL
REMARK 924 INTRA-LIGAND FREE ENERGY PREDICTED BY IDOCK:    1.50 KCAL/MOL
REMARK 927      BINDING AFFINITY PREDICTED BY RF-SCORE:    0.00 PKD
ROOT
HETATM    1 NA   UNL     1     -10.174  20.407  67.160  1.00  0.00    -0.345 Na 
HETATM    2 NA   UNL     2     -13.847  14.540  65.339  1.00  0.00    -0.735 Na 
HETATM    3 NA   UNL     3      -6.288  19.248  66.346  1.00  0.00    -0.175 Na 
HETATM    4 NA   UNL     4      -9.804  14.923  64.204  1.00  0.00    -0.302 Na 
HETATM    5  C   UNL     5     -11.005  17.289  68.054  1.00  0.00    -0.194 C  
HETATM    6  C   UNL     5     -10.014  16.181  67.908  1.00  0.00    -0.239 A  
HETATM    7  C   UNL     5      -8.638  16.278  68.101  1.00  0.00    -0.183 A  
HETATM    8  C   UNL     5     -10.545  14.975  67.459  1.00  0.00    -0.265 A  
HETATM    9  C   UNL     5      -7.800  15.126  67.892  1.00  0.00    -0.144 A  
HETATM   10  C   UNL     5      -9.727  13.943  67.026  1.00  0.00    -0.250 A  
HETATM   11  C   UNL     5      -6.424  15.110  68.228  1.00  0.00    -0.117 A  
HETATM   12  C   UNL     5      -8.356  13.951  67.319  1.00  0.00    -0.199 A  
HETATM   13  C   UNL     5      -5.633  13.971  68.041  1.00  0.00    -0.124 A  
HETATM   14  C   UNL     5      -7.530  12.828  67.086  1.00  0.00    -0.037 A  
HETATM   15  C   UNL     5      -6.188  12.831  67.468  1.00  0.00    -0.159 A  
ENDROOT
BRANCH   7  16
HETATM   16  O   UNL     5      -8.027  17.401  68.574  1.00  0.00    -0.249 OA 
HETATM   17  O   UNL     5      -6.943  19.622  68.188  1.00  0.00    -0.265 OA 
HETATM   18  O   UNL     5      -8.636  18.960  66.622  1.00  0.00    -0.286 OA 
HETATM   19  P   UNL     5      -8.282  18.923  68.109  1.00  0.00    -0.333 P  
HETATM   20  O   UNL     5      -9.406  19.575  68.875  1.00  0.00    -0.380 OA 
ENDBRANCH   7  16
BRANCH  10  21
HETATM   21  O   UNL     5     -10.276  12.992  66.202  1.00  0.00    -0.272 OA 
HETATM   22  P   UNL     5     -11.785  12.397  66.427  1.00  0.00    -0.280 P  
HETATM   23  O   UNL     5     -12.641  13.505  67.062  1.00  0.00    -0.161 OA 
HETATM   24  O   UNL     5     -11.760  11.264  67.425  1.00  0.00    -0.580 OA 
HETATM   25  O   UNL     5     -12.360  12.159  65.069  1.00  0.00    -0.454 OA 
ENDBRANCH  10  21
TORSDOF 2
ENDMDL
MODEL       53
REMARK 921   NORMALIZED FREE ENERGY PREDICTED BY IDOCK:   -4.51 KCAL/MOL
REMARK 922        TOTAL FREE ENERGY PREDICTED BY IDOCK:   -5.16 KCAL/MOL
REMARK 923 INTER-LIGAND FREE ENERGY PREDICTED BY IDOCK:   -7.31 KCAL/MOL
REMARK 924 INTRA-LIGAND FREE ENERGY PREDICTED BY IDOCK:    2.15 KCAL/MOL
REMARK 927      BINDING AFFINITY PREDICTED BY RF-SCORE:    0.00 PKD
ROOT
HETATM    1 NA   UNL     1      -9.881  20.894  65.191  1.00  0.00    -0.650 Na 
HETATM    2 NA   UNL     2     -12.763  14.425  66.226  1.00  0.00    -0.403 Na 
HETATM    3 NA   UNL     3      -5.860  20.122  65.776  1.00  0.00    -0.165 Na 
HETATM    4 NA   UNL     4      -8.592  14.813  65.744  1.00  0.00    -0.428 Na 
HETATM    5  C   UNL     5     -10.739  18.592  67.467  1.00  0.00    -0.447 C  
HETATM    6  C   UNL     5      -9.688  17.742  68.103  1.00  0.00    -0.313 A  
HETATM    7  C   UNL     5      -8.397  18.144  68.436  1.00  0.00    -0.299 A  
HETATM    8  C   UNL     5     -10.046  16.411  68.290  1.00  0.00    -0.248 A  
HETATM    9  C   UNL     5      -7.479  17.200  69.018  1.00  0.00    -0.203 A  
HETATM   10  C   UNL     5      -9.103  15.449  68.619  1.00  0.00    -0.195 A  
HETATM   11  C   UNL     5      -6.214  17.580  69.531  1.00  0.00    -0.246 A  
HETATM   12  C   UNL     5      -7.834  15.826  69.082  1.00  0.00    -0.227 A  
HETATM   13  C   UNL     5      -5.347  16.651  70.116  1.00  0.00    -0.199 A  
HETATM   14  C   UNL     5      -6.924  14.892  69.627  1.00  0.00    -0.184 A  
HETATM   15  C   UNL     5      -5.703  15.307  70.161  1.00  0.00    -0.135 A  
ENDROOT
BRANCH   7  16
HETATM   16  O   UNL     5      -7.963  19.431  68.326  1.00  0.00    -0.307 OA 
HETATM   17  O   UNL     5      -6.895  21.268  67.006  1.00  0.00    -0.450 OA 
HETATM   18  O   UNL     5      -8.121  19.620  65.767  1.00  0.00    -0.402 OA 
HETATM   19  P   UNL     5      -8.147  20.421  67.068  1.00  0.00    -0.204 P  
HETATM   20  O   UNL     5      -9.449  21.182  67.124  1.00  0.00    -0.256 OA 
ENDBRANCH   7  16
BRANCH  10  21
HETATM   21  O   UNL     5      -9.406  14.136  68.357  1.00  0.00    -0.202 OA 
HETATM   22  P   UNL     5     -10.580  13.698  67.302  1.00  0.00    -0.269 P  
HETATM   23  O   UNL     5     -10.665  14.779  66.213  1.00  0.00    -0.299 OA 
HETATM   24  O   UNL     5     -11.925  13.688  67.988  1.00  0.00    -0.360 OA 
HETATM   25  O   UNL     5     -10.101  12.459  66.618  1.00  0.00    -0.216 OA 
ENDBRANCH  10  21
TORSDOF 2
ENDMDL
MODEL       54
REMARK 921   NORMALIZED FREE ENERGY PREDICTED BY IDOCK:   -4.46 KCAL/MOL
REMARK 922        TOTAL FREE ENERGY PREDICTED BY IDOCK:   -5.11 KCAL/MOL
REMARK 923 INTER-LIGAND FREE ENERGY PREDICTED BY IDOCK:   -6.29 KCAL/MOL
REMARK 924 INTRA-LIGAND FREE ENERGY PREDICTED BY IDOCK:    1.18 KCAL/MOL
REMARK 927      BINDING AFFINITY PREDICTED BY RF-SCORE:    0.00 PKD
ROOT
HETATM    1 NA   UNL     1     -11.442  17.319  66.606  1.00  0.00    -0.037 Na 
HETATM    2 NA   UNL     2      -7.130  14.341  71.482  1.00  0.00    -0.370 Na 
HETATM    3 NA   UNL     3     -13.560  14.038  65.246  1.00  0.00    -0.698 Na 
HETATM    4 NA   UNL     4     -10.383  12.148  69.935  1.00  0.00    -0.420 Na 
HETATM    5  C   UNL     5      -8.702  15.455  67.090  1.00  0.00    -0.243 C  
HETATM    6  C   UNL     5      -8.757  13.978  66.877  1.00  0.00    -0.185 A  
HETATM    7  C   UNL     5      -9.502  13.314  65.905  1.00  0.00    -0.026 A  
HETATM    8  C   UNL     5      -8.046  13.225  67.807  1.00  0.00    -0.166 A  
HETATM    9  C   UNL     5      -9.480  11.876  65.841  1.00  0.00    -0.227 A  
HETATM   10  C   UNL     5      -8.212  11.852  67.903  1.00  0.00    -0.150 A  
HETATM   11  C   UNL     5     -10.078  11.148  64.782  1.00  0.00    -0.351 A  
HETATM   12  C   UNL     5      -8.846  11.138  66.875  1.00  0.00    -0.157 A  
HETATM   13  C   UNL     5     -10.023   9.752  64.724  1.00  0.00     0.014 A  
HETATM   14  C   UNL     5      -8.847   9.726  66.830  1.00  0.00    -0.150 A  
HETATM   15  C   UNL     5      -9.409   9.042  65.751  1.00  0.00    -0.302 A  
ENDROOT
BRANCH   7  16
HETATM   16  O   UNL     5     -10.200  13.959  64.928  1.00  0.00    -0.395 OA 
HETATM   17  O   UNL     5     -12.294  15.046  64.098  1.00  0.00    -0.659 OA 
HETATM   18  O   UNL     5     -11.877  15.168  66.457  1.00  0.00    -0.135 OA 
HETATM   19  P   UNL     5     -11.176  15.230  65.100  1.00  0.00    -0.303 P  
HETATM   20  O   UNL     5     -10.431  16.539  65.016  1.00  0.00    -0.652 OA 
ENDBRANCH   7  16
BRANCH  10  21
HETATM   21  O   UNL     5      -7.854  11.242  69.080  1.00  0.00    -0.135 OA 
HETATM   22  P   UNL     5      -6.300  10.877  69.445  1.00  0.00    -0.097 P  
HETATM   23  O   UNL     5      -5.397  11.922  68.770  1.00  0.00    -0.050 OA 
HETATM   24  O   UNL     5      -5.919   9.545  68.844  1.00  0.00    -0.042 OA 
HETATM   25  O   UNL     5      -6.144  11.085  70.916  1.00  0.00    -0.353 OA 
ENDBRANCH  10  21
TORSDOF 2
ENDMDL
MODEL       55
REMARK 921   NORMALIZED FREE ENERGY PREDICTED BY IDOCK:   -4.46 KCAL/MOL
REMARK 922        TOTAL FREE ENERGY PREDICTED BY IDOCK:   -5.11 KCAL/MOL
REMARK 923 INTER-LIGAND FREE ENERGY PREDICTED BY IDOCK:   -4.89 KCAL/MOL
REMARK 924 INTRA-LIGAND FREE ENERGY PREDICTED BY IDOCK:   -0.21 KCAL/MOL
REMARK 927      BINDING AFFINITY PREDICTED BY RF-SCORE:    0.00 PKD
ROOT
HETATM    1 NA   UNL     1      -9.920   3.487  70.987  1.00  0.00    -0.140 Na 
HETATM    2 NA   UNL     2     -12.675   9.955  72.332  1.00  0.00    -0.344 Na 
HETATM    3 NA   UNL     3      -6.209   4.462  69.444  1.00  0.00    -0.020 Na 
HETATM    4 NA   UNL     4      -8.565   9.560  71.473  1.00  0.00    -0.174 Na 
HETATM    5  C   UNL     5     -11.292   6.231  69.644  1.00  0.00    -0.492 C  
HETATM    6  C   UNL     5     -10.432   7.228  68.939  1.00  0.00    -0.216 A  
HETATM    7  C   UNL     5      -9.312   6.942  68.161  1.00  0.00    -0.124 A  
HETATM    8  C   UNL     5     -10.766   8.559  69.171  1.00  0.00    -0.128 A  
HETATM    9  C   UNL     5      -8.559   8.015  67.566  1.00  0.00    -0.126 A  
HETATM   10  C   UNL     5      -9.915   9.591  68.807  1.00  0.00    -0.174 A  
HETATM   11  C   UNL     5      -7.515   7.792  66.634  1.00  0.00    -0.089 A  
HETATM   12  C   UNL     5      -8.853   9.359  67.921  1.00  0.00    -0.124 A  
HETATM   13  C   UNL     5      -6.813   8.849  66.047  1.00  0.00    -0.076 A  
HETATM   14  C   UNL     5      -8.097  10.413  67.360  1.00  0.00    -0.107 A  
HETATM   15  C   UNL     5      -7.104  10.159  66.413  1.00  0.00    -0.107 A  
ENDROOT
BRANCH   7  16
HETATM   16  O   UNL     5      -8.925   5.674  67.845  1.00  0.00    -0.110 OA 
HETATM   17  O   UNL     5      -9.470   3.347  67.109  1.00  0.00    -0.201 OA 
HETATM   18  O   UNL     5     -10.901   5.096  66.305  1.00  0.00    -0.296 OA 
HETATM   19  P   UNL     5      -9.438   4.775  66.610  1.00  0.00    -0.192 P  
HETATM   20  O   UNL     5      -8.634   5.011  65.356  1.00  0.00    -0.131 OA 
ENDBRANCH   7  16
BRANCH  10  21
HETATM   21  O   UNL     5     -10.068  10.801  69.436  1.00  0.00    -0.212 OA 
HETATM   22  P   UNL     5     -11.179  11.906  68.962  1.00  0.00    -0.264 P  
HETATM   23  O   UNL     5     -12.379  11.147  68.370  1.00  0.00    -0.556 OA 
HETATM   24  O   UNL     5     -10.629  12.757  67.843  1.00  0.00    -0.212 OA 
HETATM   25  O   UNL     5     -11.683  12.569  70.203  1.00  0.00    -0.280 OA 
ENDBRANCH  10  21
TORSDOF 2
ENDMDL
MODEL       56
REMARK 921   NORMALIZED FREE ENERGY PREDICTED BY IDOCK:   -4.44 KCAL/MOL
REMARK 922        TOTAL FREE ENERGY PREDICTED BY IDOCK:   -5.09 KCAL/MOL
REMARK 923 INTER-LIGAND FREE ENERGY PREDICTED BY IDOCK:   -6.30 KCAL/MOL
REMARK 924 INTRA-LIGAND FREE ENERGY PREDICTED BY IDOCK:    1.21 KCAL/MOL
REMARK 927      BINDING AFFINITY PREDICTED BY RF-SCORE:    0.00 PKD
ROOT
HETATM    1 NA   UNL     1     -10.802   6.667  72.157  1.00  0.00    -0.206 Na 
HETATM    2 NA   UNL     2      -7.070   5.314  66.201  1.00  0.00    -0.057 Na 
HETATM    3 NA   UNL     3     -13.912   8.966  70.691  1.00  0.00    -0.543 Na 
HETATM    4 NA   UNL     4     -10.961   6.915  65.923  1.00  0.00    -0.439 Na 
HETATM    5  C   UNL     5      -8.690   7.925  69.883  1.00  0.00    -0.140 C  
HETATM    6  C   UNL     5      -9.194   8.857  68.830  1.00  0.00    -0.140 A  
HETATM    7  C   UNL     5     -10.196   9.812  68.989  1.00  0.00    -0.203 A  
HETATM    8  C   UNL     5      -8.643   8.667  67.567  1.00  0.00    -0.135 A  
HETATM    9  C   UNL     5     -10.601  10.621  67.869  1.00  0.00    -0.266 A  
HETATM   10  C   UNL     5      -9.190   9.266  66.442  1.00  0.00    -0.180 A  
HETATM   11  C   UNL     5     -11.490  11.717  67.998  1.00  0.00    -0.388 A  
HETATM   12  C   UNL     5     -10.106  10.320  66.572  1.00  0.00    -0.290 A  
HETATM   13  C   UNL     5     -11.850  12.507  66.902  1.00  0.00    -0.404 A  
HETATM   14  C   UNL     5     -10.524  11.094  65.466  1.00  0.00    -0.317 A  
HETATM   15  C   UNL     5     -11.368  12.192  65.636  1.00  0.00    -0.395 A  
ENDROOT
BRANCH   7  16
HETATM   16  O   UNL     5     -10.771  10.100  70.191  1.00  0.00    -0.273 OA 
HETATM   17  O   UNL     5     -12.520   9.677  71.928  1.00  0.00    -0.376 OA 
HETATM   18  O   UNL     5     -11.825   7.793  70.616  1.00  0.00    -0.239 OA 
HETATM   19  P   UNL     5     -11.294   9.053  71.299  1.00  0.00    -0.379 P  
HETATM   20  O   UNL     5     -10.204   8.643  72.258  1.00  0.00    -0.320 OA 
ENDBRANCH   7  16
BRANCH  10  21
HETATM   21  O   UNL     5      -8.907   8.713  65.218  1.00  0.00    -0.187 OA 
HETATM   22  P   UNL     5      -7.593   9.143  64.340  1.00  0.00    -0.128 P  
HETATM   23  O   UNL     5      -6.480   9.546  65.321  1.00  0.00    -0.072 OA 
HETATM   24  O   UNL     5      -7.892  10.374  63.518  1.00  0.00    -0.149 OA 
HETATM   25  O   UNL     5      -7.111   7.907  63.654  1.00  0.00    -0.072 OA 
ENDBRANCH  10  21
TORSDOF 2
ENDMDL
MODEL       57
REMARK 921   NORMALIZED FREE ENERGY PREDICTED BY IDOCK:   -4.43 KCAL/MOL
REMARK 922        TOTAL FREE ENERGY PREDICTED BY IDOCK:   -5.07 KCAL/MOL
REMARK 923 INTER-LIGAND FREE ENERGY PREDICTED BY IDOCK:   -4.86 KCAL/MOL
REMARK 924 INTRA-LIGAND FREE ENERGY PREDICTED BY IDOCK:   -0.22 KCAL/MOL
REMARK 927      BINDING AFFINITY PREDICTED BY RF-SCORE:    0.00 PKD
ROOT
HETATM    1 NA   UNL     1      -9.162   5.773  63.797  1.00  0.00    -0.345 Na 
HETATM    2 NA   UNL     2     -11.531  10.499  68.622  1.00  0.00    -0.203 Na 
HETATM    3 NA   UNL     3     -10.251   2.183  65.537  1.00  0.00    -0.349 Na 
HETATM    4 NA   UNL     4     -12.761   6.473  68.847  1.00  0.00    -0.281 Na 
HETATM    5  C   UNL     5      -8.615   7.157  66.797  1.00  0.00    -0.124 C  
HETATM    6  C   UNL     5      -8.929   6.392  68.041  1.00  0.00    -0.115 A  
HETATM    7  C   UNL     5      -8.777   5.019  68.221  1.00  0.00    -0.102 A  
HETATM    8  C   UNL     5      -9.498   7.144  69.064  1.00  0.00    -0.143 A  
HETATM    9  C   UNL     5      -9.153   4.414  69.473  1.00  0.00    -0.175 A  
HETATM   10  C   UNL     5     -10.081   6.539  70.167  1.00  0.00    -0.174 A  
HETATM   11  C   UNL     5      -8.872   3.060  69.782  1.00  0.00    -0.146 A  
HETATM   12  C   UNL     5      -9.840   5.186  70.446  1.00  0.00    -0.288 A  
HETATM   13  C   UNL     5      -9.222   2.498  71.014  1.00  0.00    -0.201 A  
HETATM   14  C   UNL     5     -10.236   4.588  71.664  1.00  0.00    -0.214 A  
HETATM   15  C   UNL     5      -9.906   3.263  71.953  1.00  0.00    -0.238 A  
ENDROOT
BRANCH   7  16
HETATM   16  O   UNL     5      -8.196   4.203  67.297  1.00  0.00    -0.099 OA 
HETATM   17  O   UNL     5      -6.441   3.765  65.571  1.00  0.00    -0.031 OA 
HETATM   18  O   UNL     5      -5.845   5.241  67.365  1.00  0.00    -0.016 OA 
HETATM   19  P   UNL     5      -6.621   3.960  67.060  1.00  0.00    -0.047 P  
HETATM   20  O   UNL     5      -6.073   2.860  67.934  1.00  0.00    -0.026 OA 
ENDBRANCH   7  16
BRANCH  10  21
HETATM   21  O   UNL     5     -10.991   7.267  70.892  1.00  0.00    -0.243 OA 
HETATM   22  P   UNL     5     -10.542   8.398  71.988  1.00  0.00    -0.357 P  
HETATM   23  O   UNL     5      -9.211   9.008  71.520  1.00  0.00    -0.251 OA 
HETATM   24  O   UNL     5     -10.259   7.752  73.323  1.00  0.00    -0.317 OA 
HETATM   25  O   UNL     5     -11.550   9.498  71.908  1.00  0.00    -0.371 OA 
ENDBRANCH  10  21
TORSDOF 2
ENDMDL
MODEL       58
REMARK 921   NORMALIZED FREE ENERGY PREDICTED BY IDOCK:   -4.42 KCAL/MOL
REMARK 922        TOTAL FREE ENERGY PREDICTED BY IDOCK:   -5.06 KCAL/MOL
REMARK 923 INTER-LIGAND FREE ENERGY PREDICTED BY IDOCK:   -5.48 KCAL/MOL
REMARK 924 INTRA-LIGAND FREE ENERGY PREDICTED BY IDOCK:    0.41 KCAL/MOL
REMARK 927      BINDING AFFINITY PREDICTED BY RF-SCORE:    0.00 PKD
ROOT
HETATM    1 NA   UNL     1      -9.552  11.046  63.958  1.00  0.00    -0.186 Na 
HETATM    2 NA   UNL     2      -5.442  16.539  66.000  1.00  0.00    -0.067 Na 
HETATM    3 NA   UNL     3     -13.285  12.268  65.252  1.00  0.00    -0.410 Na 
HETATM    4 NA   UNL     4      -9.640  16.933  66.027  1.00  0.00    -0.230 Na 
HETATM    5  C   UNL     5      -8.066  12.562  66.548  1.00  0.00     0.263 C  
HETATM    6  C   UNL     5      -8.875  13.384  67.497  1.00  0.00    -0.210 A  
HETATM    7  C   UNL     5     -10.180  13.119  67.908  1.00  0.00    -0.233 A  
HETATM    8  C   UNL     5      -8.262  14.557  67.926  1.00  0.00    -0.155 A  
HETATM    9  C   UNL     5     -10.847  14.024  68.808  1.00  0.00    -0.279 A  
HETATM   10  C   UNL     5      -8.976  15.544  68.589  1.00  0.00    -0.194 A  
HETATM   11  C   UNL     5     -12.104  13.732  69.394  1.00  0.00    -0.377 A  
HETATM   12  C   UNL     5     -10.241  15.268  69.127  1.00  0.00    -0.242 A  
HETATM   13  C   UNL     5     -12.723  14.613  70.286  1.00  0.00    -0.323 A  
HETATM   14  C   UNL     5     -10.905  16.170  69.988  1.00  0.00    -0.349 A  
HETATM   15  C   UNL     5     -12.123  15.833  70.580  1.00  0.00    -0.424 A  
ENDROOT
BRANCH   7  16
HETATM   16  O   UNL     5     -10.852  11.981  67.575  1.00  0.00    -0.224 OA 
HETATM   17  O   UNL     5     -10.910   9.505  67.226  1.00  0.00    -0.251 OA 
HETATM   18  O   UNL     5      -9.370  10.327  68.872  1.00  0.00    -0.159 OA 
HETATM   19  P   UNL     5     -10.775  10.549  68.312  1.00  0.00    -0.271 P  
HETATM   20  O   UNL     5     -11.757  10.438  69.451  1.00  0.00    -0.229 OA 
ENDBRANCH   7  16
BRANCH  10  21
HETATM   21  O   UNL     5      -8.463  16.818  68.586  1.00  0.00    -0.239 OA 
HETATM   22  P   UNL     5      -6.854  17.119  68.599  1.00  0.00    -0.217 P  
HETATM   23  O   UNL     5      -6.150  15.966  67.866  1.00  0.00    -0.112 OA 
HETATM   24  O   UNL     5      -6.327  17.099  70.014  1.00  0.00    -0.158 OA 
HETATM   25  O   UNL     5      -6.638  18.335  67.757  1.00  0.00    -0.199 OA 
ENDBRANCH  10  21
TORSDOF 2
ENDMDL
MODEL       59
REMARK 921   NORMALIZED FREE ENERGY PREDICTED BY IDOCK:   -4.41 KCAL/MOL
REMARK 922        TOTAL FREE ENERGY PREDICTED BY IDOCK:   -5.05 KCAL/MOL
REMARK 923 INTER-LIGAND FREE ENERGY PREDICTED BY IDOCK:   -6.24 KCAL/MOL
REMARK 924 INTRA-LIGAND FREE ENERGY PREDICTED BY IDOCK:    1.18 KCAL/MOL
REMARK 927      BINDING AFFINITY PREDICTED BY RF-SCORE:    0.00 PKD
ROOT
HETATM    1 NA   UNL     1     -13.530  13.231  65.223  1.00  0.00    -0.612 Na 
HETATM    2 NA   UNL     2     -13.663   8.617  70.693  1.00  0.00    -0.526 Na 
HETATM    3 NA   UNL     3     -10.786  11.450  62.693  1.00  0.00    -0.518 Na 
HETATM    4 NA   UNL     4     -11.829   7.514  67.060  1.00  0.00    -0.472 Na 
HETATM    5  C   UNL     5     -11.895  12.109  67.922  1.00  0.00    -0.338 C  
HETATM    6  C   UNL     5     -10.717  11.204  67.759  1.00  0.00    -0.267 A  
HETATM    7  C   UNL     5      -9.772  11.262  66.737  1.00  0.00    -0.193 A  
HETATM    8  C   UNL     5     -10.638  10.173  68.690  1.00  0.00    -0.236 A  
HETATM    9  C   UNL     5      -8.703  10.297  66.693  1.00  0.00    -0.134 A  
HETATM   10  C   UNL     5      -9.765   9.110  68.517  1.00  0.00    -0.155 A  
HETATM   11  C   UNL     5      -7.621  10.397  65.785  1.00  0.00    -0.147 A  
HETATM   12  C   UNL     5      -8.721   9.191  67.583  1.00  0.00    -0.120 A  
HETATM   13  C   UNL     5      -6.579   9.464  65.776  1.00  0.00    -0.073 A  
HETATM   14  C   UNL     5      -7.689   8.227  67.524  1.00  0.00    -0.099 A  
HETATM   15  C   UNL     5      -6.616   8.378  66.644  1.00  0.00    -0.056 A  
ENDROOT
BRANCH   7  16
HETATM   16  O   UNL     5      -9.741  12.252  65.802  1.00  0.00    -0.247 OA 
HETATM   17  O   UNL     5     -10.457  13.193  63.598  1.00  0.00    -0.219 OA 
HETATM   18  O   UNL     5     -12.019  11.756  64.715  1.00  0.00    -0.193 OA 
HETATM   19  P   UNL     5     -10.986  12.853  64.974  1.00  0.00    -0.329 P  
HETATM   20  O   UNL     5     -11.672  13.979  65.707  1.00  0.00    -0.340 OA 
ENDBRANCH   7  16
BRANCH  10  21
HETATM   21  O   UNL     5     -10.032   7.943  69.189  1.00  0.00    -0.175 OA 
HETATM   22  P   UNL     5      -9.624   7.718  70.759  1.00  0.00    -0.164 P  
HETATM   23  O   UNL     5      -9.676   9.085  71.462  1.00  0.00    -0.293 OA 
HETATM   24  O   UNL     5      -8.194   7.246  70.867  1.00  0.00    -0.112 OA 
HETATM   25  O   UNL     5     -10.712   6.898  71.372  1.00  0.00    -0.219 OA 
ENDBRANCH  10  21
TORSDOF 2
ENDMDL
MODEL       60
REMARK 921   NORMALIZED FREE ENERGY PREDICTED BY IDOCK:   -4.40 KCAL/MOL
REMARK 922        TOTAL FREE ENERGY PREDICTED BY IDOCK:   -5.05 KCAL/MOL
REMARK 923 INTER-LIGAND FREE ENERGY PREDICTED BY IDOCK:   -7.09 KCAL/MOL
REMARK 924 INTRA-LIGAND FREE ENERGY PREDICTED BY IDOCK:    2.04 KCAL/MOL
REMARK 927      BINDING AFFINITY PREDICTED BY RF-SCORE:    0.00 PKD
ROOT
HETATM    1 NA   UNL     1      -8.381   8.782  69.565  1.00  0.00    -0.098 Na 
HETATM    2 NA   UNL     2     -10.652  15.109  72.021  1.00  0.00    -0.395 Na 
HETATM    3 NA   UNL     3      -7.817   9.596  65.550  1.00  0.00    -0.097 Na 
HETATM    4 NA   UNL     4      -8.948  14.839  68.174  1.00  0.00    -0.152 Na 
HETATM    5  C   UNL     5     -10.960  10.912  69.721  1.00  0.00    -0.290 C  
HETATM    6  C   UNL     5     -11.317  11.741  68.530  1.00  0.00    -0.328 A  
HETATM    7  C   UNL     5     -11.230  11.344  67.197  1.00  0.00    -0.296 A  
HETATM    8  C   UNL     5     -11.692  13.050  68.818  1.00  0.00    -0.363 A  
HETATM    9  C   UNL     5     -11.582  12.268  66.149  1.00  0.00    -0.450 A  
HETATM   10  C   UNL     5     -11.796  14.007  67.820  1.00  0.00    -0.384 A  
HETATM   11  C   UNL     5     -11.676  11.881  64.789  1.00  0.00    -0.282 A  
HETATM   12  C   UNL     5     -11.841  13.627  66.471  1.00  0.00    -0.441 A  
HETATM   13  C   UNL     5     -12.044  12.787  63.790  1.00  0.00    -0.596 A  
HETATM   14  C   UNL     5     -12.159  14.541  65.442  1.00  0.00    -0.317 A  
HETATM   15  C   UNL     5     -12.283  14.118  64.118  1.00  0.00    -0.423 A  
ENDROOT
BRANCH   7  16
HETATM   16  O   UNL     5     -10.911  10.076  66.813  1.00  0.00    -0.140 OA 
HETATM   17  O   UNL     5      -9.213   8.348  66.193  1.00  0.00    -0.189 OA 
HETATM   18  O   UNL     5      -8.513  10.041  67.742  1.00  0.00    -0.114 OA 
HETATM   19  P   UNL     5      -9.706   9.161  67.369  1.00  0.00    -0.188 P  
HETATM   20  O   UNL     5     -10.105   8.370  68.590  1.00  0.00    -0.183 OA 
ENDBRANCH   7  16
BRANCH  10  21
HETATM   21  O   UNL     5     -11.724  15.328  68.187  1.00  0.00    -0.345 OA 
HETATM   22  P   UNL     5     -11.130  15.807  69.636  1.00  0.00    -0.373 P  
HETATM   23  O   UNL     5     -10.063  14.789  70.071  1.00  0.00     0.044 OA 
HETATM   24  O   UNL     5     -12.210  15.755  70.690  1.00  0.00    -0.392 OA 
HETATM   25  O   UNL     5     -10.403  17.091  69.399  1.00  0.00    -0.299 OA 
ENDBRANCH  10  21
TORSDOF 2
ENDMDL
MODEL       61
REMARK 921   NORMALIZED FREE ENERGY PREDICTED BY IDOCK:   -4.39 KCAL/MOL
REMARK 922        TOTAL FREE ENERGY PREDICTED BY IDOCK:   -5.03 KCAL/MOL
REMARK 923 INTER-LIGAND FREE ENERGY PREDICTED BY IDOCK:   -4.89 KCAL/MOL
REMARK 924 INTRA-LIGAND FREE ENERGY PREDICTED BY IDOCK:   -0.14 KCAL/MOL
REMARK 927      BINDING AFFINITY PREDICTED BY RF-SCORE:    0.00 PKD
ROOT
HETATM    1 NA   UNL     1     -12.432   6.003  71.803  1.00  0.00    -0.307 Na 
HETATM    2 NA   UNL     2     -10.111   1.726  66.554  1.00  0.00    -0.344 Na 
HETATM    3 NA   UNL     3     -12.851   9.608  69.822  1.00  0.00    -0.484 Na 
HETATM    4 NA   UNL     4     -11.698   5.521  65.625  1.00  0.00    -0.675 Na 
HETATM    5  C   UNL     5      -9.816   5.160  69.890  1.00  0.00    -0.289 C  
HETATM    6  C   UNL     5      -9.404   6.042  68.757  1.00  0.00    -0.128 A  
HETATM    7  C   UNL     5      -9.457   7.434  68.739  1.00  0.00    -0.143 A  
HETATM    8  C   UNL     5      -9.012   5.370  67.603  1.00  0.00    -0.108 A  
HETATM    9  C   UNL     5      -9.053   8.152  67.557  1.00  0.00    -0.147 A  
HETATM   10  C   UNL     5      -8.857   6.037  66.397  1.00  0.00    -0.136 A  
HETATM   11  C   UNL     5      -8.924   9.563  67.527  1.00  0.00    -0.133 A  
HETATM   12  C   UNL     5      -8.777   7.436  66.363  1.00  0.00    -0.154 A  
HETATM   13  C   UNL     5      -8.506  10.240  66.377  1.00  0.00    -0.132 A  
HETATM   14  C   UNL     5      -8.408   8.140  65.194  1.00  0.00    -0.152 A  
HETATM   15  C   UNL     5      -8.250   9.527  65.210  1.00  0.00    -0.131 A  
ENDROOT
BRANCH   7  16
HETATM   16  O   UNL     5      -9.790   8.184  69.827  1.00  0.00    -0.182 OA 
HETATM   17  O   UNL     5      -9.722   8.602  72.292  1.00  0.00    -0.301 OA 
HETATM   18  O   UNL     5      -7.836   7.467  71.337  1.00  0.00    -0.092 OA 
HETATM   19  P   UNL     5      -8.839   8.588  71.064  1.00  0.00    -0.211 P  
HETATM   20  O   UNL     5      -8.065   9.856  70.801  1.00  0.00    -0.212 OA 
ENDBRANCH   7  16
BRANCH  10  21
HETATM   21  O   UNL     5      -8.914   5.296  65.243  1.00  0.00    -0.160 OA 
HETATM   22  P   UNL     5      -7.702   4.297  64.777  1.00  0.00    -0.079 P  
HETATM   23  O   UNL     5      -7.015   3.764  66.045  1.00  0.00    -0.059 OA 
HETATM   24  O   UNL     5      -6.647   5.068  64.022  1.00  0.00    -0.039 OA 
HETATM   25  O   UNL     5      -8.346   3.115  64.129  1.00  0.00    -0.089 OA 
ENDBRANCH  10  21
TORSDOF 2
ENDMDL
MODEL       62
REMARK 921   NORMALIZED FREE ENERGY PREDICTED BY IDOCK:   -4.37 KCAL/MOL
REMARK 922        TOTAL FREE ENERGY PREDICTED BY IDOCK:   -5.01 KCAL/MOL
REMARK 923 INTER-LIGAND FREE ENERGY PREDICTED BY IDOCK:   -4.82 KCAL/MOL
REMARK 924 INTRA-LIGAND FREE ENERGY PREDICTED BY IDOCK:   -0.19 KCAL/MOL
REMARK 927      BINDING AFFINITY PREDICTED BY RF-SCORE:    0.00 PKD
ROOT
HETATM    1 NA   UNL     1      -8.565  13.790  65.754  1.00  0.00    -0.409 Na 
HETATM    2 NA   UNL     2     -11.973  12.576  71.930  1.00  0.00    -0.035 Na 
HETATM    3 NA   UNL     3      -9.851  10.607  63.448  1.00  0.00    -0.213 Na 
HETATM    4 NA   UNL     4     -13.091  10.455  68.462  1.00  0.00    -0.179 Na 
HETATM    5  C   UNL     5      -8.652  11.921  68.531  1.00  0.00    -0.110 C  
HETATM    6  C   UNL     5      -9.175  10.523  68.475  1.00  0.00    -0.168 A  
HETATM    7  C   UNL     5      -9.015   9.628  67.419  1.00  0.00    -0.131 A  
HETATM    8  C   UNL     5      -9.955  10.145  69.563  1.00  0.00    -0.257 A  
HETATM    9  C   UNL     5      -9.606   8.317  67.494  1.00  0.00    -0.194 A  
HETATM   10  C   UNL     5     -10.719   8.988  69.536  1.00  0.00    -0.206 A  
HETATM   11  C   UNL     5      -9.346   7.306  66.537  1.00  0.00    -0.216 A  
HETATM   12  C   UNL     5     -10.493   8.008  68.559  1.00  0.00    -0.200 A  
HETATM   13  C   UNL     5      -9.908   6.029  66.642  1.00  0.00    -0.202 A  
HETATM   14  C   UNL     5     -11.096   6.731  68.620  1.00  0.00    -0.224 A  
HETATM   15  C   UNL     5     -10.785   5.745  67.683  1.00  0.00    -0.313 A  
ENDROOT
BRANCH   7  16
HETATM   16  O   UNL     5      -8.241   9.889  66.328  1.00  0.00    -0.112 OA 
HETATM   17  O   UNL     5      -6.161  10.827  65.304  1.00  0.00    -0.085 OA 
HETATM   18  O   UNL     5      -5.976   9.981  67.541  1.00  0.00    -0.053 OA 
HETATM   19  P   UNL     5      -6.646   9.705  66.195  1.00  0.00    -0.084 P  
HETATM   20  O   UNL     5      -6.265   8.312  65.759  1.00  0.00    -0.050 OA 
ENDBRANCH   7  16
BRANCH  10  21
HETATM   21  O   UNL     5     -11.776   8.897  70.408  1.00  0.00    -0.180 OA 
HETATM   22  P   UNL     5     -11.628   8.251  71.906  1.00  0.00    -0.372 P  
HETATM   23  O   UNL     5     -10.197   8.520  72.398  1.00  0.00    -0.312 OA 
HETATM   24  O   UNL     5     -11.774   6.749  71.847  1.00  0.00    -0.280 OA 
HETATM   25  O   UNL     5     -12.527   9.037  72.803  1.00  0.00    -0.238 OA 
ENDBRANCH  10  21
TORSDOF 2
ENDMDL
MODEL       63
REMARK 921   NORMALIZED FREE ENERGY PREDICTED BY IDOCK:   -4.37 KCAL/MOL
REMARK 922        TOTAL FREE ENERGY PREDICTED BY IDOCK:   -5.00 KCAL/MOL
REMARK 923 INTER-LIGAND FREE ENERGY PREDICTED BY IDOCK:   -7.03 KCAL/MOL
REMARK 924 INTRA-LIGAND FREE ENERGY PREDICTED BY IDOCK:    2.03 KCAL/MOL
REMARK 927      BINDING AFFINITY PREDICTED BY RF-SCORE:    0.00 PKD
ROOT
HETATM    1 NA   UNL     1     -10.308   8.548  72.593  1.00  0.00    -0.226 Na 
HETATM    2 NA   UNL     2     -12.799  15.247  72.975  1.00  0.00    -0.309 Na 
HETATM    3 NA   UNL     3      -7.898   8.741  69.238  1.00  0.00    -0.081 Na 
HETATM    4 NA   UNL     4      -9.566  14.351  70.421  1.00  0.00    -0.312 Na 
HETATM    5  C   UNL     5     -12.445  10.771  71.288  1.00  0.00    -0.504 C  
HETATM    6  C   UNL     5     -12.136  11.428  69.983  1.00  0.00    -0.417 A  
HETATM    7  C   UNL     5     -11.492  10.836  68.898  1.00  0.00    -0.293 A  
HETATM    8  C   UNL     5     -12.466  12.778  69.913  1.00  0.00    -0.016 A  
HETATM    9  C   UNL     5     -11.232  11.608  67.710  1.00  0.00    -0.333 A  
HETATM   10  C   UNL     5     -12.007  13.581  68.880  1.00  0.00    -0.341 A  
HETATM   11  C   UNL     5     -10.735  11.029  66.516  1.00  0.00    -0.298 A  
HETATM   12  C   UNL     5     -11.471  13.008  67.717  1.00  0.00    -0.359 A  
HETATM   13  C   UNL     5     -10.514  11.791  65.364  1.00  0.00    -0.317 A  
HETATM   14  C   UNL     5     -11.191  13.772  66.562  1.00  0.00    -0.319 A  
HETATM   15  C   UNL     5     -10.741  13.164  65.390  1.00  0.00    -0.308 A  
ENDROOT
BRANCH   7  16
HETATM   16  O   UNL     5     -11.162   9.515  68.853  1.00  0.00    -0.076 OA 
HETATM   17  O   UNL     5      -9.555   7.652  69.303  1.00  0.00    -0.158 OA 
HETATM   18  O   UNL     5      -9.481   9.525  70.799  1.00  0.00    -0.251 OA 
HETATM   19  P   UNL     5     -10.450   8.646  70.009  1.00  0.00    -0.228 P  
HETATM   20  O   UNL     5     -11.445   8.057  70.977  1.00  0.00    -0.274 OA 
ENDBRANCH   7  16
BRANCH  10  21
HETATM   21  O   UNL     5     -11.978  14.938  69.086  1.00  0.00    -0.304 OA 
HETATM   22  P   UNL     5     -12.087  15.604  70.578  1.00  0.00    -0.355 P  
HETATM   23  O   UNL     5     -11.462  14.621  71.582  1.00  0.00    -0.221 OA 
HETATM   24  O   UNL     5     -13.534  15.751  70.983  1.00  0.00    -0.581 OA 
HETATM   25  O   UNL     5     -11.204  16.809  70.576  1.00  0.00    -0.149 OA 
ENDBRANCH  10  21
TORSDOF 2
ENDMDL
MODEL       64
REMARK 921   NORMALIZED FREE ENERGY PREDICTED BY IDOCK:   -4.34 KCAL/MOL
REMARK 922        TOTAL FREE ENERGY PREDICTED BY IDOCK:   -4.97 KCAL/MOL
REMARK 923 INTER-LIGAND FREE ENERGY PREDICTED BY IDOCK:   -4.83 KCAL/MOL
REMARK 924 INTRA-LIGAND FREE ENERGY PREDICTED BY IDOCK:   -0.14 KCAL/MOL
REMARK 927      BINDING AFFINITY PREDICTED BY RF-SCORE:    0.00 PKD
ROOT
HETATM    1 NA   UNL     1     -12.767  12.221  66.873  1.00  0.00    -0.155 Na 
HETATM    2 NA   UNL     2     -10.983  18.937  65.160  1.00  0.00    -0.484 Na 
HETATM    3 NA   UNL     3     -11.014  11.813  70.596  1.00  0.00    -0.468 Na 
HETATM    4 NA   UNL     4     -10.469  17.572  69.116  1.00  0.00    -0.275 Na 
HETATM    5  C   UNL     5     -10.302  14.239  65.841  1.00  0.00    -0.325 C  
HETATM    6  C   UNL     5      -9.236  14.665  66.797  1.00  0.00    -0.285 A  
HETATM    7  C   UNL     5      -8.692  13.891  67.820  1.00  0.00    -0.187 A  
HETATM    8  C   UNL     5      -8.833  15.991  66.671  1.00  0.00    -0.307 A  
HETATM    9  C   UNL     5      -7.688  14.452  68.687  1.00  0.00    -0.138 A  
HETATM   10  C   UNL     5      -8.055  16.604  67.642  1.00  0.00    -0.171 A  
HETATM   11  C   UNL     5      -6.977  13.675  69.634  1.00  0.00     0.157 A  
HETATM   12  C   UNL     5      -7.390  15.838  68.609  1.00  0.00    -0.137 A  
HETATM   13  C   UNL     5      -5.986  14.233  70.449  1.00  0.00    -0.171 A  
HETATM   14  C   UNL     5      -6.425  16.396  69.478  1.00  0.00    -0.210 A  
HETATM   15  C   UNL     5      -5.713  15.594  70.371  1.00  0.00    -0.122 A  
ENDROOT
BRANCH   7  16
HETATM   16  O   UNL     5      -8.992  12.575  68.002  1.00  0.00    -0.179 OA 
HETATM   17  O   UNL     5      -9.493  10.304  67.080  1.00  0.00    -0.159 OA 
HETATM   18  O   UNL     5      -8.053  11.707  65.770  1.00  0.00     0.183 OA 
HETATM   19  P   UNL     5      -8.373  11.313  67.212  1.00  0.00    -0.157 P  
HETATM   20  O   UNL     5      -7.106  10.803  67.852  1.00  0.00    -0.083 OA 
ENDBRANCH   7  16
BRANCH  10  21
HETATM   21  O   UNL     5      -8.065  17.976  67.700  1.00  0.00    -0.228 OA 
HETATM   22  P   UNL     5      -6.954  18.897  66.926  1.00  0.00    -0.205 P  
HETATM   23  O   UNL     5      -6.517  18.147  65.658  1.00  0.00    -0.255 OA 
HETATM   24  O   UNL     5      -5.713  19.046  67.773  1.00  0.00    -0.187 OA 
HETATM   25  O   UNL     5      -7.667  20.123  66.455  1.00  0.00    -0.286 OA 
ENDBRANCH  10  21
TORSDOF 2
ENDMDL
MODEL       65
REMARK 921   NORMALIZED FREE ENERGY PREDICTED BY IDOCK:   -4.34 KCAL/MOL
REMARK 922        TOTAL FREE ENERGY PREDICTED BY IDOCK:   -4.97 KCAL/MOL
REMARK 923 INTER-LIGAND FREE ENERGY PREDICTED BY IDOCK:   -4.79 KCAL/MOL
REMARK 924 INTRA-LIGAND FREE ENERGY PREDICTED BY IDOCK:   -0.18 KCAL/MOL
REMARK 927      BINDING AFFINITY PREDICTED BY RF-SCORE:    0.00 PKD
ROOT
HETATM    1 NA   UNL     1     -11.523  12.397  71.185  1.00  0.00    -0.412 Na 
HETATM    2 NA   UNL     2      -9.069   5.902  69.446  1.00  0.00    -0.117 Na 
HETATM    3 NA   UNL     3     -13.261  13.612  67.634  1.00  0.00    -0.117 Na 
HETATM    4 NA   UNL     4     -11.778   7.877  66.889  1.00  0.00    -0.370 Na 
HETATM    5  C   UNL     5      -9.154  10.696  69.539  1.00  0.00     0.016 C  
HETATM    6  C   UNL     5      -9.206  10.593  68.050  1.00  0.00    -0.148 A  
HETATM    7  C   UNL     5      -9.643  11.584  67.172  1.00  0.00    -0.177 A  
HETATM    8  C   UNL     5      -8.852   9.350  67.535  1.00  0.00    -0.123 A  
HETATM    9  C   UNL     5      -9.667  11.328  65.756  1.00  0.00    -0.263 A  
HETATM   10  C   UNL     5      -9.101   9.018  66.212  1.00  0.00    -0.179 A  
HETATM   11  C   UNL     5      -9.939  12.338  64.801  1.00  0.00    -0.215 A  
HETATM   12  C   UNL     5      -9.417  10.014  65.277  1.00  0.00    -0.323 A  
HETATM   13  C   UNL     5      -9.932  12.075  63.427  1.00  0.00    -0.384 A  
HETATM   14  C   UNL     5      -9.467   9.753  63.889  1.00  0.00    -0.098 A  
HETATM   15  C   UNL     5      -9.698  10.781  62.973  1.00  0.00    -0.374 A  
ENDROOT
BRANCH   7  16
HETATM   16  O   UNL     5      -9.974  12.844  67.572  1.00  0.00    -0.209 OA 
HETATM   17  O   UNL     5      -9.628  14.820  69.066  1.00  0.00    -0.213 OA 
HETATM   18  O   UNL     5      -7.696  13.484  68.578  1.00  0.00    -0.127 OA 
HETATM   19  P   UNL     5      -8.969  14.047  67.945  1.00  0.00    -0.209 P  
HETATM   20  O   UNL     5      -8.573  14.858  66.736  1.00  0.00    -0.243 OA 
ENDBRANCH   7  16
BRANCH  10  21
HETATM   21  O   UNL     5      -9.152   7.687  65.883  1.00  0.00    -0.145 OA 
HETATM   22  P   UNL     5      -7.812   6.816  65.526  1.00  0.00    -0.124 P  
HETATM   23  O   UNL     5      -6.638   7.404  66.326  1.00  0.00    -0.047 OA 
HETATM   24  O   UNL     5      -7.450   6.981  64.070  1.00  0.00    -0.083 OA 
HETATM   25  O   UNL     5      -8.035   5.442  66.071  1.00  0.00    -0.102 OA 
ENDBRANCH  10  21
TORSDOF 2
ENDMDL
MODEL       66
REMARK 921   NORMALIZED FREE ENERGY PREDICTED BY IDOCK:   -4.32 KCAL/MOL
REMARK 922        TOTAL FREE ENERGY PREDICTED BY IDOCK:   -4.95 KCAL/MOL
REMARK 923 INTER-LIGAND FREE ENERGY PREDICTED BY IDOCK:   -4.73 KCAL/MOL
REMARK 924 INTRA-LIGAND FREE ENERGY PREDICTED BY IDOCK:   -0.22 KCAL/MOL
REMARK 927      BINDING AFFINITY PREDICTED BY RF-SCORE:    0.00 PKD
ROOT
HETATM    1 NA   UNL     1     -13.630  14.244  65.522  1.00  0.00    -0.647 Na 
HETATM    2 NA   UNL     2     -10.188   7.973  65.762  1.00  0.00    -0.438 Na 
HETATM    3 NA   UNL     3     -10.520  16.880  64.829  1.00  0.00    -0.247 Na 
HETATM    4 NA   UNL     4      -8.213  11.398  64.297  1.00  0.00    -0.360 Na 
HETATM    5  C   UNL     5     -11.649  12.257  67.349  1.00  0.00    -0.425 C  
HETATM    6  C   UNL     5     -10.192  12.562  67.471  1.00  0.00    -0.219 A  
HETATM    7  C   UNL     5      -9.621  13.831  67.534  1.00  0.00    -0.219 A  
HETATM    8  C   UNL     5      -9.355  11.451  67.434  1.00  0.00    -0.171 A  
HETATM    9  C   UNL     5      -8.190  13.971  67.619  1.00  0.00    -0.185 A  
HETATM   10  C   UNL     5      -7.985  11.584  67.271  1.00  0.00    -0.153 A  
HETATM   11  C   UNL     5      -7.556  15.216  67.852  1.00  0.00    -0.151 A  
HETATM   12  C   UNL     5      -7.364  12.828  67.456  1.00  0.00    -0.153 A  
HETATM   13  C   UNL     5      -6.166  15.327  67.957  1.00  0.00    -0.156 A  
HETATM   14  C   UNL     5      -5.958  12.966  67.511  1.00  0.00    -0.130 A  
HETATM   15  C   UNL     5      -5.368  14.201  67.784  1.00  0.00    -0.013 A  
ENDROOT
BRANCH   7  16
HETATM   16  O   UNL     5     -10.353  14.978  67.614  1.00  0.00    -0.240 OA 
HETATM   17  O   UNL     5     -12.308  16.260  68.503  1.00  0.00     0.345 OA 
HETATM   18  O   UNL     5     -11.416  14.536  69.913  1.00  0.00    -0.258 OA 
HETATM   19  P   UNL     5     -11.000  15.635  68.935  1.00  0.00    -0.312 P  
HETATM   20  O   UNL     5     -10.039  16.556  69.646  1.00  0.00    -0.206 OA 
ENDBRANCH   7  16
BRANCH  10  21
HETATM   21  O   UNL     5      -7.285  10.499  66.803  1.00  0.00    -0.102 OA 
HETATM   22  P   UNL     5      -6.858   9.245  67.765  1.00  0.00    -0.081 P  
HETATM   23  O   UNL     5      -7.927   9.104  68.861  1.00  0.00    -0.096 OA 
HETATM   24  O   UNL     5      -5.563   9.549  68.480  1.00  0.00    -0.040 OA 
HETATM   25  O   UNL     5      -6.958   8.010  66.930  1.00  0.00    -0.071 OA 
ENDBRANCH  10  21
TORSDOF 2
ENDMDL
MODEL       67
REMARK 921   NORMALIZED FREE ENERGY PREDICTED BY IDOCK:   -4.29 KCAL/MOL
REMARK 922        TOTAL FREE ENERGY PREDICTED BY IDOCK:   -4.92 KCAL/MOL
REMARK 923 INTER-LIGAND FREE ENERGY PREDICTED BY IDOCK:   -6.32 KCAL/MOL
REMARK 924 INTRA-LIGAND FREE ENERGY PREDICTED BY IDOCK:    1.40 KCAL/MOL
REMARK 927      BINDING AFFINITY PREDICTED BY RF-SCORE:    0.00 PKD
ROOT
HETATM    1 NA   UNL     1      -6.716   7.333  65.159  1.00  0.00    -0.040 Na 
HETATM    2 NA   UNL     2      -9.296   5.956  71.692  1.00  0.00    -0.140 Na 
HETATM    3 NA   UNL     3      -6.905  11.463  65.038  1.00  0.00    -0.347 Na 
HETATM    4 NA   UNL     4      -8.212   9.895  70.650  1.00  0.00    -0.152 Na 
HETATM    5  C   UNL     5      -9.470   7.180  67.058  1.00  0.00    -0.192 C  
HETATM    6  C   UNL     5     -10.110   8.437  67.549  1.00  0.00    -0.279 A  
HETATM    7  C   UNL     5     -10.192   9.643  66.855  1.00  0.00    -0.237 A  
HETATM    8  C   UNL     5     -10.586   8.381  68.856  1.00  0.00    -0.162 A  
HETATM    9  C   UNL     5     -10.814  10.785  67.473  1.00  0.00    -0.342 A  
HETATM   10  C   UNL     5     -10.961   9.528  69.537  1.00  0.00    -0.195 A  
HETATM   11  C   UNL     5     -11.079  11.986  66.769  1.00  0.00    -0.353 A  
HETATM   12  C   UNL     5     -11.177  10.729  68.845  1.00  0.00    -0.328 A  
HETATM   13  C   UNL     5     -11.708  13.075  67.380  1.00  0.00    -0.427 A  
HETATM   14  C   UNL     5     -11.762  11.858  69.462  1.00  0.00    -0.410 A  
HETATM   15  C   UNL     5     -12.047  13.010  68.728  1.00  0.00    -0.197 A  
ENDROOT
BRANCH   7  16
HETATM   16  O   UNL     5      -9.791   9.790  65.562  1.00  0.00    -0.294 OA 
HETATM   17  O   UNL     5      -8.024  10.321  63.873  1.00  0.00    -0.155 OA 
HETATM   18  O   UNL     5      -7.286   9.346  65.937  1.00  0.00    -0.089 OA 
HETATM   19  P   UNL     5      -8.410   9.283  64.903  1.00  0.00    -0.178 P  
HETATM   20  O   UNL     5      -8.504   7.864  64.398  1.00  0.00    -0.045 OA 
ENDBRANCH   7  16
BRANCH  10  21
HETATM   21  O   UNL     5     -10.988   9.480  70.909  1.00  0.00    -0.281 OA 
HETATM   22  P   UNL     5     -12.000   8.493  71.736  1.00  0.00    -0.387 P  
HETATM   23  O   UNL     5     -12.242   7.239  70.880  1.00  0.00    -0.320 OA 
HETATM   24  O   UNL     5     -13.349   9.148  71.908  1.00  0.00    -0.368 OA 
HETATM   25  O   UNL     5     -11.254   8.029  72.945  1.00  0.00    -0.401 OA 
ENDBRANCH  10  21
TORSDOF 2
ENDMDL
MODEL       68
REMARK 921   NORMALIZED FREE ENERGY PREDICTED BY IDOCK:   -4.26 KCAL/MOL
REMARK 922        TOTAL FREE ENERGY PREDICTED BY IDOCK:   -4.89 KCAL/MOL
REMARK 923 INTER-LIGAND FREE ENERGY PREDICTED BY IDOCK:   -6.09 KCAL/MOL
REMARK 924 INTRA-LIGAND FREE ENERGY PREDICTED BY IDOCK:    1.20 KCAL/MOL
REMARK 927      BINDING AFFINITY PREDICTED BY RF-SCORE:    0.00 PKD
ROOT
HETATM    1 NA   UNL     1      -6.053   7.905  66.632  1.00  0.00    -0.037 Na 
HETATM    2 NA   UNL     2      -7.129  13.694  70.702  1.00  0.00    -0.366 Na 
HETATM    3 NA   UNL     3      -7.250   9.262  62.914  1.00  0.00    -0.102 Na 
HETATM    4 NA   UNL     4      -7.212  14.036  66.500  1.00  0.00    -0.296 Na 
HETATM    5  C   UNL     5      -8.343   9.813  68.158  1.00  0.00    -0.110 C  
HETATM    6  C   UNL     5      -9.179  10.759  67.360  1.00  0.00    -0.156 A  
HETATM    7  C   UNL     5      -9.661  10.543  66.071  1.00  0.00    -0.194 A  
HETATM    8  C   UNL     5      -9.408  11.991  67.965  1.00  0.00    -0.196 A  
HETATM    9  C   UNL     5     -10.432  11.565  65.412  1.00  0.00    -0.333 A  
HETATM   10  C   UNL     5      -9.934  13.058  67.252  1.00  0.00    -0.232 A  
HETATM   11  C   UNL     5     -11.089  11.350  64.176  1.00  0.00    -0.382 A  
HETATM   12  C   UNL     5     -10.543  12.851  66.006  1.00  0.00    -0.287 A  
HETATM   13  C   UNL     5     -11.855  12.348  63.565  1.00  0.00    -0.605 A  
HETATM   14  C   UNL     5     -11.275  13.865  65.348  1.00  0.00    -0.306 A  
HETATM   15  C   UNL     5     -11.945  13.606  64.151  1.00  0.00    -0.488 A  
ENDROOT
BRANCH   7  16
HETATM   16  O   UNL     5      -9.522   9.360  65.409  1.00  0.00    -0.261 OA 
HETATM   17  O   UNL     5      -8.229   7.846  63.895  1.00  0.00    -0.120 OA 
HETATM   18  O   UNL     5      -6.956   9.371  65.240  1.00  0.00    -0.086 OA 
HETATM   19  P   UNL     5      -8.188   8.466  65.274  1.00  0.00    -0.154 P  
HETATM   20  O   UNL     5      -8.027   7.499  66.421  1.00  0.00    -0.101 OA 
ENDBRANCH   7  16
BRANCH  10  21
HETATM   21  O   UNL     5      -9.725  14.323  67.743  1.00  0.00    -0.215 OA 
HETATM   22  P   UNL     5     -10.744  15.032  68.811  1.00  0.00    -0.263 P  
HETATM   23  O   UNL     5     -11.371  13.925  69.675  1.00  0.00    -0.252 OA 
HETATM   24  O   UNL     5     -11.890  15.694  68.084  1.00  0.00    -0.286 OA 
HETATM   25  O   UNL     5      -9.899  15.847  69.735  1.00  0.00    -0.262 OA 
ENDBRANCH  10  21
TORSDOF 2
ENDMDL
MODEL       69
REMARK 921   NORMALIZED FREE ENERGY PREDICTED BY IDOCK:   -4.25 KCAL/MOL
REMARK 922        TOTAL FREE ENERGY PREDICTED BY IDOCK:   -4.87 KCAL/MOL
REMARK 923 INTER-LIGAND FREE ENERGY PREDICTED BY IDOCK:   -4.79 KCAL/MOL
REMARK 924 INTRA-LIGAND FREE ENERGY PREDICTED BY IDOCK:   -0.08 KCAL/MOL
REMARK 927      BINDING AFFINITY PREDICTED BY RF-SCORE:    0.00 PKD
ROOT
HETATM    1 NA   UNL     1     -14.006   7.468  70.873  1.00  0.00    -0.437 Na 
HETATM    2 NA   UNL     2     -11.088   5.219  64.737  1.00  0.00    -0.413 Na 
HETATM    3 NA   UNL     3     -12.115  11.106  71.416  1.00  0.00    -0.286 Na 
HETATM    4 NA   UNL     4     -10.578   9.221  65.962  1.00  0.00    -0.260 Na 
HETATM    5  C   UNL     5     -11.276   6.169  69.434  1.00  0.00    -0.466 C  
HETATM    6  C   UNL     5     -10.085   7.033  69.174  1.00  0.00    -0.183 A  
HETATM    7  C   UNL     5      -9.631   8.072  69.983  1.00  0.00    -0.171 A  
HETATM    8  C   UNL     5      -9.445   6.798  67.960  1.00  0.00    -0.119 A  
HETATM    9  C   UNL     5      -8.482   8.843  69.584  1.00  0.00    -0.129 A  
HETATM   10  C   UNL     5      -8.500   7.681  67.460  1.00  0.00    -0.116 A  
HETATM   11  C   UNL     5      -7.870   9.798  70.433  1.00  0.00    -0.144 A  
HETATM   12  C   UNL     5      -7.930   8.658  68.289  1.00  0.00    -0.110 A  
HETATM   13  C   UNL     5      -6.738  10.518  70.037  1.00  0.00    -0.151 A  
HETATM   14  C   UNL     5      -6.819   9.432  67.884  1.00  0.00    -0.075 A  
HETATM   15  C   UNL     5      -6.215  10.335  68.761  1.00  0.00    -0.047 A  
ENDROOT
BRANCH   7  16
HETATM   16  O   UNL     5     -10.165   8.357  71.204  1.00  0.00    -0.189 OA 
HETATM   17  O   UNL     5     -10.930   7.633  73.473  1.00  0.00    -0.326 OA 
HETATM   18  O   UNL     5      -9.138   6.379  72.487  1.00  0.00    -0.138 OA 
HETATM   19  P   UNL     5      -9.680   7.801  72.637  1.00  0.00    -0.274 P  
HETATM   20  O   UNL     5      -8.596   8.655  73.245  1.00  0.00    -0.375 OA 
ENDBRANCH   7  16
BRANCH  10  21
HETATM   21  O   UNL     5      -8.243   7.649  66.112  1.00  0.00    -0.111 OA 
HETATM   22  P   UNL     5      -7.169   6.607  65.445  1.00  0.00    -0.080 P  
HETATM   23  O   UNL     5      -7.157   5.329  66.299  1.00  0.00    -0.069 OA 
HETATM   24  O   UNL     5      -5.772   7.173  65.520  1.00  0.00    -0.031 OA 
HETATM   25  O   UNL     5      -7.725   6.210  64.116  1.00  0.00    -0.093 OA 
ENDBRANCH  10  21
TORSDOF 2
ENDMDL
MODEL       70
REMARK 921   NORMALIZED FREE ENERGY PREDICTED BY IDOCK:   -4.18 KCAL/MOL
REMARK 922        TOTAL FREE ENERGY PREDICTED BY IDOCK:   -4.80 KCAL/MOL
REMARK 923 INTER-LIGAND FREE ENERGY PREDICTED BY IDOCK:   -7.69 KCAL/MOL
REMARK 924 INTRA-LIGAND FREE ENERGY PREDICTED BY IDOCK:    2.89 KCAL/MOL
REMARK 927      BINDING AFFINITY PREDICTED BY RF-SCORE:    0.00 PKD
ROOT
HETATM    1 NA   UNL     1     -11.357   7.800  67.763  1.00  0.00    -0.428 Na 
HETATM    2 NA   UNL     2      -9.745  13.421  63.636  1.00  0.00    -0.446 Na 
HETATM    3 NA   UNL     3     -14.406   9.326  70.103  1.00  0.00    -0.618 Na 
HETATM    4 NA   UNL     4     -13.285  13.444  65.927  1.00  0.00    -0.389 Na 
HETATM    5  C   UNL     5      -9.843  10.784  67.641  1.00  0.00    -0.193 C  
HETATM    6  C   UNL     5     -10.496  11.979  68.255  1.00  0.00    -0.218 A  
HETATM    7  C   UNL     5     -11.265  11.988  69.417  1.00  0.00    -0.196 A  
HETATM    8  C   UNL     5     -10.368  13.157  67.526  1.00  0.00    -0.225 A  
HETATM    9  C   UNL     5     -11.861  13.217  69.873  1.00  0.00    -0.380 A  
HETATM   10  C   UNL     5     -11.130  14.276  67.823  1.00  0.00    -0.280 A  
HETATM   11  C   UNL     5     -12.511  13.333  71.127  1.00  0.00    -0.397 A  
HETATM   12  C   UNL     5     -11.812  14.370  69.044  1.00  0.00    -0.358 A  
HETATM   13  C   UNL     5     -13.061  14.543  71.563  1.00  0.00    -0.413 A  
HETATM   14  C   UNL     5     -12.420  15.570  69.477  1.00  0.00    -0.081 A  
HETATM   15  C   UNL     5     -13.016  15.660  70.735  1.00  0.00    -0.413 A  
ENDROOT
BRANCH   7  16
HETATM   16  O   UNL     5     -11.420  10.899  70.220  1.00  0.00    -0.300 OA 
HETATM   17  O   UNL     5     -11.333   8.425  70.581  1.00  0.00    -0.263 OA 
HETATM   18  O   UNL     5      -9.797   9.336  68.980  1.00  0.00    -0.159 OA 
HETATM   19  P   UNL     5     -10.442   9.623  70.336  1.00  0.00    -0.306 P  
HETATM   20  O   UNL     5      -9.341   9.835  71.344  1.00  0.00     0.067 OA 
ENDBRANCH   7  16
BRANCH  10  21
HETATM   21  O   UNL     5     -11.295  15.220  66.839  1.00  0.00    -0.307 OA 
HETATM   22  P   UNL     5     -10.104  16.258  66.406  1.00  0.00    -0.336 P  
HETATM   23  O   UNL     5      -8.757  15.553  66.630  1.00  0.00    -0.246 OA 
HETATM   24  O   UNL     5     -10.102  17.463  67.316  1.00  0.00    -0.291 OA 
HETATM   25  O   UNL     5     -10.225  16.458  64.931  1.00  0.00    -0.509 OA 
ENDBRANCH  10  21
TORSDOF 2
ENDMDL
MODEL       71
REMARK 921   NORMALIZED FREE ENERGY PREDICTED BY IDOCK:   -4.11 KCAL/MOL
REMARK 922        TOTAL FREE ENERGY PREDICTED BY IDOCK:   -4.71 KCAL/MOL
REMARK 923 INTER-LIGAND FREE ENERGY PREDICTED BY IDOCK:   -4.49 KCAL/MOL
REMARK 924 INTRA-LIGAND FREE ENERGY PREDICTED BY IDOCK:   -0.23 KCAL/MOL
REMARK 927      BINDING AFFINITY PREDICTED BY RF-SCORE:    0.00 PKD
ROOT
HETATM    1 NA   UNL     1      -9.384   8.455  63.323  1.00  0.00    -0.418 Na 
HETATM    2 NA   UNL     2      -9.221  11.128  69.960  1.00  0.00    -0.379 Na 
HETATM    3 NA   UNL     3     -11.280   4.829  63.928  1.00  0.00    -0.459 Na 
HETATM    4 NA   UNL     4     -11.647   7.788  69.101  1.00  0.00    -0.430 Na 
HETATM    5  C   UNL     5      -7.915   8.283  66.327  1.00  0.00    -0.100 C  
HETATM    6  C   UNL     5      -8.247   7.162  67.258  1.00  0.00    -0.119 A  
HETATM    7  C   UNL     5      -8.525   5.846  66.894  1.00  0.00    -0.108 A  
HETATM    8  C   UNL     5      -8.357   7.526  68.597  1.00  0.00    -0.129 A  
HETATM    9  C   UNL     5      -8.862   4.878  67.905  1.00  0.00    -0.110 A  
HETATM   10  C   UNL     5      -8.910   6.668  69.535  1.00  0.00    -0.139 A  
HETATM   11  C   UNL     5      -8.992   3.495  67.626  1.00  0.00    -0.168 A  
HETATM   12  C   UNL     5      -9.083   5.308  69.241  1.00  0.00    -0.138 A  
HETATM   13  C   UNL     5      -9.294   2.567  68.628  1.00  0.00    -0.242 A  
HETATM   14  C   UNL     5      -9.441   4.364  70.230  1.00  0.00    -0.242 A  
HETATM   15  C   UNL     5      -9.520   3.003  69.929  1.00  0.00    -0.189 A  
ENDROOT
BRANCH   7  16
HETATM   16  O   UNL     5      -8.410   5.383  65.618  1.00  0.00    -0.119 OA 
HETATM   17  O   UNL     5      -7.221   5.325  63.418  1.00  0.00    -0.046 OA 
HETATM   18  O   UNL     5      -5.877   5.744  65.360  1.00  0.00    -0.023 OA 
HETATM   19  P   UNL     5      -7.063   4.916  64.866  1.00  0.00    -0.064 P  
HETATM   20  O   UNL     5      -6.751   3.460  65.103  1.00  0.00    -0.039 OA 
ENDBRANCH   7  16
BRANCH  10  21
HETATM   21  O   UNL     5      -9.395   7.214  70.697  1.00  0.00    -0.158 OA 
HETATM   22  P   UNL     5      -8.440   7.521  71.992  1.00  0.00    -0.115 P  
HETATM   23  O   UNL     5      -7.030   7.849  71.473  1.00  0.00    -0.055 OA 
HETATM   24  O   UNL     5      -8.294   6.282  72.842  1.00  0.00    -0.118 OA 
HETATM   25  O   UNL     5      -8.952   8.778  72.616  1.00  0.00    -0.380 OA 
ENDBRANCH  10  21
TORSDOF 2
ENDMDL
MODEL       72
REMARK 921   NORMALIZED FREE ENERGY PREDICTED BY IDOCK:   -4.10 KCAL/MOL
REMARK 922        TOTAL FREE ENERGY PREDICTED BY IDOCK:   -4.70 KCAL/MOL
REMARK 923 INTER-LIGAND FREE ENERGY PREDICTED BY IDOCK:   -4.50 KCAL/MOL
REMARK 924 INTRA-LIGAND FREE ENERGY PREDICTED BY IDOCK:   -0.21 KCAL/MOL
REMARK 927      BINDING AFFINITY PREDICTED BY RF-SCORE:    0.00 PKD
ROOT
HETATM    1 NA   UNL     1      -9.727   4.359  69.135  1.00  0.00    -0.113 Na 
HETATM    2 NA   UNL     2     -13.657  10.322  69.612  1.00  0.00    -0.583 Na 
HETATM    3 NA   UNL     3      -5.933   5.790  69.949  1.00  0.00    -0.016 Na 
HETATM    4 NA   UNL     4      -9.688  10.303  71.037  1.00  0.00    -0.301 Na 
HETATM    5  C   UNL     5     -10.576   7.227  67.629  1.00  0.00    -0.316 C  
HETATM    6  C   UNL     5      -9.625   8.379  67.625  1.00  0.00    -0.188 A  
HETATM    7  C   UNL     5      -8.237   8.298  67.536  1.00  0.00    -0.122 A  
HETATM    8  C   UNL     5     -10.214   9.626  67.810  1.00  0.00    -0.253 A  
HETATM    9  C   UNL     5      -7.444   9.499  67.576  1.00  0.00    -0.091 A  
HETATM   10  C   UNL     5      -9.452  10.750  68.091  1.00  0.00    -0.158 A  
HETATM   11  C   UNL     5      -6.050   9.504  67.325  1.00  0.00    -0.056 A  
HETATM   12  C   UNL     5      -8.065  10.738  67.887  1.00  0.00    -0.112 A  
HETATM   13  C   UNL     5      -5.302  10.686  67.344  1.00  0.00    -0.040 A  
HETATM   14  C   UNL     5      -7.285  11.915  67.955  1.00  0.00    -0.090 A  
HETATM   15  C   UNL     5      -5.921  11.890  67.662  1.00  0.00    -0.084 A  
ENDROOT
BRANCH   7  16
HETATM   16  O   UNL     5      -7.569   7.131  67.317  1.00  0.00    -0.100 OA 
HETATM   17  O   UNL     5      -7.370   4.911  66.182  1.00  0.00    -0.075 OA 
HETATM   18  O   UNL     5      -8.509   6.643  64.974  1.00  0.00    -0.106 OA 
HETATM   19  P   UNL     5      -7.321   6.397  65.903  1.00  0.00    -0.084 P  
HETATM   20  O   UNL     5      -6.074   6.891  65.213  1.00  0.00    -0.035 OA 
ENDBRANCH   7  16
BRANCH  10  21
HETATM   21  O   UNL     5     -10.077  11.815  68.690  1.00  0.00    -0.216 OA 
HETATM   22  P   UNL     5     -11.024  12.861  67.858  1.00  0.00    -0.269 P  
HETATM   23  O   UNL     5     -11.677  12.091  66.699  1.00  0.00    -0.522 OA 
HETATM   24  O   UNL     5     -10.181  13.940  67.221  1.00  0.00    -0.246 OA 
HETATM   25  O   UNL     5     -12.139  13.252  68.773  1.00  0.00    -0.326 OA 
ENDBRANCH  10  21
TORSDOF 2
ENDMDL
MODEL       73
REMARK 921   NORMALIZED FREE ENERGY PREDICTED BY IDOCK:   -4.09 KCAL/MOL
REMARK 922        TOTAL FREE ENERGY PREDICTED BY IDOCK:   -4.69 KCAL/MOL
REMARK 923 INTER-LIGAND FREE ENERGY PREDICTED BY IDOCK:   -4.74 KCAL/MOL
REMARK 924 INTRA-LIGAND FREE ENERGY PREDICTED BY IDOCK:    0.05 KCAL/MOL
REMARK 927      BINDING AFFINITY PREDICTED BY RF-SCORE:    0.00 PKD
ROOT
HETATM    1 NA   UNL     1      -7.071  12.883  66.365  1.00  0.00    -0.367 Na 
HETATM    2 NA   UNL     2      -6.094   6.505  63.267  1.00  0.00    -0.025 Na 
HETATM    3 NA   UNL     3      -7.777  11.805  70.295  1.00  0.00    -0.261 Na 
HETATM    4 NA   UNL     4      -6.097   6.819  67.472  1.00  0.00    -0.021 Na 
HETATM    5  C   UNL     5      -8.570  10.105  65.247  1.00  0.00    -0.169 C  
HETATM    6  C   UNL     5      -9.045   9.071  66.215  1.00  0.00    -0.224 A  
HETATM    7  C   UNL     5      -9.584   9.313  67.476  1.00  0.00    -0.149 A  
HETATM    8  C   UNL     5      -8.840   7.754  65.814  1.00  0.00    -0.141 A  
HETATM    9  C   UNL     5      -9.972   8.209  68.315  1.00  0.00    -0.212 A  
HETATM   10  C   UNL     5      -8.982   6.699  66.702  1.00  0.00    -0.142 A  
HETATM   11  C   UNL     5     -10.675   8.383  69.533  1.00  0.00    -0.181 A  
HETATM   12  C   UNL     5      -9.637   6.884  67.928  1.00  0.00    -0.126 A  
HETATM   13  C   UNL     5     -11.065   7.295  70.321  1.00  0.00    -0.289 A  
HETATM   14  C   UNL     5      -9.991   5.800  68.763  1.00  0.00    -0.207 A  
HETATM   15  C   UNL     5     -10.720   6.004  69.935  1.00  0.00    -0.393 A  
ENDROOT
BRANCH   7  16
HETATM   16  O   UNL     5      -9.859  10.563  67.945  1.00  0.00    -0.157 OA 
HETATM   17  O   UNL     5     -10.713  12.887  67.590  1.00  0.00    -0.219 OA 
HETATM   18  O   UNL     5     -11.699  11.158  66.250  1.00  0.00    -0.113 OA 
HETATM   19  P   UNL     5     -11.175  11.448  67.657  1.00  0.00    -0.274 P  
HETATM   20  O   UNL     5     -12.283  11.162  68.639  1.00  0.00    -0.582 OA 
ENDBRANCH   7  16
BRANCH  10  21
HETATM   21  O   UNL     5      -8.355   5.516  66.399  1.00  0.00    -0.109 OA 
HETATM   22  P   UNL     5      -8.400   4.854  64.901  1.00  0.00    -0.149 P  
HETATM   23  O   UNL     5      -8.500   5.999  63.880  1.00  0.00    -0.018 OA 
HETATM   24  O   UNL     5      -9.653   4.030  64.730  1.00  0.00    -0.157 OA 
HETATM   25  O   UNL     5      -7.069   4.214  64.674  1.00  0.00    -0.055 OA 
ENDBRANCH  10  21
TORSDOF 2
ENDMDL
MODEL       74
REMARK 921   NORMALIZED FREE ENERGY PREDICTED BY IDOCK:   -4.08 KCAL/MOL
REMARK 922        TOTAL FREE ENERGY PREDICTED BY IDOCK:   -4.68 KCAL/MOL
REMARK 923 INTER-LIGAND FREE ENERGY PREDICTED BY IDOCK:   -4.74 KCAL/MOL
REMARK 924 INTRA-LIGAND FREE ENERGY PREDICTED BY IDOCK:    0.06 KCAL/MOL
REMARK 927      BINDING AFFINITY PREDICTED BY RF-SCORE:    0.00 PKD
ROOT
HETATM    1 NA   UNL     1      -9.317   9.481  64.907  1.00  0.00    -0.174 Na 
HETATM    2 NA   UNL     2     -12.061  10.361  71.458  1.00  0.00    -0.283 Na 
HETATM    3 NA   UNL     3      -9.820   5.417  64.327  1.00  0.00    -0.368 Na 
HETATM    4 NA   UNL     4     -12.721   6.757  69.372  1.00  0.00    -0.598 Na 
HETATM    5  C   UNL     5      -8.814   9.035  68.187  1.00  0.00    -0.133 C  
HETATM    6  C   UNL     5      -8.958   7.675  68.787  1.00  0.00    -0.133 A  
HETATM    7  C   UNL     5      -8.612   6.469  68.182  1.00  0.00    -0.118 A  
HETATM    8  C   UNL     5      -9.572   7.647  70.036  1.00  0.00    -0.164 A  
HETATM    9  C   UNL     5      -8.839   5.227  68.874  1.00  0.00    -0.102 A  
HETATM   10  C   UNL     5     -10.011   6.458  70.598  1.00  0.00    -0.185 A  
HETATM   11  C   UNL     5      -8.362   3.984  68.391  1.00  0.00    -0.100 A  
HETATM   12  C   UNL     5      -9.576   5.227  70.088  1.00  0.00    -0.241 A  
HETATM   13  C   UNL     5      -8.571   2.791  69.092  1.00  0.00    -0.117 A  
HETATM   14  C   UNL     5      -9.825   4.006  70.756  1.00  0.00    -0.233 A  
HETATM   15  C   UNL     5      -9.305   2.804  70.273  1.00  0.00    -0.210 A  
ENDROOT
BRANCH   7  16
HETATM   16  O   UNL     5      -7.973   6.391  66.980  1.00  0.00    -0.106 OA 
HETATM   17  O   UNL     5      -6.278   7.247  65.352  1.00  0.00    -0.037 OA 
HETATM   18  O   UNL     5      -5.802   7.578  67.680  1.00  0.00    -0.033 OA 
HETATM   19  P   UNL     5      -6.396   6.568  66.699  1.00  0.00    -0.044 P  
HETATM   20  O   UNL     5      -5.640   5.271  66.845  1.00  0.00    -0.015 OA 
ENDBRANCH   7  16
BRANCH  10  21
HETATM   21  O   UNL     5     -10.975   6.527  71.573  1.00  0.00    -0.238 OA 
HETATM   22  P   UNL     5     -10.919   7.622  72.790  1.00  0.00    -0.386 P  
HETATM   23  O   UNL     5     -10.216   8.883  72.260  1.00  0.00    -0.296 OA 
HETATM   24  O   UNL     5     -10.061   7.108  73.921  1.00  0.00    -0.322 OA 
HETATM   25  O   UNL     5     -12.331   8.025  73.070  1.00  0.00    -0.100 OA 
ENDBRANCH  10  21
TORSDOF 2
ENDMDL
MODEL       75
REMARK 921   NORMALIZED FREE ENERGY PREDICTED BY IDOCK:   -4.07 KCAL/MOL
REMARK 922        TOTAL FREE ENERGY PREDICTED BY IDOCK:   -4.67 KCAL/MOL
REMARK 923 INTER-LIGAND FREE ENERGY PREDICTED BY IDOCK:   -6.13 KCAL/MOL
REMARK 924 INTRA-LIGAND FREE ENERGY PREDICTED BY IDOCK:    1.46 KCAL/MOL
REMARK 927      BINDING AFFINITY PREDICTED BY RF-SCORE:    0.00 PKD
ROOT
HETATM    1 NA   UNL     1      -8.082  20.503  68.975  1.00  0.00    -0.071 Na 
HETATM    2 NA   UNL     2      -5.236  14.443  71.505  1.00  0.00    -0.100 Na 
HETATM    3 NA   UNL     3     -11.678  19.160  67.436  1.00  0.00    -0.392 Na 
HETATM    4 NA   UNL     4      -9.302  14.549  70.394  1.00  0.00    -0.369 Na 
HETATM    5  C   UNL     5      -6.568  17.625  68.174  1.00  0.00    -0.192 C  
HETATM    6  C   UNL     5      -7.363  16.497  67.602  1.00  0.00    -0.159 A  
HETATM    7  C   UNL     5      -8.447  16.612  66.734  1.00  0.00    -0.235 A  
HETATM    8  C   UNL     5      -7.007  15.235  68.067  1.00  0.00    -0.144 A  
HETATM    9  C   UNL     5      -9.139  15.430  66.289  1.00  0.00    -0.355 A  
HETATM   10  C   UNL     5      -7.811  14.128  67.838  1.00  0.00    -0.155 A  
HETATM   11  C   UNL     5     -10.136  15.461  65.283  1.00  0.00    -0.354 A  
HETATM   12  C   UNL     5      -8.829  14.174  66.875  1.00  0.00    -0.223 A  
HETATM   13  C   UNL     5     -10.778  14.298  64.846  1.00  0.00    -0.448 A  
HETATM   14  C   UNL     5      -9.526  13.017  66.461  1.00  0.00    -0.246 A  
HETATM   15  C   UNL     5     -10.473  13.077  65.438  1.00  0.00    -0.308 A  
ENDROOT
BRANCH   7  16
HETATM   16  O   UNL     5      -8.849  17.796  66.194  1.00  0.00    -0.451 OA 
HETATM   17  O   UNL     5     -10.218  19.888  66.296  1.00  0.00    -0.446 OA 
HETATM   18  O   UNL     5      -9.507  18.959  68.391  1.00  0.00    -0.322 OA 
HETATM   19  P   UNL     5      -9.041  19.204  66.955  1.00  0.00    -0.318 P  
HETATM   20  O   UNL     5      -7.764  20.005  67.007  1.00  0.00    -0.270 OA 
ENDBRANCH   7  16
BRANCH  10  21
HETATM   21  O   UNL     5      -7.660  13.043  68.667  1.00  0.00    -0.129 OA 
HETATM   22  P   UNL     5      -6.193  12.429  69.055  1.00  0.00    -0.096 P  
HETATM   23  O   UNL     5      -5.179  13.585  69.047  1.00  0.00    -0.070 OA 
HETATM   24  O   UNL     5      -5.731  11.460  67.994  1.00  0.00    -0.043 OA 
HETATM   25  O   UNL     5      -6.282  11.969  70.474  1.00  0.00    -0.234 OA 
ENDBRANCH  10  21
TORSDOF 2
ENDMDL
MODEL       76
REMARK 921   NORMALIZED FREE ENERGY PREDICTED BY IDOCK:   -4.04 KCAL/MOL
REMARK 922        TOTAL FREE ENERGY PREDICTED BY IDOCK:   -4.64 KCAL/MOL
REMARK 923 INTER-LIGAND FREE ENERGY PREDICTED BY IDOCK:   -5.97 KCAL/MOL
REMARK 924 INTRA-LIGAND FREE ENERGY PREDICTED BY IDOCK:    1.33 KCAL/MOL
REMARK 927      BINDING AFFINITY PREDICTED BY RF-SCORE:    0.00 PKD
ROOT
HETATM    1 NA   UNL     1     -13.677  15.079  65.070  1.00  0.00    -0.395 Na 
HETATM    2 NA   UNL     2      -9.105  14.997  70.576  1.00  0.00    -0.420 Na 
HETATM    3 NA   UNL     3     -13.829  11.075  64.048  1.00  0.00     0.151 Na 
HETATM    4 NA   UNL     4     -10.736  11.381  69.147  1.00  0.00    -0.174 Na 
HETATM    5  C   UNL     5     -10.466  14.811  65.981  1.00  0.00    -0.312 C  
HETATM    6  C   UNL     5      -9.796  13.476  65.973  1.00  0.00    -0.277 A  
HETATM    7  C   UNL     5     -10.019  12.450  65.057  1.00  0.00    -0.197 A  
HETATM    8  C   UNL     5      -8.936  13.246  67.042  1.00  0.00    -0.230 A  
HETATM    9  C   UNL     5      -9.319  11.199  65.196  1.00  0.00    -0.237 A  
HETATM   10  C   UNL     5      -8.449  11.977  67.317  1.00  0.00    -0.175 A  
HETATM   11  C   UNL     5      -9.372  10.180  64.213  1.00  0.00    -0.349 A  
HETATM   12  C   UNL     5      -8.545  10.955  66.361  1.00  0.00    -0.160 A  
HETATM   13  C   UNL     5      -8.663   8.983  64.354  1.00  0.00    -0.151 A  
HETATM   14  C   UNL     5      -7.879   9.718  66.513  1.00  0.00    -0.109 A  
HETATM   15  C   UNL     5      -7.919   8.752  65.506  1.00  0.00    -0.102 A  
ENDROOT
BRANCH   7  16
HETATM   16  O   UNL     5     -10.812  12.588  63.958  1.00  0.00    -0.344 OA 
HETATM   17  O   UNL     5     -13.040  12.397  62.837  1.00  0.00    -0.281 OA 
HETATM   18  O   UNL     5     -13.052  12.850  65.192  1.00  0.00    -0.753 OA 
HETATM   19  P   UNL     5     -12.308  13.185  63.900  1.00  0.00    -0.276 P  
HETATM   20  O   UNL     5     -12.320  14.684  63.727  1.00  0.00    -0.720 OA 
ENDBRANCH   7  16
BRANCH  10  21
HETATM   21  O   UNL     5      -7.995  11.725  68.588  1.00  0.00    -0.147 OA 
HETATM   22  P   UNL     5      -6.423  11.901  69.011  1.00  0.00    -0.101 P  
HETATM   23  O   UNL     5      -5.822  13.022  68.147  1.00  0.00    -0.073 OA 
HETATM   24  O   UNL     5      -5.645  10.652  68.675  1.00  0.00    -0.041 OA 
HETATM   25  O   UNL     5      -6.411  12.413  70.415  1.00  0.00    -0.098 OA 
ENDBRANCH  10  21
TORSDOF 2
ENDMDL
MODEL       77
REMARK 921   NORMALIZED FREE ENERGY PREDICTED BY IDOCK:   -4.00 KCAL/MOL
REMARK 922        TOTAL FREE ENERGY PREDICTED BY IDOCK:   -4.59 KCAL/MOL
REMARK 923 INTER-LIGAND FREE ENERGY PREDICTED BY IDOCK:   -6.62 KCAL/MOL
REMARK 924 INTRA-LIGAND FREE ENERGY PREDICTED BY IDOCK:    2.03 KCAL/MOL
REMARK 927      BINDING AFFINITY PREDICTED BY RF-SCORE:    0.00 PKD
ROOT
HETATM    1 NA   UNL     1     -11.710   7.254  68.988  1.00  0.00    -0.440 Na 
HETATM    2 NA   UNL     2     -13.671  11.761  63.785  1.00  0.00    -0.654 Na 
HETATM    3 NA   UNL     3      -9.938   9.826  71.700  1.00  0.00    -0.264 Na 
HETATM    4 NA   UNL     4     -12.464  13.275  67.531  1.00  0.00    -0.323 Na 
HETATM    5  C   UNL     5     -10.655   9.112  66.410  1.00  0.00    -0.002 C  
HETATM    6  C   UNL     5      -9.946  10.403  66.660  1.00  0.00    -0.262 A  
HETATM    7  C   UNL     5      -9.065  10.668  67.706  1.00  0.00    -0.143 A  
HETATM    8  C   UNL     5     -10.287  11.436  65.791  1.00  0.00    -0.304 A  
HETATM    9  C   UNL     5      -8.479  11.977  67.837  1.00  0.00    -0.160 A  
HETATM   10  C   UNL     5      -9.921  12.748  66.051  1.00  0.00    -0.271 A  
HETATM   11  C   UNL     5      -7.455  12.266  68.772  1.00  0.00    -0.065 A  
HETATM   12  C   UNL     5      -8.940  13.036  67.011  1.00  0.00    -0.225 A  
HETATM   13  C   UNL     5      -6.881  13.538  68.866  1.00  0.00    -0.111 A  
HETATM   14  C   UNL     5      -8.387  14.329  67.156  1.00  0.00    -0.202 A  
HETATM   15  C   UNL     5      -7.350  14.569  68.059  1.00  0.00    -0.143 A  
ENDROOT
BRANCH   7  16
HETATM   16  O   UNL     5      -8.640   9.717  68.584  1.00  0.00    -0.116 OA 
HETATM   17  O   UNL     5      -8.916   8.438  70.716  1.00  0.00    -0.140 OA 
HETATM   18  O   UNL     5     -10.924   9.202  69.648  1.00  0.00    -0.226 OA 
HETATM   19  P   UNL     5      -9.541   8.622  69.351  1.00  0.00    -0.171 P  
HETATM   20  O   UNL     5      -9.725   7.363  68.541  1.00  0.00    -0.148 OA 
ENDBRANCH   7  16
BRANCH  10  21
HETATM   21  O   UNL     5     -10.635  13.747  65.438  1.00  0.00    -0.295 OA 
HETATM   22  P   UNL     5     -12.088  13.483  64.729  1.00  0.00    -0.429 P  
HETATM   23  O   UNL     5     -12.785  12.343  65.489  1.00  0.00    -0.530 OA 
HETATM   24  O   UNL     5     -11.900  12.989  63.314  1.00  0.00    -0.534 OA 
HETATM   25  O   UNL     5     -12.913  14.705  64.972  1.00  0.00    -0.465 OA 
ENDBRANCH  10  21
TORSDOF 2
ENDMDL
MODEL       78
REMARK 921   NORMALIZED FREE ENERGY PREDICTED BY IDOCK:   -3.99 KCAL/MOL
REMARK 922        TOTAL FREE ENERGY PREDICTED BY IDOCK:   -4.58 KCAL/MOL
REMARK 923 INTER-LIGAND FREE ENERGY PREDICTED BY IDOCK:   -4.68 KCAL/MOL
REMARK 924 INTRA-LIGAND FREE ENERGY PREDICTED BY IDOCK:    0.10 KCAL/MOL
REMARK 927      BINDING AFFINITY PREDICTED BY RF-SCORE:    0.00 PKD
ROOT
HETATM    1 NA   UNL     1      -8.318   7.732  71.720  1.00  0.00    -0.094 Na 
HETATM    2 NA   UNL     2     -10.747  13.558  68.347  1.00  0.00    -0.209 Na 
HETATM    3 NA   UNL     3      -5.424   6.387  69.090  1.00  0.00    -0.008 Na 
HETATM    4 NA   UNL     4      -7.176  11.722  67.060  1.00  0.00    -0.094 Na 
HETATM    5  C   UNL     5     -10.202   8.870  69.197  1.00  0.00    -0.214 C  
HETATM    6  C   UNL     5      -9.689   8.809  67.795  1.00  0.00    -0.194 A  
HETATM    7  C   UNL     5      -8.896   7.800  67.253  1.00  0.00    -0.128 A  
HETATM    8  C   UNL     5      -9.987   9.921  67.013  1.00  0.00    -0.254 A  
HETATM    9  C   UNL     5      -8.449   7.893  65.888  1.00  0.00    -0.147 A  
HETATM   10  C   UNL     5      -9.366  10.132  65.792  1.00  0.00    -0.188 A  
HETATM   11  C   UNL     5      -7.784   6.831  65.227  1.00  0.00    -0.106 A  
HETATM   12  C   UNL     5      -8.667   9.093  65.160  1.00  0.00    -0.228 A  
HETATM   13  C   UNL     5      -7.381   6.932  63.891  1.00  0.00    -0.080 A  
HETATM   14  C   UNL     5      -8.205   9.198  63.828  1.00  0.00    -0.173 A  
HETATM   15  C   UNL     5      -7.590   8.118  63.194  1.00  0.00    -0.128 A  
ENDROOT
BRANCH   7  16
HETATM   16  O   UNL     5      -8.581   6.655  67.923  1.00  0.00    -0.119 OA 
HETATM   17  O   UNL     5      -9.208   4.787  69.463  1.00  0.00    -0.104 OA 
HETATM   18  O   UNL     5     -10.968   5.721  68.128  1.00  0.00    -0.230 OA 
HETATM   19  P   UNL     5      -9.490   5.334  68.081  1.00  0.00    -0.134 P  
HETATM   20  O   UNL     5      -9.295   4.365  66.942  1.00  0.00    -0.131 OA 
ENDBRANCH   7  16
BRANCH  10  21
HETATM   21  O   UNL     5      -9.350  11.410  65.292  1.00  0.00    -0.217 OA 
HETATM   22  P   UNL     5     -10.708  12.311  65.134  1.00  0.00    -0.318 P  
HETATM   23  O   UNL     5     -11.687  11.890  66.242  1.00  0.00    -0.506 OA 
HETATM   24  O   UNL     5     -11.396  11.997  63.827  1.00  0.00    -0.375 OA 
HETATM   25  O   UNL     5     -10.326  13.723  65.436  1.00  0.00    -0.305 OA 
ENDBRANCH  10  21
TORSDOF 2
ENDMDL
MODEL       79
REMARK 921   NORMALIZED FREE ENERGY PREDICTED BY IDOCK:   -3.99 KCAL/MOL
REMARK 922        TOTAL FREE ENERGY PREDICTED BY IDOCK:   -4.58 KCAL/MOL
REMARK 923 INTER-LIGAND FREE ENERGY PREDICTED BY IDOCK:   -4.35 KCAL/MOL
REMARK 924 INTRA-LIGAND FREE ENERGY PREDICTED BY IDOCK:   -0.23 KCAL/MOL
REMARK 927      BINDING AFFINITY PREDICTED BY RF-SCORE:    0.00 PKD
ROOT
HETATM    1 NA   UNL     1     -11.384  13.604  67.067  1.00  0.00    -0.271 Na 
HETATM    2 NA   UNL     2     -12.675   7.170  69.923  1.00  0.00    -0.550 Na 
HETATM    3 NA   UNL     3      -9.083  12.613  63.777  1.00  0.00    -0.496 Na 
HETATM    4 NA   UNL     4     -11.084   7.458  66.029  1.00  0.00    -0.384 Na 
HETATM    5  C   UNL     5     -10.099  11.066  68.834  1.00  0.00    -0.212 C  
HETATM    6  C   UNL     5      -9.160  10.103  68.185  1.00  0.00    -0.128 A  
HETATM    7  C   UNL     5      -8.210  10.411  67.213  1.00  0.00    -0.121 A  
HETATM    8  C   UNL     5      -9.338   8.773  68.553  1.00  0.00    -0.142 A  
HETATM    9  C   UNL     5      -7.393   9.366  66.653  1.00  0.00    -0.090 A  
HETATM   10  C   UNL     5      -8.731   7.743  67.850  1.00  0.00    -0.124 A  
HETATM   11  C   UNL     5      -6.301   9.630  65.789  1.00  0.00    -0.075 A  
HETATM   12  C   UNL     5      -7.682   8.010  66.960  1.00  0.00    -0.100 A  
HETATM   13  C   UNL     5      -5.503   8.602  65.276  1.00  0.00    -0.039 A  
HETATM   14  C   UNL     5      -6.899   6.980  66.389  1.00  0.00    -0.061 A  
HETATM   15  C   UNL     5      -5.805   7.278  65.575  1.00  0.00    -0.037 A  
ENDROOT
BRANCH   7  16
HETATM   16  O   UNL     5      -7.934  11.684  66.813  1.00  0.00    -0.161 OA 
HETATM   17  O   UNL     5      -7.576  14.104  67.333  1.00  0.00    -0.182 OA 
HETATM   18  O   UNL     5      -6.969  12.532  69.040  1.00  0.00    -0.102 OA 
HETATM   19  P   UNL     5      -6.949  12.741  67.526  1.00  0.00    -0.094 P  
HETATM   20  O   UNL     5      -5.523  12.604  67.053  1.00  0.00    -0.340 OA 
ENDBRANCH   7  16
BRANCH  10  21
HETATM   21  O   UNL     5      -9.273   6.486  67.959  1.00  0.00    -0.115 OA 
HETATM   22  P   UNL     5      -8.889   5.464  69.180  1.00  0.00    -0.101 P  
HETATM   23  O   UNL     5      -8.560   6.311  70.420  1.00  0.00    -0.138 OA 
HETATM   24  O   UNL     5      -7.630   4.700  68.848  1.00  0.00    -0.063 OA 
HETATM   25  O   UNL     5     -10.134   4.708  69.515  1.00  0.00    -0.222 OA 
ENDBRANCH  10  21
TORSDOF 2
ENDMDL
MODEL       80
REMARK 921   NORMALIZED FREE ENERGY PREDICTED BY IDOCK:   -3.98 KCAL/MOL
REMARK 922        TOTAL FREE ENERGY PREDICTED BY IDOCK:   -4.57 KCAL/MOL
REMARK 923 INTER-LIGAND FREE ENERGY PREDICTED BY IDOCK:   -6.65 KCAL/MOL
REMARK 924 INTRA-LIGAND FREE ENERGY PREDICTED BY IDOCK:    2.08 KCAL/MOL
REMARK 927      BINDING AFFINITY PREDICTED BY RF-SCORE:    0.00 PKD
ROOT
HETATM    1 NA   UNL     1      -8.160  18.516  66.895  1.00  0.00    -0.212 Na 
HETATM    2 NA   UNL     2     -13.153  14.619  63.561  1.00  0.00    -0.737 Na 
HETATM    3 NA   UNL     3      -5.148  15.734  67.432  1.00  0.00    -0.099 Na 
HETATM    4 NA   UNL     4      -9.230  13.122  63.943  1.00  0.00    -0.532 Na 
HETATM    5  C   UNL     5     -10.514  16.161  67.257  1.00  0.00    -0.309 C  
HETATM    6  C   UNL     5     -10.120  14.728  67.404  1.00  0.00    -0.231 A  
HETATM    7  C   UNL     5      -8.995  14.249  68.073  1.00  0.00    -0.183 A  
HETATM    8  C   UNL     5     -10.934  13.824  66.728  1.00  0.00    -0.307 A  
HETATM    9  C   UNL     5      -8.727  12.835  68.105  1.00  0.00    -0.193 A  
HETATM   10  C   UNL     5     -10.553  12.502  66.550  1.00  0.00    -0.242 A  
HETATM   11  C   UNL     5      -7.701  12.268  68.902  1.00  0.00     0.059 A  
HETATM   12  C   UNL     5      -9.506  11.956  67.306  1.00  0.00    -0.176 A  
HETATM   13  C   UNL     5      -7.473  10.889  68.938  1.00  0.00    -0.116 A  
HETATM   14  C   UNL     5      -9.227  10.570  67.313  1.00  0.00    -0.156 A  
HETATM   15  C   UNL     5      -8.236  10.041  68.141  1.00  0.00    -0.109 A  
ENDROOT
BRANCH   7  16
HETATM   16  O   UNL     5      -8.159  15.046  68.795  1.00  0.00    -0.146 OA 
HETATM   17  O   UNL     5      -6.181  16.571  68.937  1.00  0.00    -0.136 OA 
HETATM   18  O   UNL     5      -7.386  16.555  66.862  1.00  0.00    -0.179 OA 
HETATM   19  P   UNL     5      -7.584  16.493  68.377  1.00  0.00    -0.211 P  
HETATM   20  O   UNL     5      -8.511  17.614  68.775  1.00  0.00    -0.280 OA 
ENDBRANCH   7  16
BRANCH  10  21
HETATM   21  O   UNL     5     -11.144  11.796  65.532  1.00  0.00    -0.305 OA 
HETATM   22  P   UNL     5     -11.969  12.523  64.319  1.00  0.00    -0.469 P  
HETATM   23  O   UNL     5     -11.343  13.907  64.083  1.00  0.00    -0.329 OA 
HETATM   24  O   UNL     5     -13.399  12.776  64.735  1.00  0.00    -0.736 OA 
HETATM   25  O   UNL     5     -11.700  11.731  63.081  1.00  0.00    -0.310 OA 
ENDBRANCH  10  21
TORSDOF 2
ENDMDL
MODEL       81
REMARK 921   NORMALIZED FREE ENERGY PREDICTED BY IDOCK:   -3.95 KCAL/MOL
REMARK 922        TOTAL FREE ENERGY PREDICTED BY IDOCK:   -4.53 KCAL/MOL
REMARK 923 INTER-LIGAND FREE ENERGY PREDICTED BY IDOCK:   -4.58 KCAL/MOL
REMARK 924 INTRA-LIGAND FREE ENERGY PREDICTED BY IDOCK:    0.04 KCAL/MOL
REMARK 927      BINDING AFFINITY PREDICTED BY RF-SCORE:    0.00 PKD
ROOT
HETATM    1 NA   UNL     1     -12.796  13.624  68.796  1.00  0.00    -0.306 Na 
HETATM    2 NA   UNL     2     -13.341   8.748  74.008  1.00  0.00    -0.417 Na 
HETATM    3 NA   UNL     3     -12.724  11.236  65.420  1.00  0.00     0.372 Na 
HETATM    4 NA   UNL     4     -13.992   7.618  69.998  1.00  0.00    -0.117 Na 
HETATM    5  C   UNL     5     -11.170  11.300  70.576  1.00  0.00     0.279 C  
HETATM    6  C   UNL     5     -10.861   9.972  69.966  1.00  0.00    -0.352 A  
HETATM    7  C   UNL     5     -10.523   9.738  68.635  1.00  0.00    -0.208 A  
HETATM    8  C   UNL     5     -11.015   8.885  70.821  1.00  0.00    -0.305 A  
HETATM    9  C   UNL     5     -10.283   8.392  68.182  1.00  0.00    -0.253 A  
HETATM   10  C   UNL     5     -11.023   7.584  70.341  1.00  0.00    -0.251 A  
HETATM   11  C   UNL     5      -9.777   8.099  66.891  1.00  0.00    -0.291 A  
HETATM   12  C   UNL     5     -10.566   7.301  69.046  1.00  0.00    -0.214 A  
HETATM   13  C   UNL     5      -9.525   6.786  66.479  1.00  0.00    -0.193 A  
HETATM   14  C   UNL     5     -10.358   5.978  68.594  1.00  0.00    -0.264 A  
HETATM   15  C   UNL     5      -9.818   5.727  67.331  1.00  0.00    -0.154 A  
ENDROOT
BRANCH   7  16
HETATM   16  O   UNL     5     -10.313  10.735  67.730  1.00  0.00    -0.177 OA 
HETATM   17  O   UNL     5      -9.295  12.932  67.103  1.00  0.00    -0.212 OA 
HETATM   18  O   UNL     5      -8.097  11.605  68.702  1.00  0.00    -0.150 OA 
HETATM   19  P   UNL     5      -8.928  11.500  67.423  1.00  0.00    -0.165 P  
HETATM   20  O   UNL     5      -8.100  10.789  66.382  1.00  0.00    -0.141 OA 
ENDBRANCH   7  16
BRANCH  10  21
HETATM   21  O   UNL     5     -11.607   6.616  71.119  1.00  0.00    -0.298 OA 
HETATM   22  P   UNL     5     -10.735   5.602  72.064  1.00  0.00    -0.223 P  
HETATM   23  O   UNL     5      -9.470   6.347  72.518  1.00  0.00    -0.147 OA 
HETATM   24  O   UNL     5     -10.257   4.417  71.260  1.00  0.00    -0.161 OA 
HETATM   25  O   UNL     5     -11.542   5.367  73.300  1.00  0.00    -0.225 OA 
ENDBRANCH  10  21
TORSDOF 2
ENDMDL
MODEL       82
REMARK 921   NORMALIZED FREE ENERGY PREDICTED BY IDOCK:   -3.93 KCAL/MOL
REMARK 922        TOTAL FREE ENERGY PREDICTED BY IDOCK:   -4.52 KCAL/MOL
REMARK 923 INTER-LIGAND FREE ENERGY PREDICTED BY IDOCK:   -6.81 KCAL/MOL
REMARK 924 INTRA-LIGAND FREE ENERGY PREDICTED BY IDOCK:    2.30 KCAL/MOL
REMARK 927      BINDING AFFINITY PREDICTED BY RF-SCORE:    0.00 PKD
ROOT
HETATM    1 NA   UNL     1     -10.821  13.857  63.176  1.00  0.00    -0.317 Na 
HETATM    2 NA   UNL     2      -6.721  18.762  66.395  1.00  0.00    -0.173 Na 
HETATM    3 NA   UNL     3     -14.326  14.137  65.353  1.00  0.00    -0.623 Na 
HETATM    4 NA   UNL     4     -10.863  18.646  67.178  1.00  0.00    -0.345 Na 
HETATM    5  C   UNL     5      -8.984  14.564  65.885  1.00  0.00     0.346 C  
HETATM    6  C   UNL     5      -9.655  14.919  67.171  1.00  0.00    -0.229 A  
HETATM    7  C   UNL     5     -10.849  14.384  67.650  1.00  0.00    -0.273 A  
HETATM    8  C   UNL     5      -9.041  15.940  67.891  1.00  0.00    -0.190 A  
HETATM    9  C   UNL     5     -11.394  14.850  68.899  1.00  0.00    -0.301 A  
HETATM   10  C   UNL     5      -9.678  16.556  68.957  1.00  0.00    -0.258 A  
HETATM   11  C   UNL     5     -12.509  14.236  69.522  1.00  0.00    -0.169 A  
HETATM   12  C   UNL     5     -10.810  15.972  69.543  1.00  0.00    -0.317 A  
HETATM   13  C   UNL     5     -13.007  14.687  70.749  1.00  0.00    -0.405 A  
HETATM   14  C   UNL     5     -11.360  16.449  70.755  1.00  0.00    -0.211 A  
HETATM   15  C   UNL     5     -12.433  15.795  71.363  1.00  0.00    -0.513 A  
ENDROOT
BRANCH   7  16
HETATM   16  O   UNL     5     -11.506  13.358  67.040  1.00  0.00    -0.307 OA 
HETATM   17  O   UNL     5     -13.080  12.509  65.291  1.00  0.00    -0.531 OA 
HETATM   18  O   UNL     5     -11.827  14.482  64.749  1.00  0.00    -0.399 OA 
HETATM   19  P   UNL     5     -11.711  13.132  65.458  1.00  0.00    -0.405 P  
HETATM   20  O   UNL     5     -10.567  12.372  64.835  1.00  0.00    -0.276 OA 
ENDBRANCH   7  16
BRANCH  10  21
HETATM   21  O   UNL     5      -9.245  17.805  69.328  1.00  0.00     0.002 OA 
HETATM   22  P   UNL     5      -8.269  18.716  68.381  1.00  0.00    -0.334 P  
HETATM   23  O   UNL     5      -8.577  18.373  66.914  1.00  0.00    -0.255 OA 
HETATM   24  O   UNL     5      -6.823  18.342  68.603  1.00  0.00    -0.236 OA 
HETATM   25  O   UNL     5      -8.692  20.137  68.569  1.00  0.00    -0.091 OA 
ENDBRANCH  10  21
TORSDOF 2
ENDMDL
MODEL       83
REMARK 921   NORMALIZED FREE ENERGY PREDICTED BY IDOCK:   -3.91 KCAL/MOL
REMARK 922        TOTAL FREE ENERGY PREDICTED BY IDOCK:   -4.50 KCAL/MOL
REMARK 923 INTER-LIGAND FREE ENERGY PREDICTED BY IDOCK:   -4.28 KCAL/MOL
REMARK 924 INTRA-LIGAND FREE ENERGY PREDICTED BY IDOCK:   -0.21 KCAL/MOL
REMARK 927      BINDING AFFINITY PREDICTED BY RF-SCORE:    0.00 PKD
ROOT
HETATM    1 NA   UNL     1     -12.265  12.298  69.830  1.00  0.00    -0.249 Na 
HETATM    2 NA   UNL     2     -11.772   5.506  72.033  1.00  0.00    -0.252 Na 
HETATM    3 NA   UNL     3     -11.808  11.887  65.740  1.00  0.00    -0.324 Na 
HETATM    4 NA   UNL     4     -12.276   6.353  67.933  1.00  0.00    -0.549 Na 
HETATM    5  C   UNL     5     -10.192   9.732  70.404  1.00  0.00    -0.343 C  
HETATM    6  C   UNL     5      -9.650   8.939  69.260  1.00  0.00    -0.162 A  
HETATM    7  C   UNL     5      -9.300   9.438  68.007  1.00  0.00    -0.129 A  
HETATM    8  C   UNL     5      -9.577   7.567  69.479  1.00  0.00    -0.156 A  
HETATM    9  C   UNL     5      -8.818   8.544  66.987  1.00  0.00    -0.144 A  
HETATM   10  C   UNL     5      -9.348   6.680  68.438  1.00  0.00    -0.123 A  
HETATM   11  C   UNL     5      -8.291   9.003  65.754  1.00  0.00    -0.133 A  
HETATM   12  C   UNL     5      -8.872   7.141  67.202  1.00  0.00    -0.121 A  
HETATM   13  C   UNL     5      -7.803   8.118  64.786  1.00  0.00    -0.137 A  
HETATM   14  C   UNL     5      -8.425   6.259  66.192  1.00  0.00    -0.138 A  
HETATM   15  C   UNL     5      -7.873   6.746  65.006  1.00  0.00    -0.118 A  
ENDROOT
BRANCH   7  16
HETATM   16  O   UNL     5      -9.301  10.767  67.705  1.00  0.00    -0.146 OA 
HETATM   17  O   UNL     5      -8.900  13.150  68.349  1.00  0.00    -0.175 OA 
HETATM   18  O   UNL     5      -7.525  11.499  69.415  1.00  0.00    -0.031 OA 
HETATM   19  P   UNL     5      -8.170  11.854  68.075  1.00  0.00    -0.174 P  
HETATM   20  O   UNL     5      -7.080  11.925  67.034  1.00  0.00    -0.142 OA 
ENDBRANCH   7  16
BRANCH  10  21
HETATM   21  O   UNL     5      -9.723   5.371  68.616  1.00  0.00    -0.123 OA 
HETATM   22  P   UNL     5      -8.791   4.291  69.419  1.00  0.00    -0.111 P  
HETATM   23  O   UNL     5      -7.996   5.055  70.490  1.00  0.00    -0.078 OA 
HETATM   24  O   UNL     5      -7.766   3.687  68.489  1.00  0.00    -0.057 OA 
HETATM   25  O   UNL     5      -9.723   3.389  70.162  1.00  0.00    -0.168 OA 
ENDBRANCH  10  21
TORSDOF 2
ENDMDL
MODEL       84
REMARK 921   NORMALIZED FREE ENERGY PREDICTED BY IDOCK:   -3.89 KCAL/MOL
REMARK 922        TOTAL FREE ENERGY PREDICTED BY IDOCK:   -4.47 KCAL/MOL
REMARK 923 INTER-LIGAND FREE ENERGY PREDICTED BY IDOCK:   -4.64 KCAL/MOL
REMARK 924 INTRA-LIGAND FREE ENERGY PREDICTED BY IDOCK:    0.17 KCAL/MOL
REMARK 927      BINDING AFFINITY PREDICTED BY RF-SCORE:    0.00 PKD
ROOT
HETATM    1 NA   UNL     1      -5.606   7.149  67.611  1.00  0.00    -0.016 Na 
HETATM    2 NA   UNL     2      -8.138   3.108  72.949  1.00  0.00    -0.059 Na 
HETATM    3 NA   UNL     3      -6.899  10.915  68.727  1.00  0.00    -0.053 Na 
HETATM    4 NA   UNL     4      -8.097   7.307  73.332  1.00  0.00    -0.098 Na 
HETATM    5  C   UNL     5      -8.334   5.728  68.937  1.00  0.00    -0.101 C  
HETATM    6  C   UNL     5      -9.321   6.562  69.686  1.00  0.00    -0.144 A  
HETATM    7  C   UNL     5      -9.682   7.875  69.389  1.00  0.00    -0.170 A  
HETATM    8  C   UNL     5      -9.848   5.964  70.826  1.00  0.00    -0.229 A  
HETATM    9  C   UNL     5     -10.629   8.566  70.224  1.00  0.00    -0.238 A  
HETATM   10  C   UNL     5     -10.565   6.696  71.761  1.00  0.00    -0.215 A  
HETATM   11  C   UNL     5     -11.163   9.834  69.888  1.00  0.00    -0.271 A  
HETATM   12  C   UNL     5     -11.052   7.972  71.443  1.00  0.00    -0.278 A  
HETATM   13  C   UNL     5     -12.102  10.478  70.700  1.00  0.00    -0.452 A  
HETATM   14  C   UNL     5     -11.961   8.660  72.279  1.00  0.00    -0.438 A  
HETATM   15  C   UNL     5     -12.498   9.890  71.897  1.00  0.00    -0.435 A  
ENDROOT
BRANCH   7  16
HETATM   16  O   UNL     5      -9.251   8.535  68.277  1.00  0.00    -0.138 OA 
HETATM   17  O   UNL     5      -8.869   8.627  65.807  1.00  0.00    -0.172 OA 
HETATM   18  O   UNL     5     -10.710   7.290  66.564  1.00  0.00    -0.128 OA 
HETATM   19  P   UNL     5      -9.975   8.602  66.838  1.00  0.00    -0.299 P  
HETATM   20  O   UNL     5     -10.976   9.727  66.752  1.00  0.00    -0.074 OA 
ENDBRANCH   7  16
BRANCH  10  21
HETATM   21  O   UNL     5     -10.667   6.189  73.032  1.00  0.00    -0.227 OA 
HETATM   22  P   UNL     5     -11.023   4.618  73.327  1.00  0.00    -0.313 P  
HETATM   23  O   UNL     5     -10.463   3.779  72.167  1.00  0.00    -0.102 OA 
HETATM   24  O   UNL     5     -12.518   4.407  73.312  1.00  0.00     0.196 OA 
HETATM   25  O   UNL     5     -10.242   4.220  74.538  1.00  0.00    -0.188 OA 
ENDBRANCH  10  21
TORSDOF 2
ENDMDL
MODEL       85
REMARK 921   NORMALIZED FREE ENERGY PREDICTED BY IDOCK:   -3.87 KCAL/MOL
REMARK 922        TOTAL FREE ENERGY PREDICTED BY IDOCK:   -4.45 KCAL/MOL
REMARK 923 INTER-LIGAND FREE ENERGY PREDICTED BY IDOCK:   -5.65 KCAL/MOL
REMARK 924 INTRA-LIGAND FREE ENERGY PREDICTED BY IDOCK:    1.20 KCAL/MOL
REMARK 927      BINDING AFFINITY PREDICTED BY RF-SCORE:    0.00 PKD
ROOT
HETATM    1 NA   UNL     1     -12.658  12.584  67.306  1.00  0.00    -0.290 Na 
HETATM    2 NA   UNL     2     -14.320   7.715  72.282  1.00  0.00    -0.326 Na 
HETATM    3 NA   UNL     3     -10.020  10.475  64.919  1.00  0.00    -0.199 Na 
HETATM    4 NA   UNL     4     -12.309   6.528  68.771  1.00  0.00    -0.543 Na 
HETATM    5  C   UNL     5     -11.601  10.971  70.044  1.00  0.00    -0.427 C  
HETATM    6  C   UNL     5     -10.606   9.863  69.921  1.00  0.00    -0.312 A  
HETATM    7  C   UNL     5      -9.552   9.803  69.012  1.00  0.00    -0.177 A  
HETATM    8  C   UNL     5     -10.837   8.773  70.755  1.00  0.00    -0.282 A  
HETATM    9  C   UNL     5      -8.689   8.650  68.990  1.00  0.00    -0.134 A  
HETATM   10  C   UNL     5     -10.168   7.572  70.575  1.00  0.00    -0.201 A  
HETATM   11  C   UNL     5      -7.506   8.595  68.212  1.00  0.00    -0.095 A  
HETATM   12  C   UNL     5      -9.024   7.509  69.767  1.00  0.00    -0.141 A  
HETATM   13  C   UNL     5      -6.667   7.476  68.224  1.00  0.00    -0.058 A  
HETATM   14  C   UNL     5      -8.194   6.366  69.725  1.00  0.00    -0.126 A  
HETATM   15  C   UNL     5      -7.014   6.361  68.980  1.00  0.00    -0.072 A  
ENDROOT
BRANCH   7  16
HETATM   16  O   UNL     5      -9.221  10.830  68.181  1.00  0.00    -0.142 OA 
HETATM   17  O   UNL     5      -9.475  12.048  66.011  1.00  0.00    -0.234 OA 
HETATM   18  O   UNL     5     -11.403  10.874  66.821  1.00  0.00    -0.288 OA 
HETATM   19  P   UNL     5     -10.221  11.724  67.286  1.00  0.00    -0.210 P  
HETATM   20  O   UNL     5     -10.764  12.909  68.045  1.00  0.00    -0.217 OA 
ENDBRANCH   7  16
BRANCH  10  21
HETATM   21  O   UNL     5     -10.731   6.438  71.105  1.00  0.00    -0.228 OA 
HETATM   22  P   UNL     5     -10.624   6.063  72.696  1.00  0.00    -0.248 P  
HETATM   23  O   UNL     5     -10.559   7.378  73.490  1.00  0.00    -0.376 OA 
HETATM   24  O   UNL     5      -9.329   5.339  72.979  1.00  0.00    -0.133 OA 
HETATM   25  O   UNL     5     -11.918   5.417  73.073  1.00  0.00    -0.193 OA 
ENDBRANCH  10  21
TORSDOF 2
ENDMDL
MODEL       86
REMARK 921   NORMALIZED FREE ENERGY PREDICTED BY IDOCK:   -3.87 KCAL/MOL
REMARK 922        TOTAL FREE ENERGY PREDICTED BY IDOCK:   -4.45 KCAL/MOL
REMARK 923 INTER-LIGAND FREE ENERGY PREDICTED BY IDOCK:   -5.19 KCAL/MOL
REMARK 924 INTRA-LIGAND FREE ENERGY PREDICTED BY IDOCK:    0.74 KCAL/MOL
REMARK 927      BINDING AFFINITY PREDICTED BY RF-SCORE:    0.00 PKD
ROOT
HETATM    1 NA   UNL     1      -5.631   8.036  66.209  1.00  0.00    -0.025 Na 
HETATM    2 NA   UNL     2      -9.676  13.155  63.266  1.00  0.00    -0.230 Na 
HETATM    3 NA   UNL     3      -8.382   6.051  68.575  1.00  0.00    -0.102 Na 
HETATM    4 NA   UNL     4     -11.503   9.934  65.282  1.00  0.00     0.447 Na 
HETATM    5  C   UNL     5      -7.176  10.962  66.722  1.00  0.00    -0.134 C  
HETATM    6  C   UNL     5      -8.454  11.007  67.494  1.00  0.00    -0.127 A  
HETATM    7  C   UNL     5      -8.784  10.206  68.585  1.00  0.00    -0.128 A  
HETATM    8  C   UNL     5      -9.409  11.889  66.996  1.00  0.00    -0.188 A  
HETATM    9  C   UNL     5     -10.073  10.342  69.212  1.00  0.00    -0.244 A  
HETATM   10  C   UNL     5     -10.723  11.853  67.436  1.00  0.00    -0.232 A  
HETATM   11  C   UNL     5     -10.410   9.682  70.419  1.00  0.00    -0.350 A  
HETATM   12  C   UNL     5     -11.064  11.160  68.606  1.00  0.00    -0.293 A  
HETATM   13  C   UNL     5     -11.659   9.847  71.026  1.00  0.00    -0.470 A  
HETATM   14  C   UNL     5     -12.339  11.273  69.203  1.00  0.00    -0.115 A  
HETATM   15  C   UNL     5     -12.624  10.642  70.415  1.00  0.00    -0.395 A  
ENDROOT
BRANCH   7  16
HETATM   16  O   UNL     5      -7.908   9.341  69.170  1.00  0.00    -0.082 OA 
HETATM   17  O   UNL     5      -5.618   8.795  70.016  1.00  0.00    -0.028 OA 
HETATM   18  O   UNL     5      -6.285  11.098  70.115  1.00  0.00    -0.128 OA 
HETATM   19  P   UNL     5      -6.814   9.676  70.305  1.00  0.00    -0.134 P  
HETATM   20  O   UNL     5      -7.383   9.569  71.698  1.00  0.00    -0.293 OA 
ENDBRANCH   7  16
BRANCH  10  21
HETATM   21  O   UNL     5     -11.686  12.405  66.627  1.00  0.00    -0.397 OA 
HETATM   22  P   UNL     5     -11.399  12.806  65.065  1.00  0.00    -0.342 P  
HETATM   23  O   UNL     5     -10.340  11.837  64.514  1.00  0.00    -0.263 OA 
HETATM   24  O   UNL     5     -10.789  14.185  64.981  1.00  0.00    -0.350 OA 
HETATM   25  O   UNL     5     -12.655  12.517  64.310  1.00  0.00    -0.582 OA 
ENDBRANCH  10  21
TORSDOF 2
ENDMDL
MODEL       87
REMARK 921   NORMALIZED FREE ENERGY PREDICTED BY IDOCK:   -3.83 KCAL/MOL
REMARK 922        TOTAL FREE ENERGY PREDICTED BY IDOCK:   -4.41 KCAL/MOL
REMARK 923 INTER-LIGAND FREE ENERGY PREDICTED BY IDOCK:   -4.36 KCAL/MOL
REMARK 924 INTRA-LIGAND FREE ENERGY PREDICTED BY IDOCK:   -0.05 KCAL/MOL
REMARK 927      BINDING AFFINITY PREDICTED BY RF-SCORE:    0.00 PKD
ROOT
HETATM    1 NA   UNL     1     -13.233  10.688  69.293  1.00  0.00    -0.453 Na 
HETATM    2 NA   UNL     2     -10.616   4.026  69.258  1.00  0.00    -0.082 Na 
HETATM    3 NA   UNL     3     -12.830  11.767  65.321  1.00  0.00    -0.237 Na 
HETATM    4 NA   UNL     4     -11.510   5.951  65.614  1.00  0.00    -0.537 Na 
HETATM    5  C   UNL     5     -10.458   8.819  69.154  1.00  0.00    -0.230 C  
HETATM    6  C   UNL     5      -9.745   8.636  67.854  1.00  0.00    -0.192 A  
HETATM    7  C   UNL     5      -9.612   9.591  66.849  1.00  0.00    -0.165 A  
HETATM    8  C   UNL     5      -9.251   7.355  67.632  1.00  0.00    -0.132 A  
HETATM    9  C   UNL     5      -8.920   9.259  65.630  1.00  0.00    -0.243 A  
HETATM   10  C   UNL     5      -8.803   6.960  66.380  1.00  0.00    -0.145 A  
HETATM   11  C   UNL     5      -8.605  10.225  64.642  1.00  0.00    -0.194 A  
HETATM   12  C   UNL     5      -8.537   7.914  65.387  1.00  0.00    -0.118 A  
HETATM   13  C   UNL     5      -7.909   9.886  63.477  1.00  0.00    -0.150 A  
HETATM   14  C   UNL     5      -7.883   7.579  64.179  1.00  0.00    -0.130 A  
HETATM   15  C   UNL     5      -7.551   8.562  63.246  1.00  0.00    -0.119 A  
ENDROOT
BRANCH   7  16
HETATM   16  O   UNL     5     -10.028  10.882  66.984  1.00  0.00    -0.183 OA 
HETATM   17  O   UNL     5     -10.427  12.909  68.394  1.00  0.00    -0.241 OA 
HETATM   18  O   UNL     5      -8.628  11.468  69.059  1.00  0.00    -0.030 OA 
HETATM   19  P   UNL     5      -9.314  12.056  67.826  1.00  0.00    -0.204 P  
HETATM   20  O   UNL     5      -8.275  12.791  67.017  1.00  0.00    -0.169 OA 
ENDBRANCH   7  16
BRANCH  10  21
HETATM   21  O   UNL     5      -8.755   5.615  66.110  1.00  0.00    -0.126 OA 
HETATM   22  P   UNL     5      -7.629   4.625  66.768  1.00  0.00    -0.087 P  
HETATM   23  O   UNL     5      -7.257   5.184  68.151  1.00  0.00    -0.065 OA 
HETATM   24  O   UNL     5      -6.361   4.655  65.949  1.00  0.00    -0.034 OA 
HETATM   25  O   UNL     5      -8.303   3.316  67.020  1.00  0.00    -0.092 OA 
ENDBRANCH  10  21
TORSDOF 2
ENDMDL
MODEL       88
REMARK 921   NORMALIZED FREE ENERGY PREDICTED BY IDOCK:   -3.72 KCAL/MOL
REMARK 922        TOTAL FREE ENERGY PREDICTED BY IDOCK:   -4.28 KCAL/MOL
REMARK 923 INTER-LIGAND FREE ENERGY PREDICTED BY IDOCK:   -5.38 KCAL/MOL
REMARK 924 INTRA-LIGAND FREE ENERGY PREDICTED BY IDOCK:    1.11 KCAL/MOL
REMARK 927      BINDING AFFINITY PREDICTED BY RF-SCORE:    0.00 PKD
ROOT
HETATM    1 NA   UNL     1     -11.146   8.280  66.089  1.00  0.00    -0.214 Na 
HETATM    2 NA   UNL     2     -13.156  14.841  64.054  1.00  0.00    -0.609 Na 
HETATM    3 NA   UNL     3      -9.666   8.997  69.884  1.00  0.00    -0.153 Na 
HETATM    4 NA   UNL     4     -12.218  14.091  68.096  1.00  0.00    -0.290 Na 
HETATM    5  C   UNL     5     -10.097  11.276  65.023  1.00  0.00    -0.331 C  
HETATM    6  C   UNL     5      -9.485  12.240  65.987  1.00  0.00    -0.194 A  
HETATM    7  C   UNL     5      -8.670  11.914  67.069  1.00  0.00    -0.181 A  
HETATM    8  C   UNL     5      -9.851  13.569  65.799  1.00  0.00    -0.218 A  
HETATM    9  C   UNL     5      -8.176  12.953  67.934  1.00  0.00    -0.165 A  
HETATM   10  C   UNL     5      -9.582  14.534  66.757  1.00  0.00    -0.263 A  
HETATM   11  C   UNL     5      -7.215  12.713  68.947  1.00  0.00    -0.045 A  
HETATM   12  C   UNL     5      -8.666  14.278  67.788  1.00  0.00    -0.179 A  
HETATM   13  C   UNL     5      -6.728  13.741  69.760  1.00  0.00     0.027 A  
HETATM   14  C   UNL     5      -8.204  15.295  68.653  1.00  0.00    -0.159 A  
HETATM   15  C   UNL     5      -7.226  15.032  69.614  1.00  0.00    -0.192 A  
ENDROOT
BRANCH   7  16
HETATM   16  O   UNL     5      -8.225  10.649  67.316  1.00  0.00    -0.115 OA 
HETATM   17  O   UNL     5      -7.059   8.564  66.576  1.00  0.00    -0.077 OA 
HETATM   18  O   UNL     5      -6.322  10.621  65.587  1.00  0.00    -0.128 OA 
HETATM   19  P   UNL     5      -6.800  10.017  66.907  1.00  0.00    -0.092 P  
HETATM   20  O   UNL     5      -5.741  10.271  67.951  1.00  0.00    -0.041 OA 
ENDBRANCH   7  16
BRANCH  10  21
HETATM   21  O   UNL     5     -10.331  15.685  66.737  1.00  0.00    -0.274 OA 
HETATM   22  P   UNL     5      -9.660  17.167  66.551  1.00  0.00    -0.285 P  
HETATM   23  O   UNL     5      -8.397  17.012  65.689  1.00  0.00    -0.417 OA 
HETATM   24  O   UNL     5      -9.195  17.704  67.883  1.00  0.00    -0.257 OA 
HETATM   25  O   UNL     5     -10.619  17.973  65.735  1.00  0.00    -0.528 OA 
ENDBRANCH  10  21
TORSDOF 2
ENDMDL
MODEL       89
REMARK 921   NORMALIZED FREE ENERGY PREDICTED BY IDOCK:   -3.70 KCAL/MOL
REMARK 922        TOTAL FREE ENERGY PREDICTED BY IDOCK:   -4.26 KCAL/MOL
REMARK 923 INTER-LIGAND FREE ENERGY PREDICTED BY IDOCK:   -4.06 KCAL/MOL
REMARK 924 INTRA-LIGAND FREE ENERGY PREDICTED BY IDOCK:   -0.21 KCAL/MOL
REMARK 927      BINDING AFFINITY PREDICTED BY RF-SCORE:    0.00 PKD
ROOT
HETATM    1 NA   UNL     1     -10.835  11.767  70.445  1.00  0.00    -0.457 Na 
HETATM    2 NA   UNL     2     -12.430   5.518  73.547  1.00  0.00    -0.477 Na 
HETATM    3 NA   UNL     3      -9.822  10.569  66.619  1.00  0.00    -0.163 Na 
HETATM    4 NA   UNL     4     -12.017   5.737  69.356  1.00  0.00    -0.327 Na 
HETATM    5  C   UNL     5      -9.596   8.943  71.748  1.00  0.00    -0.353 C  
HETATM    6  C   UNL     5      -9.086   7.865  70.848  1.00  0.00    -0.157 A  
HETATM    7  C   UNL     5      -8.419   8.052  69.639  1.00  0.00    -0.131 A  
HETATM    8  C   UNL     5      -9.397   6.570  71.250  1.00  0.00    -0.158 A  
HETATM    9  C   UNL     5      -8.014   6.911  68.860  1.00  0.00    -0.116 A  
HETATM   10  C   UNL     5      -9.227   5.489  70.398  1.00  0.00    -0.151 A  
HETATM   11  C   UNL     5      -7.191   7.022  67.711  1.00  0.00    -0.091 A  
HETATM   12  C   UNL     5      -8.452   5.613  69.237  1.00  0.00    -0.106 A  
HETATM   13  C   UNL     5      -6.786   5.899  66.983  1.00  0.00    -0.063 A  
HETATM   14  C   UNL     5      -8.078   4.494  68.458  1.00  0.00    -0.082 A  
HETATM   15  C   UNL     5      -7.233   4.636  67.356  1.00  0.00    -0.073 A  
ENDROOT
BRANCH   7  16
HETATM   16  O   UNL     5      -8.037   9.275  69.176  1.00  0.00    -0.100 OA 
HETATM   17  O   UNL     5      -7.173  11.587  69.581  1.00  0.00    -0.011 OA 
HETATM   18  O   UNL     5      -6.457   9.884  71.111  1.00  0.00    -0.280 OA 
HETATM   19  P   UNL     5      -6.752  10.135  69.632  1.00  0.00    -0.108 P  
HETATM   20  O   UNL     5      -5.518   9.783  68.841  1.00  0.00    -0.036 OA 
ENDBRANCH   7  16
BRANCH  10  21
HETATM   21  O   UNL     5      -9.941   4.346  70.661  1.00  0.00    -0.212 OA 
HETATM   22  P   UNL     5      -9.414   3.200  71.705  1.00  0.00    -0.160 P  
HETATM   23  O   UNL     5      -8.578   3.896  72.790  1.00  0.00    -0.097 OA 
HETATM   24  O   UNL     5      -8.479   2.243  71.005  1.00  0.00    -0.052 OA 
HETATM   25  O   UNL     5     -10.624   2.662  72.398  1.00  0.00    -0.094 OA 
ENDBRANCH  10  21
TORSDOF 2
ENDMDL
MODEL       90
REMARK 921   NORMALIZED FREE ENERGY PREDICTED BY IDOCK:   -3.69 KCAL/MOL
REMARK 922        TOTAL FREE ENERGY PREDICTED BY IDOCK:   -4.25 KCAL/MOL
REMARK 923 INTER-LIGAND FREE ENERGY PREDICTED BY IDOCK:   -5.75 KCAL/MOL
REMARK 924 INTRA-LIGAND FREE ENERGY PREDICTED BY IDOCK:    1.50 KCAL/MOL
REMARK 927      BINDING AFFINITY PREDICTED BY RF-SCORE:    0.00 PKD
ROOT
HETATM    1 NA   UNL     1     -11.113  18.790  66.189  1.00  0.00    -0.363 Na 
HETATM    2 NA   UNL     2     -13.154  12.002  65.192  1.00  0.00    -0.386 Na 
HETATM    3 NA   UNL     3      -7.029  18.533  65.591  1.00  0.00    -0.192 Na 
HETATM    4 NA   UNL     4      -9.280  13.219  64.056  1.00  0.00    -0.532 Na 
HETATM    5  C   UNL     5     -11.197  15.715  67.513  1.00  0.00    -0.245 C  
HETATM    6  C   UNL     5      -9.960  14.879  67.539  1.00  0.00    -0.219 A  
HETATM    7  C   UNL     5      -8.660  15.341  67.730  1.00  0.00    -0.158 A  
HETATM    8  C   UNL     5     -10.159  13.529  67.262  1.00  0.00    -0.235 A  
HETATM    9  C   UNL     5      -7.557  14.415  67.697  1.00  0.00    -0.195 A  
HETATM   10  C   UNL     5      -9.095  12.683  66.991  1.00  0.00    -0.215 A  
HETATM   11  C   UNL     5      -6.236  14.787  68.047  1.00  0.00    -0.164 A  
HETATM   12  C   UNL     5      -7.782  13.072  67.293  1.00  0.00    -0.112 A  
HETATM   13  C   UNL     5      -5.183  13.866  68.034  1.00  0.00    -0.101 A  
HETATM   14  C   UNL     5      -6.697  12.168  67.233  1.00  0.00    -0.144 A  
HETATM   15  C   UNL     5      -5.415  12.557  67.625  1.00  0.00    -0.123 A  
ENDROOT
BRANCH   7  16
HETATM   16  O   UNL     5      -8.364  16.633  68.043  1.00  0.00    -0.179 OA 
HETATM   17  O   UNL     5      -7.783  18.966  67.354  1.00  0.00    -0.230 OA 
HETATM   18  O   UNL     5      -9.136  17.697  65.833  1.00  0.00    -0.515 OA 
HETATM   19  P   UNL     5      -8.916  17.965  67.322  1.00  0.00    -0.259 P  
HETATM   20  O   UNL     5     -10.222  18.436  67.912  1.00  0.00    -0.344 OA 
ENDBRANCH   7  16
BRANCH  10  21
HETATM   21  O   UNL     5      -9.356  11.522  66.306  1.00  0.00    -0.201 OA 
HETATM   22  P   UNL     5      -9.459  10.067  67.049  1.00  0.00    -0.174 P  
HETATM   23  O   UNL     5      -9.985  10.298  68.475  1.00  0.00    -0.155 OA 
HETATM   24  O   UNL     5      -8.085   9.458  67.204  1.00  0.00    -0.102 OA 
HETATM   25  O   UNL     5     -10.522   9.295  66.337  1.00  0.00    -0.208 OA 
ENDBRANCH  10  21
TORSDOF 2
ENDMDL
MODEL       91
REMARK 921   NORMALIZED FREE ENERGY PREDICTED BY IDOCK:   -3.66 KCAL/MOL
REMARK 922        TOTAL FREE ENERGY PREDICTED BY IDOCK:   -4.21 KCAL/MOL
REMARK 923 INTER-LIGAND FREE ENERGY PREDICTED BY IDOCK:   -7.18 KCAL/MOL
REMARK 924 INTRA-LIGAND FREE ENERGY PREDICTED BY IDOCK:    2.97 KCAL/MOL
REMARK 927      BINDING AFFINITY PREDICTED BY RF-SCORE:    0.00 PKD
ROOT
HETATM    1 NA   UNL     1      -9.471   8.669  73.630  1.00  0.00    -0.210 Na 
HETATM    2 NA   UNL     2     -13.207  14.386  71.490  1.00  0.00    -0.282 Na 
HETATM    3 NA   UNL     3      -6.787   8.209  70.517  1.00  0.00    -0.036 Na 
HETATM    4 NA   UNL     4      -9.602  13.385  69.545  1.00  0.00    -0.381 Na 
HETATM    5  C   UNL     5     -11.832   9.791  71.538  1.00  0.00    -0.476 C  
HETATM    6  C   UNL     5     -11.511  10.009  70.096  1.00  0.00    -0.344 A  
HETATM    7  C   UNL     5     -10.652   9.234  69.319  1.00  0.00    -0.222 A  
HETATM    8  C   UNL     5     -12.080  11.147  69.534  1.00  0.00    -0.396 A  
HETATM    9  C   UNL     5     -10.414   9.586  67.944  1.00  0.00    -0.293 A  
HETATM   10  C   UNL     5     -11.671  11.624  68.298  1.00  0.00    -0.304 A  
HETATM   11  C   UNL     5      -9.688   8.753  67.056  1.00  0.00    -0.258 A  
HETATM   12  C   UNL     5     -10.912  10.816  67.439  1.00  0.00    -0.361 A  
HETATM   13  C   UNL     5      -9.490   9.101  65.716  1.00  0.00    -0.322 A  
HETATM   14  C   UNL     5     -10.656  11.178  66.097  1.00  0.00    -0.305 A  
HETATM   15  C   UNL     5      -9.973  10.315  65.239  1.00  0.00    -0.387 A  
ENDROOT
BRANCH   7  16
HETATM   16  O   UNL     5     -10.076   8.082  69.765  1.00  0.00    -0.189 OA 
HETATM   17  O   UNL     5     -10.143   6.008  71.161  1.00  0.00    -0.185 OA 
HETATM   18  O   UNL     5     -12.244   6.826  70.342  1.00  0.00    -0.324 OA 
HETATM   19  P   UNL     5     -10.780   6.643  69.944  1.00  0.00    -0.302 P  
HETATM   20  O   UNL     5     -10.736   5.822  68.680  1.00  0.00    -0.246 OA 
ENDBRANCH   7  16
BRANCH  10  21
HETATM   21  O   UNL     5     -11.920  12.942  68.003  1.00  0.00    -0.346 OA 
HETATM   22  P   UNL     5     -10.738  14.073  67.959  1.00  0.00    -0.257 P  
HETATM   23  O   UNL     5      -9.437  13.382  67.520  1.00  0.00    -0.206 OA 
HETATM   24  O   UNL     5     -10.477  14.615  69.344  1.00  0.00    -0.227 OA 
HETATM   25  O   UNL     5     -11.092  15.021  66.859  1.00  0.00    -0.324 OA 
ENDBRANCH  10  21
TORSDOF 2
ENDMDL
MODEL       92
REMARK 921   NORMALIZED FREE ENERGY PREDICTED BY IDOCK:   -3.62 KCAL/MOL
REMARK 922        TOTAL FREE ENERGY PREDICTED BY IDOCK:   -4.17 KCAL/MOL
REMARK 923 INTER-LIGAND FREE ENERGY PREDICTED BY IDOCK:   -5.52 KCAL/MOL
REMARK 924 INTRA-LIGAND FREE ENERGY PREDICTED BY IDOCK:    1.35 KCAL/MOL
REMARK 927      BINDING AFFINITY PREDICTED BY RF-SCORE:    0.00 PKD
ROOT
HETATM    1 NA   UNL     1      -6.242  17.262  70.191  1.00  0.00    -0.213 Na 
HETATM    2 NA   UNL     2      -7.699  10.337  71.264  1.00  0.00     0.061 Na 
HETATM    3 NA   UNL     3      -9.798  18.625  68.577  1.00  0.00    -0.268 Na 
HETATM    4 NA   UNL     4     -10.824  13.030  70.393  1.00  0.00    -0.450 Na 
HETATM    5  C   UNL     5      -6.632  14.271  68.737  1.00  0.00    -0.092 C  
HETATM    6  C   UNL     5      -7.883  13.966  67.980  1.00  0.00    -0.154 A  
HETATM    7  C   UNL     5      -8.617  14.863  67.208  1.00  0.00    -0.213 A  
HETATM    8  C   UNL     5      -8.373  12.675  68.155  1.00  0.00    -0.175 A  
HETATM    9  C   UNL     5      -9.827  14.430  66.559  1.00  0.00    -0.298 A  
HETATM   10  C   UNL     5      -9.648  12.323  67.738  1.00  0.00    -0.200 A  
HETATM   11  C   UNL     5     -10.528  15.238  65.630  1.00  0.00    -0.377 A  
HETATM   12  C   UNL     5     -10.360  13.148  66.855  1.00  0.00    -0.247 A  
HETATM   13  C   UNL     5     -11.688  14.789  64.991  1.00  0.00    -0.364 A  
HETATM   14  C   UNL     5     -11.563  12.730  66.242  1.00  0.00    -0.433 A  
HETATM   15  C   UNL     5     -12.206  13.535  65.300  1.00  0.00    -0.474 A  
ENDROOT
BRANCH   7  16
HETATM   16  O   UNL     5      -8.204  16.135  66.946  1.00  0.00    -0.189 OA 
HETATM   17  O   UNL     5      -8.109  18.563  67.540  1.00  0.00    -0.248 OA 
HETATM   18  O   UNL     5      -8.272  17.012  69.362  1.00  0.00     0.001 OA 
HETATM   19  P   UNL     5      -7.616  17.208  67.995  1.00  0.00    -0.204 P  
HETATM   20  O   UNL     5      -6.123  17.079  68.169  1.00  0.00    -0.126 OA 
ENDBRANCH   7  16
BRANCH  10  21
HETATM   21  O   UNL     5     -10.230  11.222  68.314  1.00  0.00    -0.173 OA 
HETATM   22  P   UNL     5      -9.648   9.706  68.101  1.00  0.00    -0.148 P  
HETATM   23  O   UNL     5      -8.127   9.805  67.908  1.00  0.00    -0.111 OA 
HETATM   24  O   UNL     5     -10.194   9.109  66.825  1.00  0.00    -0.248 OA 
HETATM   25  O   UNL     5      -9.854   8.981  69.391  1.00  0.00    -0.175 OA 
ENDBRANCH  10  21
TORSDOF 2
ENDMDL
MODEL       93
REMARK 921   NORMALIZED FREE ENERGY PREDICTED BY IDOCK:   -3.57 KCAL/MOL
REMARK 922        TOTAL FREE ENERGY PREDICTED BY IDOCK:   -4.12 KCAL/MOL
REMARK 923 INTER-LIGAND FREE ENERGY PREDICTED BY IDOCK:   -4.22 KCAL/MOL
REMARK 924 INTRA-LIGAND FREE ENERGY PREDICTED BY IDOCK:    0.11 KCAL/MOL
REMARK 927      BINDING AFFINITY PREDICTED BY RF-SCORE:    0.00 PKD
ROOT
HETATM    1 NA   UNL     1     -10.585   3.665  66.540  1.00  0.00    -0.403 Na 
HETATM    2 NA   UNL     2     -14.211   8.598  70.249  1.00  0.00    -0.450 Na 
HETATM    3 NA   UNL     3      -6.826   3.932  68.244  1.00  0.00    -0.039 Na 
HETATM    4 NA   UNL     4     -10.423   7.323  71.594  1.00  0.00    -0.194 Na 
HETATM    5  C   UNL     5     -11.111   6.942  66.985  1.00  0.00    -0.315 C  
HETATM    6  C   UNL     5     -10.103   7.768  67.715  1.00  0.00    -0.242 A  
HETATM    7  C   UNL     5      -8.720   7.607  67.669  1.00  0.00    -0.122 A  
HETATM    8  C   UNL     5     -10.639   8.725  68.571  1.00  0.00    -0.171 A  
HETATM    9  C   UNL     5      -7.871   8.464  68.456  1.00  0.00    -0.120 A  
HETATM   10  C   UNL     5      -9.851   9.382  69.504  1.00  0.00    -0.183 A  
HETATM   11  C   UNL     5      -6.460   8.465  68.332  1.00  0.00    -0.059 A  
HETATM   12  C   UNL     5      -8.453   9.344  69.407  1.00  0.00    -0.142 A  
HETATM   13  C   UNL     5      -5.655   9.324  69.087  1.00  0.00    -0.036 A  
HETATM   14  C   UNL     5      -7.621  10.166  70.201  1.00  0.00    -0.119 A  
HETATM   15  C   UNL     5      -6.237  10.172  70.023  1.00  0.00    -0.076 A  
ENDROOT
BRANCH   7  16
HETATM   16  O   UNL     5      -8.097   6.726  66.837  1.00  0.00    -0.107 OA 
HETATM   17  O   UNL     5      -7.827   5.671  64.586  1.00  0.00    -0.099 OA 
HETATM   18  O   UNL     5      -8.603   7.940  64.627  1.00  0.00    -0.021 OA 
HETATM   19  P   UNL     5      -7.631   6.981  65.316  1.00  0.00    -0.114 P  
HETATM   20  O   UNL     5      -6.248   7.576  65.232  1.00  0.00    -0.038 OA 
ENDBRANCH   7  16
BRANCH  10  21
HETATM   21  O   UNL     5     -10.477   9.955  70.584  1.00  0.00    -0.292 OA 
HETATM   22  P   UNL     5     -11.794  10.916  70.430  1.00  0.00    -0.364 P  
HETATM   23  O   UNL     5     -12.582  10.447  69.197  1.00  0.00    -0.058 OA 
HETATM   24  O   UNL     5     -11.375  12.338  70.142  1.00  0.00    -0.055 OA 
HETATM   25  O   UNL     5     -12.669  10.638  71.609  1.00  0.00    -0.406 OA 
ENDBRANCH  10  21
TORSDOF 2
ENDMDL
MODEL       94
REMARK 921   NORMALIZED FREE ENERGY PREDICTED BY IDOCK:   -3.55 KCAL/MOL
REMARK 922        TOTAL FREE ENERGY PREDICTED BY IDOCK:   -4.09 KCAL/MOL
REMARK 923 INTER-LIGAND FREE ENERGY PREDICTED BY IDOCK:   -5.26 KCAL/MOL
REMARK 924 INTRA-LIGAND FREE ENERGY PREDICTED BY IDOCK:    1.18 KCAL/MOL
REMARK 927      BINDING AFFINITY PREDICTED BY RF-SCORE:    0.00 PKD
ROOT
HETATM    1 NA   UNL     1     -12.603  13.736  69.346  1.00  0.00    -0.307 Na 
HETATM    2 NA   UNL     2      -9.094   7.596  70.449  1.00  0.00    -0.139 Na 
HETATM    3 NA   UNL     3     -13.745  13.348  65.390  1.00  0.00    -0.629 Na 
HETATM    4 NA   UNL     4     -11.468   8.067  66.996  1.00  0.00    -0.459 Na 
HETATM    5  C   UNL     5      -9.770  12.041  68.781  1.00  0.00    -0.029 C  
HETATM    6  C   UNL     5      -9.517  11.435  67.439  1.00  0.00    -0.174 A  
HETATM    7  C   UNL     5      -9.890  11.976  66.210  1.00  0.00    -0.231 A  
HETATM    8  C   UNL     5      -8.923  10.177  67.467  1.00  0.00    -0.136 A  
HETATM    9  C   UNL     5      -9.605  11.258  64.995  1.00  0.00    -0.267 A  
HETATM   10  C   UNL     5      -8.866   9.381  66.334  1.00  0.00    -0.145 A  
HETATM   11  C   UNL     5      -9.804  11.820  63.710  1.00  0.00    -0.327 A  
HETATM   12  C   UNL     5      -9.110   9.928  65.066  1.00  0.00    -0.264 A  
HETATM   13  C   UNL     5      -9.496  11.116  62.541  1.00  0.00    -0.233 A  
HETATM   14  C   UNL     5      -8.856   9.211  63.875  1.00  0.00    -0.104 A  
HETATM   15  C   UNL     5      -9.025   9.810  62.626  1.00  0.00    -0.284 A  
ENDROOT
BRANCH   7  16
HETATM   16  O   UNL     5     -10.442  13.214  66.074  1.00  0.00    -0.274 OA 
HETATM   17  O   UNL     5     -12.441  14.715  66.004  1.00  0.00    -0.220 OA 
HETATM   18  O   UNL     5     -12.607  12.760  67.384  1.00  0.00     0.028 OA 
HETATM   19  P   UNL     5     -11.632  13.855  66.950  1.00  0.00    -0.422 P  
HETATM   20  O   UNL     5     -11.123  14.548  68.190  1.00  0.00    -0.250 OA 
ENDBRANCH   7  16
BRANCH  10  21
HETATM   21  O   UNL     5      -8.692   8.030  66.507  1.00  0.00    -0.131 OA 
HETATM   22  P   UNL     5      -7.213   7.349  66.684  1.00  0.00    -0.082 P  
HETATM   23  O   UNL     5      -6.298   8.375  67.372  1.00  0.00    -0.055 OA 
HETATM   24  O   UNL     5      -6.595   7.077  65.333  1.00  0.00    -0.045 OA 
HETATM   25  O   UNL     5      -7.372   6.223  67.653  1.00  0.00    -0.080 OA 
ENDBRANCH  10  21
TORSDOF 2
ENDMDL
MODEL       95
REMARK 921   NORMALIZED FREE ENERGY PREDICTED BY IDOCK:   -3.50 KCAL/MOL
REMARK 922        TOTAL FREE ENERGY PREDICTED BY IDOCK:   -4.04 KCAL/MOL
REMARK 923 INTER-LIGAND FREE ENERGY PREDICTED BY IDOCK:   -5.51 KCAL/MOL
REMARK 924 INTRA-LIGAND FREE ENERGY PREDICTED BY IDOCK:    1.47 KCAL/MOL
REMARK 927      BINDING AFFINITY PREDICTED BY RF-SCORE:    0.00 PKD
ROOT
HETATM    1 NA   UNL     1      -9.542  11.402  69.685  1.00  0.00    -0.373 Na 
HETATM    2 NA   UNL     2      -9.057   8.333  63.237  1.00  0.00    -0.403 Na 
HETATM    3 NA   UNL     3      -7.831   8.524  72.112  1.00  0.00    -0.087 Na 
HETATM    4 NA   UNL     4      -6.908   6.731  66.492  1.00  0.00    -0.046 Na 
HETATM    5  C   UNL     5     -10.795   9.058  67.647  1.00  0.00    -0.133 C  
HETATM    6  C   UNL     5     -10.465   7.618  67.872  1.00  0.00    -0.270 A  
HETATM    7  C   UNL     5     -10.294   6.998  69.108  1.00  0.00    -0.201 A  
HETATM    8  C   UNL     5     -10.236   6.882  66.714  1.00  0.00    -0.276 A  
HETATM    9  C   UNL     5      -9.944   5.602  69.167  1.00  0.00    -0.244 A  
HETATM   10  C   UNL     5      -9.668   5.618  66.762  1.00  0.00    -0.154 A  
HETATM   11  C   UNL     5      -9.918   4.872  70.381  1.00  0.00    -0.316 A  
HETATM   12  C   UNL     5      -9.600   4.914  67.973  1.00  0.00    -0.190 A  
HETATM   13  C   UNL     5      -9.601   3.510  70.415  1.00  0.00    -0.241 A  
HETATM   14  C   UNL     5      -9.229   3.552  68.032  1.00  0.00    -0.228 A  
HETATM   15  C   UNL     5      -9.254   2.852  69.239  1.00  0.00    -0.212 A  
ENDROOT
BRANCH   7  16
HETATM   16  O   UNL     5     -10.531   7.620  70.296  1.00  0.00    -0.214 OA 
HETATM   17  O   UNL     5      -9.750   9.009  72.224  1.00  0.00    -0.260 OA 
HETATM   18  O   UNL     5      -8.690   9.407  70.109  1.00  0.00    -0.181 OA 
HETATM   19  P   UNL     5     -10.045   9.091  70.743  1.00  0.00    -0.288 P  
HETATM   20  O   UNL     5     -11.019  10.166  70.329  1.00  0.00    -0.278 OA 
ENDBRANCH   7  16
BRANCH  10  21
HETATM   21  O   UNL     5      -9.067   5.140  65.624  1.00  0.00    -0.154 OA 
HETATM   22  P   UNL     5      -9.785   4.042  64.644  1.00  0.00    -0.174 P  
HETATM   23  O   UNL     5     -11.305   4.258  64.724  1.00  0.00    -0.302 OA 
HETATM   24  O   UNL     5      -9.535   2.642  65.152  1.00  0.00    -0.131 OA 
HETATM   25  O   UNL     5      -9.391   4.392  63.246  1.00  0.00    -0.147 OA 
ENDBRANCH  10  21
TORSDOF 2
ENDMDL
MODEL       96
REMARK 921   NORMALIZED FREE ENERGY PREDICTED BY IDOCK:   -3.50 KCAL/MOL
REMARK 922        TOTAL FREE ENERGY PREDICTED BY IDOCK:   -4.03 KCAL/MOL
REMARK 923 INTER-LIGAND FREE ENERGY PREDICTED BY IDOCK:   -5.55 KCAL/MOL
REMARK 924 INTRA-LIGAND FREE ENERGY PREDICTED BY IDOCK:    1.52 KCAL/MOL
REMARK 927      BINDING AFFINITY PREDICTED BY RF-SCORE:    0.00 PKD
ROOT
HETATM    1 NA   UNL     1     -10.426  12.639  63.065  1.00  0.00    -0.394 Na 
HETATM    2 NA   UNL     2      -5.154  15.854  66.684  1.00  0.00    -0.006 Na 
HETATM    3 NA   UNL     3     -13.778  14.412  64.718  1.00  0.00    -0.565 Na 
HETATM    4 NA   UNL     4      -9.075  17.391  66.879  1.00  0.00    -0.209 Na 
HETATM    5  C   UNL     5      -8.794  12.810  65.984  1.00  0.00     0.353 C  
HETATM    6  C   UNL     5      -9.422  13.498  67.152  1.00  0.00    -0.244 A  
HETATM    7  C   UNL     5     -10.777  13.501  67.473  1.00  0.00    -0.259 A  
HETATM    8  C   UNL     5      -8.549  14.263  67.920  1.00  0.00    -0.171 A  
HETATM    9  C   UNL     5     -11.242  14.239  68.618  1.00  0.00    -0.287 A  
HETATM   10  C   UNL     5      -9.017  15.160  68.867  1.00  0.00    -0.206 A  
HETATM   11  C   UNL     5     -12.573  14.151  69.096  1.00  0.00     0.219 A  
HETATM   12  C   UNL     5     -10.348  15.103  69.306  1.00  0.00    -0.258 A  
HETATM   13  C   UNL     5     -12.999  14.856  70.227  1.00  0.00    -0.192 A  
HETATM   14  C   UNL     5     -10.809  15.850  70.413  1.00  0.00    -0.325 A  
HETATM   15  C   UNL     5     -12.115  15.707  70.883  1.00  0.00    -0.452 A  
ENDROOT
BRANCH   7  16
HETATM   16  O   UNL     5     -11.705  12.757  66.807  1.00  0.00    -0.356 OA 
HETATM   17  O   UNL     5     -13.346  12.479  64.940  1.00  0.00    -0.702 OA 
HETATM   18  O   UNL     5     -11.451  13.885  64.510  1.00  0.00    -0.366 OA 
HETATM   19  P   UNL     5     -11.862  12.590  65.212  1.00  0.00    -0.393 P  
HETATM   20  O   UNL     5     -11.011  11.471  64.666  1.00  0.00    -0.317 OA 
ENDBRANCH   7  16
BRANCH  10  21
HETATM   21  O   UNL     5      -8.180  16.175  69.260  1.00  0.00    -0.239 OA 
HETATM   22  P   UNL     5      -6.574  15.951  69.492  1.00  0.00    -0.158 P  
HETATM   23  O   UNL     5      -6.107  14.845  68.533  1.00  0.00    -0.084 OA 
HETATM   24  O   UNL     5      -6.313  15.434  70.887  1.00  0.00     0.211 OA 
HETATM   25  O   UNL     5      -5.896  17.203  69.039  1.00  0.00    -0.152 OA 
ENDBRANCH  10  21
TORSDOF 2
ENDMDL
MODEL       97
REMARK 921   NORMALIZED FREE ENERGY PREDICTED BY IDOCK:   -3.50 KCAL/MOL
REMARK 922        TOTAL FREE ENERGY PREDICTED BY IDOCK:   -4.03 KCAL/MOL
REMARK 923 INTER-LIGAND FREE ENERGY PREDICTED BY IDOCK:   -5.26 KCAL/MOL
REMARK 924 INTRA-LIGAND FREE ENERGY PREDICTED BY IDOCK:    1.23 KCAL/MOL
REMARK 927      BINDING AFFINITY PREDICTED BY RF-SCORE:    0.00 PKD
ROOT
HETATM    1 NA   UNL     1      -8.324  10.829  64.911  1.00  0.00    -0.158 Na 
HETATM    2 NA   UNL     2     -13.639  10.056  69.642  1.00  0.00    -0.603 Na 
HETATM    3 NA   UNL     3      -7.457   6.895  63.976  1.00  0.00    -0.057 Na 
HETATM    4 NA   UNL     4     -12.411   6.766  67.307  1.00  0.00    -0.560 Na 
HETATM    5  C   UNL     5      -9.113   9.995  68.056  1.00  0.00    -0.132 C  
HETATM    6  C   UNL     5      -9.127   8.559  68.468  1.00  0.00    -0.135 A  
HETATM    7  C   UNL     5      -8.259   7.567  68.017  1.00  0.00    -0.124 A  
HETATM    8  C   UNL     5     -10.168   8.203  69.320  1.00  0.00    -0.216 A  
HETATM    9  C   UNL     5      -8.414   6.212  68.480  1.00  0.00    -0.114 A  
HETATM   10  C   UNL     5     -10.469   6.874  69.576  1.00  0.00    -0.223 A  
HETATM   11  C   UNL     5      -7.472   5.193  68.194  1.00  0.00    -0.076 A  
HETATM   12  C   UNL     5      -9.555   5.862  69.250  1.00  0.00    -0.172 A  
HETATM   13  C   UNL     5      -7.628   3.890  68.676  1.00  0.00    -0.054 A  
HETATM   14  C   UNL     5      -9.725   4.527  69.682  1.00  0.00    -0.288 A  
HETATM   15  C   UNL     5      -8.757   3.558  69.418  1.00  0.00    -0.130 A  
ENDROOT
BRANCH   7  16
HETATM   16  O   UNL     5      -7.188   7.819  67.212  1.00  0.00    -0.086 OA 
HETATM   17  O   UNL     5      -6.182   8.079  64.937  1.00  0.00    -0.048 OA 
HETATM   18  O   UNL     5      -8.498   8.660  65.166  1.00  0.00    -0.165 OA 
HETATM   19  P   UNL     5      -7.154   8.739  65.890  1.00  0.00    -0.085 P  
HETATM   20  O   UNL     5      -6.877  10.187  66.207  1.00  0.00    -0.092 OA 
ENDBRANCH   7  16
BRANCH  10  21
HETATM   21  O   UNL     5     -11.728   6.579  70.036  1.00  0.00    -0.416 OA 
HETATM   22  P   UNL     5     -12.197   6.880  71.576  1.00  0.00    -0.361 P  
HETATM   23  O   UNL     5     -11.426   8.114  72.073  1.00  0.00    -0.278 OA 
HETATM   24  O   UNL     5     -11.791   5.741  72.480  1.00  0.00    -0.297 OA 
HETATM   25  O   UNL     5     -13.633   7.288  71.516  1.00  0.00    -0.388 OA 
ENDBRANCH  10  21
TORSDOF 2
ENDMDL
MODEL       98
REMARK 921   NORMALIZED FREE ENERGY PREDICTED BY IDOCK:   -3.46 KCAL/MOL
REMARK 922        TOTAL FREE ENERGY PREDICTED BY IDOCK:   -3.99 KCAL/MOL
REMARK 923 INTER-LIGAND FREE ENERGY PREDICTED BY IDOCK:   -3.77 KCAL/MOL
REMARK 924 INTRA-LIGAND FREE ENERGY PREDICTED BY IDOCK:   -0.23 KCAL/MOL
REMARK 927      BINDING AFFINITY PREDICTED BY RF-SCORE:    0.00 PKD
ROOT
HETATM    1 NA   UNL     1      -5.804   9.375  66.827  1.00  0.00    -0.046 Na 
HETATM    2 NA   UNL     2      -5.873   2.464  68.688  1.00  0.00    -0.017 Na 
HETATM    3 NA   UNL     3      -6.873  11.208  70.377  1.00  0.00    -0.141 Na 
HETATM    4 NA   UNL     4      -6.010   5.443  71.669  1.00  0.00    -0.019 Na 
HETATM    5  C   UNL     5      -7.734   6.727  67.517  1.00  0.00    -0.110 C  
HETATM    6  C   UNL     5      -8.435   6.635  68.833  1.00  0.00    -0.123 A  
HETATM    7  C   UNL     5      -8.977   7.699  69.551  1.00  0.00    -0.139 A  
HETATM    8  C   UNL     5      -8.456   5.364  69.398  1.00  0.00    -0.099 A  
HETATM    9  C   UNL     5      -9.598   7.461  70.828  1.00  0.00    -0.170 A  
HETATM   10  C   UNL     5      -8.830   5.167  70.719  1.00  0.00    -0.133 A  
HETATM   11  C   UNL     5     -10.312   8.463  71.530  1.00  0.00    -0.296 A  
HETATM   12  C   UNL     5      -9.495   6.178  71.428  1.00  0.00    -0.170 A  
HETATM   13  C   UNL     5     -10.931   8.204  72.757  1.00  0.00    -0.401 A  
HETATM   14  C   UNL     5     -10.079   5.948  72.695  1.00  0.00    -0.201 A  
HETATM   15  C   UNL     5     -10.811   6.946  73.339  1.00  0.00    -0.303 A  
ENDROOT
BRANCH   7  16
HETATM   16  O   UNL     5      -9.039   8.972  69.069  1.00  0.00    -0.141 OA 
HETATM   17  O   UNL     5      -9.394  10.575  67.181  1.00  0.00    -0.153 OA 
HETATM   18  O   UNL     5     -10.589   8.498  67.073  1.00  0.00    -0.306 OA 
HETATM   19  P   UNL     5     -10.130   9.580  68.051  1.00  0.00    -0.211 P  
HETATM   20  O   UNL     5     -11.347  10.112  68.766  1.00  0.00    -0.204 OA 
ENDBRANCH   7  16
BRANCH  10  21
HETATM   21  O   UNL     5      -8.417   4.014  71.338  1.00  0.00    -0.082 OA 
HETATM   22  P   UNL     5      -9.231   2.600  71.198  1.00  0.00    -0.148 P  
HETATM   23  O   UNL     5      -9.907   2.577  69.818  1.00  0.00     0.048 OA 
HETATM   24  O   UNL     5     -10.348   2.535  72.212  1.00  0.00    -0.155 OA 
HETATM   25  O   UNL     5      -8.205   1.514  71.173  1.00  0.00    -0.045 OA 
ENDBRANCH  10  21
TORSDOF 2
ENDMDL
MODEL       99
REMARK 921   NORMALIZED FREE ENERGY PREDICTED BY IDOCK:   -3.46 KCAL/MOL
REMARK 922        TOTAL FREE ENERGY PREDICTED BY IDOCK:   -3.99 KCAL/MOL
REMARK 923 INTER-LIGAND FREE ENERGY PREDICTED BY IDOCK:   -5.58 KCAL/MOL
REMARK 924 INTRA-LIGAND FREE ENERGY PREDICTED BY IDOCK:    1.59 KCAL/MOL
REMARK 927      BINDING AFFINITY PREDICTED BY RF-SCORE:    0.00 PKD
ROOT
HETATM    1 NA   UNL     1     -14.126  12.411  71.783  1.00  0.00    -0.296 Na 
HETATM    2 NA   UNL     2     -11.226   8.637  66.438  1.00  0.00    -0.110 Na 
HETATM    3 NA   UNL     3     -14.393  16.178  70.099  1.00  0.00    -0.777 Na 
HETATM    4 NA   UNL     4     -12.764  12.492  65.694  1.00  0.00    -0.422 Na 
HETATM    5  C   UNL     5     -11.319  11.757  70.079  1.00  0.00    -0.130 C  
HETATM    6  C   UNL     5     -10.806  12.740  69.078  1.00  0.00    -0.192 A  
HETATM    7  C   UNL     5     -10.876  14.127  69.179  1.00  0.00    -0.229 A  
HETATM    8  C   UNL     5     -10.291  12.176  67.915  1.00  0.00    -0.216 A  
HETATM    9  C   UNL     5     -10.365  14.951  68.114  1.00  0.00    -0.237 A  
HETATM   10  C   UNL     5     -10.023  12.950  66.795  1.00  0.00    -0.243 A  
HETATM   11  C   UNL     5     -10.254  16.359  68.223  1.00  0.00    -0.255 A  
HETATM   12  C   UNL     5      -9.959  14.347  66.894  1.00  0.00    -0.261 A  
HETATM   13  C   UNL     5      -9.730  17.139  67.186  1.00  0.00    -0.261 A  
HETATM   14  C   UNL     5      -9.484  15.155  65.837  1.00  0.00    -0.334 A  
HETATM   15  C   UNL     5      -9.348  16.535  65.993  1.00  0.00    -0.302 A  
ENDROOT
BRANCH   7  16
HETATM   16  O   UNL     5     -11.328  14.775  70.290  1.00  0.00    -0.255 OA 
HETATM   17  O   UNL     5     -13.196  15.748  71.638  1.00  0.00    -0.486 OA 
HETATM   18  O   UNL     5     -13.735  13.869  70.247  1.00  0.00     0.645 OA 
HETATM   19  P   UNL     5     -12.640  14.426  71.158  1.00  0.00    -0.398 P  
HETATM   20  O   UNL     5     -12.361  13.406  72.233  1.00  0.00     0.140 OA 
ENDBRANCH   7  16
BRANCH  10  21
HETATM   21  O   UNL     5      -9.952  12.316  65.580  1.00  0.00    -0.252 OA 
HETATM   22  P   UNL     5      -9.298  10.825  65.401  1.00  0.00    -0.232 P  
HETATM   23  O   UNL     5      -9.532  10.045  66.704  1.00  0.00    -0.161 OA 
HETATM   24  O   UNL     5      -7.800  10.926  65.237  1.00  0.00    -0.030 OA 
HETATM   25  O   UNL     5     -10.101  10.127  64.352  1.00  0.00    -0.282 OA 
ENDBRANCH  10  21
TORSDOF 2
ENDMDL
MODEL      100
REMARK 921   NORMALIZED FREE ENERGY PREDICTED BY IDOCK:   -3.43 KCAL/MOL
REMARK 922        TOTAL FREE ENERGY PREDICTED BY IDOCK:   -3.96 KCAL/MOL
REMARK 923 INTER-LIGAND FREE ENERGY PREDICTED BY IDOCK:   -4.25 KCAL/MOL
REMARK 924 INTRA-LIGAND FREE ENERGY PREDICTED BY IDOCK:    0.29 KCAL/MOL
REMARK 927      BINDING AFFINITY PREDICTED BY RF-SCORE:    0.00 PKD
ROOT
HETATM    1 NA   UNL     1      -9.134  13.519  66.047  1.00  0.00    -0.291 Na 
HETATM    2 NA   UNL     2     -14.269  10.105  69.682  1.00  0.00    -0.503 Na 
HETATM    3 NA   UNL     3      -6.765  10.371  64.788  1.00  0.00    -0.105 Na 
HETATM    4 NA   UNL     4     -11.652   7.925  67.195  1.00  0.00    -0.500 Na 
HETATM    5  C   UNL     5      -9.900  11.917  68.886  1.00  0.00     0.008 C  
HETATM    6  C   UNL     5      -9.423  10.518  69.107  1.00  0.00    -0.205 A  
HETATM    7  C   UNL     5      -8.204   9.990  68.688  1.00  0.00    -0.111 A  
HETATM    8  C   UNL     5     -10.344   9.675  69.721  1.00  0.00    -0.266 A  
HETATM    9  C   UNL     5      -7.894   8.607  68.946  1.00  0.00    -0.104 A  
HETATM   10  C   UNL     5     -10.155   8.302  69.755  1.00  0.00    -0.197 A  
HETATM   11  C   UNL     5      -6.615   8.051  68.698  1.00  0.00    -0.057 A  
HETATM   12  C   UNL     5      -8.900   7.749  69.463  1.00  0.00    -0.139 A  
HETATM   13  C   UNL     5      -6.326   6.712  68.980  1.00  0.00    -0.035 A  
HETATM   14  C   UNL     5      -8.608   6.385  69.691  1.00  0.00    -0.134 A  
HETATM   15  C   UNL     5      -7.325   5.880  69.475  1.00  0.00    -0.075 A  
ENDROOT
BRANCH   7  16
HETATM   16  O   UNL     5      -7.222  10.740  68.114  1.00  0.00    -0.080 OA 
HETATM   17  O   UNL     5      -6.115  12.947  67.714  1.00  0.00    -0.112 OA 
HETATM   18  O   UNL     5      -7.233  12.666  69.817  1.00  0.00     0.352 OA 
HETATM   19  P   UNL     5      -6.368  11.923  68.798  1.00  0.00    -0.075 P  
HETATM   20  O   UNL     5      -5.143  11.408  69.510  1.00  0.00    -0.045 OA 
ENDBRANCH   7  16
BRANCH  10  21
HETATM   21  O   UNL     5     -11.257   7.507  69.955  1.00  0.00    -0.243 OA 
HETATM   22  P   UNL     5     -11.846   7.179  71.448  1.00  0.00    -0.348 P  
HETATM   23  O   UNL     5     -11.548   8.387  72.351  1.00  0.00    -0.367 OA 
HETATM   24  O   UNL     5     -11.110   6.009  72.057  1.00  0.00    -0.250 OA 
HETATM   25  O   UNL     5     -13.333   7.118  71.318  1.00  0.00    -0.368 OA 
ENDBRANCH  10  21
TORSDOF 2
ENDMDL
MODEL      101
REMARK 921   NORMALIZED FREE ENERGY PREDICTED BY IDOCK:   -3.43 KCAL/MOL
REMARK 922        TOTAL FREE ENERGY PREDICTED BY IDOCK:   -3.96 KCAL/MOL
REMARK 923 INTER-LIGAND FREE ENERGY PREDICTED BY IDOCK:   -5.26 KCAL/MOL
REMARK 924 INTRA-LIGAND FREE ENERGY PREDICTED BY IDOCK:    1.30 KCAL/MOL
REMARK 927      BINDING AFFINITY PREDICTED BY RF-SCORE:    0.00 PKD
ROOT
HETATM    1 NA   UNL     1      -9.010   6.414  63.355  1.00  0.00    -0.342 Na 
HETATM    2 NA   UNL     2     -13.896  11.628  63.770  1.00  0.00    -0.587 Na 
HETATM    3 NA   UNL     3      -7.165   6.699  67.045  1.00  0.00    -0.063 Na 
HETATM    4 NA   UNL     4     -11.883  10.354  67.250  1.00  0.00    -0.290 Na 
HETATM    5  C   UNL     5      -9.524   9.721  63.262  1.00  0.00     0.015 C  
HETATM    6  C   UNL     5      -9.162  10.567  64.439  1.00  0.00    -0.281 A  
HETATM    7  C   UNL     5      -8.072  10.374  65.285  1.00  0.00    -0.152 A  
HETATM    8  C   UNL     5     -10.067  11.583  64.732  1.00  0.00    -0.316 A  
HETATM    9  C   UNL     5      -7.867  11.257  66.405  1.00  0.00    -0.109 A  
HETATM   10  C   UNL     5     -10.012  12.276  65.931  1.00  0.00    -0.254 A  
HETATM   11  C   UNL     5      -6.697  11.221  67.202  1.00  0.00    -0.113 A  
HETATM   12  C   UNL     5      -8.871  12.202  66.744  1.00  0.00    -0.198 A  
HETATM   13  C   UNL     5      -6.506  12.105  68.270  1.00  0.00    -0.055 A  
HETATM   14  C   UNL     5      -8.686  13.051  67.859  1.00  0.00    -0.189 A  
HETATM   15  C   UNL     5      -7.503  13.018  68.598  1.00  0.00    -0.093 A  
ENDROOT
BRANCH   7  16
HETATM   16  O   UNL     5      -7.111   9.433  65.064  1.00  0.00    -0.095 OA 
HETATM   17  O   UNL     5      -6.224   7.113  65.352  1.00  0.00    -0.036 OA 
HETATM   18  O   UNL     5      -8.610   7.359  65.321  1.00  0.00    -0.104 OA 
HETATM   19  P   UNL     5      -7.330   7.886  64.670  1.00  0.00    -0.097 P  
HETATM   20  O   UNL     5      -7.445   7.686  63.180  1.00  0.00    -0.096 OA 
ENDBRANCH   7  16
BRANCH  10  21
HETATM   21  O   UNL     5     -11.148  12.923  66.352  1.00  0.00    -0.274 OA 
HETATM   22  P   UNL     5     -11.733  14.253  65.597  1.00  0.00    -0.364 P  
HETATM   23  O   UNL     5     -11.367  14.151  64.107  1.00  0.00    -0.270 OA 
HETATM   24  O   UNL     5     -11.047  15.495  66.113  1.00  0.00    -0.286 OA 
HETATM   25  O   UNL     5     -13.223  14.162  65.662  1.00  0.00    -0.615 OA 
ENDBRANCH  10  21
TORSDOF 2
ENDMDL
MODEL      102
REMARK 921   NORMALIZED FREE ENERGY PREDICTED BY IDOCK:   -3.42 KCAL/MOL
REMARK 922        TOTAL FREE ENERGY PREDICTED BY IDOCK:   -3.95 KCAL/MOL
REMARK 923 INTER-LIGAND FREE ENERGY PREDICTED BY IDOCK:   -4.00 KCAL/MOL
REMARK 924 INTRA-LIGAND FREE ENERGY PREDICTED BY IDOCK:    0.05 KCAL/MOL
REMARK 927      BINDING AFFINITY PREDICTED BY RF-SCORE:    0.00 PKD
ROOT
HETATM    1 NA   UNL     1      -9.665   9.182  63.590  1.00  0.00    -0.413 Na 
HETATM    2 NA   UNL     2      -9.842   3.257  67.601  1.00  0.00    -0.184 Na 
HETATM    3 NA   UNL     3      -6.351  11.128  65.118  1.00  0.00    -0.257 Na 
HETATM    4 NA   UNL     4      -6.416   5.714  67.635  1.00  0.00    -0.033 Na 
HETATM    5  C   UNL     5     -10.410   7.912  66.598  1.00  0.00    -0.270 C  
HETATM    6  C   UNL     5      -9.490   8.139  67.753  1.00  0.00    -0.164 A  
HETATM    7  C   UNL     5      -8.749   9.292  67.999  1.00  0.00    -0.125 A  
HETATM    8  C   UNL     5      -9.325   7.042  68.594  1.00  0.00    -0.136 A  
HETATM    9  C   UNL     5      -7.876   9.354  69.142  1.00  0.00    -0.080 A  
HETATM   10  C   UNL     5      -8.316   7.008  69.545  1.00  0.00    -0.133 A  
HETATM   11  C   UNL     5      -7.224  10.546  69.544  1.00  0.00    -0.137 A  
HETATM   12  C   UNL     5      -7.639   8.181  69.907  1.00  0.00    -0.089 A  
HETATM   13  C   UNL     5      -6.401  10.592  70.673  1.00  0.00    -0.040 A  
HETATM   14  C   UNL     5      -6.761   8.231  71.013  1.00  0.00    -0.045 A  
HETATM   15  C   UNL     5      -6.168   9.432  71.405  1.00  0.00    -0.042 A  
ENDROOT
BRANCH   7  16
HETATM   16  O   UNL     5      -8.868  10.430  67.258  1.00  0.00    -0.132 OA 
HETATM   17  O   UNL     5     -10.244  12.008  65.890  1.00  0.00    -0.220 OA 
HETATM   18  O   UNL     5     -11.385  10.805  67.624  1.00  0.00    -0.392 OA 
HETATM   19  P   UNL     5     -10.065  11.508  67.307  1.00  0.00    -0.207 P  
HETATM   20  O   UNL     5      -9.836  12.571  68.352  1.00  0.00    -0.225 OA 
ENDBRANCH   7  16
BRANCH  10  21
HETATM   21  O   UNL     5      -7.922   5.780  70.017  1.00  0.00    -0.095 OA 
HETATM   22  P   UNL     5      -8.909   4.819  70.901  1.00  0.00    -0.125 P  
HETATM   23  O   UNL     5     -10.355   5.083  70.451  1.00  0.00    -0.265 OA 
HETATM   24  O   UNL     5      -8.848   5.203  72.360  1.00  0.00    -0.127 OA 
HETATM   25  O   UNL     5      -8.605   3.410  70.505  1.00  0.00    -0.066 OA 
ENDBRANCH  10  21
TORSDOF 2
ENDMDL
MODEL      103
REMARK 921   NORMALIZED FREE ENERGY PREDICTED BY IDOCK:   -3.37 KCAL/MOL
REMARK 922        TOTAL FREE ENERGY PREDICTED BY IDOCK:   -3.89 KCAL/MOL
REMARK 923 INTER-LIGAND FREE ENERGY PREDICTED BY IDOCK:   -3.93 KCAL/MOL
REMARK 924 INTRA-LIGAND FREE ENERGY PREDICTED BY IDOCK:    0.04 KCAL/MOL
REMARK 927      BINDING AFFINITY PREDICTED BY RF-SCORE:    0.00 PKD
ROOT
HETATM    1 NA   UNL     1      -9.386   3.464  69.340  1.00  0.00    -0.084 Na 
HETATM    2 NA   UNL     2     -12.115   9.967  70.562  1.00  0.00    -0.238 Na 
HETATM    3 NA   UNL     3      -5.932   4.383  67.259  1.00  0.00    -0.017 Na 
HETATM    4 NA   UNL     4      -8.141   9.578  69.206  1.00  0.00    -0.077 Na 
HETATM    5  C   UNL     5     -10.992   6.076  67.993  1.00  0.00    -0.340 C  
HETATM    6  C   UNL     5     -10.257   7.031  67.112  1.00  0.00    -0.318 A  
HETATM    7  C   UNL     5      -9.239   6.707  66.217  1.00  0.00    -0.127 A  
HETATM    8  C   UNL     5     -10.593   8.370  67.288  1.00  0.00    -0.328 A  
HETATM    9  C   UNL     5      -8.598   7.745  65.452  1.00  0.00    -0.092 A  
HETATM   10  C   UNL     5      -9.824   9.386  66.743  1.00  0.00    -0.218 A  
HETATM   11  C   UNL     5      -7.678   7.470  64.411  1.00  0.00    -0.124 A  
HETATM   12  C   UNL     5      -8.879   9.106  65.745  1.00  0.00    -0.210 A  
HETATM   13  C   UNL     5      -7.085   8.492  63.662  1.00  0.00    -0.089 A  
HETATM   14  C   UNL     5      -8.230  10.128  65.015  1.00  0.00    -0.152 A  
HETATM   15  C   UNL     5      -7.361   9.821  63.968  1.00  0.00    -0.128 A  
ENDROOT
BRANCH   7  16
HETATM   16  O   UNL     5      -8.862   5.426  65.945  1.00  0.00    -0.139 OA 
HETATM   17  O   UNL     5      -9.421   3.008  65.631  1.00  0.00    -0.127 OA 
HETATM   18  O   UNL     5     -11.128   4.593  65.057  1.00  0.00    -0.132 OA 
HETATM   19  P   UNL     5      -9.617   4.366  64.994  1.00  0.00    -0.117 P  
HETATM   20  O   UNL     5      -9.185   4.480  63.553  1.00  0.00    -0.145 OA 
ENDBRANCH   7  16
BRANCH  10  21
HETATM   21  O   UNL     5      -9.926  10.638  67.298  1.00  0.00    -0.178 OA 
HETATM   22  P   UNL     5     -10.839  11.823  66.633  1.00  0.00    -0.298 P  
HETATM   23  O   UNL     5     -12.025  11.161  65.913  1.00  0.00     0.291 OA 
HETATM   24  O   UNL     5     -10.057  12.553  65.567  1.00  0.00    -0.267 OA 
HETATM   25  O   UNL     5     -11.427  12.600  67.766  1.00  0.00    -0.279 OA 
ENDBRANCH  10  21
TORSDOF 2
ENDMDL
MODEL      104
REMARK 921   NORMALIZED FREE ENERGY PREDICTED BY IDOCK:   -3.37 KCAL/MOL
REMARK 922        TOTAL FREE ENERGY PREDICTED BY IDOCK:   -3.89 KCAL/MOL
REMARK 923 INTER-LIGAND FREE ENERGY PREDICTED BY IDOCK:   -3.97 KCAL/MOL
REMARK 924 INTRA-LIGAND FREE ENERGY PREDICTED BY IDOCK:    0.08 KCAL/MOL
REMARK 927      BINDING AFFINITY PREDICTED BY RF-SCORE:    0.00 PKD
ROOT
HETATM    1 NA   UNL     1      -7.767  10.562  70.651  1.00  0.00    -0.227 Na 
HETATM    2 NA   UNL     2      -5.972   4.703  66.953  1.00  0.00    -0.019 Na 
HETATM    3 NA   UNL     3      -8.507   8.990  74.404  1.00  0.00    -0.168 Na 
HETATM    4 NA   UNL     4      -6.177   4.549  71.162  1.00  0.00    -0.013 Na 
HETATM    5  C   UNL     5      -8.905   7.783  69.170  1.00  0.00    -0.138 C  
HETATM    6  C   UNL     5      -9.303   6.604  69.998  1.00  0.00    -0.158 A  
HETATM    7  C   UNL     5      -9.915   6.648  71.249  1.00  0.00    -0.180 A  
HETATM    8  C   UNL     5      -8.938   5.369  69.472  1.00  0.00    -0.125 A  
HETATM    9  C   UNL     5     -10.212   5.423  71.945  1.00  0.00    -0.258 A  
HETATM   10  C   UNL     5      -8.999   4.213  70.235  1.00  0.00    -0.093 A  
HETATM   11  C   UNL     5     -10.978   5.387  73.136  1.00  0.00    -0.353 A  
HETATM   12  C   UNL     5      -9.719   4.191  71.438  1.00  0.00    -0.251 A  
HETATM   13  C   UNL     5     -11.278   4.184  73.784  1.00  0.00    -0.260 A  
HETATM   14  C   UNL     5      -9.984   2.991  72.135  1.00  0.00    -0.233 A  
HETATM   15  C   UNL     5     -10.778   2.987  73.283  1.00  0.00    -0.282 A  
ENDROOT
BRANCH   7  16
HETATM   16  O   UNL     5     -10.344   7.802  71.831  1.00  0.00    -0.197 OA 
HETATM   17  O   UNL     5     -11.350  10.086  71.666  1.00  0.00    -0.233 OA 
HETATM   18  O   UNL     5     -12.036   8.483  70.018  1.00  0.00     0.276 OA 
HETATM   19  P   UNL     5     -11.692   8.622  71.501  1.00  0.00    -0.353 P  
HETATM   20  O   UNL     5     -12.871   8.132  72.304  1.00  0.00    -0.300 OA 
ENDBRANCH   7  16
BRANCH  10  21
HETATM   21  O   UNL     5      -8.233   3.143  69.842  1.00  0.00    -0.045 OA 
HETATM   22  P   UNL     5      -8.163   2.636  68.286  1.00  0.00    -0.064 P  
HETATM   23  O   UNL     5      -8.363   3.861  67.379  1.00  0.00    -0.097 OA 
HETATM   24  O   UNL     5      -9.309   1.700  67.986  1.00  0.00    -0.162 OA 
HETATM   25  O   UNL     5      -6.762   2.173  68.049  1.00  0.00    -0.035 OA 
ENDBRANCH  10  21
TORSDOF 2
ENDMDL
MODEL      105
REMARK 921   NORMALIZED FREE ENERGY PREDICTED BY IDOCK:   -3.35 KCAL/MOL
REMARK 922        TOTAL FREE ENERGY PREDICTED BY IDOCK:   -3.87 KCAL/MOL
REMARK 923 INTER-LIGAND FREE ENERGY PREDICTED BY IDOCK:   -4.82 KCAL/MOL
REMARK 924 INTRA-LIGAND FREE ENERGY PREDICTED BY IDOCK:    0.95 KCAL/MOL
REMARK 927      BINDING AFFINITY PREDICTED BY RF-SCORE:    0.00 PKD
ROOT
HETATM    1 NA   UNL     1      -9.528   7.932  62.632  1.00  0.00    -0.357 Na 
HETATM    2 NA   UNL     2      -9.924  13.699  66.853  1.00  0.00    -0.224 Na 
HETATM    3 NA   UNL     3     -11.866   5.220  64.700  1.00  0.00    -0.489 Na 
HETATM    4 NA   UNL     4     -12.568  10.470  67.456  1.00  0.00     0.195 Na 
HETATM    5  C   UNL     5      -8.481   9.334  65.488  1.00  0.00    -0.151 C  
HETATM    6  C   UNL     5      -9.049   8.882  66.793  1.00  0.00    -0.177 A  
HETATM    7  C   UNL     5      -9.419   7.579  67.122  1.00  0.00    -0.154 A  
HETATM    8  C   UNL     5      -9.288   9.899  67.712  1.00  0.00    -0.154 A  
HETATM    9  C   UNL     5      -9.984   7.298  68.416  1.00  0.00    -0.172 A  
HETATM   10  C   UNL     5     -10.046   9.679  68.852  1.00  0.00    -0.187 A  
HETATM   11  C   UNL     5     -10.227   5.980  68.874  1.00  0.00    -0.246 A  
HETATM   12  C   UNL     5     -10.327   8.373  69.279  1.00  0.00    -0.220 A  
HETATM   13  C   UNL     5     -10.753   5.727  70.146  1.00  0.00    -0.390 A  
HETATM   14  C   UNL     5     -10.908   8.102  70.539  1.00  0.00    -0.247 A  
HETATM   15  C   UNL     5     -11.095   6.790  70.976  1.00  0.00    -0.317 A  
ENDROOT
BRANCH   7  16
HETATM   16  O   UNL     5      -9.192   6.510  66.308  1.00  0.00    -0.159 OA 
HETATM   17  O   UNL     5      -7.792   5.316  64.614  1.00  0.00    -0.087 OA 
HETATM   18  O   UNL     5      -6.635   6.738  66.161  1.00  0.00    -0.048 OA 
HETATM   19  P   UNL     5      -7.794   5.746  66.064  1.00  0.00    -0.107 P  
HETATM   20  O   UNL     5      -7.558   4.649  67.072  1.00  0.00    -0.085 OA 
ENDBRANCH   7  16
BRANCH  10  21
HETATM   21  O   UNL     5     -10.614  10.768  69.466  1.00  0.00    -0.223 OA 
HETATM   22  P   UNL     5     -10.864  12.187  68.686  1.00  0.00    -0.228 P  
HETATM   23  O   UNL     5     -11.118  11.873  67.203  1.00  0.00    -0.259 OA 
HETATM   24  O   UNL     5      -9.616  13.035  68.727  1.00  0.00    -0.070 OA 
HETATM   25  O   UNL     5     -12.144  12.747  69.214  1.00  0.00    -0.262 OA 
ENDBRANCH  10  21
TORSDOF 2
ENDMDL
MODEL      106
REMARK 921   NORMALIZED FREE ENERGY PREDICTED BY IDOCK:   -3.34 KCAL/MOL
REMARK 922        TOTAL FREE ENERGY PREDICTED BY IDOCK:   -3.85 KCAL/MOL
REMARK 923 INTER-LIGAND FREE ENERGY PREDICTED BY IDOCK:   -3.76 KCAL/MOL
REMARK 924 INTRA-LIGAND FREE ENERGY PREDICTED BY IDOCK:   -0.09 KCAL/MOL
REMARK 927      BINDING AFFINITY PREDICTED BY RF-SCORE:    0.00 PKD
ROOT
HETATM    1 NA   UNL     1      -9.278  13.274  64.614  1.00  0.00    -0.475 Na 
HETATM    2 NA   UNL     2     -10.383  10.835  71.252  1.00  0.00    -0.135 Na 
HETATM    3 NA   UNL     3     -10.210   9.952  62.335  1.00  0.00    -0.499 Na 
HETATM    4 NA   UNL     4     -11.774   8.623  67.942  1.00  0.00    -0.396 Na 
HETATM    5  C   UNL     5      -8.077  11.351  67.078  1.00  0.00    -0.157 C  
HETATM    6  C   UNL     5      -8.184   9.864  66.985  1.00  0.00    -0.117 A  
HETATM    7  C   UNL     5      -8.079   9.104  65.822  1.00  0.00    -0.112 A  
HETATM    8  C   UNL     5      -8.498   9.223  68.180  1.00  0.00    -0.121 A  
HETATM    9  C   UNL     5      -8.237   7.674  65.883  1.00  0.00    -0.133 A  
HETATM   10  C   UNL     5      -8.888   7.893  68.205  1.00  0.00    -0.125 A  
HETATM   11  C   UNL     5      -7.979   6.828  64.776  1.00  0.00    -0.120 A  
HETATM   12  C   UNL     5      -8.675   7.068  67.091  1.00  0.00    -0.121 A  
HETATM   13  C   UNL     5      -8.113   5.439  64.863  1.00  0.00    -0.122 A  
HETATM   14  C   UNL     5      -8.858   5.668  67.145  1.00  0.00    -0.106 A  
HETATM   15  C   UNL     5      -8.555   4.860  66.048  1.00  0.00    -0.119 A  
ENDROOT
BRANCH   7  16
HETATM   16  O   UNL     5      -7.738   9.631  64.613  1.00  0.00    -0.118 OA 
HETATM   17  O   UNL     5      -6.243  11.049  63.194  1.00  0.00     0.123 OA 
HETATM   18  O   UNL     5      -5.238   9.989  65.097  1.00  0.00    -0.047 OA 
HETATM   19  P   UNL     5      -6.260   9.758  63.984  1.00  0.00    -0.130 P  
HETATM   20  O   UNL     5      -5.852   8.521  63.223  1.00  0.00    -0.075 OA 
ENDBRANCH   7  16
BRANCH  10  21
HETATM   21  O   UNL     5      -9.596   7.451  69.295  1.00  0.00    -0.154 OA 
HETATM   22  P   UNL     5      -8.873   7.040  70.706  1.00  0.00    -0.149 P  
HETATM   23  O   UNL     5      -7.609   7.901  70.860  1.00  0.00    -0.074 OA 
HETATM   24  O   UNL     5      -8.399   5.607  70.655  1.00  0.00    -0.114 OA 
HETATM   25  O   UNL     5      -9.797   7.464  71.801  1.00  0.00    -0.167 OA 
ENDBRANCH  10  21
TORSDOF 2
ENDMDL
MODEL      107
REMARK 921   NORMALIZED FREE ENERGY PREDICTED BY IDOCK:   -3.32 KCAL/MOL
REMARK 922        TOTAL FREE ENERGY PREDICTED BY IDOCK:   -3.83 KCAL/MOL
REMARK 923 INTER-LIGAND FREE ENERGY PREDICTED BY IDOCK:   -5.11 KCAL/MOL
REMARK 924 INTRA-LIGAND FREE ENERGY PREDICTED BY IDOCK:    1.28 KCAL/MOL
REMARK 927      BINDING AFFINITY PREDICTED BY RF-SCORE:    0.00 PKD
ROOT
HETATM    1 NA   UNL     1     -12.650  13.092  67.136  1.00  0.00    -0.319 Na 
HETATM    2 NA   UNL     2     -11.655   7.057  70.855  1.00  0.00    -0.245 Na 
HETATM    3 NA   UNL     3     -12.132  11.775  63.250  1.00  0.00    -0.376 Na 
HETATM    4 NA   UNL     4     -12.192   6.885  66.676  1.00  0.00    -0.497 Na 
HETATM    5  C   UNL     5     -10.391  10.895  68.270  1.00  0.00    -0.194 C  
HETATM    6  C   UNL     5      -9.781   9.901  67.336  1.00  0.00    -0.199 A  
HETATM    7  C   UNL     5      -9.462  10.120  65.998  1.00  0.00    -0.197 A  
HETATM    8  C   UNL     5      -9.606   8.627  67.868  1.00  0.00    -0.173 A  
HETATM    9  C   UNL     5      -8.905   9.052  65.209  1.00  0.00    -0.234 A  
HETATM   10  C   UNL     5      -9.302   7.543  67.060  1.00  0.00    -0.150 A  
HETATM   11  C   UNL     5      -8.405   9.250  63.898  1.00  0.00    -0.179 A  
HETATM   12  C   UNL     5      -8.853   7.738  65.746  1.00  0.00    -0.141 A  
HETATM   13  C   UNL     5      -7.844   8.204  63.158  1.00  0.00    -0.149 A  
HETATM   14  C   UNL     5      -8.332   6.682  64.964  1.00  0.00    -0.067 A  
HETATM   15  C   UNL     5      -7.811   6.920  63.692  1.00  0.00    -0.107 A  
ENDROOT
BRANCH   7  16
HETATM   16  O   UNL     5      -9.561  11.338  65.395  1.00  0.00    -0.216 OA 
HETATM   17  O   UNL     5     -10.900  13.068  64.181  1.00  0.00    -0.378 OA 
HETATM   18  O   UNL     5     -12.091  11.665  65.720  1.00  0.00    -0.232 OA 
HETATM   19  P   UNL     5     -10.764  12.402  65.533  1.00  0.00    -0.303 P  
HETATM   20  O   UNL     5     -10.575  13.332  66.704  1.00  0.00    -0.277 OA 
ENDBRANCH   7  16
BRANCH  10  21
HETATM   21  O   UNL     5      -9.577   6.287  67.541  1.00  0.00    -0.115 OA 
HETATM   22  P   UNL     5      -8.485   5.412  68.393  1.00  0.00    -0.094 P  
HETATM   23  O   UNL     5      -7.591   6.395  69.166  1.00  0.00    -0.095 OA 
HETATM   24  O   UNL     5      -7.569   4.661  67.456  1.00  0.00    -0.077 OA 
HETATM   25  O   UNL     5      -9.253   4.654  69.425  1.00  0.00    -0.100 OA 
ENDBRANCH  10  21
TORSDOF 2
ENDMDL
MODEL      108
REMARK 921   NORMALIZED FREE ENERGY PREDICTED BY IDOCK:   -3.31 KCAL/MOL
REMARK 922        TOTAL FREE ENERGY PREDICTED BY IDOCK:   -3.82 KCAL/MOL
REMARK 923 INTER-LIGAND FREE ENERGY PREDICTED BY IDOCK:   -4.54 KCAL/MOL
REMARK 924 INTRA-LIGAND FREE ENERGY PREDICTED BY IDOCK:    0.72 KCAL/MOL
REMARK 927      BINDING AFFINITY PREDICTED BY RF-SCORE:    0.00 PKD
ROOT
HETATM    1 NA   UNL     1      -7.851  13.532  69.606  1.00  0.00    -0.320 Na 
HETATM    2 NA   UNL     2      -6.009  11.399  63.027  1.00  0.00    -0.320 Na 
HETATM    3 NA   UNL     3      -8.379   9.915  71.541  1.00  0.00     0.029 Na 
HETATM    4 NA   UNL     4      -6.034   8.626  66.203  1.00  0.00    -0.041 Na 
HETATM    5  C   UNL     5      -8.952  12.243  66.718  1.00  0.00    -0.209 C  
HETATM    6  C   UNL     5      -9.274  10.787  66.625  1.00  0.00    -0.184 A  
HETATM    7  C   UNL     5      -9.835  10.003  67.631  1.00  0.00    -0.162 A  
HETATM    8  C   UNL     5      -8.889  10.177  65.435  1.00  0.00    -0.196 A  
HETATM    9  C   UNL     5     -10.060   8.599  67.405  1.00  0.00    -0.292 A  
HETATM   10  C   UNL     5      -8.878   8.797  65.301  1.00  0.00    -0.162 A  
HETATM   11  C   UNL     5     -10.775   7.783  68.316  1.00  0.00    -0.093 A  
HETATM   12  C   UNL     5      -9.546   7.987  66.230  1.00  0.00    -0.223 A  
HETATM   13  C   UNL     5     -11.005   6.426  68.066  1.00  0.00    -0.400 A  
HETATM   14  C   UNL     5      -9.741   6.603  66.019  1.00  0.00     0.134 A  
HETATM   15  C   UNL     5     -10.485   5.837  66.918  1.00  0.00    -0.348 A  
ENDROOT
BRANCH   7  16
HETATM   16  O   UNL     5     -10.279  10.511  68.815  1.00  0.00    -0.172 OA 
HETATM   17  O   UNL     5     -11.418  12.311  70.126  1.00  0.00    -0.149 OA 
HETATM   18  O   UNL     5     -12.143  12.003  67.860  1.00  0.00    -0.531 OA 
HETATM   19  P   UNL     5     -11.691  11.233  69.100  1.00  0.00    -0.371 P  
HETATM   20  O   UNL     5     -12.775  10.248  69.461  1.00  0.00     0.003 OA 
ENDBRANCH   7  16
BRANCH  10  21
HETATM   21  O   UNL     5      -8.093   8.254  64.314  1.00  0.00    -0.156 OA 
HETATM   22  P   UNL     5      -6.876   9.085  63.601  1.00  0.00    -0.090 P  
HETATM   23  O   UNL     5      -6.306  10.070  64.634  1.00  0.00    -0.111 OA 
HETATM   24  O   UNL     5      -7.409   9.928  62.468  1.00  0.00    -0.113 OA 
HETATM   25  O   UNL     5      -5.787   8.099  63.327  1.00  0.00    -0.069 OA 
ENDBRANCH  10  21
TORSDOF 2
ENDMDL
MODEL      109
REMARK 921   NORMALIZED FREE ENERGY PREDICTED BY IDOCK:   -3.23 KCAL/MOL
REMARK 922        TOTAL FREE ENERGY PREDICTED BY IDOCK:   -3.73 KCAL/MOL
REMARK 923 INTER-LIGAND FREE ENERGY PREDICTED BY IDOCK:   -4.41 KCAL/MOL
REMARK 924 INTRA-LIGAND FREE ENERGY PREDICTED BY IDOCK:    0.67 KCAL/MOL
REMARK 927      BINDING AFFINITY PREDICTED BY RF-SCORE:    0.00 PKD
ROOT
HETATM    1 NA   UNL     1      -8.920   7.367  65.749  1.00  0.00    -0.141 Na 
HETATM    2 NA   UNL     2     -12.623  11.108  70.598  1.00  0.00    -0.258 Na 
HETATM    3 NA   UNL     3      -9.976   3.484  66.703  1.00  0.00    -0.193 Na 
HETATM    4 NA   UNL     4     -13.481   7.024  69.994  1.00  0.00    -0.613 Na 
HETATM    5  C   UNL     5      -9.101   8.294  68.961  1.00  0.00    -0.147 C  
HETATM    6  C   UNL     5      -9.575   7.324  69.993  1.00  0.00    -0.167 A  
HETATM    7  C   UNL     5      -9.330   5.952  70.006  1.00  0.00    -0.148 A  
HETATM    8  C   UNL     5     -10.402   7.866  70.973  1.00  0.00    -0.221 A  
HETATM    9  C   UNL     5      -9.882   5.134  71.055  1.00  0.00    -0.261 A  
HETATM   10  C   UNL     5     -11.127   7.058  71.835  1.00  0.00    -0.242 A  
HETATM   11  C   UNL     5      -9.537   3.770  71.221  1.00  0.00    -0.243 A  
HETATM   12  C   UNL     5     -10.816   5.697  71.964  1.00  0.00    -0.300 A  
HETATM   13  C   UNL     5     -10.064   2.999  72.262  1.00  0.00    -0.219 A  
HETATM   14  C   UNL     5     -11.381   4.889  72.977  1.00  0.00    -0.354 A  
HETATM   15  C   UNL     5     -10.988   3.560  73.138  1.00  0.00    -0.221 A  
ENDROOT
BRANCH   7  16
HETATM   16  O   UNL     5      -8.506   5.332  69.116  1.00  0.00    -0.097 OA 
HETATM   17  O   UNL     5      -6.379   5.253  67.801  1.00  0.00    -0.037 OA 
HETATM   18  O   UNL     5      -6.299   6.383  69.916  1.00  0.00    -0.036 OA 
HETATM   19  P   UNL     5      -6.906   5.166  69.216  1.00  0.00    -0.056 P  
HETATM   20  O   UNL     5      -6.505   3.934  69.988  1.00  0.00    -0.031 OA 
ENDBRANCH   7  16
BRANCH  10  21
HETATM   21  O   UNL     5     -12.226   7.601  72.452  1.00  0.00    -0.258 OA 
HETATM   22  P   UNL     5     -12.915   9.000  71.951  1.00  0.00    -0.452 P  
HETATM   23  O   UNL     5     -12.702   9.117  70.433  1.00  0.00     0.250 OA 
HETATM   24  O   UNL     5     -12.205  10.184  72.565  1.00  0.00     0.451 OA 
HETATM   25  O   UNL     5     -14.388   8.849  72.151  1.00  0.00    -0.412 OA 
ENDBRANCH  10  21
TORSDOF 2
ENDMDL
MODEL      110
REMARK 921   NORMALIZED FREE ENERGY PREDICTED BY IDOCK:   -3.19 KCAL/MOL
REMARK 922        TOTAL FREE ENERGY PREDICTED BY IDOCK:   -3.69 KCAL/MOL
REMARK 923 INTER-LIGAND FREE ENERGY PREDICTED BY IDOCK:   -5.17 KCAL/MOL
REMARK 924 INTRA-LIGAND FREE ENERGY PREDICTED BY IDOCK:    1.49 KCAL/MOL
REMARK 927      BINDING AFFINITY PREDICTED BY RF-SCORE:    0.00 PKD
ROOT
HETATM    1 NA   UNL     1     -13.359  12.944  64.294  1.00  0.00    -0.621 Na 
HETATM    2 NA   UNL     2      -8.848   8.093  67.005  1.00  0.00    -0.116 Na 
HETATM    3 NA   UNL     3     -10.793  16.057  63.384  1.00  0.00    -0.391 Na 
HETATM    4 NA   UNL     4      -7.336  11.443  64.938  1.00  0.00    -0.342 Na 
HETATM    5  C   UNL     5     -11.508  12.084  66.949  1.00  0.00    -0.402 C  
HETATM    6  C   UNL     5     -10.220  12.789  67.221  1.00  0.00    -0.232 A  
HETATM    7  C   UNL     5      -9.958  14.139  66.996  1.00  0.00    -0.260 A  
HETATM    8  C   UNL     5      -9.186  11.971  67.666  1.00  0.00    -0.182 A  
HETATM    9  C   UNL     5      -8.652  14.674  67.279  1.00  0.00    -0.231 A  
HETATM   10  C   UNL     5      -7.875  12.422  67.709  1.00  0.00    -0.154 A  
HETATM   11  C   UNL     5      -8.366  16.061  67.231  1.00  0.00    -0.205 A  
HETATM   12  C   UNL     5      -7.591  13.791  67.614  1.00  0.00    -0.189 A  
HETATM   13  C   UNL     5      -7.097  16.563  67.536  1.00  0.00    -0.169 A  
HETATM   14  C   UNL     5      -6.300  14.311  67.866  1.00  0.00    -0.173 A  
HETATM   15  C   UNL     5      -6.064  15.686  67.850  1.00  0.00    -0.163 A  
ENDROOT
BRANCH   7  16
HETATM   16  O   UNL     5     -10.910  15.029  66.598  1.00  0.00    -0.308 OA 
HETATM   17  O   UNL     5     -12.092  16.298  64.796  1.00  0.00     0.194 OA 
HETATM   18  O   UNL     5     -11.207  14.150  64.200  1.00  0.00    -0.241 OA 
HETATM   19  P   UNL     5     -11.904  14.898  65.336  1.00  0.00    -0.037 P  
HETATM   20  O   UNL     5     -13.171  14.154  65.679  1.00  0.00    -0.615 OA 
ENDBRANCH   7  16
BRANCH  10  21
HETATM   21  O   UNL     5      -6.874  11.483  67.718  1.00  0.00    -0.070 OA 
HETATM   22  P   UNL     5      -6.428  10.684  69.076  1.00  0.00    -0.064 P  
HETATM   23  O   UNL     5      -7.668  10.548  69.975  1.00  0.00    -0.098 OA 
HETATM   24  O   UNL     5      -5.430  11.500  69.862  1.00  0.00    -0.062 OA 
HETATM   25  O   UNL     5      -6.068   9.295  68.659  1.00  0.00    -0.044 OA 
ENDBRANCH  10  21
TORSDOF 2
ENDMDL
MODEL      111
REMARK 921   NORMALIZED FREE ENERGY PREDICTED BY IDOCK:   -3.16 KCAL/MOL
REMARK 922        TOTAL FREE ENERGY PREDICTED BY IDOCK:   -3.65 KCAL/MOL
REMARK 923 INTER-LIGAND FREE ENERGY PREDICTED BY IDOCK:   -5.11 KCAL/MOL
REMARK 924 INTRA-LIGAND FREE ENERGY PREDICTED BY IDOCK:    1.46 KCAL/MOL
REMARK 927      BINDING AFFINITY PREDICTED BY RF-SCORE:    0.00 PKD
ROOT
HETATM    1 NA   UNL     1      -5.925   5.477  67.383  1.00  0.00    -0.015 Na 
HETATM    2 NA   UNL     2      -9.856  10.963  64.998  1.00  0.00    -0.194 Na 
HETATM    3 NA   UNL     3      -8.492   3.735  70.117  1.00  0.00    -0.056 Na 
HETATM    4 NA   UNL     4     -11.672   7.907  67.266  1.00  0.00    -0.463 Na 
HETATM    5  C   UNL     5      -7.111   8.528  68.087  1.00  0.00    -0.085 C  
HETATM    6  C   UNL     5      -8.261   8.684  69.028  1.00  0.00    -0.122 A  
HETATM    7  C   UNL     5      -8.508   7.909  70.159  1.00  0.00    -0.129 A  
HETATM    8  C   UNL     5      -9.191   9.652  68.662  1.00  0.00    -0.136 A  
HETATM    9  C   UNL     5      -9.681   8.157  70.957  1.00  0.00    -0.193 A  
HETATM   10  C   UNL     5     -10.430   9.733  69.280  1.00  0.00    -0.219 A  
HETATM   11  C   UNL     5      -9.906   7.522  72.204  1.00  0.00    -0.209 A  
HETATM   12  C   UNL     5     -10.667   9.066  70.490  1.00  0.00    -0.285 A  
HETATM   13  C   UNL     5     -11.039   7.796  72.976  1.00  0.00    -0.419 A  
HETATM   14  C   UNL     5     -11.832   9.290  71.257  1.00  0.00    -0.415 A  
HETATM   15  C   UNL     5     -12.003   8.679  72.500  1.00  0.00    -0.358 A  
ENDROOT
BRANCH   7  16
HETATM   16  O   UNL     5      -7.642   6.964  70.622  1.00  0.00    -0.090 OA 
HETATM   17  O   UNL     5      -6.786   4.614  70.642  1.00  0.00    -0.034 OA 
HETATM   18  O   UNL     5      -7.740   5.396  68.586  1.00  0.00    -0.082 OA 
HETATM   19  P   UNL     5      -6.870   5.840  69.761  1.00  0.00    -0.064 P  
HETATM   20  O   UNL     5      -5.559   6.342  69.211  1.00  0.00    -0.012 OA 
ENDBRANCH   7  16
BRANCH  10  21
HETATM   21  O   UNL     5     -11.441  10.375  68.608  1.00  0.00    -0.245 OA 
HETATM   22  P   UNL     5     -11.234  11.833  67.891  1.00  0.00    -0.312 P  
HETATM   23  O   UNL     5      -9.771  11.932  67.431  1.00  0.00    -0.182 OA 
HETATM   24  O   UNL     5     -11.433  12.944  68.894  1.00  0.00    -0.263 OA 
HETATM   25  O   UNL     5     -12.058  11.819  66.645  1.00  0.00    -0.527 OA 
ENDBRANCH  10  21
TORSDOF 2
ENDMDL
MODEL      112
REMARK 921   NORMALIZED FREE ENERGY PREDICTED BY IDOCK:   -3.15 KCAL/MOL
REMARK 922        TOTAL FREE ENERGY PREDICTED BY IDOCK:   -3.64 KCAL/MOL
REMARK 923 INTER-LIGAND FREE ENERGY PREDICTED BY IDOCK:   -4.38 KCAL/MOL
REMARK 924 INTRA-LIGAND FREE ENERGY PREDICTED BY IDOCK:    0.74 KCAL/MOL
REMARK 927      BINDING AFFINITY PREDICTED BY RF-SCORE:    0.00 PKD
ROOT
HETATM    1 NA   UNL     1      -9.769   5.644  62.687  1.00  0.00    -0.357 Na 
HETATM    2 NA   UNL     2     -10.038  10.452  67.983  1.00  0.00    -0.147 Na 
HETATM    3 NA   UNL     3     -11.390   2.303  64.506  1.00  0.00    -0.329 Na 
HETATM    4 NA   UNL     4     -12.162   6.825  68.328  1.00  0.00    -0.484 Na 
HETATM    5  C   UNL     5      -8.391   6.648  65.569  1.00  0.00    -0.144 C  
HETATM    6  C   UNL     5      -8.664   5.895  66.830  1.00  0.00    -0.117 A  
HETATM    7  C   UNL     5      -8.825   4.516  66.945  1.00  0.00    -0.112 A  
HETATM    8  C   UNL     5      -8.846   6.688  67.959  1.00  0.00    -0.115 A  
HETATM    9  C   UNL     5      -9.117   3.932  68.228  1.00  0.00    -0.186 A  
HETATM   10  C   UNL     5      -9.361   6.163  69.134  1.00  0.00    -0.126 A  
HETATM   11  C   UNL     5      -9.128   2.532  68.446  1.00  0.00    -0.227 A  
HETATM   12  C   UNL     5      -9.416   4.776  69.330  1.00  0.00    -0.229 A  
HETATM   13  C   UNL     5      -9.388   1.985  69.707  1.00  0.00    -0.158 A  
HETATM   14  C   UNL     5      -9.730   4.205  70.584  1.00  0.00    -0.273 A  
HETATM   15  C   UNL     5      -9.691   2.823  70.774  1.00  0.00    -0.109 A  
ENDROOT
BRANCH   7  16
HETATM   16  O   UNL     5      -8.631   3.652  65.909  1.00  0.00    -0.109 OA 
HETATM   17  O   UNL     5      -7.296   2.866  63.945  1.00  0.00    -0.061 OA 
HETATM   18  O   UNL     5      -6.080   3.922  65.723  1.00  0.00    -0.026 OA 
HETATM   19  P   UNL     5      -7.244   2.968  65.453  1.00  0.00    -0.068 P  
HETATM   20  O   UNL     5      -6.974   1.678  66.187  1.00  0.00    -0.043 OA 
ENDBRANCH   7  16
BRANCH  10  21
HETATM   21  O   UNL     5      -9.926   7.034  70.033  1.00  0.00    -0.180 OA 
HETATM   22  P   UNL     5     -10.312   8.576  69.640  1.00  0.00    -0.217 P  
HETATM   23  O   UNL     5     -10.677   8.608  68.147  1.00  0.00    -0.167 OA 
HETATM   24  O   UNL     5      -9.108   9.475  69.795  1.00  0.00    -0.172 OA 
HETATM   25  O   UNL     5     -11.568   8.906  70.379  1.00  0.00    -0.219 OA 
ENDBRANCH  10  21
TORSDOF 2
ENDMDL
MODEL      113
REMARK 921   NORMALIZED FREE ENERGY PREDICTED BY IDOCK:   -3.14 KCAL/MOL
REMARK 922        TOTAL FREE ENERGY PREDICTED BY IDOCK:   -3.64 KCAL/MOL
REMARK 923 INTER-LIGAND FREE ENERGY PREDICTED BY IDOCK:   -3.66 KCAL/MOL
REMARK 924 INTRA-LIGAND FREE ENERGY PREDICTED BY IDOCK:    0.03 KCAL/MOL
REMARK 927      BINDING AFFINITY PREDICTED BY RF-SCORE:    0.00 PKD
ROOT
HETATM    1 NA   UNL     1     -11.152  11.236  66.748  1.00  0.00    -0.219 Na 
HETATM    2 NA   UNL     2     -13.864   7.243  72.033  1.00  0.00    -0.305 Na 
HETATM    3 NA   UNL     3      -8.486   8.605  64.995  1.00  0.00    -0.119 Na 
HETATM    4 NA   UNL     4     -11.593   5.425  68.981  1.00  0.00    -0.193 Na 
HETATM    5  C   UNL     5     -10.588   9.921  69.776  1.00  0.00    -0.296 C  
HETATM    6  C   UNL     5      -9.703   8.726  69.918  1.00  0.00    -0.183 A  
HETATM    7  C   UNL     5      -8.563   8.453  69.166  1.00  0.00    -0.134 A  
HETATM    8  C   UNL     5     -10.138   7.782  70.845  1.00  0.00    -0.195 A  
HETATM    9  C   UNL     5      -7.825   7.238  69.396  1.00  0.00    -0.122 A  
HETATM   10  C   UNL     5      -9.579   6.515  70.901  1.00  0.00    -0.175 A  
HETATM   11  C   UNL     5      -6.573   6.977  68.788  1.00  0.00    -0.044 A  
HETATM   12  C   UNL     5      -8.362   6.245  70.258  1.00  0.00    -0.126 A  
HETATM   13  C   UNL     5      -5.859   5.802  69.045  1.00  0.00    -0.016 A  
HETATM   14  C   UNL     5      -7.653   5.040  70.465  1.00  0.00    -0.070 A  
HETATM   15  C   UNL     5      -6.402   4.833  69.882  1.00  0.00    -0.030 A  
ENDROOT
BRANCH   7  16
HETATM   16  O   UNL     5      -8.036   9.327  68.263  1.00  0.00    -0.105 OA 
HETATM   17  O   UNL     5      -7.227  11.615  67.659  1.00  0.00    -0.093 OA 
HETATM   18  O   UNL     5      -6.979  10.953  69.951  1.00  0.00    -0.147 OA 
HETATM   19  P   UNL     5      -6.882  10.421  68.521  1.00  0.00    -0.064 P  
HETATM   20  O   UNL     5      -5.499   9.852  68.326  1.00  0.00    -0.039 OA 
ENDBRANCH   7  16
BRANCH  10  21
HETATM   21  O   UNL     5     -10.312   5.515  71.491  1.00  0.00    -0.207 OA 
HETATM   22  P   UNL     5     -10.152   5.122  73.072  1.00  0.00    -0.188 P  
HETATM   23  O   UNL     5      -9.760   6.395  73.840  1.00  0.00    -0.171 OA 
HETATM   24  O   UNL     5      -9.009   4.152  73.259  1.00  0.00    -0.103 OA 
HETATM   25  O   UNL     5     -11.513   4.748  73.562  1.00  0.00    -0.320 OA 
ENDBRANCH  10  21
TORSDOF 2
ENDMDL
MODEL      114
REMARK 921   NORMALIZED FREE ENERGY PREDICTED BY IDOCK:   -3.09 KCAL/MOL
REMARK 922        TOTAL FREE ENERGY PREDICTED BY IDOCK:   -3.58 KCAL/MOL
REMARK 923 INTER-LIGAND FREE ENERGY PREDICTED BY IDOCK:   -5.05 KCAL/MOL
REMARK 924 INTRA-LIGAND FREE ENERGY PREDICTED BY IDOCK:    1.48 KCAL/MOL
REMARK 927      BINDING AFFINITY PREDICTED BY RF-SCORE:    0.00 PKD
ROOT
HETATM    1 NA   UNL     1     -12.396   9.002  71.989  1.00  0.00    -0.278 Na 
HETATM    2 NA   UNL     2     -13.312  15.535  69.213  1.00  0.00    -0.418 Na 
HETATM    3 NA   UNL     3      -8.279   8.812  72.342  1.00  0.00    -0.130 Na 
HETATM    4 NA   UNL     4      -9.566  14.438  70.809  1.00  0.00    -0.046 Na 
HETATM    5  C   UNL     5     -12.156  10.880  69.228  1.00  0.00    -0.332 C  
HETATM    6  C   UNL     5     -10.818  11.346  68.755  1.00  0.00    -0.251 A  
HETATM    7  C   UNL     5      -9.624  10.632  68.835  1.00  0.00    -0.196 A  
HETATM    8  C   UNL     5     -10.789  12.650  68.268  1.00  0.00    -0.261 A  
HETATM    9  C   UNL     5      -8.400  11.226  68.363  1.00  0.00    -0.152 A  
HETATM   10  C   UNL     5      -9.591  13.309  68.041  1.00  0.00    -0.220 A  
HETATM   11  C   UNL     5      -7.187  10.500  68.262  1.00  0.00    -0.083 A  
HETATM   12  C   UNL     5      -8.385  12.596  67.988  1.00  0.00    -0.175 A  
HETATM   13  C   UNL     5      -6.014  11.089  67.777  1.00  0.00    -0.046 A  
HETATM   14  C   UNL     5      -7.178  13.189  67.552  1.00  0.00    -0.156 A  
HETATM   15  C   UNL     5      -6.011  12.434  67.424  1.00  0.00    -0.154 A  
ENDROOT
BRANCH   7  16
HETATM   16  O   UNL     5      -9.553   9.340  69.260  1.00  0.00    -0.154 OA 
HETATM   17  O   UNL     5      -9.393   7.655  71.101  1.00  0.00    -0.153 OA 
HETATM   18  O   UNL     5     -10.524   9.707  71.612  1.00  0.00    -0.147 OA 
HETATM   19  P   UNL     5     -10.336   8.674  70.501  1.00  0.00    -0.224 P  
HETATM   20  O   UNL     5     -11.696   8.155  70.108  1.00  0.00    -0.015 OA 
ENDBRANCH   7  16
BRANCH  10  21
HETATM   21  O   UNL     5      -9.611  14.681  68.001  1.00  0.00    -0.204 OA 
HETATM   22  P   UNL     5     -10.417  15.516  66.844  1.00  0.00    -0.306 P  
HETATM   23  O   UNL     5     -11.632  14.678  66.416  1.00  0.00    -0.361 OA 
HETATM   24  O   UNL     5      -9.558  15.668  65.612  1.00  0.00    -0.333 OA 
HETATM   25  O   UNL     5     -10.970  16.737  67.503  1.00  0.00    -0.261 OA 
ENDBRANCH  10  21
TORSDOF 2
ENDMDL
MODEL      115
REMARK 921   NORMALIZED FREE ENERGY PREDICTED BY IDOCK:   -3.09 KCAL/MOL
REMARK 922        TOTAL FREE ENERGY PREDICTED BY IDOCK:   -3.58 KCAL/MOL
REMARK 923 INTER-LIGAND FREE ENERGY PREDICTED BY IDOCK:   -4.25 KCAL/MOL
REMARK 924 INTRA-LIGAND FREE ENERGY PREDICTED BY IDOCK:    0.68 KCAL/MOL
REMARK 927      BINDING AFFINITY PREDICTED BY RF-SCORE:    0.00 PKD
ROOT
HETATM    1 NA   UNL     1      -9.285   7.017  62.776  1.00  0.00    -0.345 Na 
HETATM    2 NA   UNL     2     -11.216  13.446  65.259  1.00  0.00    -0.287 Na 
HETATM    3 NA   UNL     3      -9.618   4.675  66.169  1.00  0.00    -0.128 Na 
HETATM    4 NA   UNL     4     -11.923   9.999  67.582  1.00  0.00    -0.492 Na 
HETATM    5  C   UNL     5      -8.341   9.665  64.595  1.00  0.00    -0.162 C  
HETATM    6  C   UNL     5      -8.326   9.580  66.087  1.00  0.00    -0.118 A  
HETATM    7  C   UNL     5      -7.990   8.459  66.843  1.00  0.00    -0.099 A  
HETATM    8  C   UNL     5      -8.773  10.723  66.743  1.00  0.00    -0.145 A  
HETATM    9  C   UNL     5      -8.053   8.518  68.280  1.00  0.00    -0.119 A  
HETATM   10  C   UNL     5      -9.066  10.709  68.098  1.00  0.00    -0.148 A  
HETATM   11  C   UNL     5      -7.569   7.476  69.110  1.00  0.00    -0.100 A  
HETATM   12  C   UNL     5      -8.627   9.654  68.911  1.00  0.00    -0.127 A  
HETATM   13  C   UNL     5      -7.616   7.563  70.505  1.00  0.00    -0.085 A  
HETATM   14  C   UNL     5      -8.716   9.702  70.320  1.00  0.00    -0.248 A  
HETATM   15  C   UNL     5      -8.192   8.677  71.109  1.00  0.00    -0.187 A  
ENDROOT
BRANCH   7  16
HETATM   16  O   UNL     5      -7.507   7.307  66.298  1.00  0.00    -0.080 OA 
HETATM   17  O   UNL     5      -6.004   6.117  64.692  1.00  0.00    -0.024 OA 
HETATM   18  O   UNL     5      -5.235   8.231  65.525  1.00  0.00    -0.031 OA 
HETATM   19  P   UNL     5      -5.973   6.960  65.947  1.00  0.00    -0.037 P  
HETATM   20  O   UNL     5      -5.239   6.360  67.120  1.00  0.00    -0.007 OA 
ENDBRANCH   7  16
BRANCH  10  21
HETATM   21  O   UNL     5      -9.899  11.686  68.585  1.00  0.00    -0.203 OA 
HETATM   22  P   UNL     5     -10.828  12.616  67.609  1.00  0.00    -0.239 P  
HETATM   23  O   UNL     5     -11.200  11.782  66.373  1.00  0.00    -0.316 OA 
HETATM   24  O   UNL     5     -10.036  13.795  67.096  1.00  0.00    -0.236 OA 
HETATM   25  O   UNL     5     -12.108  12.861  68.341  1.00  0.00    -0.291 OA 
ENDBRANCH  10  21
TORSDOF 2
ENDMDL
MODEL      116
REMARK 921   NORMALIZED FREE ENERGY PREDICTED BY IDOCK:   -3.07 KCAL/MOL
REMARK 922        TOTAL FREE ENERGY PREDICTED BY IDOCK:   -3.56 KCAL/MOL
REMARK 923 INTER-LIGAND FREE ENERGY PREDICTED BY IDOCK:   -4.78 KCAL/MOL
REMARK 924 INTRA-LIGAND FREE ENERGY PREDICTED BY IDOCK:    1.23 KCAL/MOL
REMARK 927      BINDING AFFINITY PREDICTED BY RF-SCORE:    0.00 PKD
ROOT
HETATM    1 NA   UNL     1     -13.149  15.978  68.263  1.00  0.00    -0.198 Na 
HETATM    2 NA   UNL     2     -12.223  10.918  63.286  1.00  0.00    -0.618 Na 
HETATM    3 NA   UNL     3      -9.289  17.378  68.762  1.00  0.00    -0.228 Na 
HETATM    4 NA   UNL     4      -9.130  13.671  64.084  1.00  0.00    -0.262 Na 
HETATM    5  C   UNL     5     -12.036  12.878  67.660  1.00  0.00    -0.344 C  
HETATM    6  C   UNL     5     -10.568  12.615  67.571  1.00  0.00    -0.236 A  
HETATM    7  C   UNL     5      -9.575  13.236  68.326  1.00  0.00    -0.221 A  
HETATM    8  C   UNL     5     -10.192  11.719  66.575  1.00  0.00    -0.240 A  
HETATM    9  C   UNL     5      -8.192  12.901  68.107  1.00  0.00    -0.163 A  
HETATM   10  C   UNL     5      -8.866  11.574  66.197  1.00  0.00    -0.167 A  
HETATM   11  C   UNL     5      -7.150  13.368  68.946  1.00  0.00    -0.084 A  
HETATM   12  C   UNL     5      -7.836  12.078  67.005  1.00  0.00    -0.138 A  
HETATM   13  C   UNL     5      -5.815  13.010  68.731  1.00  0.00    -0.074 A  
HETATM   14  C   UNL     5      -6.477  11.770  66.771  1.00  0.00    -0.069 A  
HETATM   15  C   UNL     5      -5.480  12.213  67.642  1.00  0.00    -0.093 A  
ENDROOT
BRANCH   7  16
HETATM   16  O   UNL     5      -9.841  14.098  69.347  1.00  0.00     0.088 OA 
HETATM   17  O   UNL     5     -10.309  16.408  70.186  1.00  0.00    -0.123 OA 
HETATM   18  O   UNL     5     -11.040  15.901  67.959  1.00  0.00    -0.328 OA 
HETATM   19  P   UNL     5     -10.918  15.298  69.358  1.00  0.00    -0.315 P  
HETATM   20  O   UNL     5     -12.286  14.835  69.791  1.00  0.00    -0.302 OA 
ENDBRANCH   7  16
BRANCH  10  21
HETATM   21  O   UNL     5      -8.606  11.042  64.959  1.00  0.00    -0.110 OA 
HETATM   22  P   UNL     5      -8.450   9.432  64.707  1.00  0.00    -0.188 P  
HETATM   23  O   UNL     5      -9.342   8.705  65.726  1.00  0.00    -0.214 OA 
HETATM   24  O   UNL     5      -7.036   8.990  64.999  1.00  0.00    -0.078 OA 
HETATM   25  O   UNL     5      -9.041   9.147  63.365  1.00  0.00    -0.079 OA 
ENDBRANCH  10  21
TORSDOF 2
ENDMDL
MODEL      117
REMARK 921   NORMALIZED FREE ENERGY PREDICTED BY IDOCK:   -2.86 KCAL/MOL
REMARK 922        TOTAL FREE ENERGY PREDICTED BY IDOCK:   -3.33 KCAL/MOL
REMARK 923 INTER-LIGAND FREE ENERGY PREDICTED BY IDOCK:   -4.10 KCAL/MOL
REMARK 924 INTRA-LIGAND FREE ENERGY PREDICTED BY IDOCK:    0.77 KCAL/MOL
REMARK 927      BINDING AFFINITY PREDICTED BY RF-SCORE:    0.00 PKD
ROOT
HETATM    1 NA   UNL     1      -7.207   9.677  69.910  1.00  0.00    -0.050 Na 
HETATM    2 NA   UNL     2     -11.548  14.221  73.335  1.00  0.00    -0.009 Na 
HETATM    3 NA   UNL     3      -6.149  11.883  66.575  1.00  0.00    -0.114 Na 
HETATM    4 NA   UNL     4      -9.147  15.603  70.156  1.00  0.00    -0.248 Na 
HETATM    5  C   UNL     5     -10.254  11.065  69.964  1.00  0.00     0.536 C  
HETATM    6  C   UNL     5     -10.597  12.153  69.000  1.00  0.00    -0.117 A  
HETATM    7  C   UNL     5     -10.157  12.251  67.682  1.00  0.00    -0.200 A  
HETATM    8  C   UNL     5     -11.364  13.186  69.530  1.00  0.00    -0.227 A  
HETATM    9  C   UNL     5     -10.547  13.380  66.877  1.00  0.00    -0.273 A  
HETATM   10  C   UNL     5     -11.539  14.379  68.847  1.00  0.00    -0.306 A  
HETATM   11  C   UNL     5     -10.275  13.460  65.489  1.00  0.00    -0.300 A  
HETATM   12  C   UNL     5     -11.225  14.471  67.483  1.00  0.00    -0.333 A  
HETATM   13  C   UNL     5     -10.686  14.553  64.720  1.00  0.00    -0.414 A  
HETATM   14  C   UNL     5     -11.584  15.593  66.702  1.00  0.00     0.260 A  
HETATM   15  C   UNL     5     -11.338  15.620  65.329  1.00  0.00    -0.139 A  
ENDROOT
BRANCH   7  16
HETATM   16  O   UNL     5      -9.435  11.277  67.060  1.00  0.00    -0.169 OA 
HETATM   17  O   UNL     5      -9.090   8.879  66.439  1.00  0.00    -0.152 OA 
HETATM   18  O   UNL     5     -11.359   9.606  66.714  1.00  0.00     0.345 OA 
HETATM   19  P   UNL     5     -10.002  10.056  66.173  1.00  0.00    -0.231 P  
HETATM   20  O   UNL     5     -10.177  10.433  64.723  1.00  0.00    -0.345 OA 
ENDBRANCH   7  16
BRANCH  10  21
HETATM   21  O   UNL     5     -11.903  15.487  69.572  1.00  0.00    -0.334 OA 
HETATM   22  P   UNL     5     -12.806  15.389  70.934  1.00  0.00    -0.414 P  
HETATM   23  O   UNL     5     -12.493  14.047  71.615  1.00  0.00    -0.331 OA 
HETATM   24  O   UNL     5     -14.275  15.350  70.589  1.00  0.00    -0.194 OA 
HETATM   25  O   UNL     5     -12.302  16.448  71.860  1.00  0.00    -0.335 OA 
ENDBRANCH  10  21
TORSDOF 2
ENDMDL
MODEL      118
REMARK 921   NORMALIZED FREE ENERGY PREDICTED BY IDOCK:   -2.81 KCAL/MOL
REMARK 922        TOTAL FREE ENERGY PREDICTED BY IDOCK:   -3.27 KCAL/MOL
REMARK 923 INTER-LIGAND FREE ENERGY PREDICTED BY IDOCK:   -3.93 KCAL/MOL
REMARK 924 INTRA-LIGAND FREE ENERGY PREDICTED BY IDOCK:    0.67 KCAL/MOL
REMARK 927      BINDING AFFINITY PREDICTED BY RF-SCORE:    0.00 PKD
ROOT
HETATM    1 NA   UNL     1     -12.529  11.485  66.763  1.00  0.00    -0.078 Na 
HETATM    2 NA   UNL     2      -7.678  16.743  66.558  1.00  0.00    -0.137 Na 
HETATM    3 NA   UNL     3     -11.721   9.743  70.426  1.00  0.00    -0.229 Na 
HETATM    4 NA   UNL     4      -8.426  14.717  70.179  1.00  0.00    -0.386 Na 
HETATM    5  C   UNL     5      -9.297  12.235  66.313  1.00  0.00    -0.206 C  
HETATM    6  C   UNL     5      -8.308  11.960  67.398  1.00  0.00    -0.163 A  
HETATM    7  C   UNL     5      -8.329  10.877  68.274  1.00  0.00    -0.129 A  
HETATM    8  C   UNL     5      -7.337  12.942  67.569  1.00  0.00    -0.154 A  
HETATM    9  C   UNL     5      -7.321  10.760  69.296  1.00  0.00    -0.129 A  
HETATM   10  C   UNL     5      -6.520  12.963  68.689  1.00  0.00    -0.087 A  
HETATM   11  C   UNL     5      -7.185   9.607  70.108  1.00  0.00    -0.128 A  
HETATM   12  C   UNL     5      -6.422  11.837  69.519  1.00  0.00    -0.120 A  
HETATM   13  C   UNL     5      -6.183   9.503  71.077  1.00  0.00    -0.079 A  
HETATM   14  C   UNL     5      -5.450  11.737  70.540  1.00  0.00    -0.151 A  
HETATM   15  C   UNL     5      -5.317  10.570  71.294  1.00  0.00    -0.070 A  
ENDROOT
BRANCH   7  16
HETATM   16  O   UNL     5      -9.214   9.846  68.167  1.00  0.00    -0.128 OA 
HETATM   17  O   UNL     5     -10.558   8.262  66.775  1.00  0.00    -0.306 OA 
HETATM   18  O   UNL     5      -8.479   9.016  65.847  1.00  0.00    -0.127 OA 
HETATM   19  P   UNL     5      -9.133   8.589  67.161  1.00  0.00    -0.150 P  
HETATM   20  O   UNL     5      -8.332   7.447  67.735  1.00  0.00    -0.117 OA 
ENDBRANCH   7  16
BRANCH  10  21
HETATM   21  O   UNL     5      -5.918  14.151  69.023  1.00  0.00    -0.086 OA 
HETATM   22  P   UNL     5      -6.407  15.588  68.410  1.00  0.00    -0.126 P  
HETATM   23  O   UNL     5      -7.917  15.497  68.137  1.00  0.00    -0.128 OA 
HETATM   24  O   UNL     5      -5.755  15.837  67.071  1.00  0.00    -0.317 OA 
HETATM   25  O   UNL     5      -6.245  16.597  69.499  1.00  0.00    -0.198 OA 
ENDBRANCH  10  21
TORSDOF 2
ENDMDL
MODEL      119
REMARK 921   NORMALIZED FREE ENERGY PREDICTED BY IDOCK:   -2.67 KCAL/MOL
REMARK 922        TOTAL FREE ENERGY PREDICTED BY IDOCK:   -3.11 KCAL/MOL
REMARK 923 INTER-LIGAND FREE ENERGY PREDICTED BY IDOCK:   -6.13 KCAL/MOL
REMARK 924 INTRA-LIGAND FREE ENERGY PREDICTED BY IDOCK:    3.02 KCAL/MOL
REMARK 927      BINDING AFFINITY PREDICTED BY RF-SCORE:    0.00 PKD
ROOT
HETATM    1 NA   UNL     1      -7.973   8.916  71.505  1.00  0.00    -0.092 Na 
HETATM    2 NA   UNL     2     -12.745  14.115  70.310  1.00  0.00    -0.290 Na 
HETATM    3 NA   UNL     3      -5.720   9.035  68.038  1.00  0.00    -0.035 Na 
HETATM    4 NA   UNL     4      -9.348  13.773  67.836  1.00  0.00    -0.169 Na 
HETATM    5  C   UNL     5     -10.743   9.783  69.834  1.00  0.00    -0.303 C  
HETATM    6  C   UNL     5     -10.663  10.124  68.382  1.00  0.00    -0.266 A  
HETATM    7  C   UNL     5      -9.822   9.530  67.443  1.00  0.00    -0.170 A  
HETATM    8  C   UNL     5     -11.462  11.193  67.986  1.00  0.00    -0.366 A  
HETATM    9  C   UNL     5      -9.834   9.988  66.078  1.00  0.00    -0.321 A  
HETATM   10  C   UNL     5     -11.303  11.792  66.746  1.00  0.00    -0.320 A  
HETATM   11  C   UNL     5      -9.131   9.324  65.042  1.00  0.00    -0.245 A  
HETATM   12  C   UNL     5     -10.567  11.156  65.737  1.00  0.00    -0.289 A  
HETATM   13  C   UNL     5      -9.177   9.769  63.717  1.00  0.00    -0.237 A  
HETATM   14  C   UNL     5     -10.558  11.624  64.403  1.00  0.00    -0.377 A  
HETATM   15  C   UNL     5      -9.889  10.921  63.400  1.00  0.00    -0.408 A  
ENDROOT
BRANCH   7  16
HETATM   16  O   UNL     5      -9.032   8.456  67.721  1.00  0.00    -0.136 OA 
HETATM   17  O   UNL     5      -8.658   6.259  68.857  1.00  0.00    -0.124 OA 
HETATM   18  O   UNL     5     -10.915   6.780  68.231  1.00  0.00    -0.237 OA 
HETATM   19  P   UNL     5      -9.468   6.904  67.754  1.00  0.00    -0.124 P  
HETATM   20  O   UNL     5      -9.363   6.251  66.398  1.00  0.00    -0.157 OA 
ENDBRANCH   7  16
BRANCH  10  21
HETATM   21  O   UNL     5     -11.776  13.071  66.586  1.00  0.00    -0.343 OA 
HETATM   22  P   UNL     5     -10.833  14.392  66.807  1.00  0.00    -0.313 P  
HETATM   23  O   UNL     5      -9.391  14.013  66.432  1.00  0.00    -0.274 OA 
HETATM   24  O   UNL     5     -10.800  14.776  68.267  1.00  0.00    -0.239 OA 
HETATM   25  O   UNL     5     -11.269  15.404  65.797  1.00  0.00    -0.298 OA 
ENDBRANCH  10  21
TORSDOF 2
ENDMDL
MODEL      120
REMARK 921   NORMALIZED FREE ENERGY PREDICTED BY IDOCK:   -2.56 KCAL/MOL
REMARK 922        TOTAL FREE ENERGY PREDICTED BY IDOCK:   -2.99 KCAL/MOL
REMARK 923 INTER-LIGAND FREE ENERGY PREDICTED BY IDOCK:   -3.66 KCAL/MOL
REMARK 924 INTRA-LIGAND FREE ENERGY PREDICTED BY IDOCK:    0.67 KCAL/MOL
REMARK 927      BINDING AFFINITY PREDICTED BY RF-SCORE:    0.00 PKD
ROOT
HETATM    1 NA   UNL     1      -5.583   9.295  65.229  1.00  0.00    -0.045 Na 
HETATM    2 NA   UNL     2      -7.517   2.404  65.253  1.00  0.00    -0.057 Na 
HETATM    3 NA   UNL     3      -6.438  10.418  69.117  1.00  0.00    -0.042 Na 
HETATM    4 NA   UNL     4      -7.141   4.492  68.897  1.00  0.00    -0.044 Na 
HETATM    5  C   UNL     5      -8.160   7.157  65.192  1.00  0.00    -0.127 C  
HETATM    6  C   UNL     5      -8.962   6.932  66.432  1.00  0.00    -0.172 A  
HETATM    7  C   UNL     5      -9.277   7.891  67.392  1.00  0.00    -0.140 A  
HETATM    8  C   UNL     5      -9.344   5.612  66.652  1.00  0.00    -0.151 A  
HETATM    9  C   UNL     5     -10.037   7.518  68.557  1.00  0.00    -0.198 A  
HETATM   10  C   UNL     5      -9.858   5.203  67.873  1.00  0.00    -0.155 A  
HETATM   11  C   UNL     5     -10.531   8.469  69.484  1.00  0.00    -0.222 A  
HETATM   12  C   UNL     5     -10.304   6.146  68.810  1.00  0.00    -0.256 A  
HETATM   13  C   UNL     5     -11.289   8.088  70.596  1.00  0.00    -0.256 A  
HETATM   14  C   UNL     5     -11.024   5.775  69.967  1.00  0.00    -0.382 A  
HETATM   15  C   UNL     5     -11.533   6.740  70.837  1.00  0.00    -0.384 A  
ENDROOT
BRANCH   7  16
HETATM   16  O   UNL     5      -8.982   9.214  67.252  1.00  0.00    -0.123 OA 
HETATM   17  O   UNL     5      -8.816  11.275  65.844  1.00  0.00    -0.195 OA 
HETATM   18  O   UNL     5     -10.505   9.684  65.234  1.00  0.00     0.160 OA 
HETATM   19  P   UNL     5      -9.828  10.325  66.445  1.00  0.00    -0.239 P  
HETATM   20  O   UNL     5     -10.896  10.961  67.298  1.00  0.00    -0.254 OA 
ENDBRANCH   7  16
BRANCH  10  21
HETATM   21  O   UNL     5      -9.795   3.866  68.180  1.00  0.00    -0.103 OA 
HETATM   22  P   UNL     5      -8.807   2.827  67.390  1.00  0.00    -0.170 P  
HETATM   23  O   UNL     5      -7.564   3.609  66.933  1.00  0.00    -0.078 OA 
HETATM   24  O   UNL     5      -9.471   2.326  66.130  1.00  0.00     0.032 OA 
HETATM   25  O   UNL     5      -8.323   1.840  68.402  1.00  0.00    -0.056 OA 
ENDBRANCH  10  21
TORSDOF 2
ENDMDL
MODEL      121
REMARK 921   NORMALIZED FREE ENERGY PREDICTED BY IDOCK:   -2.53 KCAL/MOL
REMARK 922        TOTAL FREE ENERGY PREDICTED BY IDOCK:   -2.95 KCAL/MOL
REMARK 923 INTER-LIGAND FREE ENERGY PREDICTED BY IDOCK:   -4.20 KCAL/MOL
REMARK 924 INTRA-LIGAND FREE ENERGY PREDICTED BY IDOCK:    1.25 KCAL/MOL
REMARK 927      BINDING AFFINITY PREDICTED BY RF-SCORE:    0.00 PKD
ROOT
HETATM    1 NA   UNL     1     -13.677  10.830  70.783  1.00  0.00    -0.318 Na 
HETATM    2 NA   UNL     2     -10.473   4.447  71.247  1.00  0.00    -0.179 Na 
HETATM    3 NA   UNL     3     -12.559  12.055  66.994  1.00  0.00    -0.181 Na 
HETATM    4 NA   UNL     4     -10.768   6.382  67.512  1.00  0.00    -0.139 Na 
HETATM    5  C   UNL     5     -10.766   9.234  71.217  1.00  0.00    -0.422 C  
HETATM    6  C   UNL     5      -9.782   9.156  70.096  1.00  0.00    -0.234 A  
HETATM    7  C   UNL     5      -9.535  10.148  69.149  1.00  0.00    -0.206 A  
HETATM    8  C   UNL     5      -9.129   7.933  69.973  1.00  0.00    -0.152 A  
HETATM    9  C   UNL     5      -8.575   9.917  68.101  1.00  0.00    -0.118 A  
HETATM   10  C   UNL     5      -8.394   7.618  68.840  1.00  0.00    -0.129 A  
HETATM   11  C   UNL     5      -8.156  10.935  67.210  1.00  0.00    -0.123 A  
HETATM   12  C   UNL     5      -8.019   8.620  67.933  1.00  0.00    -0.107 A  
HETATM   13  C   UNL     5      -7.202  10.697  66.215  1.00  0.00    -0.137 A  
HETATM   14  C   UNL     5      -7.098   8.383  66.888  1.00  0.00    -0.075 A  
HETATM   15  C   UNL     5      -6.676   9.419  66.054  1.00  0.00    -0.081 A  
ENDROOT
BRANCH   7  16
HETATM   16  O   UNL     5     -10.094  11.389  69.204  1.00  0.00    -0.146 OA 
HETATM   17  O   UNL     5     -11.914  12.991  68.590  1.00  0.00    -0.319 OA 
HETATM   18  O   UNL     5     -12.528  10.679  68.776  1.00  0.00    -0.278 OA 
HETATM   19  P   UNL     5     -11.649  11.753  69.418  1.00  0.00    -0.337 P  
HETATM   20  O   UNL     5     -12.018  11.851  70.877  1.00  0.00    -0.248 OA 
ENDBRANCH   7  16
BRANCH  10  21
HETATM   21  O   UNL     5      -8.159   6.292  68.576  1.00  0.00    -0.107 OA 
HETATM   22  P   UNL     5      -6.956   5.449  69.300  1.00  0.00    -0.058 P  
HETATM   23  O   UNL     5      -6.740   6.042  70.701  1.00  0.00    -0.049 OA 
HETATM   24  O   UNL     5      -5.657   5.645  68.557  1.00  0.00    -0.007 OA 
HETATM   25  O   UNL     5      -7.472   4.063  69.514  1.00  0.00    -0.052 OA 
ENDBRANCH  10  21
TORSDOF 2
ENDMDL
MODEL      122
REMARK 921   NORMALIZED FREE ENERGY PREDICTED BY IDOCK:   -2.51 KCAL/MOL
REMARK 922        TOTAL FREE ENERGY PREDICTED BY IDOCK:   -2.93 KCAL/MOL
REMARK 923 INTER-LIGAND FREE ENERGY PREDICTED BY IDOCK:   -6.53 KCAL/MOL
REMARK 924 INTRA-LIGAND FREE ENERGY PREDICTED BY IDOCK:    3.59 KCAL/MOL
REMARK 927      BINDING AFFINITY PREDICTED BY RF-SCORE:    0.00 PKD
ROOT
HETATM    1 NA   UNL     1      -9.520   9.161  69.375  1.00  0.00    -0.141 Na 
HETATM    2 NA   UNL     2     -13.981  13.791  72.521  1.00  0.00    -0.368 Na 
HETATM    3 NA   UNL     3      -6.297  11.589  68.468  1.00  0.00    -0.049 Na 
HETATM    4 NA   UNL     4      -9.961  14.872  71.853  1.00  0.00    -0.348 Na 
HETATM    5  C   UNL     5     -11.666  11.685  68.886  1.00  0.00    -0.397 C  
HETATM    6  C   UNL     5     -11.151  13.057  68.592  1.00  0.00    -0.305 A  
HETATM    7  C   UNL     5     -10.021  13.366  67.839  1.00  0.00    -0.236 A  
HETATM    8  C   UNL     5     -11.848  14.089  69.212  1.00  0.00    -0.389 A  
HETATM    9  C   UNL     5      -9.628  14.741  67.666  1.00  0.00    -0.208 A  
HETATM   10  C   UNL     5     -11.342  15.380  69.252  1.00  0.00    -0.315 A  
HETATM   11  C   UNL     5      -8.593  15.135  66.782  1.00  0.00    -0.297 A  
HETATM   12  C   UNL     5     -10.286  15.756  68.410  1.00  0.00    -0.233 A  
HETATM   13  C   UNL     5      -8.244  16.478  66.609  1.00  0.00    -0.306 A  
HETATM   14  C   UNL     5      -9.884  17.103  68.264  1.00  0.00    -0.288 A  
HETATM   15  C   UNL     5      -8.889  17.461  67.353  1.00  0.00    -0.230 A  
ENDROOT
BRANCH   7  16
HETATM   16  O   UNL     5      -9.294  12.433  67.163  1.00  0.00    -0.187 OA 
HETATM   17  O   UNL     5      -7.098  11.510  66.401  1.00  0.00    -0.065 OA 
HETATM   18  O   UNL     5      -7.109  12.682  68.494  1.00  0.00    -0.089 OA 
HETATM   19  P   UNL     5      -7.934  11.715  67.645  1.00  0.00    -0.156 P  
HETATM   20  O   UNL     5      -8.199  10.478  68.465  1.00  0.00    -0.111 OA 
ENDBRANCH   7  16
BRANCH  10  21
HETATM   21  O   UNL     5     -11.819  16.226  70.222  1.00  0.00    -0.214 OA 
HETATM   22  P   UNL     5     -12.551  15.683  71.582  1.00  0.00    -0.459 P  
HETATM   23  O   UNL     5     -11.945  14.315  71.933  1.00  0.00    -0.203 OA 
HETATM   24  O   UNL     5     -14.019  15.437  71.325  1.00  0.00    -0.497 OA 
HETATM   25  O   UNL     5     -12.149  16.607  72.685  1.00  0.00    -0.435 OA 
ENDBRANCH  10  21
TORSDOF 2
ENDMDL
MODEL      123
REMARK 921   NORMALIZED FREE ENERGY PREDICTED BY IDOCK:   -2.39 KCAL/MOL
REMARK 922        TOTAL FREE ENERGY PREDICTED BY IDOCK:   -2.80 KCAL/MOL
REMARK 923 INTER-LIGAND FREE ENERGY PREDICTED BY IDOCK:   -4.26 KCAL/MOL
REMARK 924 INTRA-LIGAND FREE ENERGY PREDICTED BY IDOCK:    1.46 KCAL/MOL
REMARK 927      BINDING AFFINITY PREDICTED BY RF-SCORE:    0.00 PKD
ROOT
HETATM    1 NA   UNL     1     -14.152  10.211  69.826  1.00  0.00    -0.567 Na 
HETATM    2 NA   UNL     2     -12.763   4.067  73.224  1.00  0.00    -0.194 Na 
HETATM    3 NA   UNL     3     -10.920  10.498  67.262  1.00  0.00    -0.203 Na 
HETATM    4 NA   UNL     4     -10.603   5.078  69.747  1.00  0.00    -0.206 Na 
HETATM    5  C   UNL     5     -12.273   8.718  72.161  1.00  0.00    -0.448 C  
HETATM    6  C   UNL     5     -10.852   8.365  71.864  1.00  0.00    -0.372 A  
HETATM    7  C   UNL     5      -9.969   9.104  71.079  1.00  0.00    -0.297 A  
HETATM    8  C   UNL     5     -10.434   7.138  72.370  1.00  0.00    -0.247 A  
HETATM    9  C   UNL     5      -8.631   8.620  70.854  1.00  0.00    -0.204 A  
HETATM   10  C   UNL     5      -9.244   6.556  71.961  1.00  0.00    -0.147 A  
HETATM   11  C   UNL     5      -7.636   9.395  70.209  1.00  0.00    -0.143 A  
HETATM   12  C   UNL     5      -8.279   7.312  71.281  1.00  0.00    -0.106 A  
HETATM   13  C   UNL     5      -6.335   8.917  70.023  1.00  0.00    -0.037 A  
HETATM   14  C   UNL     5      -6.975   6.824  71.037  1.00  0.00    -0.067 A  
HETATM   15  C   UNL     5      -6.007   7.629  70.436  1.00  0.00    -0.030 A  
ENDROOT
BRANCH   7  16
HETATM   16  O   UNL     5     -10.268  10.332  70.571  1.00  0.00    -0.096 OA 
HETATM   17  O   UNL     5     -11.217  11.769  68.757  1.00  0.00    -0.212 OA 
HETATM   18  O   UNL     5     -12.194   9.596  69.033  1.00  0.00     0.772 OA 
HETATM   19  P   UNL     5     -11.625  10.776  69.822  1.00  0.00    -0.362 P  
HETATM   20  O   UNL     5     -12.683  11.249  70.787  1.00  0.00    -0.318 OA 
ENDBRANCH   7  16
BRANCH  10  21
HETATM   21  O   UNL     5      -9.101   5.201  72.130  1.00  0.00    -0.135 OA 
HETATM   22  P   UNL     5      -9.577   4.428  73.493  1.00  0.00    -0.118 P  
HETATM   23  O   UNL     5     -10.778   5.191  74.075  1.00  0.00    -0.285 OA 
HETATM   24  O   UNL     5      -8.491   4.495  74.540  1.00  0.00    -0.102 OA 
HETATM   25  O   UNL     5     -10.101   3.095  73.070  1.00  0.00    -0.131 OA 
ENDBRANCH  10  21
TORSDOF 2
ENDMDL
MODEL      124
REMARK 921   NORMALIZED FREE ENERGY PREDICTED BY IDOCK:   -2.37 KCAL/MOL
REMARK 922        TOTAL FREE ENERGY PREDICTED BY IDOCK:   -2.78 KCAL/MOL
REMARK 923 INTER-LIGAND FREE ENERGY PREDICTED BY IDOCK:   -5.36 KCAL/MOL
REMARK 924 INTRA-LIGAND FREE ENERGY PREDICTED BY IDOCK:    2.58 KCAL/MOL
REMARK 927      BINDING AFFINITY PREDICTED BY RF-SCORE:    0.00 PKD
ROOT
HETATM    1 NA   UNL     1      -7.377   5.250  67.265  1.00  0.00    -0.068 Na 
HETATM    2 NA   UNL     2      -7.961  11.607  64.030  1.00  0.00    -0.243 Na 
HETATM    3 NA   UNL     3     -10.954   5.028  69.329  1.00  0.00    -0.243 Na 
HETATM    4 NA   UNL     4     -11.348   9.840  65.814  1.00  0.00     0.207 Na 
HETATM    5  C   UNL     5      -7.250   8.571  67.674  1.00  0.00    -0.084 C  
HETATM    6  C   UNL     5      -8.389   9.288  68.322  1.00  0.00    -0.120 A  
HETATM    7  C   UNL     5      -9.178   8.805  69.364  1.00  0.00    -0.146 A  
HETATM    8  C   UNL     5      -8.712  10.514  67.749  1.00  0.00    -0.122 A  
HETATM    9  C   UNL     5     -10.267   9.601  69.868  1.00  0.00    -0.279 A  
HETATM   10  C   UNL     5      -9.893  11.169  68.061  1.00  0.00    -0.174 A  
HETATM   11  C   UNL     5     -11.000   9.247  71.028  1.00  0.00    -0.390 A  
HETATM   12  C   UNL     5     -10.643  10.787  69.183  1.00  0.00    -0.254 A  
HETATM   13  C   UNL     5     -12.038  10.048  71.516  1.00  0.00    -0.475 A  
HETATM   14  C   UNL     5     -11.730  11.556  69.659  1.00  0.00    -0.419 A  
HETATM   15  C   UNL     5     -12.403  11.200  70.828  1.00  0.00    -0.504 A  
ENDROOT
BRANCH   7  16
HETATM   16  O   UNL     5      -8.922   7.636  70.016  1.00  0.00    -0.143 OA 
HETATM   17  O   UNL     5      -9.712   5.516  71.083  1.00  0.00    -0.164 OA 
HETATM   18  O   UNL     5     -11.036   6.373  69.276  1.00  0.00    -0.320 OA 
HETATM   19  P   UNL     5      -9.589   6.196  69.737  1.00  0.00    -0.154 P  
HETATM   20  O   UNL     5      -8.851   5.418  68.677  1.00  0.00    -0.103 OA 
ENDBRANCH   7  16
BRANCH  10  21
HETATM   21  O   UNL     5     -10.363  12.105  67.173  1.00  0.00    -0.212 OA 
HETATM   22  P   UNL     5      -9.858  13.662  67.187  1.00  0.00    -0.254 P  
HETATM   23  O   UNL     5      -8.406  13.685  67.690  1.00  0.00    -0.156 OA 
HETATM   24  O   UNL     5     -10.659  14.465  68.184  1.00  0.00    -0.230 OA 
HETATM   25  O   UNL     5      -9.808  14.110  65.762  1.00  0.00    -0.307 OA 
ENDBRANCH  10  21
TORSDOF 2
ENDMDL
MODEL      125
REMARK 921   NORMALIZED FREE ENERGY PREDICTED BY IDOCK:   -2.24 KCAL/MOL
REMARK 922        TOTAL FREE ENERGY PREDICTED BY IDOCK:   -2.63 KCAL/MOL
REMARK 923 INTER-LIGAND FREE ENERGY PREDICTED BY IDOCK:   -6.87 KCAL/MOL
REMARK 924 INTRA-LIGAND FREE ENERGY PREDICTED BY IDOCK:    4.23 KCAL/MOL
REMARK 927      BINDING AFFINITY PREDICTED BY RF-SCORE:    0.00 PKD
ROOT
HETATM    1 NA   UNL     1      -9.748  13.575  64.100  1.00  0.00    -0.536 Na 
HETATM    2 NA   UNL     2      -6.357   7.522  65.859  1.00  0.00    -0.035 Na 
HETATM    3 NA   UNL     3     -10.775  15.069  67.817  1.00  0.00    -0.242 Na 
HETATM    4 NA   UNL     4      -7.195  10.398  68.827  1.00  0.00    -0.065 Na 
HETATM    5  C   UNL     5     -10.114  10.424  65.174  1.00  0.00    -0.379 C  
HETATM    6  C   UNL     5     -10.417  10.155  66.611  1.00  0.00    -0.254 A  
HETATM    7  C   UNL     5     -11.217  10.936  67.443  1.00  0.00    -0.273 A  
HETATM    8  C   UNL     5      -9.755   9.057  67.155  1.00  0.00    -0.237 A  
HETATM    9  C   UNL     5     -11.393  10.566  68.823  1.00  0.00    -0.310 A  
HETATM   10  C   UNL     5      -9.726   8.837  68.523  1.00  0.00    -0.162 A  
HETATM   11  C   UNL     5     -12.320  11.216  69.676  1.00  0.00    -0.287 A  
HETATM   12  C   UNL     5     -10.611   9.516  69.373  1.00  0.00    -0.235 A  
HETATM   13  C   UNL     5     -12.495  10.825  71.008  1.00  0.00    -0.522 A  
HETATM   14  C   UNL     5     -10.762   9.170  70.735  1.00  0.00    -0.327 A  
HETATM   15  C   UNL     5     -11.713   9.803  71.536  1.00  0.00    -0.450 A  
ENDROOT
BRANCH   7  16
HETATM   16  O   UNL     5     -11.935  12.006  66.999  1.00  0.00    -0.609 OA 
HETATM   17  O   UNL     5     -12.127  14.450  66.505  1.00  0.00    -0.418 OA 
HETATM   18  O   UNL     5      -9.945  13.475  66.297  1.00  0.00    -0.285 OA 
HETATM   19  P   UNL     5     -11.425  13.194  66.038  1.00  0.00    -0.370 P  
HETATM   20  O   UNL     5     -11.590  12.859  64.576  1.00  0.00    -0.320 OA 
ENDBRANCH   7  16
BRANCH  10  21
HETATM   21  O   UNL     5      -8.727   8.039  69.023  1.00  0.00    -0.136 OA 
HETATM   22  P   UNL     5      -7.454   8.642  69.859  1.00  0.00    -0.061 P  
HETATM   23  O   UNL     5      -7.929   9.901  70.602  1.00  0.00    -0.257 OA 
HETATM   24  O   UNL     5      -6.372   9.100  68.910  1.00  0.00    -0.044 OA 
HETATM   25  O   UNL     5      -7.121   7.640  70.916  1.00  0.00    -0.053 OA 
ENDBRANCH  10  21
TORSDOF 2
ENDMDL
MODEL      126
REMARK 921   NORMALIZED FREE ENERGY PREDICTED BY IDOCK:   -2.22 KCAL/MOL
REMARK 922        TOTAL FREE ENERGY PREDICTED BY IDOCK:   -2.61 KCAL/MOL
REMARK 923 INTER-LIGAND FREE ENERGY PREDICTED BY IDOCK:   -4.64 KCAL/MOL
REMARK 924 INTRA-LIGAND FREE ENERGY PREDICTED BY IDOCK:    2.03 KCAL/MOL
REMARK 927      BINDING AFFINITY PREDICTED BY RF-SCORE:    0.00 PKD
ROOT
HETATM    1 NA   UNL     1     -10.309   7.372  73.786  1.00  0.00    -0.225 Na 
HETATM    2 NA   UNL     2      -9.503  12.808  69.200  1.00  0.00    -0.351 Na 
HETATM    3 NA   UNL     3      -8.263   4.339  71.856  1.00  0.00    -0.078 Na 
HETATM    4 NA   UNL     4      -7.167   9.326  68.760  1.00  0.00    -0.063 Na 
HETATM    5  C   UNL     5     -11.292   8.681  70.864  1.00  0.00    -0.314 C  
HETATM    6  C   UNL     5     -10.796   8.100  69.581  1.00  0.00    -0.162 A  
HETATM    7  C   UNL     5     -10.548   6.752  69.330  1.00  0.00    -0.233 A  
HETATM    8  C   UNL     5     -10.489   9.033  68.595  1.00  0.00    -0.229 A  
HETATM    9  C   UNL     5     -10.038   6.342  68.047  1.00  0.00    -0.168 A  
HETATM   10  C   UNL     5      -9.778   8.676  67.459  1.00  0.00    -0.165 A  
HETATM   11  C   UNL     5      -9.922   4.982  67.670  1.00  0.00    -0.202 A  
HETATM   12  C   UNL     5      -9.623   7.327  67.112  1.00  0.00    -0.203 A  
HETATM   13  C   UNL     5      -9.449   4.605  66.408  1.00  0.00    -0.169 A  
HETATM   14  C   UNL     5      -9.096   6.927  65.862  1.00  0.00    -0.045 A  
HETATM   15  C   UNL     5      -9.034   5.579  65.507  1.00  0.00    -0.133 A  
ENDROOT
BRANCH   7  16
HETATM   16  O   UNL     5     -10.849   5.759  70.214  1.00  0.00    -0.299 OA 
HETATM   17  O   UNL     5     -10.226   4.292  72.142  1.00  0.00    -0.184 OA 
HETATM   18  O   UNL     5      -9.236   6.476  72.083  1.00  0.00    -0.141 OA 
HETATM   19  P   UNL     5     -10.539   5.731  71.795  1.00  0.00    -0.245 P  
HETATM   20  O   UNL     5     -11.636   6.375  72.605  1.00  0.00    -0.243 OA 
ENDBRANCH   7  16
BRANCH  10  21
HETATM   21  O   UNL     5      -9.132   9.671  66.768  1.00  0.00    -0.142 OA 
HETATM   22  P   UNL     5      -8.840  11.146  67.415  1.00  0.00    -0.143 P  
HETATM   23  O   UNL     5      -8.662  10.971  68.932  1.00  0.00    -0.164 OA 
HETATM   24  O   UNL     5     -10.040  12.045  67.236  1.00  0.00    -0.193 OA 
HETATM   25  O   UNL     5      -7.512  11.590  66.893  1.00  0.00    -0.143 OA 
ENDBRANCH  10  21
TORSDOF 2
ENDMDL
MODEL      127
REMARK 921   NORMALIZED FREE ENERGY PREDICTED BY IDOCK:   -2.19 KCAL/MOL
REMARK 922        TOTAL FREE ENERGY PREDICTED BY IDOCK:   -2.57 KCAL/MOL
REMARK 923 INTER-LIGAND FREE ENERGY PREDICTED BY IDOCK:   -3.80 KCAL/MOL
REMARK 924 INTRA-LIGAND FREE ENERGY PREDICTED BY IDOCK:    1.23 KCAL/MOL
REMARK 927      BINDING AFFINITY PREDICTED BY RF-SCORE:    0.00 PKD
ROOT
HETATM    1 NA   UNL     1     -13.116  11.383  64.516  1.00  0.00    -0.077 Na 
HETATM    2 NA   UNL     2      -9.883   6.548  68.686  1.00  0.00    -0.134 Na 
HETATM    3 NA   UNL     3      -9.988  13.930  63.606  1.00  0.00    -0.351 Na 
HETATM    4 NA   UNL     4      -7.570   9.257  66.430  1.00  0.00    -0.084 Na 
HETATM    5  C   UNL     5     -11.847  10.774  67.554  1.00  0.00     0.491 C  
HETATM    6  C   UNL     5     -10.521  11.345  67.938  1.00  0.00    -0.212 A  
HETATM    7  C   UNL     5     -10.021  12.589  67.558  1.00  0.00    -0.201 A  
HETATM    8  C   UNL     5      -9.708  10.492  68.677  1.00  0.00    -0.175 A  
HETATM    9  C   UNL     5      -8.705  12.993  67.982  1.00  0.00    -0.187 A  
HETATM   10  C   UNL     5      -8.365  10.771  68.881  1.00  0.00    -0.147 A  
HETATM   11  C   UNL     5      -8.203  14.301  67.773  1.00  0.00    -0.178 A  
HETATM   12  C   UNL     5      -7.859  12.054  68.629  1.00  0.00    -0.091 A  
HETATM   13  C   UNL     5      -6.932  14.682  68.216  1.00  0.00    -0.113 A  
HETATM   14  C   UNL     5      -6.557  12.439  69.021  1.00  0.00    -0.100 A  
HETATM   15  C   UNL     5      -6.109  13.748  68.837  1.00  0.00    -0.088 A  
ENDROOT
BRANCH   7  16
HETATM   16  O   UNL     5     -10.751  13.509  66.868  1.00  0.00    -0.272 OA 
HETATM   17  O   UNL     5     -11.536  14.495  64.707  1.00  0.00    -0.377 OA 
HETATM   18  O   UNL     5     -11.050  12.146  64.708  1.00  0.00    -0.299 OA 
HETATM   19  P   UNL     5     -11.663  13.255  65.564  1.00  0.00    -0.391 P  
HETATM   20  O   UNL     5     -13.071  12.848  65.920  1.00  0.00     0.001 OA 
ENDBRANCH   7  16
BRANCH  10  21
HETATM   21  O   UNL     5      -7.535   9.727  69.209  1.00  0.00    -0.077 OA 
HETATM   22  P   UNL     5      -7.518   9.052  70.701  1.00  0.00    -0.134 P  
HETATM   23  O   UNL     5      -8.931   9.176  71.293  1.00  0.00    -0.237 OA 
HETATM   24  O   UNL     5      -6.609   9.833  71.620  1.00  0.00    -0.306 OA 
HETATM   25  O   UNL     5      -7.278   7.590  70.507  1.00  0.00    -0.062 OA 
ENDBRANCH  10  21
TORSDOF 2
ENDMDL
MODEL      128
REMARK 921   NORMALIZED FREE ENERGY PREDICTED BY IDOCK:   -2.14 KCAL/MOL
REMARK 922        TOTAL FREE ENERGY PREDICTED BY IDOCK:   -2.52 KCAL/MOL
REMARK 923 INTER-LIGAND FREE ENERGY PREDICTED BY IDOCK:   -3.18 KCAL/MOL
REMARK 924 INTRA-LIGAND FREE ENERGY PREDICTED BY IDOCK:    0.67 KCAL/MOL
REMARK 927      BINDING AFFINITY PREDICTED BY RF-SCORE:    0.00 PKD
ROOT
HETATM    1 NA   UNL     1     -11.848  18.592  67.084  1.00  0.00    -0.039 Na 
HETATM    2 NA   UNL     2      -5.136  16.314  68.078  1.00  0.00    -0.080 Na 
HETATM    3 NA   UNL     3     -13.997  15.875  69.343  1.00  0.00    -0.070 Na 
HETATM    4 NA   UNL     4      -8.236  14.847  70.531  1.00  0.00    -0.373 Na 
HETATM    5  C   UNL     5      -9.583  16.260  66.282  1.00  0.00    -0.336 C  
HETATM    6  C   UNL     5      -9.669  14.896  66.885  1.00  0.00    -0.248 A  
HETATM    7  C   UNL     5     -10.840  14.203  67.186  1.00  0.00    -0.290 A  
HETATM    8  C   UNL     5      -8.446  14.333  67.238  1.00  0.00    -0.226 A  
HETATM    9  C   UNL     5     -10.766  12.902  67.798  1.00  0.00    -0.238 A  
HETATM   10  C   UNL     5      -8.376  13.203  68.039  1.00  0.00    -0.162 A  
HETATM   11  C   UNL     5     -11.903  12.075  67.977  1.00  0.00    -0.338 A  
HETATM   12  C   UNL     5      -9.513  12.412  68.254  1.00  0.00    -0.203 A  
HETATM   13  C   UNL     5     -11.807  10.803  68.550  1.00  0.00    -0.168 A  
HETATM   14  C   UNL     5      -9.442  11.147  68.881  1.00  0.00    -0.136 A  
HETATM   15  C   UNL     5     -10.575  10.342  69.004  1.00  0.00    -0.247 A  
ENDROOT
BRANCH   7  16
HETATM   16  O   UNL     5     -12.081  14.650  66.847  1.00  0.00    -0.361 OA 
HETATM   17  O   UNL     5     -13.650  15.695  65.203  1.00  0.00     1.484 OA 
HETATM   18  O   UNL     5     -11.842  14.404  64.299  1.00  0.00    -0.413 OA 
HETATM   19  P   UNL     5     -12.850  14.435  65.447  1.00  0.00     0.203 P  
HETATM   20  O   UNL     5     -13.635  13.146  65.417  1.00  0.00    -0.220 OA 
ENDBRANCH   7  16
BRANCH  10  21
HETATM   21  O   UNL     5      -7.202  12.962  68.708  1.00  0.00    -0.102 OA 
HETATM   22  P   UNL     5      -6.051  14.111  68.907  1.00  0.00    -0.098 P  
HETATM   23  O   UNL     5      -6.752  15.477  68.975  1.00  0.00    -0.117 OA 
HETATM   24  O   UNL     5      -5.147  14.164  67.699  1.00  0.00    -0.304 OA 
HETATM   25  O   UNL     5      -5.452  13.888  70.258  1.00  0.00    -0.101 OA 
ENDBRANCH  10  21
TORSDOF 2
ENDMDL
MODEL      129
REMARK 921   NORMALIZED FREE ENERGY PREDICTED BY IDOCK:   -2.09 KCAL/MOL
REMARK 922        TOTAL FREE ENERGY PREDICTED BY IDOCK:   -2.46 KCAL/MOL
REMARK 923 INTER-LIGAND FREE ENERGY PREDICTED BY IDOCK:   -6.98 KCAL/MOL
REMARK 924 INTRA-LIGAND FREE ENERGY PREDICTED BY IDOCK:    4.52 KCAL/MOL
REMARK 927      BINDING AFFINITY PREDICTED BY RF-SCORE:    0.00 PKD
ROOT
HETATM    1 NA   UNL     1      -6.929  18.711  69.426  1.00  0.00    -0.251 Na 
HETATM    2 NA   UNL     2      -7.424  11.620  70.265  1.00  0.00    -0.350 Na 
HETATM    3 NA   UNL     3     -10.639  19.628  67.844  1.00  0.00    -0.332 Na 
HETATM    4 NA   UNL     4     -10.889  13.888  69.471  1.00  0.00    -0.224 Na 
HETATM    5  C   UNL     5      -6.907  15.745  67.872  1.00  0.00    -0.161 C  
HETATM    6  C   UNL     5      -8.105  15.296  67.102  1.00  0.00    -0.248 A  
HETATM    7  C   UNL     5      -8.955  16.110  66.356  1.00  0.00    -0.318 A  
HETATM    8  C   UNL     5      -8.413  13.945  67.231  1.00  0.00    -0.212 A  
HETATM    9  C   UNL     5     -10.095  15.537  65.689  1.00  0.00    -0.406 A  
HETATM   10  C   UNL     5      -9.629  13.437  66.799  1.00  0.00    -0.262 A  
HETATM   11  C   UNL     5     -10.901  16.272  64.784  1.00  0.00    -0.245 A  
HETATM   12  C   UNL     5     -10.448  14.185  65.941  1.00  0.00    -0.313 A  
HETATM   13  C   UNL     5     -11.989  15.690  64.126  1.00  0.00    -0.048 A  
HETATM   14  C   UNL     5     -11.583  13.628  65.309  1.00  0.00    -0.334 A  
HETATM   15  C   UNL     5     -12.330  14.368  64.392  1.00  0.00    -0.428 A  
ENDROOT
BRANCH   7  16
HETATM   16  O   UNL     5      -8.720  17.435  66.138  1.00  0.00    -0.439 OA 
HETATM   17  O   UNL     5      -8.975  19.833  66.801  1.00  0.00    -0.325 OA 
HETATM   18  O   UNL     5      -8.947  18.220  68.576  1.00  0.00    -0.310 OA 
HETATM   19  P   UNL     5      -8.304  18.546  67.228  1.00  0.00    -0.262 P  
HETATM   20  O   UNL     5      -6.811  18.622  67.427  1.00  0.00    -0.201 OA 
ENDBRANCH   7  16
BRANCH  10  21
HETATM   21  O   UNL     5     -10.055  12.247  67.336  1.00  0.00    -0.199 OA 
HETATM   22  P   UNL     5     -11.399  12.132  68.265  1.00  0.00    -0.341 P  
HETATM   23  O   UNL     5     -12.392  13.207  67.795  1.00  0.00    -0.161 OA 
HETATM   24  O   UNL     5     -11.073  12.462  69.702  1.00  0.00    -0.094 OA 
HETATM   25  O   UNL     5     -12.031  10.817  67.943  1.00  0.00    -0.518 OA 
ENDBRANCH  10  21
TORSDOF 2
ENDMDL
MODEL      130
REMARK 921   NORMALIZED FREE ENERGY PREDICTED BY IDOCK:   -2.08 KCAL/MOL
REMARK 922        TOTAL FREE ENERGY PREDICTED BY IDOCK:   -2.45 KCAL/MOL
REMARK 923 INTER-LIGAND FREE ENERGY PREDICTED BY IDOCK:   -4.47 KCAL/MOL
REMARK 924 INTRA-LIGAND FREE ENERGY PREDICTED BY IDOCK:    2.02 KCAL/MOL
REMARK 927      BINDING AFFINITY PREDICTED BY RF-SCORE:    0.00 PKD
ROOT
HETATM    1 NA   UNL     1      -5.430   7.365  66.274  1.00  0.00    -0.019 Na 
HETATM    2 NA   UNL     2      -8.256   4.584  72.233  1.00  0.00    -0.088 Na 
HETATM    3 NA   UNL     3      -6.254  11.389  66.756  1.00  0.00    -0.062 Na 
HETATM    4 NA   UNL     4      -7.726   8.754  71.909  1.00  0.00    -0.092 Na 
HETATM    5  C   UNL     5      -8.264   6.512  67.841  1.00  0.00    -0.116 C  
HETATM    6  C   UNL     5      -9.129   7.567  68.449  1.00  0.00    -0.133 A  
HETATM    7  C   UNL     5      -9.345   8.846  67.940  1.00  0.00    -0.141 A  
HETATM    8  C   UNL     5      -9.688   7.231  69.678  1.00  0.00    -0.159 A  
HETATM    9  C   UNL     5     -10.184   9.771  68.656  1.00  0.00    -0.210 A  
HETATM   10  C   UNL     5     -10.290   8.185  70.483  1.00  0.00    -0.202 A  
HETATM   11  C   UNL     5     -10.579  11.020  68.117  1.00  0.00    -0.226 A  
HETATM   12  C   UNL     5     -10.638   9.440  69.961  1.00  0.00    -0.267 A  
HETATM   13  C   UNL     5     -11.416  11.894  68.819  1.00  0.00    -0.347 A  
HETATM   14  C   UNL     5     -11.439  10.357  70.678  1.00  0.00    -0.438 A  
HETATM   15  C   UNL     5     -11.843  11.562  70.100  1.00  0.00    -0.440 A  
ENDROOT
BRANCH   7  16
HETATM   16  O   UNL     5      -8.874   9.258  66.730  1.00  0.00    -0.125 OA 
HETATM   17  O   UNL     5      -7.175  10.467  65.348  1.00  0.00    -0.143 OA 
HETATM   18  O   UNL     5      -6.401   9.487  67.396  1.00  0.00    -0.063 OA 
HETATM   19  P   UNL     5      -7.345   9.242  66.219  1.00  0.00    -0.093 P  
HETATM   20  O   UNL     5      -6.969   7.928  65.581  1.00  0.00    -0.052 OA 
ENDBRANCH   7  16
BRANCH  10  21
HETATM   21  O   UNL     5     -10.414   7.910  71.822  1.00  0.00    -0.209 OA 
HETATM   22  P   UNL     5     -10.898   6.448  72.379  1.00  0.00    -0.262 P  
HETATM   23  O   UNL     5     -10.430   5.381  71.376  1.00  0.00    -0.223 OA 
HETATM   24  O   UNL     5     -12.405   6.368  72.403  1.00  0.00    -0.178 OA 
HETATM   25  O   UNL     5     -10.134   6.194  73.638  1.00  0.00    -0.185 OA 
ENDBRANCH  10  21
TORSDOF 2
ENDMDL
MODEL      131
REMARK 921   NORMALIZED FREE ENERGY PREDICTED BY IDOCK:   -2.04 KCAL/MOL
REMARK 922        TOTAL FREE ENERGY PREDICTED BY IDOCK:   -2.41 KCAL/MOL
REMARK 923 INTER-LIGAND FREE ENERGY PREDICTED BY IDOCK:   -3.44 KCAL/MOL
REMARK 924 INTRA-LIGAND FREE ENERGY PREDICTED BY IDOCK:    1.03 KCAL/MOL
REMARK 927      BINDING AFFINITY PREDICTED BY RF-SCORE:    0.00 PKD
ROOT
HETATM    1 NA   UNL     1      -8.332  10.502  70.639  1.00  0.00    -0.306 Na 
HETATM    2 NA   UNL     2      -6.182   6.914  64.831  1.00  0.00    -0.030 Na 
HETATM    3 NA   UNL     3      -7.867   7.654  73.602  1.00  0.00    -0.098 Na 
HETATM    4 NA   UNL     4      -5.413   5.350  68.670  1.00  0.00    -0.004 Na 
HETATM    5  C   UNL     5      -9.144   8.154  68.394  1.00  0.00    -0.136 C  
HETATM    6  C   UNL     5      -9.085   6.709  68.769  1.00  0.00    -0.131 A  
HETATM    7  C   UNL     5      -9.400   6.170  70.015  1.00  0.00    -0.154 A  
HETATM    8  C   UNL     5      -8.589   5.866  67.779  1.00  0.00    -0.105 A  
HETATM    9  C   UNL     5      -9.265   4.755  70.239  1.00  0.00    -0.191 A  
HETATM   10  C   UNL     5      -8.229   4.557  68.060  1.00  0.00    -0.094 A  
HETATM   11  C   UNL     5      -9.723   4.120  71.421  1.00  0.00    -0.251 A  
HETATM   12  C   UNL     5      -8.643   3.945  69.252  1.00  0.00    -0.114 A  
HETATM   13  C   UNL     5      -9.605   2.739  71.608  1.00  0.00    -0.222 A  
HETATM   14  C   UNL     5      -8.483   2.560  69.481  1.00  0.00    -0.097 A  
HETATM   15  C   UNL     5      -8.983   1.961  70.638  1.00  0.00    -0.137 A  
ENDROOT
BRANCH   7  16
HETATM   16  O   UNL     5      -9.928   6.904  71.035  1.00  0.00    -0.188 OA 
HETATM   17  O   UNL     5     -11.664   8.468  71.926  1.00  0.00    -0.296 OA 
HETATM   18  O   UNL     5     -12.349   6.981  70.173  1.00  0.00    -0.058 OA 
HETATM   19  P   UNL     5     -11.483   7.050  71.431  1.00  0.00    -0.313 P  
HETATM   20  O   UNL     5     -11.938   5.966  72.375  1.00  0.00    -0.298 OA 
ENDBRANCH   7  16
BRANCH  10  21
HETATM   21  O   UNL     5      -7.358   3.933  67.202  1.00  0.00    -0.066 OA 
HETATM   22  P   UNL     5      -6.513   4.747  66.059  1.00  0.00    -0.042 P  
HETATM   23  O   UNL     5      -6.247   6.166  66.588  1.00  0.00    -0.034 OA 
HETATM   24  O   UNL     5      -7.345   4.915  64.811  1.00  0.00    -0.062 OA 
HETATM   25  O   UNL     5      -5.176   4.086  65.961  1.00  0.00    -0.008 OA 
ENDBRANCH  10  21
TORSDOF 2
ENDMDL
MODEL      132
REMARK 921   NORMALIZED FREE ENERGY PREDICTED BY IDOCK:   -1.98 KCAL/MOL
REMARK 922        TOTAL FREE ENERGY PREDICTED BY IDOCK:   -2.33 KCAL/MOL
REMARK 923 INTER-LIGAND FREE ENERGY PREDICTED BY IDOCK:   -3.52 KCAL/MOL
REMARK 924 INTRA-LIGAND FREE ENERGY PREDICTED BY IDOCK:    1.19 KCAL/MOL
REMARK 927      BINDING AFFINITY PREDICTED BY RF-SCORE:    0.00 PKD
ROOT
HETATM    1 NA   UNL     1      -7.375  10.593  69.665  1.00  0.00    -0.072 Na 
HETATM    2 NA   UNL     2      -6.682   6.539  63.808  1.00  0.00    -0.035 Na 
HETATM    3 NA   UNL     3      -6.908   7.798  72.678  1.00  0.00    -0.057 Na 
HETATM    4 NA   UNL     4      -5.595   4.989  67.575  1.00  0.00    -0.009 Na 
HETATM    5  C   UNL     5      -8.858   8.335  67.686  1.00  0.00    -0.137 C  
HETATM    6  C   UNL     5      -8.963   6.911  68.125  1.00  0.00    -0.123 A  
HETATM    7  C   UNL     5      -9.167   6.467  69.430  1.00  0.00    -0.143 A  
HETATM    8  C   UNL     5      -8.753   5.971  67.121  1.00  0.00    -0.109 A  
HETATM    9  C   UNL     5      -9.215   5.055  69.707  1.00  0.00    -0.168 A  
HETATM   10  C   UNL     5      -8.558   4.631  67.416  1.00  0.00    -0.104 A  
HETATM   11  C   UNL     5      -9.582   4.536  70.974  1.00  0.00    -0.248 A  
HETATM   12  C   UNL     5      -8.877   4.128  68.685  1.00  0.00    -0.141 A  
HETATM   13  C   UNL     5      -9.648   3.160  71.216  1.00  0.00    -0.229 A  
HETATM   14  C   UNL     5      -8.896   2.742  68.962  1.00  0.00    -0.152 A  
HETATM   15  C   UNL     5      -9.302   2.265  70.209  1.00  0.00    -0.184 A  
ENDROOT
BRANCH   7  16
HETATM   16  O   UNL     5      -9.419   7.304  70.474  1.00  0.00    -0.165 OA 
HETATM   17  O   UNL     5      -8.620   8.755  72.349  1.00  0.00    -0.395 OA 
HETATM   18  O   UNL     5      -7.176   8.561  70.443  1.00  0.00    -0.036 OA 
HETATM   19  P   UNL     5      -8.648   8.672  70.839  1.00  0.00    -0.207 P  
HETATM   20  O   UNL     5      -9.236   9.867  70.129  1.00  0.00    -0.228 OA 
ENDBRANCH   7  16
BRANCH  10  21
HETATM   21  O   UNL     5      -7.929   3.852  66.476  1.00  0.00    -0.095 OA 
HETATM   22  P   UNL     5      -8.741   3.100  65.269  1.00  0.00    -0.128 P  
HETATM   23  O   UNL     5      -9.966   3.960  64.916  1.00  0.00    -0.189 OA 
HETATM   24  O   UNL     5      -9.284   1.775  65.748  1.00  0.00    -0.092 OA 
HETATM   25  O   UNL     5      -7.853   3.134  64.068  1.00  0.00    -0.079 OA 
ENDBRANCH  10  21
TORSDOF 2
ENDMDL
MODEL      133
REMARK 921   NORMALIZED FREE ENERGY PREDICTED BY IDOCK:   -1.82 KCAL/MOL
REMARK 922        TOTAL FREE ENERGY PREDICTED BY IDOCK:   -2.16 KCAL/MOL
REMARK 923 INTER-LIGAND FREE ENERGY PREDICTED BY IDOCK:   -5.11 KCAL/MOL
REMARK 924 INTRA-LIGAND FREE ENERGY PREDICTED BY IDOCK:    2.95 KCAL/MOL
REMARK 927      BINDING AFFINITY PREDICTED BY RF-SCORE:    0.00 PKD
ROOT
HETATM    1 NA   UNL     1      -6.013   8.262  69.669  1.00  0.00    -0.027 Na 
HETATM    2 NA   UNL     2     -12.220  11.056  71.881  1.00  0.00    -0.311 Na 
HETATM    3 NA   UNL     3      -5.141  10.642  66.401  1.00  0.00    -0.035 Na 
HETATM    4 NA   UNL     4      -9.863  13.137  69.072  1.00  0.00    -0.246 Na 
HETATM    5  C   UNL     5      -9.299   8.496  69.068  1.00  0.00    -0.146 C  
HETATM    6  C   UNL     5      -9.797   9.379  67.970  1.00  0.00    -0.191 A  
HETATM    7  C   UNL     5      -9.169   9.602  66.747  1.00  0.00    -0.149 A  
HETATM    8  C   UNL     5     -10.957  10.087  68.269  1.00  0.00    -0.278 A  
HETATM    9  C   UNL     5      -9.755  10.510  65.795  1.00  0.00    -0.277 A  
HETATM   10  C   UNL     5     -11.391  11.132  67.467  1.00  0.00    -0.278 A  
HETATM   11  C   UNL     5      -9.262  10.656  64.475  1.00  0.00    -0.264 A  
HETATM   12  C   UNL     5     -10.868  11.304  66.178  1.00  0.00    -0.281 A  
HETATM   13  C   UNL     5      -9.861  11.524  63.556  1.00  0.00    -0.407 A  
HETATM   14  C   UNL     5     -11.428  12.216  65.254  1.00  0.00    -0.388 A  
HETATM   15  C   UNL     5     -10.943  12.305  63.949  1.00  0.00    -0.464 A  
ENDROOT
BRANCH   7  16
HETATM   16  O   UNL     5      -8.052   8.932  66.346  1.00  0.00    -0.107 OA 
HETATM   17  O   UNL     5      -6.691   6.837  66.227  1.00  0.00    -0.049 OA 
HETATM   18  O   UNL     5      -9.074   6.572  66.312  1.00  0.00    -0.154 OA 
HETATM   19  P   UNL     5      -7.975   7.451  65.714  1.00  0.00    -0.132 P  
HETATM   20  O   UNL     5      -8.144   7.459  64.215  1.00  0.00    -0.129 OA 
ENDBRANCH   7  16
BRANCH  10  21
HETATM   21  O   UNL     5     -12.244  12.054  68.021  1.00  0.00    -0.454 OA 
HETATM   22  P   UNL     5     -11.719  13.473  68.648  1.00  0.00    -0.374 P  
HETATM   23  O   UNL     5     -10.465  13.901  67.868  1.00  0.00    -0.236 OA 
HETATM   24  O   UNL     5     -11.277  13.284  70.079  1.00  0.00    -0.008 OA 
HETATM   25  O   UNL     5     -12.766  14.493  68.336  1.00  0.00     0.279 OA 
ENDBRANCH  10  21
TORSDOF 2
ENDMDL
MODEL      134
REMARK 921   NORMALIZED FREE ENERGY PREDICTED BY IDOCK:   -1.54 KCAL/MOL
REMARK 922        TOTAL FREE ENERGY PREDICTED BY IDOCK:   -1.84 KCAL/MOL
REMARK 923 INTER-LIGAND FREE ENERGY PREDICTED BY IDOCK:   -4.14 KCAL/MOL
REMARK 924 INTRA-LIGAND FREE ENERGY PREDICTED BY IDOCK:    2.30 KCAL/MOL
REMARK 927      BINDING AFFINITY PREDICTED BY RF-SCORE:    0.00 PKD
ROOT
HETATM    1 NA   UNL     1     -13.618  13.745  64.568  1.00  0.00    -0.504 Na 
HETATM    2 NA   UNL     2     -11.342   7.487  67.192  1.00  0.00    -0.376 Na 
HETATM    3 NA   UNL     3     -10.055  15.547  63.490  1.00  0.00     0.545 Na 
HETATM    4 NA   UNL     4      -8.698   9.930  64.996  1.00  0.00    -0.130 Na 
HETATM    5  C   UNL     5     -12.156  12.214  67.162  1.00  0.00     0.054 C  
HETATM    6  C   UNL     5     -10.681  12.336  67.367  1.00  0.00    -0.261 A  
HETATM    7  C   UNL     5      -9.906  13.463  67.104  1.00  0.00    -0.237 A  
HETATM    8  C   UNL     5     -10.049  11.170  67.787  1.00  0.00    -0.200 A  
HETATM    9  C   UNL     5      -8.483  13.423  67.322  1.00  0.00    -0.205 A  
HETATM   10  C   UNL     5      -8.668  11.050  67.767  1.00  0.00    -0.130 A  
HETATM   11  C   UNL     5      -7.663  14.575  67.234  1.00  0.00    -0.177 A  
HETATM   12  C   UNL     5      -7.857  12.186  67.632  1.00  0.00    -0.153 A  
HETATM   13  C   UNL     5      -6.286  14.519  67.476  1.00  0.00    -0.033 A  
HETATM   14  C   UNL     5      -6.457  12.138  67.820  1.00  0.00    -0.095 A  
HETATM   15  C   UNL     5      -5.685  13.299  67.767  1.00  0.00    -0.121 A  
ENDROOT
BRANCH   7  16
HETATM   16  O   UNL     5     -10.433  14.662  66.726  1.00  0.00    -0.271 OA 
HETATM   17  O   UNL     5     -11.093  16.291  64.947  1.00  0.00    -0.480 OA 
HETATM   18  O   UNL     5     -11.196  13.965  64.372  1.00  0.00    -0.373 OA 
HETATM   19  P   UNL     5     -11.463  14.941  65.518  1.00  0.00    -0.208 P  
HETATM   20  O   UNL     5     -12.901  14.782  65.944  1.00  0.00     0.020 OA 
ENDBRANCH   7  16
BRANCH  10  21
HETATM   21  O   UNL     5      -8.133   9.786  67.754  1.00  0.00    -0.111 OA 
HETATM   22  P   UNL     5      -9.025   8.457  67.406  1.00  0.00    -0.136 P  
HETATM   23  O   UNL     5     -10.133   8.874  66.425  1.00  0.00    -0.288 OA 
HETATM   24  O   UNL     5      -9.728   7.956  68.644  1.00  0.00    -0.153 OA 
HETATM   25  O   UNL     5      -8.132   7.528  66.648  1.00  0.00    -0.116 OA 
ENDBRANCH  10  21
TORSDOF 2
ENDMDL
MODEL      135
REMARK 921   NORMALIZED FREE ENERGY PREDICTED BY IDOCK:   -1.42 KCAL/MOL
REMARK 922        TOTAL FREE ENERGY PREDICTED BY IDOCK:   -1.71 KCAL/MOL
REMARK 923 INTER-LIGAND FREE ENERGY PREDICTED BY IDOCK:   -5.95 KCAL/MOL
REMARK 924 INTRA-LIGAND FREE ENERGY PREDICTED BY IDOCK:    4.24 KCAL/MOL
REMARK 927      BINDING AFFINITY PREDICTED BY RF-SCORE:    0.00 PKD
ROOT
HETATM    1 NA   UNL     1     -11.325  16.673  66.925  1.00  0.00    -0.225 Na 
HETATM    2 NA   UNL     2     -12.777  11.205  62.541  1.00  0.00    -0.873 Na 
HETATM    3 NA   UNL     3      -7.414  15.867  68.001  1.00  0.00    -0.111 Na 
HETATM    4 NA   UNL     4      -8.793  11.979  63.684  1.00  0.00    -0.427 Na 
HETATM    5  C   UNL     5     -12.035  13.405  66.737  1.00  0.00    -0.447 C  
HETATM    6  C   UNL     5     -10.952  12.394  66.926  1.00  0.00    -0.307 A  
HETATM    7  C   UNL     5      -9.872  12.500  67.801  1.00  0.00    -0.204 A  
HETATM    8  C   UNL     5     -11.021  11.295  66.075  1.00  0.00    -0.237 A  
HETATM    9  C   UNL     5      -8.885  11.453  67.851  1.00  0.00    -0.149 A  
HETATM   10  C   UNL     5      -9.959  10.413  65.947  1.00  0.00    -0.255 A  
HETATM   11  C   UNL     5      -7.859  11.417  68.828  1.00  0.00    -0.128 A  
HETATM   12  C   UNL     5      -8.919  10.410  66.888  1.00  0.00    -0.151 A  
HETATM   13  C   UNL     5      -6.924  10.377  68.877  1.00  0.00    -0.067 A  
HETATM   14  C   UNL     5      -7.935   9.396  66.918  1.00  0.00    -0.109 A  
HETATM   15  C   UNL     5      -6.963   9.368  67.919  1.00  0.00    -0.080 A  
ENDROOT
BRANCH   7  16
HETATM   16  O   UNL     5      -9.734  13.515  68.699  1.00  0.00    -0.196 OA 
HETATM   17  O   UNL     5      -8.912  15.800  69.298  1.00  0.00    -0.243 OA 
HETATM   18  O   UNL     5      -9.497  15.432  67.001  1.00  0.00    -0.210 OA 
HETATM   19  P   UNL     5      -9.927  15.092  68.428  1.00  0.00    -0.233 P  
HETATM   20  O   UNL     5     -11.359  15.532  68.604  1.00  0.00    -0.303 OA 
ENDBRANCH   7  16
BRANCH  10  21
HETATM   21  O   UNL     5      -9.897   9.643  64.812  1.00  0.00    -0.184 OA 
HETATM   22  P   UNL     5      -8.812   9.922  63.617  1.00  0.00    -0.252 P  
HETATM   23  O   UNL     5      -7.548  10.521  64.256  1.00  0.00    -0.070 OA 
HETATM   24  O   UNL     5      -9.336  10.970  62.665  1.00  0.00    -0.311 OA 
HETATM   25  O   UNL     5      -8.410   8.586  63.082  1.00  0.00    -0.176 OA 
ENDBRANCH  10  21
TORSDOF 2
ENDMDL
MODEL      136
REMARK 921   NORMALIZED FREE ENERGY PREDICTED BY IDOCK:   -1.33 KCAL/MOL
REMARK 922        TOTAL FREE ENERGY PREDICTED BY IDOCK:   -1.61 KCAL/MOL
REMARK 923 INTER-LIGAND FREE ENERGY PREDICTED BY IDOCK:   -3.64 KCAL/MOL
REMARK 924 INTRA-LIGAND FREE ENERGY PREDICTED BY IDOCK:    2.03 KCAL/MOL
REMARK 927      BINDING AFFINITY PREDICTED BY RF-SCORE:    0.00 PKD
ROOT
HETATM    1 NA   UNL     1      -8.234  10.612  70.651  1.00  0.00    -0.294 Na 
HETATM    2 NA   UNL     2      -6.816  11.116  63.654  1.00  0.00    -0.345 Na 
HETATM    3 NA   UNL     3      -7.463   6.614  71.376  1.00  0.00    -0.073 Na 
HETATM    4 NA   UNL     4      -5.626   7.684  65.796  1.00  0.00    -0.027 Na 
HETATM    5  C   UNL     5      -9.329   9.927  67.562  1.00  0.00    -0.159 C  
HETATM    6  C   UNL     5      -9.245   8.533  67.032  1.00  0.00    -0.187 A  
HETATM    7  C   UNL     5      -9.421   7.362  67.766  1.00  0.00    -0.140 A  
HETATM    8  C   UNL     5      -8.878   8.437  65.693  1.00  0.00    -0.196 A  
HETATM    9  C   UNL     5      -9.277   6.083  67.122  1.00  0.00    -0.117 A  
HETATM   10  C   UNL     5      -8.504   7.225  65.132  1.00  0.00    -0.019 A  
HETATM   11  C   UNL     5      -9.603   4.862  67.764  1.00  0.00    -0.184 A  
HETATM   12  C   UNL     5      -8.784   6.019  65.791  1.00  0.00    -0.155 A  
HETATM   13  C   UNL     5      -9.482   3.631  67.112  1.00  0.00    -0.229 A  
HETATM   14  C   UNL     5      -8.616   4.763  65.166  1.00  0.00    -0.140 A  
HETATM   15  C   UNL     5      -8.986   3.583  65.813  1.00  0.00    -0.140 A  
ENDROOT
BRANCH   7  16
HETATM   16  O   UNL     5      -9.817   7.350  69.070  1.00  0.00    -0.162 OA 
HETATM   17  O   UNL     5      -9.282   7.401  71.513  1.00  0.00    -0.140 OA 
HETATM   18  O   UNL     5      -7.770   8.556  70.053  1.00  0.00    -0.081 OA 
HETATM   19  P   UNL     5      -9.255   8.265  70.271  1.00  0.00    -0.159 P  
HETATM   20  O   UNL     5      -9.981   9.583  70.376  1.00  0.00    -0.233 OA 
ENDBRANCH   7  16
BRANCH  10  21
HETATM   21  O   UNL     5      -7.746   7.254  63.988  1.00  0.00    -0.110 OA 
HETATM   22  P   UNL     5      -6.964   8.601  63.484  1.00  0.00    -0.090 P  
HETATM   23  O   UNL     5      -6.578   9.418  64.728  1.00  0.00    -0.075 OA 
HETATM   24  O   UNL     5      -7.894   9.478  62.679  1.00  0.00    -0.113 OA 
HETATM   25  O   UNL     5      -5.678   8.148  62.873  1.00  0.00    -0.070 OA 
ENDBRANCH  10  21
TORSDOF 2
ENDMDL
MODEL      137
REMARK 921   NORMALIZED FREE ENERGY PREDICTED BY IDOCK:   -1.32 KCAL/MOL
REMARK 922        TOTAL FREE ENERGY PREDICTED BY IDOCK:   -1.61 KCAL/MOL
REMARK 923 INTER-LIGAND FREE ENERGY PREDICTED BY IDOCK:   -4.75 KCAL/MOL
REMARK 924 INTRA-LIGAND FREE ENERGY PREDICTED BY IDOCK:    3.15 KCAL/MOL
REMARK 927      BINDING AFFINITY PREDICTED BY RF-SCORE:    0.00 PKD
ROOT
HETATM    1 NA   UNL     1     -11.595   5.968  68.631  1.00  0.00    -0.318 Na 
HETATM    2 NA   UNL     2     -12.943  10.803  63.528  1.00  0.00    -0.308 Na 
HETATM    3 NA   UNL     3     -10.157   8.355  71.687  1.00  0.00    -0.163 Na 
HETATM    4 NA   UNL     4     -12.185  12.073  67.477  1.00  0.00    -0.308 Na 
HETATM    5  C   UNL     5     -10.249   7.978  66.315  1.00  0.00     0.086 C  
HETATM    6  C   UNL     5      -9.577   9.247  66.727  1.00  0.00    -0.240 A  
HETATM    7  C   UNL     5      -8.825   9.441  67.883  1.00  0.00    -0.124 A  
HETATM    8  C   UNL     5      -9.816  10.334  65.891  1.00  0.00    -0.298 A  
HETATM    9  C   UNL     5      -8.261  10.736  68.164  1.00  0.00    -0.119 A  
HETATM   10  C   UNL     5      -9.485  11.625  66.274  1.00  0.00    -0.218 A  
HETATM   11  C   UNL     5      -7.353  10.960  69.228  1.00  0.00    -0.125 A  
HETATM   12  C   UNL     5      -8.624  11.847  67.358  1.00  0.00    -0.164 A  
HETATM   13  C   UNL     5      -6.796  12.220  69.469  1.00  0.00     0.065 A  
HETATM   14  C   UNL     5      -8.094  13.125  67.648  1.00  0.00    -0.176 A  
HETATM   15  C   UNL     5      -7.170  13.302  68.679  1.00  0.00    -0.106 A  
ENDROOT
BRANCH   7  16
HETATM   16  O   UNL     5      -8.504   8.434  68.744  1.00  0.00    -0.122 OA 
HETATM   17  O   UNL     5      -7.914   6.043  69.181  1.00  0.00    -0.100 OA 
HETATM   18  O   UNL     5      -7.237   6.953  67.067  1.00  0.00    -0.080 OA 
HETATM   19  P   UNL     5      -7.370   7.305  68.549  1.00  0.00    -0.105 P  
HETATM   20  O   UNL     5      -6.020   7.757  69.047  1.00  0.00    -0.032 OA 
ENDBRANCH   7  16
BRANCH  10  21
HETATM   21  O   UNL     5     -10.125  12.665  65.645  1.00  0.00    -0.271 OA 
HETATM   22  P   UNL     5     -11.532  13.295  66.197  1.00  0.00    -0.360 P  
HETATM   23  O   UNL     5     -11.553  13.142  67.726  1.00  0.00    -0.296 OA 
HETATM   24  O   UNL     5     -12.704  12.494  65.681  1.00  0.00    -0.521 OA 
HETATM   25  O   UNL     5     -11.479  14.764  65.930  1.00  0.00    -0.351 OA 
ENDBRANCH  10  21
TORSDOF 2
ENDMDL
MODEL      138
REMARK 921   NORMALIZED FREE ENERGY PREDICTED BY IDOCK:   -1.21 KCAL/MOL
REMARK 922        TOTAL FREE ENERGY PREDICTED BY IDOCK:   -1.48 KCAL/MOL
REMARK 923 INTER-LIGAND FREE ENERGY PREDICTED BY IDOCK:   -3.72 KCAL/MOL
REMARK 924 INTRA-LIGAND FREE ENERGY PREDICTED BY IDOCK:    2.25 KCAL/MOL
REMARK 927      BINDING AFFINITY PREDICTED BY RF-SCORE:    0.00 PKD
ROOT
HETATM    1 NA   UNL     1     -14.120  15.206  65.198  1.00  0.00    -0.192 Na 
HETATM    2 NA   UNL     2      -9.396  20.099  67.427  1.00  0.00    -0.285 Na 
HETATM    3 NA   UNL     3     -12.726  11.786  67.060  1.00  0.00     0.069 Na 
HETATM    4 NA   UNL     4      -9.543  16.319  69.291  1.00  0.00    -0.188 Na 
HETATM    5  C   UNL     5     -11.006  16.387  64.851  1.00  0.00    -0.277 C  
HETATM    6  C   UNL     5      -9.854  15.644  65.445  1.00  0.00    -0.253 A  
HETATM    7  C   UNL     5      -9.729  14.259  65.536  1.00  0.00    -0.154 A  
HETATM    8  C   UNL     5      -8.874  16.446  66.023  1.00  0.00    -0.296 A  
HETATM    9  C   UNL     5      -8.569  13.684  66.167  1.00  0.00     0.740 A  
HETATM   10  C   UNL     5      -7.889  15.909  66.836  1.00  0.00    -0.247 A  
HETATM   11  C   UNL     5      -8.299  12.293  66.146  1.00  0.00     0.389 A  
HETATM   12  C   UNL     5      -7.653  14.527  66.850  1.00  0.00     0.325 A  
HETATM   13  C   UNL     5      -7.153  11.757  66.743  1.00  0.00    -0.047 A  
HETATM   14  C   UNL     5      -6.529  13.962  67.495  1.00  0.00    -0.077 A  
HETATM   15  C   UNL     5      -6.271  12.592  67.419  1.00  0.00    -0.149 A  
ENDROOT
BRANCH   7  16
HETATM   16  O   UNL     5     -10.613  13.390  64.971  1.00  0.00    -0.319 OA 
HETATM   17  O   UNL     5     -12.717  12.042  65.077  1.00  0.00    -0.381 OA 
HETATM   18  O   UNL     5     -12.682  14.089  66.328  1.00  0.00    -0.414 OA 
HETATM   19  P   UNL     5     -12.222  13.470  65.008  1.00  0.00    -0.443 P  
HETATM   20  O   UNL     5     -12.780  14.302  63.880  1.00  0.00    -0.749 OA 
ENDBRANCH   7  16
BRANCH  10  21
HETATM   21  O   UNL     5      -7.249  16.751  67.711  1.00  0.00    -0.132 OA 
HETATM   22  P   UNL     5      -7.891  18.182  68.184  1.00  0.00    -0.296 P  
HETATM   23  O   UNL     5      -9.421  18.040  68.175  1.00  0.00    -0.271 OA 
HETATM   24  O   UNL     5      -7.564  19.262  67.181  1.00  0.00    -0.227 OA 
HETATM   25  O   UNL     5      -7.503  18.373  69.615  1.00  0.00     0.152 OA 
ENDBRANCH  10  21
TORSDOF 2
ENDMDL
MODEL      139
REMARK 921   NORMALIZED FREE ENERGY PREDICTED BY IDOCK:   -1.14 KCAL/MOL
REMARK 922        TOTAL FREE ENERGY PREDICTED BY IDOCK:   -1.40 KCAL/MOL
REMARK 923 INTER-LIGAND FREE ENERGY PREDICTED BY IDOCK:   -5.63 KCAL/MOL
REMARK 924 INTRA-LIGAND FREE ENERGY PREDICTED BY IDOCK:    4.24 KCAL/MOL
REMARK 927      BINDING AFFINITY PREDICTED BY RF-SCORE:    0.00 PKD
ROOT
HETATM    1 NA   UNL     1     -13.264  13.182  65.704  1.00  0.00    -0.439 Na 
HETATM    2 NA   UNL     2     -12.675   7.681  70.244  1.00  0.00    -0.497 Na 
HETATM    3 NA   UNL     3      -9.652  13.002  63.697  1.00  0.00    -0.534 Na 
HETATM    4 NA   UNL     4      -9.945   8.072  67.054  1.00  0.00    -0.143 Na 
HETATM    5  C   UNL     5     -11.844  12.082  68.530  1.00  0.00    -0.369 C  
HETATM    6  C   UNL     5     -10.408  11.670  68.533  1.00  0.00    -0.224 A  
HETATM    7  C   UNL     5      -9.382  12.258  67.795  1.00  0.00    -0.194 A  
HETATM    8  C   UNL     5     -10.124  10.541  69.295  1.00  0.00    -0.244 A  
HETATM    9  C   UNL     5      -8.046  11.729  67.876  1.00  0.00    -0.144 A  
HETATM   10  C   UNL     5      -8.906   9.886  69.190  1.00  0.00    -0.164 A  
HETATM   11  C   UNL     5      -6.931  12.374  67.287  1.00  0.00    -0.129 A  
HETATM   12  C   UNL     5      -7.816  10.507  68.564  1.00  0.00    -0.111 A  
HETATM   13  C   UNL     5      -5.636  11.858  67.400  1.00  0.00    -0.111 A  
HETATM   14  C   UNL     5      -6.510   9.971  68.622  1.00  0.00    -0.049 A  
HETATM   15  C   UNL     5      -5.427  10.655  68.066  1.00  0.00    -0.036 A  
ENDROOT
BRANCH   7  16
HETATM   16  O   UNL     5      -9.549  13.386  67.050  1.00  0.00    -0.228 OA 
HETATM   17  O   UNL     5     -10.159  14.510  64.900  1.00  0.00    -0.378 OA 
HETATM   18  O   UNL     5     -11.261  12.435  65.383  1.00  0.00    -0.298 OA 
HETATM   19  P   UNL     5     -10.761  13.721  66.041  1.00  0.00    -0.293 P  
HETATM   20  O   UNL     5     -11.926  14.373  66.743  1.00  0.00    -0.411 OA 
ENDBRANCH   7  16
BRANCH  10  21
HETATM   21  O   UNL     5      -8.844   8.577  69.599  1.00  0.00    -0.134 OA 
HETATM   22  P   UNL     5      -8.814   7.325  68.544  1.00  0.00    -0.126 P  
HETATM   23  O   UNL     5      -8.114   7.804  67.261  1.00  0.00    -0.115 OA 
HETATM   24  O   UNL     5     -10.218   6.947  68.138  1.00  0.00    -0.159 OA 
HETATM   25  O   UNL     5      -7.921   6.285  69.137  1.00  0.00    -0.106 OA 
ENDBRANCH  10  21
TORSDOF 2
ENDMDL
MODEL      140
REMARK 921   NORMALIZED FREE ENERGY PREDICTED BY IDOCK:   -1.13 KCAL/MOL
REMARK 922        TOTAL FREE ENERGY PREDICTED BY IDOCK:   -1.38 KCAL/MOL
REMARK 923 INTER-LIGAND FREE ENERGY PREDICTED BY IDOCK:   -2.94 KCAL/MOL
REMARK 924 INTRA-LIGAND FREE ENERGY PREDICTED BY IDOCK:    1.56 KCAL/MOL
REMARK 927      BINDING AFFINITY PREDICTED BY RF-SCORE:    0.00 PKD
ROOT
HETATM    1 NA   UNL     1      -7.681   6.632  67.244  1.00  0.00    -0.086 Na 
HETATM    2 NA   UNL     2     -12.344  11.634  65.132  1.00  0.00    -0.290 Na 
HETATM    3 NA   UNL     3      -6.498   8.091  70.928  1.00  0.00    -0.036 Na 
HETATM    4 NA   UNL     4     -11.024  11.550  69.136  1.00  0.00    -0.175 Na 
HETATM    5  C   UNL     5      -8.034   9.734  66.034  1.00  0.00    -0.111 C  
HETATM    6  C   UNL     5      -7.848  10.912  66.934  1.00  0.00    -0.135 A  
HETATM    7  C   UNL     5      -6.931  11.012  67.978  1.00  0.00    -0.068 A  
HETATM    8  C   UNL     5      -8.747  11.954  66.728  1.00  0.00    -0.193 A  
HETATM    9  C   UNL     5      -6.889  12.205  68.784  1.00  0.00    -0.095 A  
HETATM   10  C   UNL     5      -8.874  12.990  67.641  1.00  0.00    -0.191 A  
HETATM   11  C   UNL     5      -5.878  12.441  69.749  1.00  0.00    -0.123 A  
HETATM   12  C   UNL     5      -7.897  13.193  68.626  1.00  0.00    -0.056 A  
HETATM   13  C   UNL     5      -5.840  13.618  70.503  1.00  0.00    -0.169 A  
HETATM   14  C   UNL     5      -7.874  14.352  69.435  1.00  0.00     0.104 A  
HETATM   15  C   UNL     5      -6.840  14.571  70.347  1.00  0.00     0.132 A  
ENDROOT
BRANCH   7  16
HETATM   16  O   UNL     5      -5.986  10.065  68.237  1.00  0.00    -0.042 OA 
HETATM   17  O   UNL     5      -5.273   7.945  69.355  1.00  0.00    -0.025 OA 
HETATM   18  O   UNL     5      -7.592   8.129  68.771  1.00  0.00    -0.100 OA 
HETATM   19  P   UNL     5      -6.188   8.467  68.270  1.00  0.00    -0.052 P  
HETATM   20  O   UNL     5      -6.012   7.840  66.909  1.00  0.00    -0.044 OA 
ENDBRANCH   7  16
BRANCH  10  21
HETATM   21  O   UNL     5     -10.038  13.718  67.629  1.00  0.00    -0.236 OA 
HETATM   22  P   UNL     5     -10.126  15.225  66.994  1.00  0.00    -0.258 P  
HETATM   23  O   UNL     5      -9.104  15.317  65.849  1.00  0.00    -0.291 OA 
HETATM   24  O   UNL     5      -9.702  16.251  68.017  1.00  0.00    -0.226 OA 
HETATM   25  O   UNL     5     -11.472  15.344  66.356  1.00  0.00    -0.175 OA 
ENDBRANCH  10  21
TORSDOF 2
ENDMDL
MODEL      141
REMARK 921   NORMALIZED FREE ENERGY PREDICTED BY IDOCK:   -1.10 KCAL/MOL
REMARK 922        TOTAL FREE ENERGY PREDICTED BY IDOCK:   -1.35 KCAL/MOL
REMARK 923 INTER-LIGAND FREE ENERGY PREDICTED BY IDOCK:   -3.40 KCAL/MOL
REMARK 924 INTRA-LIGAND FREE ENERGY PREDICTED BY IDOCK:    2.04 KCAL/MOL
REMARK 927      BINDING AFFINITY PREDICTED BY RF-SCORE:    0.00 PKD
ROOT
HETATM    1 NA   UNL     1     -13.263   8.833  71.640  1.00  0.00    -0.298 Na 
HETATM    2 NA   UNL     2     -10.409   2.620  73.754  1.00  0.00    -0.093 Na 
HETATM    3 NA   UNL     3     -11.778   9.171  67.795  1.00  0.00    -0.522 Na 
HETATM    4 NA   UNL     4     -10.302   3.701  69.680  1.00  0.00    -0.176 Na 
HETATM    5  C   UNL     5     -10.475   7.291  72.670  1.00  0.00    -0.285 C  
HETATM    6  C   UNL     5      -9.406   6.944  71.686  1.00  0.00    -0.154 A  
HETATM    7  C   UNL     5      -9.035   7.698  70.575  1.00  0.00    -0.151 A  
HETATM    8  C   UNL     5      -8.803   5.706  71.889  1.00  0.00    -0.137 A  
HETATM    9  C   UNL     5      -8.003   7.218  69.694  1.00  0.00    -0.127 A  
HETATM   10  C   UNL     5      -7.991   5.132  70.922  1.00  0.00    -0.097 A  
HETATM   11  C   UNL     5      -7.464   8.006  68.646  1.00  0.00    -0.098 A  
HETATM   12  C   UNL     5      -7.497   5.901  69.859  1.00  0.00    -0.079 A  
HETATM   13  C   UNL     5      -6.443   7.530  67.817  1.00  0.00    -0.054 A  
HETATM   14  C   UNL     5      -6.503   5.417  68.978  1.00  0.00    -0.042 A  
HETATM   15  C   UNL     5      -5.966   6.234  67.983  1.00  0.00    -0.020 A  
ENDROOT
BRANCH   7  16
HETATM   16  O   UNL     5      -9.538   8.937  70.311  1.00  0.00    -0.168 OA 
HETATM   17  O   UNL     5     -11.270  10.411  69.269  1.00  0.00    -0.230 OA 
HETATM   18  O   UNL     5     -11.991   8.238  69.984  1.00  0.00     0.280 OA 
HETATM   19  P   UNL     5     -11.080   9.401  70.378  1.00  0.00    -0.275 P  
HETATM   20  O   UNL     5     -11.480   9.862  71.758  1.00  0.00    -0.265 OA 
ENDBRANCH   7  16
BRANCH  10  21
HETATM   21  O   UNL     5      -7.797   3.774  70.971  1.00  0.00    -0.059 OA 
HETATM   22  P   UNL     5      -8.747   2.781  71.862  1.00  0.00    -0.077 P  
HETATM   23  O   UNL     5     -10.154   3.398  71.920  1.00  0.00    -0.160 OA 
HETATM   24  O   UNL     5      -8.256   2.725  73.289  1.00  0.00    -0.062 OA 
HETATM   25  O   UNL     5      -8.886   1.510  71.088  1.00  0.00    -0.050 OA 
ENDBRANCH  10  21
TORSDOF 2
ENDMDL
MODEL      142
REMARK 921   NORMALIZED FREE ENERGY PREDICTED BY IDOCK:   -0.96 KCAL/MOL
REMARK 922        TOTAL FREE ENERGY PREDICTED BY IDOCK:   -1.20 KCAL/MOL
REMARK 923 INTER-LIGAND FREE ENERGY PREDICTED BY IDOCK:   -4.23 KCAL/MOL
REMARK 924 INTRA-LIGAND FREE ENERGY PREDICTED BY IDOCK:    3.03 KCAL/MOL
REMARK 927      BINDING AFFINITY PREDICTED BY RF-SCORE:    0.00 PKD
ROOT
HETATM    1 NA   UNL     1      -7.659   5.090  63.798  1.00  0.00    -0.053 Na 
HETATM    2 NA   UNL     2     -11.441  11.147  64.278  1.00  0.00    -0.332 Na 
HETATM    3 NA   UNL     3      -8.099   3.524  67.600  1.00  0.00    -0.075 Na 
HETATM    4 NA   UNL     4     -11.782   8.214  67.289  1.00  0.00    -0.426 Na 
HETATM    5  C   UNL     5      -7.710   8.219  64.990  1.00  0.00    -0.105 C  
HETATM    6  C   UNL     5      -7.965   8.461  66.442  1.00  0.00    -0.099 A  
HETATM    7  C   UNL     5      -7.536   7.658  67.497  1.00  0.00    -0.104 A  
HETATM    8  C   UNL     5      -8.778   9.556  66.719  1.00  0.00    -0.138 A  
HETATM    9  C   UNL     5      -7.887   8.003  68.850  1.00  0.00    -0.113 A  
HETATM   10  C   UNL     5      -9.316   9.754  67.982  1.00  0.00    -0.128 A  
HETATM   11  C   UNL     5      -7.348   7.330  69.975  1.00  0.00    -0.083 A  
HETATM   12  C   UNL     5      -8.814   9.052  69.087  1.00  0.00    -0.142 A  
HETATM   13  C   UNL     5      -7.682   7.698  71.282  1.00  0.00    -0.085 A  
HETATM   14  C   UNL     5      -9.182   9.375  70.413  1.00  0.00    -0.305 A  
HETATM   15  C   UNL     5      -8.601   8.719  71.500  1.00  0.00    -0.253 A  
ENDROOT
BRANCH   7  16
HETATM   16  O   UNL     5      -6.708   6.589  67.333  1.00  0.00    -0.061 OA 
HETATM   17  O   UNL     5      -5.928   4.310  68.009  1.00  0.00    -0.025 OA 
HETATM   18  O   UNL     5      -8.244   4.814  68.383  1.00  0.00    -0.084 OA 
HETATM   19  P   UNL     5      -7.105   5.028  67.386  1.00  0.00    -0.067 P  
HETATM   20  O   UNL     5      -7.553   4.505  66.044  1.00  0.00    -0.084 OA 
ENDBRANCH   7  16
BRANCH  10  21
HETATM   21  O   UNL     5     -10.427  10.553  68.088  1.00  0.00    -0.166 OA 
HETATM   22  P   UNL     5     -10.589  11.950  67.249  1.00  0.00    -0.248 P  
HETATM   23  O   UNL     5      -9.830  11.797  65.921  1.00  0.00    -0.226 OA 
HETATM   24  O   UNL     5      -9.919  13.086  67.985  1.00  0.00    -0.220 OA 
HETATM   25  O   UNL     5     -12.034  12.068  66.886  1.00  0.00    -0.612 OA 
ENDBRANCH  10  21
TORSDOF 2
ENDMDL
MODEL      143
REMARK 921   NORMALIZED FREE ENERGY PREDICTED BY IDOCK:   -0.71 KCAL/MOL
REMARK 922        TOTAL FREE ENERGY PREDICTED BY IDOCK:   -0.91 KCAL/MOL
REMARK 923 INTER-LIGAND FREE ENERGY PREDICTED BY IDOCK:   -2.59 KCAL/MOL
REMARK 924 INTRA-LIGAND FREE ENERGY PREDICTED BY IDOCK:    1.68 KCAL/MOL
REMARK 927      BINDING AFFINITY PREDICTED BY RF-SCORE:    0.00 PKD
ROOT
HETATM    1 NA   UNL     1      -8.922  18.884  66.672  1.00  0.00    -0.258 Na 
HETATM    2 NA   UNL     2     -11.236  12.384  64.771  1.00  0.00    -0.277 Na 
HETATM    3 NA   UNL     3      -5.132  18.040  68.096  1.00  0.00    -0.133 Na 
HETATM    4 NA   UNL     4      -7.154  12.990  65.634  1.00  0.00     1.076 Na 
HETATM    5  C   UNL     5     -10.082  15.942  67.772  1.00  0.00    -0.244 C  
HETATM    6  C   UNL     5      -9.145  14.950  68.380  1.00  0.00    -0.185 A  
HETATM    7  C   UNL     5      -8.037  15.244  69.173  1.00  0.00    -0.228 A  
HETATM    8  C   UNL     5      -9.389  13.625  68.032  1.00  0.00    -0.208 A  
HETATM    9  C   UNL     5      -7.204  14.177  69.664  1.00  0.00     0.107 A  
HETATM   10  C   UNL     5      -8.463  12.627  68.296  1.00  0.00    -0.163 A  
HETATM   11  C   UNL     5      -6.166  14.390  70.606  1.00  0.00    -0.144 A  
HETATM   12  C   UNL     5      -7.408  12.854  69.192  1.00  0.00     0.147 A  
HETATM   13  C   UNL     5      -5.384  13.337  71.090  1.00  0.00    -0.193 A  
HETATM   14  C   UNL     5      -6.573  11.810  69.651  1.00  0.00    -0.081 A  
HETATM   15  C   UNL     5      -5.588  12.047  70.610  1.00  0.00    -0.153 A  
ENDROOT
BRANCH   7  16
HETATM   16  O   UNL     5      -7.736  16.502  69.599  1.00  0.00    -0.003 OA 
HETATM   17  O   UNL     5      -6.634  18.720  69.243  1.00  0.00    -0.276 OA 
HETATM   18  O   UNL     5      -7.393  17.565  67.282  1.00  0.00    -0.174 OA 
HETATM   19  P   UNL     5      -7.771  17.862  68.734  1.00  0.00    -0.157 P  
HETATM   20  O   UNL     5      -9.133  18.510  68.741  1.00  0.00    -0.318 OA 
ENDBRANCH   7  16
BRANCH  10  21
HETATM   21  O   UNL     5      -8.539  11.470  67.562  1.00  0.00    -0.136 OA 
HETATM   22  P   UNL     5      -9.077  10.059  68.195  1.00  0.00    -0.122 P  
HETATM   23  O   UNL     5     -10.109  10.392  69.285  1.00  0.00    -0.209 OA 
HETATM   24  O   UNL     5      -7.951   9.333  68.893  1.00  0.00    -0.095 OA 
HETATM   25  O   UNL     5      -9.833   9.362  67.111  1.00  0.00    -0.165 OA 
ENDBRANCH  10  21
TORSDOF 2
ENDMDL
MODEL      144
REMARK 921   NORMALIZED FREE ENERGY PREDICTED BY IDOCK:   -0.17 KCAL/MOL
REMARK 922        TOTAL FREE ENERGY PREDICTED BY IDOCK:   -0.31 KCAL/MOL
REMARK 923 INTER-LIGAND FREE ENERGY PREDICTED BY IDOCK:   -3.08 KCAL/MOL
REMARK 924 INTRA-LIGAND FREE ENERGY PREDICTED BY IDOCK:    2.77 KCAL/MOL
REMARK 927      BINDING AFFINITY PREDICTED BY RF-SCORE:    0.00 PKD
ROOT
HETATM    1 NA   UNL     1     -10.585  11.835  62.356  1.00  0.00    -0.576 Na 
HETATM    2 NA   UNL     2      -5.134  11.391  66.973  1.00  0.00    -0.035 Na 
HETATM    3 NA   UNL     3     -12.635  15.126  63.795  1.00  0.00    -0.580 Na 
HETATM    4 NA   UNL     4      -7.528  14.861  66.877  1.00  0.00    -0.162 Na 
HETATM    5  C   UNL     5      -9.661  10.952  65.451  1.00  0.00    -0.287 C  
HETATM    6  C   UNL     5      -9.998  11.832  66.610  1.00  0.00    -0.224 A  
HETATM    7  C   UNL     5     -11.160  12.585  66.760  1.00  0.00    -0.279 A  
HETATM    8  C   UNL     5      -8.997  11.944  67.571  1.00  0.00    -0.171 A  
HETATM    9  C   UNL     5     -11.332  13.415  67.924  1.00  0.00    -0.322 A  
HETATM   10  C   UNL     5      -9.051  12.915  68.559  1.00  0.00    -0.049 A  
HETATM   11  C   UNL     5     -12.551  14.074  68.220  1.00  0.00     0.535 A  
HETATM   12  C   UNL     5     -10.246  13.600  68.820  1.00  0.00    -0.155 A  
HETATM   13  C   UNL     5     -12.706  14.856  69.369  1.00  0.00     0.169 A  
HETATM   14  C   UNL     5     -10.402  14.437  69.948  1.00  0.00     0.300 A  
HETATM   15  C   UNL     5     -11.630  15.038  70.231  1.00  0.00    -0.329 A  
ENDROOT
BRANCH   7  16
HETATM   16  O   UNL     5     -12.212  12.517  65.896  1.00  0.00    -0.593 OA 
HETATM   17  O   UNL     5     -13.449  13.365  63.895  1.00  0.00     0.853 OA 
HETATM   18  O   UNL     5     -11.066  13.637  63.885  1.00  0.00    -0.208 OA 
HETATM   19  P   UNL     5     -12.170  12.661  64.292  1.00  0.00    -0.456 P  
HETATM   20  O   UNL     5     -11.908  11.344  63.605  1.00  0.00    -0.254 OA 
ENDBRANCH   7  16
BRANCH  10  21
HETATM   21  O   UNL     5      -7.876  13.267  69.177  1.00  0.00     0.138 OA 
HETATM   22  P   UNL     5      -6.423  12.676  68.707  1.00  0.00    -0.096 P  
HETATM   23  O   UNL     5      -6.489  12.402  67.195  1.00  0.00    -0.159 OA 
HETATM   24  O   UNL     5      -6.162  11.341  69.362  1.00  0.00    -0.064 OA 
HETATM   25  O   UNL     5      -5.433  13.781  68.882  1.00  0.00    -0.072 OA 
ENDBRANCH  10  21
TORSDOF 2
ENDMDL
MODEL      145
REMARK 921   NORMALIZED FREE ENERGY PREDICTED BY IDOCK:   -0.02 KCAL/MOL
REMARK 922        TOTAL FREE ENERGY PREDICTED BY IDOCK:   -0.14 KCAL/MOL
REMARK 923 INTER-LIGAND FREE ENERGY PREDICTED BY IDOCK:   -2.46 KCAL/MOL
REMARK 924 INTRA-LIGAND FREE ENERGY PREDICTED BY IDOCK:    2.32 KCAL/MOL
REMARK 927      BINDING AFFINITY PREDICTED BY RF-SCORE:    0.00 PKD
ROOT
HETATM    1 NA   UNL     1      -7.987  15.787  70.710  1.00  0.00     0.390 Na 
HETATM    2 NA   UNL     2      -5.753   9.074  71.794  1.00  0.00    -0.034 Na 
HETATM    3 NA   UNL     3     -11.436  15.177  68.510  1.00  0.00    -0.230 Na 
HETATM    4 NA   UNL     4      -9.649   9.783  70.346  1.00  0.00    -0.173 Na 
HETATM    5  C   UNL     5      -6.529  13.111  69.323  1.00  0.00    -0.107 C  
HETATM    6  C   UNL     5      -7.303  12.236  68.391  1.00  0.00    -0.109 A  
HETATM    7  C   UNL     5      -8.270  12.658  67.481  1.00  0.00    -0.178 A  
HETATM    8  C   UNL     5      -7.066  10.873  68.534  1.00  0.00    -0.076 A  
HETATM    9  C   UNL     5      -8.960  11.692  66.667  1.00  0.00    -0.189 A  
HETATM   10  C   UNL     5      -7.888   9.930  67.936  1.00  0.00    -0.090 A  
HETATM   11  C   UNL     5      -9.828  12.062  65.611  1.00  0.00    -0.265 A  
HETATM   12  C   UNL     5      -8.782  10.306  66.923  1.00  0.00    -0.131 A  
HETATM   13  C   UNL     5     -10.469  11.107  64.814  1.00  0.00    -0.388 A  
HETATM   14  C   UNL     5      -9.479   9.355  66.144  1.00  0.00    -0.287 A  
HETATM   15  C   UNL     5     -10.295   9.753  65.084  1.00  0.00     0.334 A  
ENDROOT
BRANCH   7  16
HETATM   16  O   UNL     5      -8.548  13.970  67.241  1.00  0.00    -0.197 OA 
HETATM   17  O   UNL     5      -9.850  16.049  67.732  1.00  0.00    -0.227 OA 
HETATM   18  O   UNL     5      -9.494  14.541  69.563  1.00  0.00     0.075 OA 
HETATM   19  P   UNL     5      -8.809  15.130  68.330  1.00  0.00    -0.185 P  
HETATM   20  O   UNL     5      -7.530  15.794  68.776  1.00  0.00    -0.139 OA 
ENDBRANCH   7  16
BRANCH  10  21
HETATM   21  O   UNL     5      -7.889   8.658  68.453  1.00  0.00    -0.102 OA 
HETATM   22  P   UNL     5      -6.602   8.031  69.249  1.00  0.00    -0.036 P  
HETATM   23  O   UNL     5      -5.870   9.187  69.950  1.00  0.00    -0.034 OA 
HETATM   24  O   UNL     5      -5.615   7.443  68.270  1.00  0.00    -0.024 OA 
HETATM   25  O   UNL     5      -7.150   7.169  70.339  1.00  0.00    -0.063 OA 
ENDBRANCH  10  21
TORSDOF 2
ENDMDL
MODEL      146
REMARK 921   NORMALIZED FREE ENERGY PREDICTED BY IDOCK:    0.37 KCAL/MOL
REMARK 922        TOTAL FREE ENERGY PREDICTED BY IDOCK:    0.29 KCAL/MOL
REMARK 923 INTER-LIGAND FREE ENERGY PREDICTED BY IDOCK:   -0.82 KCAL/MOL
REMARK 924 INTRA-LIGAND FREE ENERGY PREDICTED BY IDOCK:    1.10 KCAL/MOL
REMARK 927      BINDING AFFINITY PREDICTED BY RF-SCORE:    0.00 PKD
ROOT
HETATM    1 NA   UNL     1      -9.580   9.568  73.651  1.00  0.00     0.855 Na 
HETATM    2 NA   UNL     2     -11.081  10.392  66.701  1.00  0.00    -0.246 Na 
HETATM    3 NA   UNL     3      -5.654   8.277  73.512  1.00  0.00    -0.047 Na 
HETATM    4 NA   UNL     4      -7.083   9.878  67.940  1.00  0.00    -0.074 Na 
HETATM    5  C   UNL     5     -10.286   7.997  70.780  1.00  0.00    -0.214 C  
HETATM    6  C   UNL     5      -9.199   7.315  70.014  1.00  0.00    -0.148 A  
HETATM    7  C   UNL     5      -8.108   6.642  70.559  1.00  0.00    -0.117 A  
HETATM    8  C   UNL     5      -9.278   7.458  68.632  1.00  0.00    -0.143 A  
HETATM    9  C   UNL     5      -7.119   6.058  69.691  1.00  0.00    -0.069 A  
HETATM   10  C   UNL     5      -8.216   7.115  67.809  1.00  0.00    -0.115 A  
HETATM   11  C   UNL     5      -6.080   5.222  70.169  1.00  0.00    -0.018 A  
HETATM   12  C   UNL     5      -7.164   6.326  68.297  1.00  0.00    -0.085 A  
HETATM   13  C   UNL     5      -5.143   4.644  69.306  1.00  0.00     0.000 A  
HETATM   14  C   UNL     5      -6.178   5.778  67.446  1.00  0.00    -0.030 A  
HETATM   15  C   UNL     5      -5.192   4.925  67.945  1.00  0.00    -0.011 A  
ENDROOT
BRANCH   7  16
HETATM   16  O   UNL     5      -7.960   6.416  71.894  1.00  0.00    -0.103 OA 
HETATM   17  O   UNL     5      -8.939   6.068  74.169  1.00  0.00    -0.125 OA 
HETATM   18  O   UNL     5     -10.251   5.323  72.305  1.00  0.00    -0.186 OA 
HETATM   19  P   UNL     5      -8.813   5.405  72.816  1.00  0.00    -0.119 P  
HETATM   20  O   UNL     5      -8.237   4.011  72.821  1.00  0.00    -0.092 OA 
ENDBRANCH   7  16
BRANCH  10  21
HETATM   21  O   UNL     5      -8.168   7.674  66.556  1.00  0.00    -0.117 OA 
HETATM   22  P   UNL     5      -8.159   6.772  65.189  1.00  0.00    -0.084 P  
HETATM   23  O   UNL     5      -8.949   5.483  65.468  1.00  0.00    -0.160 OA 
HETATM   24  O   UNL     5      -6.752   6.336  64.857  1.00  0.00    -0.041 OA 
HETATM   25  O   UNL     5      -8.949   7.527  64.171  1.00  0.00     0.672 OA 
ENDBRANCH  10  21
TORSDOF 2
ENDMDL
MODEL      147
REMARK 921   NORMALIZED FREE ENERGY PREDICTED BY IDOCK:    0.42 KCAL/MOL
REMARK 922        TOTAL FREE ENERGY PREDICTED BY IDOCK:    0.34 KCAL/MOL
REMARK 923 INTER-LIGAND FREE ENERGY PREDICTED BY IDOCK:   -2.88 KCAL/MOL
REMARK 924 INTRA-LIGAND FREE ENERGY PREDICTED BY IDOCK:    3.22 KCAL/MOL
REMARK 927      BINDING AFFINITY PREDICTED BY RF-SCORE:    0.00 PKD
ROOT
HETATM    1 NA   UNL     1      -9.775   8.031  63.217  1.00  0.00     0.372 Na 
HETATM    2 NA   UNL     2     -10.429  12.777  68.534  1.00  0.00    -0.196 Na 
HETATM    3 NA   UNL     3     -10.942   4.525  65.075  1.00  0.00    -0.222 Na 
HETATM    4 NA   UNL     4     -12.108   8.929  68.935  1.00  0.00    -0.090 Na 
HETATM    5  C   UNL     5      -8.432   9.188  66.057  1.00  0.00    -0.139 C  
HETATM    6  C   UNL     5      -8.576   8.409  67.324  1.00  0.00    -0.123 A  
HETATM    7  C   UNL     5      -8.573   7.020  67.439  1.00  0.00    -0.121 A  
HETATM    8  C   UNL     5      -8.812   9.176  68.460  1.00  0.00    -0.129 A  
HETATM    9  C   UNL     5      -8.754   6.407  68.729  1.00  0.00    -0.122 A  
HETATM   10  C   UNL     5      -9.225   8.595  69.650  1.00  0.00    -0.157 A  
HETATM   11  C   UNL     5      -8.597   5.015  68.942  1.00  0.00    -0.091 A  
HETATM   12  C   UNL     5      -9.114   7.211  69.843  1.00  0.00    -0.141 A  
HETATM   13  C   UNL     5      -8.753   4.442  70.209  1.00  0.00    -0.119 A  
HETATM   14  C   UNL     5      -9.320   6.608  71.104  1.00  0.00    -0.164 A  
HETATM   15  C   UNL     5      -9.116   5.240  71.288  1.00  0.00    -0.169 A  
ENDROOT
BRANCH   7  16
HETATM   16  O   UNL     5      -8.313   6.184  66.395  1.00  0.00    -0.113 OA 
HETATM   17  O   UNL     5      -6.831   5.415  64.532  1.00  0.00    -0.046 OA 
HETATM   18  O   UNL     5      -5.749   6.368  66.449  1.00  0.00    -0.013 OA 
HETATM   19  P   UNL     5      -6.914   5.466  66.042  1.00  0.00    -0.069 P  
HETATM   20  O   UNL     5      -6.754   4.144  66.750  1.00  0.00    -0.048 OA 
ENDBRANCH   7  16
BRANCH  10  21
HETATM   21  O   UNL     5      -9.858   9.396  70.568  1.00  0.00    -0.234 OA 
HETATM   22  P   UNL     5     -11.487   9.427  70.734  1.00  0.00    -0.320 P  
HETATM   23  O   UNL     5     -12.028   8.035  70.369  1.00  0.00    -0.036 OA 
HETATM   24  O   UNL     5     -12.098  10.386  69.740  1.00  0.00    -0.228 OA 
HETATM   25  O   UNL     5     -11.768   9.609  72.190  1.00  0.00    -0.156 OA 
ENDBRANCH  10  21
TORSDOF 2
ENDMDL
MODEL      148
REMARK 921   NORMALIZED FREE ENERGY PREDICTED BY IDOCK:    0.43 KCAL/MOL
REMARK 922        TOTAL FREE ENERGY PREDICTED BY IDOCK:    0.35 KCAL/MOL
REMARK 923 INTER-LIGAND FREE ENERGY PREDICTED BY IDOCK:   -3.89 KCAL/MOL
REMARK 924 INTRA-LIGAND FREE ENERGY PREDICTED BY IDOCK:    4.24 KCAL/MOL
REMARK 927      BINDING AFFINITY PREDICTED BY RF-SCORE:    0.00 PKD
ROOT
HETATM    1 NA   UNL     1     -10.051  13.008  69.924  1.00  0.00    -0.288 Na 
HETATM    2 NA   UNL     2      -8.699   6.302  72.029  1.00  0.00    -0.125 Na 
HETATM    3 NA   UNL     3     -11.414  12.415  66.065  1.00  0.00    -0.274 Na 
HETATM    4 NA   UNL     4     -10.924   6.992  68.514  1.00  0.00    -0.188 Na 
HETATM    5  C   UNL     5      -7.952  10.411  69.671  1.00  0.00    -0.129 C  
HETATM    6  C   UNL     5      -7.964   9.557  68.445  1.00  0.00    -0.093 A  
HETATM    7  C   UNL     5      -8.188   9.995  67.142  1.00  0.00    -0.117 A  
HETATM    8  C   UNL     5      -7.813   8.194  68.679  1.00  0.00    -0.114 A  
HETATM    9  C   UNL     5      -8.202   9.046  66.059  1.00  0.00    -0.113 A  
HETATM   10  C   UNL     5      -8.064   7.259  67.687  1.00  0.00    -0.114 A  
HETATM   11  C   UNL     5      -8.258   9.438  64.698  1.00  0.00    -0.148 A  
HETATM   12  C   UNL     5      -8.166   7.655  66.345  1.00  0.00    -0.124 A  
HETATM   13  C   UNL     5      -8.243   8.502  63.660  1.00  0.00    -0.128 A  
HETATM   14  C   UNL     5      -8.208   6.720  65.286  1.00  0.00    -0.127 A  
HETATM   15  C   UNL     5      -8.221   7.143  63.956  1.00  0.00     0.064 A  
ENDROOT
BRANCH   7  16
HETATM   16  O   UNL     5      -8.311  11.309  66.804  1.00  0.00    -0.145 OA 
HETATM   17  O   UNL     5      -9.708  13.360  66.492  1.00  0.00    -0.269 OA 
HETATM   18  O   UNL     5     -10.428  11.810  68.175  1.00  0.00    -0.188 OA 
HETATM   19  P   UNL     5      -9.174  12.438  67.565  1.00  0.00    -0.201 P  
HETATM   20  O   UNL     5      -8.397  13.104  68.673  1.00  0.00    -0.099 OA 
ENDBRANCH   7  16
BRANCH  10  21
HETATM   21  O   UNL     5      -8.334   5.969  68.073  1.00  0.00    -0.115 OA 
HETATM   22  P   UNL     5      -9.848   5.345  68.060  1.00  0.00    -0.153 P  
HETATM   23  O   UNL     5     -10.632   6.029  66.929  1.00  0.00    -0.251 OA 
HETATM   24  O   UNL     5     -10.570   5.692  69.340  1.00  0.00    -0.272 OA 
HETATM   25  O   UNL     5      -9.717   3.911  67.662  1.00  0.00    -0.179 OA 
ENDBRANCH  10  21
TORSDOF 2
ENDMDL
MODEL      149
REMARK 921   NORMALIZED FREE ENERGY PREDICTED BY IDOCK:    0.67 KCAL/MOL
REMARK 922        TOTAL FREE ENERGY PREDICTED BY IDOCK:    0.62 KCAL/MOL
REMARK 923 INTER-LIGAND FREE ENERGY PREDICTED BY IDOCK:   -1.25 KCAL/MOL
REMARK 924 INTRA-LIGAND FREE ENERGY PREDICTED BY IDOCK:    1.87 KCAL/MOL
REMARK 927      BINDING AFFINITY PREDICTED BY RF-SCORE:    0.00 PKD
ROOT
HETATM    1 NA   UNL     1     -14.140  14.946  65.548  1.00  0.00    -0.471 Na 
HETATM    2 NA   UNL     2     -10.399   9.388  68.065  1.00  0.00    -0.156 Na 
HETATM    3 NA   UNL     3     -11.235  17.043  63.482  1.00  0.00    -0.132 Na 
HETATM    4 NA   UNL     4      -8.732  11.866  65.089  1.00  0.00    -0.366 Na 
HETATM    5  C   UNL     5     -11.906  13.934  67.828  1.00  0.00    -0.415 C  
HETATM    6  C   UNL     5     -10.460  14.267  67.656  1.00  0.00    -0.248 A  
HETATM    7  C   UNL     5      -9.946  15.444  67.115  1.00  0.00    -0.234 A  
HETATM    8  C   UNL     5      -9.579  13.249  68.007  1.00  0.00    -0.220 A  
HETATM    9  C   UNL     5      -8.522  15.610  66.983  1.00  0.00    -0.257 A  
HETATM   10  C   UNL     5      -8.237  13.304  67.662  1.00  0.00    -0.179 A  
HETATM   11  C   UNL     5      -7.928  16.838  66.599  1.00  0.00    -0.306 A  
HETATM   12  C   UNL     5      -7.661  14.509  67.236  1.00  0.00    -0.177 A  
HETATM   13  C   UNL     5      -6.541  16.987  66.501  1.00  0.00    -0.254 A  
HETATM   14  C   UNL     5      -6.265  14.662  67.080  1.00  0.00     1.012 A  
HETATM   15  C   UNL     5      -5.711  15.897  66.740  1.00  0.00     0.717 A  
ENDROOT
BRANCH   7  16
HETATM   16  O   UNL     5     -10.721  16.512  66.776  1.00  0.00    -0.267 OA 
HETATM   17  O   UNL     5     -12.141  18.468  67.420  1.00  0.00     2.091 OA 
HETATM   18  O   UNL     5     -10.378  17.871  68.932  1.00  0.00    -0.367 OA 
HETATM   19  P   UNL     5     -10.710  17.979  67.444  1.00  0.00    -0.109 P  
HETATM   20  O   UNL     5      -9.696  18.892  66.802  1.00  0.00    -0.300 OA 
ENDBRANCH   7  16
BRANCH  10  21
HETATM   21  O   UNL     5      -7.534  12.125  67.628  1.00  0.00    -0.109 OA 
HETATM   22  P   UNL     5      -8.264  10.662  67.718  1.00  0.00    -0.113 P  
HETATM   23  O   UNL     5      -9.658  10.788  67.082  1.00  0.00    -0.159 OA 
HETATM   24  O   UNL     5      -8.495  10.278  69.160  1.00  0.00    -0.141 OA 
HETATM   25  O   UNL     5      -7.489   9.741  66.833  1.00  0.00    -0.091 OA 
ENDBRANCH  10  21
TORSDOF 2
ENDMDL
MODEL      150
REMARK 921   NORMALIZED FREE ENERGY PREDICTED BY IDOCK:    0.76 KCAL/MOL
REMARK 922        TOTAL FREE ENERGY PREDICTED BY IDOCK:    0.73 KCAL/MOL
REMARK 923 INTER-LIGAND FREE ENERGY PREDICTED BY IDOCK:    0.24 KCAL/MOL
REMARK 924 INTRA-LIGAND FREE ENERGY PREDICTED BY IDOCK:    0.48 KCAL/MOL
REMARK 927      BINDING AFFINITY PREDICTED BY RF-SCORE:    0.00 PKD
ROOT
HETATM    1 NA   UNL     1      -5.488   7.146  65.734  1.00  0.00    -0.021 Na 
HETATM    2 NA   UNL     2      -5.128   8.985  72.641  1.00  0.00    -0.038 Na 
HETATM    3 NA   UNL     3      -9.402   8.113  64.813  1.00  0.00    -0.386 Na 
HETATM    4 NA   UNL     4      -8.403  10.242  70.301  1.00  0.00    -0.163 Na 
HETATM    5  C   UNL     5      -6.344   6.300  68.858  1.00  0.00    -0.041 C  
HETATM    6  C   UNL     5      -7.747   6.504  69.330  1.00  0.00    -0.101 A  
HETATM    7  C   UNL     5      -8.901   6.354  68.565  1.00  0.00    -0.119 A  
HETATM    8  C   UNL     5      -7.864   6.964  70.638  1.00  0.00    -0.101 A  
HETATM    9  C   UNL     5     -10.190   6.617  69.150  1.00  0.00    -0.201 A  
HETATM   10  C   UNL     5      -9.067   7.447  71.128  1.00  0.00    -0.148 A  
HETATM   11  C   UNL     5     -11.406   6.326  68.484  1.00  0.00    -0.149 A  
HETATM   12  C   UNL     5     -10.266   7.199  70.443  1.00  0.00    -0.203 A  
HETATM   13  C   UNL     5     -12.648   6.566  69.081  1.00  0.00     3.499 A  
HETATM   14  C   UNL     5     -11.529   7.485  71.010  1.00  0.00    -0.299 A  
HETATM   15  C   UNL     5     -12.708   7.148  70.343  1.00  0.00     0.249 A  
ENDROOT
BRANCH   7  16
HETATM   16  O   UNL     5      -8.895   5.874  67.289  1.00  0.00    -0.109 OA 
HETATM   17  O   UNL     5      -7.789   4.600  65.443  1.00  0.00    -0.088 OA 
HETATM   18  O   UNL     5      -7.299   3.897  67.683  1.00  0.00    -0.066 OA 
HETATM   19  P   UNL     5      -8.435   4.410  66.797  1.00  0.00    -0.104 P  
HETATM   20  O   UNL     5      -9.561   3.408  66.849  1.00  0.00    -0.182 OA 
ENDBRANCH   7  16
BRANCH  10  21
HETATM   21  O   UNL     5      -9.028   8.276  72.222  1.00  0.00    -0.172 OA 
HETATM   22  P   UNL     5      -8.787   7.715  73.742  1.00  0.00    -0.260 P  
HETATM   23  O   UNL     5      -7.906   6.459  73.650  1.00  0.00    -0.093 OA 
HETATM   24  O   UNL     5     -10.094   7.265  74.350  1.00  0.00    -0.090 OA 
HETATM   25  O   UNL     5      -7.968   8.742  74.454  1.00  0.00    -0.369 OA 
ENDBRANCH  10  21
TORSDOF 2
ENDMDL
MODEL      151
REMARK 921   NORMALIZED FREE ENERGY PREDICTED BY IDOCK:    0.88 KCAL/MOL
REMARK 922        TOTAL FREE ENERGY PREDICTED BY IDOCK:    0.85 KCAL/MOL
REMARK 923 INTER-LIGAND FREE ENERGY PREDICTED BY IDOCK:   -5.47 KCAL/MOL
REMARK 924 INTRA-LIGAND FREE ENERGY PREDICTED BY IDOCK:    6.32 KCAL/MOL
REMARK 927      BINDING AFFINITY PREDICTED BY RF-SCORE:    0.00 PKD
ROOT
HETATM    1 NA   UNL     1      -7.270   8.843  70.475  1.00  0.00    -0.040 Na 
HETATM    2 NA   UNL     2     -13.045  12.228  73.008  1.00  0.00    -0.414 Na 
HETATM    3 NA   UNL     3      -6.002  11.446  67.521  1.00  0.00    -0.047 Na 
HETATM    4 NA   UNL     4     -10.360  14.265  70.474  1.00  0.00    -0.423 Na 
HETATM    5  C   UNL     5     -10.476   9.626  69.905  1.00  0.00    -0.285 C  
HETATM    6  C   UNL     5     -10.820  10.698  68.923  1.00  0.00    -0.272 A  
HETATM    7  C   UNL     5     -10.144  10.973  67.736  1.00  0.00    -0.177 A  
HETATM    8  C   UNL     5     -11.870  11.527  69.305  1.00  0.00    -0.414 A  
HETATM    9  C   UNL     5     -10.575  12.064  66.902  1.00  0.00    -0.260 A  
HETATM   10  C   UNL     5     -12.134  12.713  68.637  1.00  0.00    -0.102 A  
HETATM   11  C   UNL     5     -10.042  12.295  65.609  1.00  0.00    -0.275 A  
HETATM   12  C   UNL     5     -11.567  12.961  67.378  1.00  0.00    -0.414 A  
HETATM   13  C   UNL     5     -10.492  13.345  64.803  1.00  0.00    -0.419 A  
HETATM   14  C   UNL     5     -11.972  14.050  66.573  1.00  0.00    -0.470 A  
HETATM   15  C   UNL     5     -11.456  14.223  65.288  1.00  0.00    -0.344 A  
ENDROOT
BRANCH   7  16
HETATM   16  O   UNL     5      -9.129  10.200  67.257  1.00  0.00    -0.137 OA 
HETATM   17  O   UNL     5      -6.808   9.960  66.357  1.00  0.00    -0.084 OA 
HETATM   18  O   UNL     5      -7.190  11.764  67.891  1.00  0.00    -0.082 OA 
HETATM   19  P   UNL     5      -7.563  10.307  67.621  1.00  0.00    -0.089 P  
HETATM   20  O   UNL     5      -7.202   9.497  68.842  1.00  0.00    -0.070 OA 
ENDBRANCH   7  16
BRANCH  10  21
HETATM   21  O   UNL     5     -12.854  13.676  69.298  1.00  0.00     0.329 OA 
HETATM   22  P   UNL     5     -12.140  14.859  70.178  1.00  0.00    -0.354 P  
HETATM   23  O   UNL     5     -10.777  15.168  69.538  1.00  0.00    -0.244 OA 
HETATM   24  O   UNL     5     -11.846  14.370  71.575  1.00  0.00    -0.306 OA 
HETATM   25  O   UNL     5     -12.969  16.089  69.995  1.00  0.00    -0.071 OA 
ENDBRANCH  10  21
TORSDOF 2
ENDMDL
MODEL      152
REMARK 921   NORMALIZED FREE ENERGY PREDICTED BY IDOCK:    1.06 KCAL/MOL
REMARK 922        TOTAL FREE ENERGY PREDICTED BY IDOCK:    1.06 KCAL/MOL
REMARK 923 INTER-LIGAND FREE ENERGY PREDICTED BY IDOCK:   -3.29 KCAL/MOL
REMARK 924 INTRA-LIGAND FREE ENERGY PREDICTED BY IDOCK:    4.35 KCAL/MOL
REMARK 927      BINDING AFFINITY PREDICTED BY RF-SCORE:    0.00 PKD
ROOT
HETATM    1 NA   UNL     1      -7.939  14.869  70.368  1.00  0.00    -0.340 Na 
HETATM    2 NA   UNL     2      -7.334   8.322  73.196  1.00  0.00    -0.090 Na 
HETATM    3 NA   UNL     3     -10.134  14.104  66.947  1.00  0.00    -0.231 Na 
HETATM    4 NA   UNL     4     -10.075   9.013  70.067  1.00  0.00    -0.166 Na 
HETATM    5  C   UNL     5      -6.401  11.904  70.145  1.00  0.00    -0.012 C  
HETATM    6  C   UNL     5      -6.803  10.931  69.085  1.00  0.00    -0.086 A  
HETATM    7  C   UNL     5      -7.210  11.247  67.791  1.00  0.00    -0.088 A  
HETATM    8  C   UNL     5      -6.839   9.601  69.494  1.00  0.00    -0.056 A  
HETATM    9  C   UNL     5      -7.601  10.199  66.885  1.00  0.00    -0.100 A  
HETATM   10  C   UNL     5      -7.438   8.623  68.715  1.00  0.00    -0.091 A  
HETATM   11  C   UNL     5      -7.864  10.432  65.512  1.00  0.00    -0.152 A  
HETATM   12  C   UNL     5      -7.742   8.871  67.369  1.00  0.00    -0.096 A  
HETATM   13  C   UNL     5      -8.217   9.396  64.642  1.00  0.00    -0.148 A  
HETATM   14  C   UNL     5      -8.152   7.844  66.489  1.00  0.00    -0.107 A  
HETATM   15  C   UNL     5      -8.363   8.102  65.133  1.00  0.00    -0.152 A  
ENDROOT
BRANCH   7  16
HETATM   16  O   UNL     5      -7.175  12.512  67.284  1.00  0.00    -0.147 OA 
HETATM   17  O   UNL     5      -8.265  14.723  66.864  1.00  0.00    -0.203 OA 
HETATM   18  O   UNL     5      -8.949  13.541  68.836  1.00  0.00     0.034 OA 
HETATM   19  P   UNL     5      -7.723  13.859  67.980  1.00  0.00    -0.191 P  
HETATM   20  O   UNL     5      -6.688  14.507  68.865  1.00  0.00    -0.088 OA 
ENDBRANCH   7  16
BRANCH  10  21
HETATM   21  O   UNL     5      -7.837   7.464  69.335  1.00  0.00    -0.116 OA 
HETATM   22  P   UNL     5      -9.372   7.226  69.853  1.00  0.00    -0.151 P  
HETATM   23  O   UNL     5     -10.313   8.007  68.922  1.00  0.00    -0.208 OA 
HETATM   24  O   UNL     5      -9.559   7.818  71.229  1.00  0.00    -0.156 OA 
HETATM   25  O   UNL     5      -9.680   5.781  69.633  1.00  0.00    -0.149 OA 
ENDBRANCH  10  21
TORSDOF 2
ENDMDL
MODEL      153
REMARK 921   NORMALIZED FREE ENERGY PREDICTED BY IDOCK:    1.40 KCAL/MOL
REMARK 922        TOTAL FREE ENERGY PREDICTED BY IDOCK:    1.44 KCAL/MOL
REMARK 923 INTER-LIGAND FREE ENERGY PREDICTED BY IDOCK:   -2.64 KCAL/MOL
REMARK 924 INTRA-LIGAND FREE ENERGY PREDICTED BY IDOCK:    4.08 KCAL/MOL
REMARK 927      BINDING AFFINITY PREDICTED BY RF-SCORE:    0.00 PKD
ROOT
HETATM    1 NA   UNL     1     -11.021  18.257  67.913  1.00  0.00    -0.358 Na 
HETATM    2 NA   UNL     2      -8.584  13.049  63.651  1.00  0.00     0.482 Na 
HETATM    3 NA   UNL     3     -10.476  16.595  71.661  1.00  0.00     0.356 Na 
HETATM    4 NA   UNL     4      -7.816  12.903  67.794  1.00  0.00    -0.097 Na 
HETATM    5  C   UNL     5     -11.673  15.253  66.584  1.00  0.00     0.056 C  
HETATM    6  C   UNL     5     -11.551  14.023  67.423  1.00  0.00    -0.397 A  
HETATM    7  C   UNL     5     -11.864  13.917  68.776  1.00  0.00    -0.361 A  
HETATM    8  C   UNL     5     -10.995  12.924  66.775  1.00  0.00    -0.300 A  
HETATM    9  C   UNL     5     -11.664  12.667  69.463  1.00  0.00    -0.374 A  
HETATM   10  C   UNL     5     -10.577  11.805  67.479  1.00  0.00    -0.214 A  
HETATM   11  C   UNL     5     -12.114  12.442  70.788  1.00  0.00    -0.245 A  
HETATM   12  C   UNL     5     -10.984  11.607  68.806  1.00  0.00    -0.274 A  
HETATM   13  C   UNL     5     -11.933  11.212  71.429  1.00  0.00     0.087 A  
HETATM   14  C   UNL     5     -10.762  10.389  69.487  1.00  0.00    -0.284 A  
HETATM   15  C   UNL     5     -11.254  10.187  70.777  1.00  0.00    -0.414 A  
ENDROOT
BRANCH   7  16
HETATM   16  O   UNL     5     -12.447  14.921  69.490  1.00  0.00    -0.205 OA 
HETATM   17  O   UNL     5     -14.355  15.817  70.836  1.00  0.00    -0.240 OA 
HETATM   18  O   UNL     5     -13.972  13.451  70.949  1.00  0.00     0.526 OA 
HETATM   19  P   UNL     5     -13.242  14.793  70.886  1.00  0.00    -0.240 P  
HETATM   20  O   UNL     5     -12.324  14.884  72.079  1.00  0.00    -0.319 OA 
ENDBRANCH   7  16
BRANCH  10  21
HETATM   21  O   UNL     5      -9.660  10.977  66.882  1.00  0.00    -0.178 OA 
HETATM   22  P   UNL     5     -10.082   9.859  65.762  1.00  0.00    -0.086 P  
HETATM   23  O   UNL     5     -11.305  10.392  64.998  1.00  0.00     0.824 OA 
HETATM   24  O   UNL     5     -10.532   8.584  66.435  1.00  0.00    -0.195 OA 
HETATM   25  O   UNL     5      -8.967   9.804  64.769  1.00  0.00    -0.194 OA 
ENDBRANCH  10  21
TORSDOF 2
ENDMDL
MODEL      154
REMARK 921   NORMALIZED FREE ENERGY PREDICTED BY IDOCK:    1.58 KCAL/MOL
REMARK 922        TOTAL FREE ENERGY PREDICTED BY IDOCK:    1.64 KCAL/MOL
REMARK 923 INTER-LIGAND FREE ENERGY PREDICTED BY IDOCK:   -4.15 KCAL/MOL
REMARK 924 INTRA-LIGAND FREE ENERGY PREDICTED BY IDOCK:    5.79 KCAL/MOL
REMARK 927      BINDING AFFINITY PREDICTED BY RF-SCORE:    0.00 PKD
ROOT
HETATM    1 NA   UNL     1      -7.533  11.808  70.223  1.00  0.00    -0.343 Na 
HETATM    2 NA   UNL     2      -9.778   9.197  63.949  1.00  0.00    -0.416 Na 
HETATM    3 NA   UNL     3      -6.134   8.397  72.097  1.00  0.00    -0.039 Na 
HETATM    4 NA   UNL     4      -7.376   6.823  66.472  1.00  0.00    -0.061 Na 
HETATM    5  C   UNL     5      -9.931  10.068  68.662  1.00  0.00    -0.176 C  
HETATM    6  C   UNL     5      -9.987   8.582  68.802  1.00  0.00    -0.197 A  
HETATM    7  C   UNL     5      -9.669   7.851  69.945  1.00  0.00    -0.176 A  
HETATM    8  C   UNL     5     -10.315   7.895  67.637  1.00  0.00    -0.307 A  
HETATM    9  C   UNL     5      -9.741   6.414  69.921  1.00  0.00    -0.185 A  
HETATM   10  C   UNL     5     -10.152   6.522  67.538  1.00  0.00    -0.155 A  
HETATM   11  C   UNL     5      -9.593   5.621  71.086  1.00  0.00    -0.208 A  
HETATM   12  C   UNL     5      -9.959   5.744  68.688  1.00  0.00    -0.201 A  
HETATM   13  C   UNL     5      -9.692   4.226  71.046  1.00  0.00    -0.260 A  
HETATM   14  C   UNL     5     -10.001   4.331  68.656  1.00  0.00    -0.024 A  
HETATM   15  C   UNL     5      -9.894   3.583  69.829  1.00  0.00     0.052 A  
ENDROOT
BRANCH   7  16
HETATM   16  O   UNL     5      -9.373   8.429  71.144  1.00  0.00    -0.154 OA 
HETATM   17  O   UNL     5      -8.133   8.434  73.315  1.00  0.00    -0.304 OA 
HETATM   18  O   UNL     5      -7.047   7.379  71.455  1.00  0.00    -0.061 OA 
HETATM   19  P   UNL     5      -7.920   8.578  71.825  1.00  0.00    -0.069 P  
HETATM   20  O   UNL     5      -7.207   9.832  71.384  1.00  0.00    -0.271 OA 
ENDBRANCH   7  16
BRANCH  10  21
HETATM   21  O   UNL     5     -10.058   5.976  66.282  1.00  0.00    -0.118 OA 
HETATM   22  P   UNL     5      -8.655   5.378  65.685  1.00  0.00    -0.149 P  
HETATM   23  O   UNL     5      -7.832   4.835  66.864  1.00  0.00    -0.097 OA 
HETATM   24  O   UNL     5      -7.830   6.485  65.073  1.00  0.00    -0.099 OA 
HETATM   25  O   UNL     5      -9.015   4.191  64.852  1.00  0.00    -0.126 OA 
ENDBRANCH  10  21
TORSDOF 2
ENDMDL
MODEL      155
REMARK 921   NORMALIZED FREE ENERGY PREDICTED BY IDOCK:    1.78 KCAL/MOL
REMARK 922        TOTAL FREE ENERGY PREDICTED BY IDOCK:    1.86 KCAL/MOL
REMARK 923 INTER-LIGAND FREE ENERGY PREDICTED BY IDOCK:    0.30 KCAL/MOL
REMARK 924 INTRA-LIGAND FREE ENERGY PREDICTED BY IDOCK:    1.55 KCAL/MOL
REMARK 927      BINDING AFFINITY PREDICTED BY RF-SCORE:    0.00 PKD
ROOT
HETATM    1 NA   UNL     1      -8.842   5.259  62.398  1.00  0.00    -0.096 Na 
HETATM    2 NA   UNL     2     -12.397   9.803  66.633  1.00  0.00     1.372 Na 
HETATM    3 NA   UNL     3      -7.069   2.748  65.165  1.00  0.00    -0.043 Na 
HETATM    4 NA   UNL     4     -10.817   6.237  68.236  1.00  0.00    -0.149 Na 
HETATM    5  C   UNL     5      -8.575   7.873  64.474  1.00  0.00     0.165 C  
HETATM    6  C   UNL     5      -8.055   7.676  65.860  1.00  0.00    -0.122 A  
HETATM    7  C   UNL     5      -7.059   6.780  66.245  1.00  0.00    -0.067 A  
HETATM    8  C   UNL     5      -8.707   8.416  66.841  1.00  0.00    -0.137 A  
HETATM    9  C   UNL     5      -6.683   6.678  67.631  1.00  0.00    -0.070 A  
HETATM   10  C   UNL     5      -8.522   8.150  68.189  1.00  0.00    -0.126 A  
HETATM   11  C   UNL     5      -5.572   5.915  68.067  1.00  0.00    -0.008 A  
HETATM   12  C   UNL     5      -7.449   7.355  68.617  1.00  0.00    -0.102 A  
HETATM   13  C   UNL     5      -5.207   5.849  69.416  1.00  0.00    -0.004 A  
HETATM   14  C   UNL     5      -7.099   7.234  69.981  1.00  0.00    -0.066 A  
HETATM   15  C   UNL     5      -5.973   6.508  70.372  1.00  0.00    -0.023 A  
ENDROOT
BRANCH   7  16
HETATM   16  O   UNL     5      -6.337   6.039  65.359  1.00  0.00    -0.036 OA 
HETATM   17  O   UNL     5      -6.061   4.001  63.935  1.00  0.00    -0.017 OA 
HETATM   18  O   UNL     5      -8.306   4.756  64.314  1.00  0.00    -0.114 OA 
HETATM   19  P   UNL     5      -6.887   5.263  64.057  1.00  0.00    -0.049 P  
HETATM   20  O   UNL     5      -6.917   6.145  62.835  1.00  0.00    -0.042 OA 
ENDBRANCH   7  16
BRANCH  10  21
HETATM   21  O   UNL     5      -9.486   8.579  69.067  1.00  0.00    -0.150 OA 
HETATM   22  P   UNL     5      -9.921  10.153  69.196  1.00  0.00    -0.234 P  
HETATM   23  O   UNL     5      -9.732  10.811  67.820  1.00  0.00    -0.159 OA 
HETATM   24  O   UNL     5      -8.991  10.879  70.139  1.00  0.00     0.819 OA 
HETATM   25  O   UNL     5     -11.391  10.171  69.464  1.00  0.00    -0.237 OA 
ENDBRANCH  10  21
TORSDOF 2
ENDMDL
MODEL      156
REMARK 921   NORMALIZED FREE ENERGY PREDICTED BY IDOCK:    2.24 KCAL/MOL
REMARK 922        TOTAL FREE ENERGY PREDICTED BY IDOCK:    2.37 KCAL/MOL
REMARK 923 INTER-LIGAND FREE ENERGY PREDICTED BY IDOCK:   -3.50 KCAL/MOL
REMARK 924 INTRA-LIGAND FREE ENERGY PREDICTED BY IDOCK:    5.87 KCAL/MOL
REMARK 927      BINDING AFFINITY PREDICTED BY RF-SCORE:    0.00 PKD
ROOT
HETATM    1 NA   UNL     1     -12.450   8.881  73.057  1.00  0.00    -0.372 Na 
HETATM    2 NA   UNL     2      -8.438   3.025  72.144  1.00  0.00    -0.063 Na 
HETATM    3 NA   UNL     3     -13.003  10.134  69.155  1.00  0.00    -0.538 Na 
HETATM    4 NA   UNL     4     -10.368   4.785  68.834  1.00  0.00    -0.169 Na 
HETATM    5  C   UNL     5      -9.392   7.721  72.340  1.00  0.00    -0.224 C  
HETATM    6  C   UNL     5      -8.894   7.748  70.931  1.00  0.00    -0.142 A  
HETATM    7  C   UNL     5      -9.159   8.735  69.985  1.00  0.00    -0.160 A  
HETATM    8  C   UNL     5      -8.168   6.625  70.545  1.00  0.00    -0.118 A  
HETATM    9  C   UNL     5      -8.634   8.608  68.650  1.00  0.00    -0.131 A  
HETATM   10  C   UNL     5      -7.869   6.381  69.213  1.00  0.00    -0.106 A  
HETATM   11  C   UNL     5      -8.723   9.647  67.691  1.00  0.00    -0.126 A  
HETATM   12  C   UNL     5      -8.004   7.397  68.257  1.00  0.00    -0.124 A  
HETATM   13  C   UNL     5      -8.183   9.515  66.408  1.00  0.00    -0.115 A  
HETATM   14  C   UNL     5      -7.512   7.259  66.939  1.00  0.00    -0.097 A  
HETATM   15  C   UNL     5      -7.580   8.319  66.032  1.00  0.00    -0.078 A  
ENDROOT
BRANCH   7  16
HETATM   16  O   UNL     5      -9.826   9.887  70.273  1.00  0.00    -0.253 OA 
HETATM   17  O   UNL     5     -11.855  11.337  70.086  1.00  0.00    -0.310 OA 
HETATM   18  O   UNL     5     -12.212   8.967  70.006  1.00  0.00     0.411 OA 
HETATM   19  P   UNL     5     -11.373  10.041  70.698  1.00  0.00    -0.367 P  
HETATM   20  O   UNL     5     -11.573   9.906  72.187  1.00  0.00     0.147 OA 
ENDBRANCH   7  16
BRANCH  10  21
HETATM   21  O   UNL     5      -7.565   5.093  68.849  1.00  0.00    -0.078 OA 
HETATM   22  P   UNL     5      -8.637   4.119  68.084  1.00  0.00    -0.103 P  
HETATM   23  O   UNL     5      -9.554   5.005  67.226  1.00  0.00    -0.133 OA 
HETATM   24  O   UNL     5      -9.535   3.436  69.088  1.00  0.00    -0.170 OA 
HETATM   25  O   UNL     5      -7.851   3.286  67.124  1.00  0.00    -0.077 OA 
ENDBRANCH  10  21
TORSDOF 2
ENDMDL
MODEL      157
REMARK 921   NORMALIZED FREE ENERGY PREDICTED BY IDOCK:    2.41 KCAL/MOL
REMARK 922        TOTAL FREE ENERGY PREDICTED BY IDOCK:    2.56 KCAL/MOL
REMARK 923 INTER-LIGAND FREE ENERGY PREDICTED BY IDOCK:    2.29 KCAL/MOL
REMARK 924 INTRA-LIGAND FREE ENERGY PREDICTED BY IDOCK:    0.28 KCAL/MOL
REMARK 927      BINDING AFFINITY PREDICTED BY RF-SCORE:    0.00 PKD
ROOT
HETATM    1 NA   UNL     1      -7.257  14.235  72.618  1.00  0.00     0.162 Na 
HETATM    2 NA   UNL     2      -5.131   7.976  69.875  1.00  0.00    -0.020 Na 
HETATM    3 NA   UNL     3     -11.350  14.049  72.056  1.00  0.00    -0.312 Na 
HETATM    4 NA   UNL     4      -9.222   8.652  70.639  1.00  0.00    -0.128 Na 
HETATM    5  C   UNL     5      -6.707  12.505  69.805  1.00  0.00     0.146 C  
HETATM    6  C   UNL     5      -7.859  11.954  69.030  1.00  0.00     0.099 A  
HETATM    7  C   UNL     5      -9.106  12.556  68.870  1.00  0.00     0.318 A  
HETATM    8  C   UNL     5      -7.655  10.682  68.501  1.00  0.00    -0.097 A  
HETATM    9  C   UNL     5     -10.135  11.887  68.117  1.00  0.00    -0.200 A  
HETATM   10  C   UNL     5      -8.706   9.936  67.990  1.00  0.00    -0.125 A  
HETATM   11  C   UNL     5     -11.360  12.510  67.776  1.00  0.00    -0.351 A  
HETATM   12  C   UNL     5      -9.935  10.544  67.697  1.00  0.00    -0.202 A  
HETATM   13  C   UNL     5     -12.337  11.851  67.021  1.00  0.00     0.972 A  
HETATM   14  C   UNL     5     -10.954   9.875  66.983  1.00  0.00    -0.098 A  
HETATM   15  C   UNL     5     -12.133  10.533  66.628  1.00  0.00     3.038 A  
ENDROOT
BRANCH   7  16
HETATM   16  O   UNL     5      -9.392  13.811  69.316  1.00  0.00     0.278 OA 
HETATM   17  O   UNL     5      -8.841  16.245  69.484  1.00  0.00    -0.138 OA 
HETATM   18  O   UNL     5      -8.121  15.110  67.497  1.00  0.00    -0.149 OA 
HETATM   19  P   UNL     5      -9.279  15.191  68.491  1.00  0.00    -0.207 P  
HETATM   20  O   UNL     5     -10.538  15.502  67.720  1.00  0.00    -0.267 OA 
ENDBRANCH   7  16
BRANCH  10  21
HETATM   21  O   UNL     5      -8.545   8.575  67.904  1.00  0.00    -0.132 OA 
HETATM   22  P   UNL     5      -7.287   7.887  67.113  1.00  0.00    -0.094 P  
HETATM   23  O   UNL     5      -6.083   8.837  67.219  1.00  0.00    -0.053 OA 
HETATM   24  O   UNL     5      -7.596   7.766  65.640  1.00  0.00    -0.078 OA 
HETATM   25  O   UNL     5      -6.914   6.662  67.883  1.00  0.00    -0.077 OA 
ENDBRANCH  10  21
TORSDOF 2
ENDMDL
MODEL      158
REMARK 921   NORMALIZED FREE ENERGY PREDICTED BY IDOCK:    2.64 KCAL/MOL
REMARK 922        TOTAL FREE ENERGY PREDICTED BY IDOCK:    2.83 KCAL/MOL
REMARK 923 INTER-LIGAND FREE ENERGY PREDICTED BY IDOCK:   -4.81 KCAL/MOL
REMARK 924 INTRA-LIGAND FREE ENERGY PREDICTED BY IDOCK:    7.63 KCAL/MOL
REMARK 927      BINDING AFFINITY PREDICTED BY RF-SCORE:    0.00 PKD
ROOT
HETATM    1 NA   UNL     1      -6.778  14.031  71.464  1.00  0.00    -0.405 Na 
HETATM    2 NA   UNL     2      -5.747   9.092  66.388  1.00  0.00    -0.043 Na 
HETATM    3 NA   UNL     3     -10.902  14.347  71.499  1.00  0.00    -0.507 Na 
HETATM    4 NA   UNL     4      -9.611   9.719  67.953  1.00  0.00    -0.132 Na 
HETATM    5  C   UNL     5      -6.769  13.426  68.171  1.00  0.00    -0.117 C  
HETATM    6  C   UNL     5      -8.061  13.279  67.434  1.00  0.00    -0.179 A  
HETATM    7  C   UNL     5      -9.236  13.982  67.689  1.00  0.00    -0.194 A  
HETATM    8  C   UNL     5      -8.073  12.281  66.464  1.00  0.00     0.157 A  
HETATM    9  C   UNL     5     -10.418  13.710  66.913  1.00  0.00    -0.272 A  
HETATM   10  C   UNL     5      -9.257  11.850  65.887  1.00  0.00    -0.141 A  
HETATM   11  C   UNL     5     -11.592  14.497  67.006  1.00  0.00    -0.402 A  
HETATM   12  C   UNL     5     -10.430  12.606  66.019  1.00  0.00    -0.288 A  
HETATM   13  C   UNL     5     -12.721  14.232  66.224  1.00  0.00    -0.079 A  
HETATM   14  C   UNL     5     -11.598  12.319  65.276  1.00  0.00    -0.405 A  
HETATM   15  C   UNL     5     -12.723  13.141  65.361  1.00  0.00    -0.422 A  
ENDROOT
BRANCH   7  16
HETATM   16  O   UNL     5      -9.318  15.001  68.590  1.00  0.00    -0.188 OA 
HETATM   17  O   UNL     5     -10.294  17.180  69.337  1.00  0.00    -0.290 OA 
HETATM   18  O   UNL     5     -11.711  15.755  68.026  1.00  0.00    -0.279 OA 
HETATM   19  P   UNL     5     -10.653  15.725  69.130  1.00  0.00    -0.290 P  
HETATM   20  O   UNL     5     -11.243  15.020  70.326  1.00  0.00    -0.248 OA 
ENDBRANCH   7  16
BRANCH  10  21
HETATM   21  O   UNL     5      -9.270  10.609  65.300  1.00  0.00    -0.178 OA 
HETATM   22  P   UNL     5      -8.822  10.367  63.743  1.00  0.00    -0.227 P  
HETATM   23  O   UNL     5      -7.755  11.416  63.389  1.00  0.00     0.733 OA 
HETATM   24  O   UNL     5      -9.985  10.623  62.816  1.00  0.00    -0.266 OA 
HETATM   25  O   UNL     5      -8.130   9.043  63.697  1.00  0.00    -0.146 OA 
ENDBRANCH  10  21
TORSDOF 2
ENDMDL
MODEL      159
REMARK 921   NORMALIZED FREE ENERGY PREDICTED BY IDOCK:    2.74 KCAL/MOL
REMARK 922        TOTAL FREE ENERGY PREDICTED BY IDOCK:    2.93 KCAL/MOL
REMARK 923 INTER-LIGAND FREE ENERGY PREDICTED BY IDOCK:   -2.91 KCAL/MOL
REMARK 924 INTRA-LIGAND FREE ENERGY PREDICTED BY IDOCK:    5.84 KCAL/MOL
REMARK 927      BINDING AFFINITY PREDICTED BY RF-SCORE:    0.00 PKD
ROOT
HETATM    1 NA   UNL     1      -9.568   7.819  66.605  1.00  0.00    -0.143 Na 
HETATM    2 NA   UNL     2      -9.886  14.634  64.440  1.00  0.00    -0.328 Na 
HETATM    3 NA   UNL     3      -8.982   8.260  70.675  1.00  0.00    -0.126 Na 
HETATM    4 NA   UNL     4     -10.121  13.723  68.550  1.00  0.00    -0.191 Na 
HETATM    5  C   UNL     5      -7.803  10.592  65.965  1.00  0.00    -0.147 C  
HETATM    6  C   UNL     5      -7.298  11.432  67.092  1.00  0.00    -0.138 A  
HETATM    7  C   UNL     5      -6.844  10.968  68.325  1.00  0.00    -0.067 A  
HETATM    8  C   UNL     5      -7.379  12.806  66.881  1.00  0.00     0.235 A  
HETATM    9  C   UNL     5      -6.415  11.904  69.331  1.00  0.00    -0.119 A  
HETATM   10  C   UNL     5      -7.200  13.707  67.919  1.00  0.00    -0.148 A  
HETATM   11  C   UNL     5      -5.790  11.499  70.536  1.00  0.00    -0.129 A  
HETATM   12  C   UNL     5      -6.625  13.294  69.129  1.00  0.00    -0.105 A  
HETATM   13  C   UNL     5      -5.357  12.426  71.489  1.00  0.00     0.025 A  
HETATM   14  C   UNL     5      -6.230  14.214  70.127  1.00  0.00    -0.151 A  
HETATM   15  C   UNL     5      -5.580  13.783  71.284  1.00  0.00    -0.222 A  
ENDROOT
BRANCH   7  16
HETATM   16  O   UNL     5      -6.692   9.645  68.615  1.00  0.00    -0.052 OA 
HETATM   17  O   UNL     5      -6.976   7.707  70.171  1.00  0.00    -0.049 OA 
HETATM   18  O   UNL     5      -8.615   9.453  70.312  1.00  0.00    -0.184 OA 
HETATM   19  P   UNL     5      -7.768   8.667  69.311  1.00  0.00    -0.099 P  
HETATM   20  O   UNL     5      -8.697   8.032  68.307  1.00  0.00    -0.130 OA 
ENDBRANCH   7  16
BRANCH  10  21
HETATM   21  O   UNL     5      -7.717  14.970  67.768  1.00  0.00    -0.127 OA 
HETATM   22  P   UNL     5      -9.138  15.426  68.443  1.00  0.00    -0.207 P  
HETATM   23  O   UNL     5      -9.321  14.629  69.745  1.00  0.00     0.192 OA 
HETATM   24  O   UNL     5     -10.292  15.038  67.549  1.00  0.00    -0.238 OA 
HETATM   25  O   UNL     5      -8.981  16.854  68.852  1.00  0.00    -0.259 OA 
ENDBRANCH  10  21
TORSDOF 2
ENDMDL
MODEL      160
REMARK 921   NORMALIZED FREE ENERGY PREDICTED BY IDOCK:    2.74 KCAL/MOL
REMARK 922        TOTAL FREE ENERGY PREDICTED BY IDOCK:    2.93 KCAL/MOL
REMARK 923 INTER-LIGAND FREE ENERGY PREDICTED BY IDOCK:    2.64 KCAL/MOL
REMARK 924 INTRA-LIGAND FREE ENERGY PREDICTED BY IDOCK:    0.29 KCAL/MOL
REMARK 927      BINDING AFFINITY PREDICTED BY RF-SCORE:    0.00 PKD
ROOT
HETATM    1 NA   UNL     1     -11.496  20.201  64.424  1.00  0.00    -0.409 Na 
HETATM    2 NA   UNL     2      -5.356  20.025  68.099  1.00  0.00    -0.172 Na 
HETATM    3 NA   UNL     3     -14.133  18.500  67.117  1.00  0.00     4.222 Na 
HETATM    4 NA   UNL     4      -9.009  19.305  70.077  1.00  0.00     0.015 Na 
HETATM    5  C   UNL     5      -8.995  18.262  65.519  1.00  0.00     1.059 C  
HETATM    6  C   UNL     5      -9.210  17.354  66.686  1.00  0.00    -0.278 A  
HETATM    7  C   UNL     5     -10.384  16.668  66.988  1.00  0.00    -0.301 A  
HETATM    8  C   UNL     5      -8.140  17.275  67.572  1.00  0.00    -0.197 A  
HETATM    9  C   UNL     5     -10.453  15.850  68.171  1.00  0.00    -0.270 A  
HETATM   10  C   UNL     5      -8.279  16.692  68.822  1.00  0.00    -0.249 A  
HETATM   11  C   UNL     5     -11.552  14.999  68.449  1.00  0.00    -0.352 A  
HETATM   12  C   UNL     5      -9.391  15.889  69.113  1.00  0.00    -0.252 A  
HETATM   13  C   UNL     5     -11.588  14.192  69.591  1.00  0.00    -0.349 A  
HETATM   14  C   UNL     5      -9.468  15.108  70.289  1.00  0.00     0.496 A  
HETATM   15  C   UNL     5     -10.546  14.250  70.511  1.00  0.00     0.856 A  
ENDROOT
BRANCH   7  16
HETATM   16  O   UNL     5     -11.472  16.650  66.168  1.00  0.00     0.521 OA 
HETATM   17  O   UNL     5     -12.504  16.270  63.921  1.00  0.00    -0.774 OA 
HETATM   18  O   UNL     5     -10.575  14.949  64.461  1.00  0.00    -0.273 OA 
HETATM   19  P   UNL     5     -11.850  15.533  65.070  1.00  0.00     0.257 P  
HETATM   20  O   UNL     5     -12.651  14.399  65.659  1.00  0.00    -0.408 OA 
ENDBRANCH   7  16
BRANCH  10  21
HETATM   21  O   UNL     5      -7.369  17.030  69.793  1.00  0.00     0.179 OA 
HETATM   22  P   UNL     5      -5.758  17.092  69.506  1.00  0.00    -0.229 P  
HETATM   23  O   UNL     5      -5.554  17.491  68.035  1.00  0.00    -0.131 OA 
HETATM   24  O   UNL     5      -5.144  15.721  69.656  1.00  0.00    -0.102 OA 
HETATM   25  O   UNL     5      -5.220  18.225  70.319  1.00  0.00    -0.212 OA 
ENDBRANCH  10  21
TORSDOF 2
ENDMDL
MODEL      161
REMARK 921   NORMALIZED FREE ENERGY PREDICTED BY IDOCK:    2.84 KCAL/MOL
REMARK 922        TOTAL FREE ENERGY PREDICTED BY IDOCK:    3.04 KCAL/MOL
REMARK 923 INTER-LIGAND FREE ENERGY PREDICTED BY IDOCK:    2.90 KCAL/MOL
REMARK 924 INTRA-LIGAND FREE ENERGY PREDICTED BY IDOCK:    0.14 KCAL/MOL
REMARK 927      BINDING AFFINITY PREDICTED BY RF-SCORE:    0.00 PKD
ROOT
HETATM    1 NA   UNL     1      -7.472  14.914  73.370  1.00  0.00     1.601 Na 
HETATM    2 NA   UNL     2      -9.526   9.330  69.391  1.00  0.00    -0.141 Na 
HETATM    3 NA   UNL     3      -9.929  17.915  71.933  1.00  0.00     2.678 Na 
HETATM    4 NA   UNL     4     -11.861  12.841  69.447  1.00  0.00    -0.217 Na 
HETATM    5  C   UNL     5      -7.318  13.479  70.348  1.00  0.00     1.715 C  
HETATM    6  C   UNL     5      -8.133  14.022  69.221  1.00  0.00     0.293 A  
HETATM    7  C   UNL     5      -8.425  15.365  68.990  1.00  0.00    -0.229 A  
HETATM    8  C   UNL     5      -8.701  13.060  68.391  1.00  0.00    -0.115 A  
HETATM    9  C   UNL     5      -9.255  15.737  67.874  1.00  0.00    -0.191 A  
HETATM   10  C   UNL     5      -9.686  13.389  67.472  1.00  0.00    -0.224 A  
HETATM   11  C   UNL     5      -9.455  17.085  67.486  1.00  0.00    -0.246 A  
HETATM   12  C   UNL     5      -9.915  14.728  67.124  1.00  0.00    -0.236 A  
HETATM   13  C   UNL     5     -10.243  17.425  66.382  1.00  0.00    -0.339 A  
HETATM   14  C   UNL     5     -10.752  15.091  66.045  1.00  0.00    -0.329 A  
HETATM   15  C   UNL     5     -10.894  16.427  65.664  1.00  0.00    -0.185 A  
ENDROOT
BRANCH   7  16
HETATM   16  O   UNL     5      -7.889  16.383  69.721  1.00  0.00     0.145 OA 
HETATM   17  O   UNL     5      -5.963  17.415  70.937  1.00  0.00     0.286 OA 
HETATM   18  O   UNL     5      -5.430  15.993  69.080  1.00  0.00    -0.108 OA 
HETATM   19  P   UNL     5      -6.432  17.049  69.546  1.00  0.00    -0.086 P  
HETATM   20  O   UNL     5      -6.433  18.172  68.539  1.00  0.00    -0.201 OA 
ENDBRANCH   7  16
BRANCH  10  21
HETATM   21  O   UNL     5     -10.503  12.383  67.020  1.00  0.00    -0.219 OA 
HETATM   22  P   UNL     5      -9.950  10.875  66.703  1.00  0.00    -0.222 P  
HETATM   23  O   UNL     5      -8.774  10.592  67.652  1.00  0.00    -0.121 OA 
HETATM   24  O   UNL     5      -9.385  10.805  65.305  1.00  0.00    -0.190 OA 
HETATM   25  O   UNL     5     -11.036   9.927  67.099  1.00  0.00    -0.218 OA 
ENDBRANCH  10  21
TORSDOF 2
ENDMDL
MODEL      162
REMARK 921   NORMALIZED FREE ENERGY PREDICTED BY IDOCK:    3.66 KCAL/MOL
REMARK 922        TOTAL FREE ENERGY PREDICTED BY IDOCK:    3.96 KCAL/MOL
REMARK 923 INTER-LIGAND FREE ENERGY PREDICTED BY IDOCK:   -4.03 KCAL/MOL
REMARK 924 INTRA-LIGAND FREE ENERGY PREDICTED BY IDOCK:    7.99 KCAL/MOL
REMARK 927      BINDING AFFINITY PREDICTED BY RF-SCORE:    0.00 PKD
ROOT
HETATM    1 NA   UNL     1      -9.359   8.117  70.229  1.00  0.00    -0.143 Na 
HETATM    2 NA   UNL     2      -9.800  15.192  71.217  1.00  0.00    -0.383 Na 
HETATM    3 NA   UNL     3      -8.745   7.879  66.146  1.00  0.00    -0.108 Na 
HETATM    4 NA   UNL     4      -8.365  13.669  67.556  1.00  0.00    -0.122 Na 
HETATM    5  C   UNL     5     -11.281  10.835  69.865  1.00  0.00    -0.371 C  
HETATM    6  C   UNL     5     -11.451  11.455  68.517  1.00  0.00    -0.361 A  
HETATM    7  C   UNL     5     -11.519  10.775  67.302  1.00  0.00     0.052 A  
HETATM    8  C   UNL     5     -11.458  12.847  68.508  1.00  0.00    -0.345 A  
HETATM    9  C   UNL     5     -11.653  11.513  66.073  1.00  0.00     0.024 A  
HETATM   10  C   UNL     5     -11.343  13.562  67.326  1.00  0.00    -0.315 A  
HETATM   11  C   UNL     5     -11.893  10.885  64.826  1.00  0.00     1.401 A  
HETATM   12  C   UNL     5     -11.534  12.929  66.090  1.00  0.00    -0.393 A  
HETATM   13  C   UNL     5     -12.047  11.622  63.647  1.00  0.00    -0.359 A  
HETATM   14  C   UNL     5     -11.637  13.654  64.881  1.00  0.00    -0.360 A  
HETATM   15  C   UNL     5     -11.916  13.006  63.676  1.00  0.00    -0.608 A  
ENDROOT
BRANCH   7  16
HETATM   16  O   UNL     5     -11.557   9.416  67.207  1.00  0.00     0.773 OA 
HETATM   17  O   UNL     5     -10.473   7.239  66.624  1.00  0.00    -0.244 OA 
HETATM   18  O   UNL     5      -9.026   8.998  67.377  1.00  0.00    -0.124 OA 
HETATM   19  P   UNL     5     -10.400   8.374  67.622  1.00  0.00    -0.225 P  
HETATM   20  O   UNL     5     -10.481   7.975  69.074  1.00  0.00    -0.218 OA 
ENDBRANCH   7  16
BRANCH  10  21
HETATM   21  O   UNL     5     -10.913  14.864  67.403  1.00  0.00    -0.296 OA 
HETATM   22  P   UNL     5      -9.935  15.535  66.275  1.00  0.00    -0.346 P  
HETATM   23  O   UNL     5     -10.236  14.864  64.925  1.00  0.00    -0.372 OA 
HETATM   24  O   UNL     5      -8.489  15.226  66.582  1.00  0.00    -0.259 OA 
HETATM   25  O   UNL     5     -10.361  16.960  66.130  1.00  0.00    -0.325 OA 
ENDBRANCH  10  21
TORSDOF 2
ENDMDL
MODEL      163
REMARK 921   NORMALIZED FREE ENERGY PREDICTED BY IDOCK:    4.22 KCAL/MOL
REMARK 922        TOTAL FREE ENERGY PREDICTED BY IDOCK:    4.59 KCAL/MOL
REMARK 923 INTER-LIGAND FREE ENERGY PREDICTED BY IDOCK:    3.22 KCAL/MOL
REMARK 924 INTRA-LIGAND FREE ENERGY PREDICTED BY IDOCK:    1.37 KCAL/MOL
REMARK 927      BINDING AFFINITY PREDICTED BY RF-SCORE:    0.00 PKD
ROOT
HETATM    1 NA   UNL     1     -13.208  12.296  67.967  1.00  0.00     0.854 Na 
HETATM    2 NA   UNL     2      -6.068  11.861  67.751  1.00  0.00    -0.046 Na 
HETATM    3 NA   UNL     3     -13.845  16.206  66.780  1.00  0.00     2.481 Na 
HETATM    4 NA   UNL     4      -8.027  15.140  65.965  1.00  0.00    -0.323 Na 
HETATM    5  C   UNL     5     -10.350  13.137  69.494  1.00  0.00     0.594 C  
HETATM    6  C   UNL     5      -9.830  14.533  69.390  1.00  0.00     0.061 A  
HETATM    7  C   UNL     5     -10.597  15.695  69.351  1.00  0.00    -0.253 A  
HETATM    8  C   UNL     5      -8.450  14.635  69.238  1.00  0.00     0.030 A  
HETATM    9  C   UNL     5      -9.954  16.976  69.216  1.00  0.00    -0.169 A  
HETATM   10  C   UNL     5      -7.850  15.829  68.868  1.00  0.00    -0.190 A  
HETATM   11  C   UNL     5     -10.656  18.201  69.337  1.00  0.00     0.544 A  
HETATM   12  C   UNL     5      -8.561  17.036  68.943  1.00  0.00    -0.196 A  
HETATM   13  C   UNL     5     -10.007  19.436  69.228  1.00  0.00    -0.316 A  
HETATM   14  C   UNL     5      -7.932  18.291  68.781  1.00  0.00    -0.268 A  
HETATM   15  C   UNL     5      -8.645  19.479  68.948  1.00  0.00    -0.292 A  
ENDROOT
BRANCH   7  16
HETATM   16  O   UNL     5     -11.948  15.705  69.528  1.00  0.00    -0.359 OA 
HETATM   17  O   UNL     5     -14.049  14.620  70.343  1.00  0.00     0.513 OA 
HETATM   18  O   UNL     5     -12.034  14.100  71.535  1.00  0.00    -0.272 OA 
HETATM   19  P   UNL     5     -12.766  15.248  70.839  1.00  0.00    -0.465 P  
HETATM   20  O   UNL     5     -12.930  16.371  71.833  1.00  0.00     0.051 OA 
ENDBRANCH   7  16
BRANCH  10  21
HETATM   21  O   UNL     5      -6.597  15.772  68.311  1.00  0.00    -0.111 OA 
HETATM   22  P   UNL     5      -5.956  14.383  67.726  1.00  0.00     0.054 P  
HETATM   23  O   UNL     5      -7.110  13.511  67.206  1.00  0.00    -0.130 OA 
HETATM   24  O   UNL     5      -5.305  13.596  68.838  1.00  0.00    -0.072 OA 
HETATM   25  O   UNL     5      -5.147  14.756  66.526  1.00  0.00     1.497 OA 
ENDBRANCH  10  21
TORSDOF 2
ENDMDL
MODEL      164
REMARK 921   NORMALIZED FREE ENERGY PREDICTED BY IDOCK:    4.49 KCAL/MOL
REMARK 922        TOTAL FREE ENERGY PREDICTED BY IDOCK:    4.89 KCAL/MOL
REMARK 923 INTER-LIGAND FREE ENERGY PREDICTED BY IDOCK:    2.70 KCAL/MOL
REMARK 924 INTRA-LIGAND FREE ENERGY PREDICTED BY IDOCK:    2.19 KCAL/MOL
REMARK 927      BINDING AFFINITY PREDICTED BY RF-SCORE:    0.00 PKD
ROOT
HETATM    1 NA   UNL     1     -11.126  11.436  64.396  1.00  0.00    -0.286 Na 
HETATM    2 NA   UNL     2      -8.374  16.813  68.235  1.00  0.00    -0.170 Na 
HETATM    3 NA   UNL     3     -10.600   8.228  66.952  1.00  0.00    -0.208 Na 
HETATM    4 NA   UNL     4      -9.173  13.108  70.082  1.00  0.00     0.691 Na 
HETATM    5  C   UNL     5      -8.310  12.879  65.493  1.00  0.00     2.166 C  
HETATM    6  C   UNL     5      -7.546  12.265  66.620  1.00  0.00     0.214 A  
HETATM    7  C   UNL     5      -7.396  10.901  66.865  1.00  0.00    -0.128 A  
HETATM    8  C   UNL     5      -7.018  13.173  67.533  1.00  0.00    -0.155 A  
HETATM    9  C   UNL     5      -6.654  10.456  68.015  1.00  0.00    -0.061 A  
HETATM   10  C   UNL     5      -6.517  12.757  68.757  1.00  0.00    -0.085 A  
HETATM   11  C   UNL     5      -6.322   9.096  68.232  1.00  0.00    -0.054 A  
HETATM   12  C   UNL     5      -6.234  11.403  68.988  1.00  0.00    -0.058 A  
HETATM   13  C   UNL     5      -5.578   8.687  69.343  1.00  0.00    -0.034 A  
HETATM   14  C   UNL     5      -5.530  10.966  70.132  1.00  0.00    -0.071 A  
HETATM   15  C   UNL     5      -5.184   9.623  70.294  1.00  0.00    -0.028 A  
ENDROOT
BRANCH   7  16
HETATM   16  O   UNL     5      -7.843   9.936  66.014  1.00  0.00    -0.106 OA 
HETATM   17  O   UNL     5      -9.641   8.389  65.220  1.00  0.00     0.264 OA 
HETATM   18  O   UNL     5     -10.353  10.458  66.203  1.00  0.00    -0.242 OA 
HETATM   19  P   UNL     5      -9.282   9.857  65.293  1.00  0.00    -0.266 P  
HETATM   20  O   UNL     5      -9.308  10.602  63.982  1.00  0.00    -0.222 OA 
ENDBRANCH   7  16
BRANCH  10  21
HETATM   21  O   UNL     5      -6.432  13.686  69.765  1.00  0.00    -0.118 OA 
HETATM   22  P   UNL     5      -7.298  15.075  69.756  1.00  0.00     0.078 P  
HETATM   23  O   UNL     5      -8.619  14.806  69.017  1.00  0.00    -0.177 OA 
HETATM   24  O   UNL     5      -6.580  16.136  68.957  1.00  0.00    -0.140 OA 
HETATM   25  O   UNL     5      -7.670  15.358  71.175  1.00  0.00     1.896 OA 
ENDBRANCH  10  21
TORSDOF 2
ENDMDL
MODEL      165
REMARK 921   NORMALIZED FREE ENERGY PREDICTED BY IDOCK:    4.55 KCAL/MOL
REMARK 922        TOTAL FREE ENERGY PREDICTED BY IDOCK:    4.96 KCAL/MOL
REMARK 923 INTER-LIGAND FREE ENERGY PREDICTED BY IDOCK:   -1.54 KCAL/MOL
REMARK 924 INTRA-LIGAND FREE ENERGY PREDICTED BY IDOCK:    6.50 KCAL/MOL
REMARK 927      BINDING AFFINITY PREDICTED BY RF-SCORE:    0.00 PKD
ROOT
HETATM    1 NA   UNL     1      -5.915   5.145  73.330  1.00  0.00    -0.019 Na 
HETATM    2 NA   UNL     2      -5.201  10.509  68.645  1.00  0.00    -0.039 Na 
HETATM    3 NA   UNL     3      -6.705   1.948  70.828  1.00  0.00    -0.023 Na 
HETATM    4 NA   UNL     4      -5.227   6.519  67.281  1.00  0.00    -0.005 Na 
HETATM    5  C   UNL     5      -7.528   7.251  71.286  1.00  0.00    -0.079 C  
HETATM    6  C   UNL     5      -8.059   6.762  69.978  1.00  0.00    -0.125 A  
HETATM    7  C   UNL     5      -8.598   5.502  69.729  1.00  0.00    -0.112 A  
HETATM    8  C   UNL     5      -7.910   7.650  68.916  1.00  0.00    -0.123 A  
HETATM    9  C   UNL     5      -9.042   5.161  68.402  1.00  0.00    -0.131 A  
HETATM   10  C   UNL     5      -8.108   7.247  67.605  1.00  0.00    -0.114 A  
HETATM   11  C   UNL     5      -9.748   3.966  68.116  1.00  0.00    -0.124 A  
HETATM   12  C   UNL     5      -8.765   6.041  67.322  1.00  0.00    -0.105 A  
HETATM   13  C   UNL     5     -10.195   3.666  66.825  1.00  0.00     0.724 A  
HETATM   14  C   UNL     5      -9.175   5.696  66.015  1.00  0.00    -0.164 A  
HETATM   15  C   UNL     5      -9.905   4.531  65.775  1.00  0.00    -0.231 A  
ENDROOT
BRANCH   7  16
HETATM   16  O   UNL     5      -8.819   4.577  70.705  1.00  0.00    -0.095 OA 
HETATM   17  O   UNL     5      -9.520   2.285  71.419  1.00  0.00    -0.114 OA 
HETATM   18  O   UNL     5      -8.508   2.478  69.253  1.00  0.00    -0.057 OA 
HETATM   19  P   UNL     5      -8.420   3.016  70.681  1.00  0.00    -0.063 P  
HETATM   20  O   UNL     5      -7.021   2.775  71.188  1.00  0.00    -0.031 OA 
ENDBRANCH   7  16
BRANCH  10  21
HETATM   21  O   UNL     5      -7.532   7.997  66.609  1.00  0.00    -0.086 OA 
HETATM   22  P   UNL     5      -7.751   9.615  66.487  1.00  0.00    -0.098 P  
HETATM   23  O   UNL     5      -7.950  10.174  67.905  1.00  0.00    -0.101 OA 
HETATM   24  O   UNL     5      -9.025   9.917  65.735  1.00  0.00    -0.143 OA 
HETATM   25  O   UNL     5      -6.461  10.187  65.995  1.00  0.00    -0.085 OA 
ENDBRANCH  10  21
TORSDOF 2
ENDMDL
MODEL      166
REMARK 921   NORMALIZED FREE ENERGY PREDICTED BY IDOCK:    4.88 KCAL/MOL
REMARK 922        TOTAL FREE ENERGY PREDICTED BY IDOCK:    5.33 KCAL/MOL
REMARK 923 INTER-LIGAND FREE ENERGY PREDICTED BY IDOCK:    2.12 KCAL/MOL
REMARK 924 INTRA-LIGAND FREE ENERGY PREDICTED BY IDOCK:    3.21 KCAL/MOL
REMARK 927      BINDING AFFINITY PREDICTED BY RF-SCORE:    0.00 PKD
ROOT
HETATM    1 NA   UNL     1     -12.242  12.676  68.040  1.00  0.00    -0.300 Na 
HETATM    2 NA   UNL     2      -5.207  13.542  67.052  1.00  0.00    -0.028 Na 
HETATM    3 NA   UNL     3     -13.679  16.459  67.189  1.00  0.00     2.412 Na 
HETATM    4 NA   UNL     4      -7.896  16.496  65.703  1.00  0.00    -0.277 Na 
HETATM    5  C   UNL     5      -9.417  13.944  69.314  1.00  0.00     0.426 C  
HETATM    6  C   UNL     5      -9.163  15.415  69.249  1.00  0.00    -0.259 A  
HETATM    7  C   UNL     5     -10.120  16.421  69.368  1.00  0.00    -0.243 A  
HETATM    8  C   UNL     5      -7.848  15.770  68.961  1.00  0.00    -0.206 A  
HETATM    9  C   UNL     5      -9.728  17.801  69.252  1.00  0.00     0.006 A  
HETATM   10  C   UNL     5      -7.511  17.069  68.611  1.00  0.00    -0.229 A  
HETATM   11  C   UNL     5     -10.613  18.873  69.526  1.00  0.00     0.917 A  
HETATM   12  C   UNL     5      -8.407  18.123  68.839  1.00  0.00    -0.147 A  
HETATM   13  C   UNL     5     -10.206  20.208  69.433  1.00  0.00    -0.046 A  
HETATM   14  C   UNL     5      -8.028  19.477  68.697  1.00  0.00    -0.381 A  
HETATM   15  C   UNL     5      -8.913  20.508  69.016  1.00  0.00     0.879 A  
ENDROOT
BRANCH   7  16
HETATM   16  O   UNL     5     -11.423  16.179  69.685  1.00  0.00    -0.327 OA 
HETATM   17  O   UNL     5     -13.176  14.770  70.779  1.00  0.00    -0.364 OA 
HETATM   18  O   UNL     5     -10.997  14.753  71.782  1.00  0.00     0.120 OA 
HETATM   19  P   UNL     5     -12.008  15.676  71.100  1.00  0.00    -0.487 P  
HETATM   20  O   UNL     5     -12.305  16.820  72.036  1.00  0.00     0.203 OA 
ENDBRANCH   7  16
BRANCH  10  21
HETATM   21  O   UNL     5      -6.339  17.264  67.924  1.00  0.00    -0.143 OA 
HETATM   22  P   UNL     5      -6.306  17.696  66.344  1.00  0.00    -0.256 P  
HETATM   23  O   UNL     5      -7.559  18.539  66.057  1.00  0.00    -0.365 OA 
HETATM   24  O   UNL     5      -6.413  16.474  65.463  1.00  0.00     1.351 OA 
HETATM   25  O   UNL     5      -5.142  18.618  66.175  1.00  0.00    -0.133 OA 
ENDBRANCH  10  21
TORSDOF 2
ENDMDL
MODEL      167
REMARK 921   NORMALIZED FREE ENERGY PREDICTED BY IDOCK:    5.47 KCAL/MOL
REMARK 922        TOTAL FREE ENERGY PREDICTED BY IDOCK:    5.98 KCAL/MOL
REMARK 923 INTER-LIGAND FREE ENERGY PREDICTED BY IDOCK:    2.59 KCAL/MOL
REMARK 924 INTRA-LIGAND FREE ENERGY PREDICTED BY IDOCK:    3.39 KCAL/MOL
REMARK 927      BINDING AFFINITY PREDICTED BY RF-SCORE:    0.00 PKD
ROOT
HETATM    1 NA   UNL     1     -10.435   8.568  67.332  1.00  0.00    -0.174 Na 
HETATM    2 NA   UNL     2      -5.136  13.048  65.580  1.00  0.00     1.316 Na 
HETATM    3 NA   UNL     3     -13.586  11.184  67.912  1.00  0.00     2.467 Na 
HETATM    4 NA   UNL     4      -9.120  14.426  65.632  1.00  0.00    -0.387 Na 
HETATM    5  C   UNL     5      -8.242  10.823  68.479  1.00  0.00    -0.136 C  
HETATM    6  C   UNL     5      -8.701  12.201  68.828  1.00  0.00     0.109 A  
HETATM    7  C   UNL     5      -9.928  12.540  69.396  1.00  0.00     0.805 A  
HETATM    8  C   UNL     5      -7.826  13.220  68.464  1.00  0.00    -0.110 A  
HETATM    9  C   UNL     5     -10.245  13.921  69.649  1.00  0.00     0.505 A  
HETATM   10  C   UNL     5      -8.220  14.550  68.479  1.00  0.00    -0.154 A  
HETATM   11  C   UNL     5     -11.396  14.322  70.371  1.00  0.00    -0.096 A  
HETATM   12  C   UNL     5      -9.386  14.939  69.155  1.00  0.00    -0.145 A  
HETATM   13  C   UNL     5     -11.672  15.669  70.628  1.00  0.00    -0.398 A  
HETATM   14  C   UNL     5      -9.709  16.297  69.376  1.00  0.00    -0.191 A  
HETATM   15  C   UNL     5     -10.829  16.655  70.128  1.00  0.00    -0.118 A  
ENDROOT
BRANCH   7  16
HETATM   16  O   UNL     5     -10.835  11.616  69.822  1.00  0.00    -0.045 OA 
HETATM   17  O   UNL     5     -13.149  10.669  69.815  1.00  0.00    -0.081 OA 
HETATM   18  O   UNL     5     -12.421  11.751  67.802  1.00  0.00    -0.043 OA 
HETATM   19  P   UNL     5     -11.934  10.843  68.932  1.00  0.00     0.085 P  
HETATM   20  O   UNL     5     -11.386   9.580  68.315  1.00  0.00     0.025 OA 
ENDBRANCH   7  16
BRANCH  10  21
HETATM   21  O   UNL     5      -7.509  15.439  67.712  1.00  0.00    -0.129 OA 
HETATM   22  P   UNL     5      -5.936  15.789  68.002  1.00  0.00    -0.159 P  
HETATM   23  O   UNL     5      -5.276  14.541  68.609  1.00  0.00    -0.086 OA 
HETATM   24  O   UNL     5      -5.823  16.873  69.047  1.00  0.00    -0.142 OA 
HETATM   25  O   UNL     5      -5.288  15.990  66.670  1.00  0.00    -0.129 OA 
ENDBRANCH  10  21
TORSDOF 2
ENDMDL
MODEL      168
REMARK 921   NORMALIZED FREE ENERGY PREDICTED BY IDOCK:    5.98 KCAL/MOL
REMARK 922        TOTAL FREE ENERGY PREDICTED BY IDOCK:    6.55 KCAL/MOL
REMARK 923 INTER-LIGAND FREE ENERGY PREDICTED BY IDOCK:    4.90 KCAL/MOL
REMARK 924 INTRA-LIGAND FREE ENERGY PREDICTED BY IDOCK:    1.65 KCAL/MOL
REMARK 927      BINDING AFFINITY PREDICTED BY RF-SCORE:    0.00 PKD
ROOT
HETATM    1 NA   UNL     1      -5.162   8.837  64.351  1.00  0.00    -0.043 Na 
HETATM    2 NA   UNL     2     -10.330   4.189  62.642  1.00  0.00    -0.143 Na 
HETATM    3 NA   UNL     3      -5.128   8.571  68.478  1.00  0.00    -0.024 Na 
HETATM    4 NA   UNL     4      -8.759   4.238  66.555  1.00  0.00    -0.109 Na 
HETATM    5  C   UNL     5      -8.466   8.301  64.260  1.00  0.00     0.001 C  
HETATM    6  C   UNL     5      -9.207   7.989  65.519  1.00  0.00     0.092 A  
HETATM    7  C   UNL     5      -8.941   8.516  66.781  1.00  0.00    -0.146 A  
HETATM    8  C   UNL     5     -10.196   7.019  65.392  1.00  0.00     2.337 A  
HETATM    9  C   UNL     5      -9.724   8.095  67.914  1.00  0.00    -0.191 A  
HETATM   10  C   UNL     5     -10.784   6.436  66.505  1.00  0.00    -0.072 A  
HETATM   11  C   UNL     5      -9.619   8.709  69.187  1.00  0.00    -0.163 A  
HETATM   12  C   UNL     5     -10.639   7.018  67.772  1.00  0.00    -0.298 A  
HETATM   13  C   UNL     5     -10.407   8.303  70.268  1.00  0.00    -0.211 A  
HETATM   14  C   UNL     5     -11.389   6.585  68.889  1.00  0.00    -0.267 A  
HETATM   15  C   UNL     5     -11.290   7.239  70.118  1.00  0.00    -0.236 A  
ENDROOT
BRANCH   7  16
HETATM   16  O   UNL     5      -8.021   9.496  67.004  1.00  0.00    -0.107 OA 
HETATM   17  O   UNL     5      -6.573  11.358  66.172  1.00  0.00    -0.030 OA 
HETATM   18  O   UNL     5      -8.637  10.992  65.005  1.00  0.00    -0.110 OA 
HETATM   19  P   UNL     5      -8.022  10.992  66.405  1.00  0.00    -0.110 P  
HETATM   20  O   UNL     5      -8.809  11.952  67.262  1.00  0.00    -0.166 OA 
ENDBRANCH   7  16
BRANCH  10  21
HETATM   21  O   UNL     5     -11.394   5.217  66.344  1.00  0.00     0.203 OA 
HETATM   22  P   UNL     5     -11.045   4.215  65.097  1.00  0.00     1.148 P  
HETATM   23  O   UNL     5      -9.574   4.438  64.708  1.00  0.00    -0.161 OA 
HETATM   24  O   UNL     5     -11.860   4.586  63.881  1.00  0.00     0.757 OA 
HETATM   25  O   UNL     5     -11.123   2.822  65.630  1.00  0.00     2.952 OA 
ENDBRANCH  10  21
TORSDOF 2
ENDMDL
MODEL      169
REMARK 921   NORMALIZED FREE ENERGY PREDICTED BY IDOCK:    6.72 KCAL/MOL
REMARK 922        TOTAL FREE ENERGY PREDICTED BY IDOCK:    7.37 KCAL/MOL
REMARK 923 INTER-LIGAND FREE ENERGY PREDICTED BY IDOCK:   -0.04 KCAL/MOL
REMARK 924 INTRA-LIGAND FREE ENERGY PREDICTED BY IDOCK:    7.41 KCAL/MOL
REMARK 927      BINDING AFFINITY PREDICTED BY RF-SCORE:    0.00 PKD
ROOT
HETATM    1 NA   UNL     1     -10.569  10.341  70.481  1.00  0.00    -0.229 Na 
HETATM    2 NA   UNL     2      -7.423   4.065  71.874  1.00  0.00    -0.046 Na 
HETATM    3 NA   UNL     3     -12.371   9.584  66.837  1.00  0.00     1.147 Na 
HETATM    4 NA   UNL     4     -10.286   4.341  68.790  1.00  0.00    -0.169 Na 
HETATM    5  C   UNL     5      -8.010   8.315  69.731  1.00  0.00    -0.106 C  
HETATM    6  C   UNL     5      -8.029   7.526  68.463  1.00  0.00    -0.123 A  
HETATM    7  C   UNL     5      -8.554   7.944  67.243  1.00  0.00    -0.128 A  
HETATM    8  C   UNL     5      -7.540   6.228  68.574  1.00  0.00    -0.092 A  
HETATM    9  C   UNL     5      -8.530   7.057  66.109  1.00  0.00    -0.136 A  
HETATM   10  C   UNL     5      -7.732   5.296  67.566  1.00  0.00    -0.096 A  
HETATM   11  C   UNL     5      -8.892   7.474  64.804  1.00  0.00     0.435 A  
HETATM   12  C   UNL     5      -8.137   5.704  66.287  1.00  0.00    -0.107 A  
HETATM   13  C   UNL     5      -8.836   6.603  63.711  1.00  0.00     0.845 A  
HETATM   14  C   UNL     5      -8.139   4.823  65.181  1.00  0.00    -0.106 A  
HETATM   15  C   UNL     5      -8.462   5.277  63.902  1.00  0.00    -0.100 A  
ENDROOT
BRANCH   7  16
HETATM   16  O   UNL     5      -9.021   9.206  67.022  1.00  0.00    -0.121 OA 
HETATM   17  O   UNL     5      -8.620  11.625  66.529  1.00  0.00    -0.179 OA 
HETATM   18  O   UNL     5      -7.026  10.065  65.647  1.00  0.00    -0.101 OA 
HETATM   19  P   UNL     5      -8.521  10.251  65.903  1.00  0.00    -0.162 P  
HETATM   20  O   UNL     5      -9.247  10.077  64.592  1.00  0.00    -0.218 OA 
ENDBRANCH   7  16
BRANCH  10  21
HETATM   21  O   UNL     5      -7.639   3.966  67.895  1.00  0.00    -0.066 OA 
HETATM   22  P   UNL     5      -8.057   2.771  66.856  1.00  0.00    -0.082 P  
HETATM   23  O   UNL     5      -7.785   3.269  65.427  1.00  0.00    -0.079 OA 
HETATM   24  O   UNL     5      -9.541   2.504  66.931  1.00  0.00     0.020 OA 
HETATM   25  O   UNL     5      -7.101   1.646  67.089  1.00  0.00    -0.038 OA 
ENDBRANCH  10  21
TORSDOF 2
ENDMDL
MODEL      170
REMARK 921   NORMALIZED FREE ENERGY PREDICTED BY IDOCK:    7.37 KCAL/MOL
REMARK 922        TOTAL FREE ENERGY PREDICTED BY IDOCK:    8.10 KCAL/MOL
REMARK 923 INTER-LIGAND FREE ENERGY PREDICTED BY IDOCK:    3.37 KCAL/MOL
REMARK 924 INTRA-LIGAND FREE ENERGY PREDICTED BY IDOCK:    4.73 KCAL/MOL
REMARK 927      BINDING AFFINITY PREDICTED BY RF-SCORE:    0.00 PKD
ROOT
HETATM    1 NA   UNL     1     -12.213   7.142  70.862  1.00  0.00    -0.282 Na 
HETATM    2 NA   UNL     2     -14.247  14.004  70.876  1.00  0.00    -0.288 Na 
HETATM    3 NA   UNL     3      -8.135   7.477  71.465  1.00  0.00    -0.089 Na 
HETATM    4 NA   UNL     4     -10.389  12.955  72.215  1.00  0.00     4.835 Na 
HETATM    5  C   UNL     5     -12.274  10.001  69.119  1.00  0.00     0.648 C  
HETATM    6  C   UNL     5     -11.035  10.824  68.991  1.00  0.00    -0.289 A  
HETATM    7  C   UNL     5      -9.733  10.339  68.881  1.00  0.00    -0.189 A  
HETATM    8  C   UNL     5     -11.234  12.199  69.074  1.00  0.00    -0.314 A  
HETATM    9  C   UNL     5      -8.629  11.260  68.797  1.00  0.00    -0.109 A  
HETATM   10  C   UNL     5     -10.170  13.074  69.236  1.00  0.00     0.408 A  
HETATM   11  C   UNL     5      -7.304  10.841  68.518  1.00  0.00    -0.096 A  
HETATM   12  C   UNL     5      -8.855  12.646  69.006  1.00  0.00     0.503 A  
HETATM   13  C   UNL     5      -6.250  11.754  68.414  1.00  0.00    -0.050 A  
HETATM   14  C   UNL     5      -7.769  13.549  68.952  1.00  0.00     0.030 A  
HETATM   15  C   UNL     5      -6.483  13.107  68.633  1.00  0.00    -0.087 A  
ENDROOT
BRANCH   7  16
HETATM   16  O   UNL     5      -9.437   9.015  68.756  1.00  0.00    -0.146 OA 
HETATM   17  O   UNL     5      -8.775   7.052  67.355  1.00  0.00    -0.120 OA 
HETATM   18  O   UNL     5      -7.971   9.200  66.651  1.00  0.00    -0.102 OA 
HETATM   19  P   UNL     5      -8.241   8.358  67.899  1.00  0.00    -0.128 P  
HETATM   20  O   UNL     5      -6.958   8.263  68.686  1.00  0.00    -0.065 OA 
ENDBRANCH   7  16
BRANCH  10  21
HETATM   21  O   UNL     5     -10.436  14.320  69.749  1.00  0.00     0.029 OA 
HETATM   22  P   UNL     5     -11.957  14.918  69.864  1.00  0.00    -0.349 P  
HETATM   23  O   UNL     5     -12.915  13.735  70.079  1.00  0.00    -0.017 OA 
HETATM   24  O   UNL     5     -12.369  15.559  68.561  1.00  0.00    -0.006 OA 
HETATM   25  O   UNL     5     -12.007  15.723  71.122  1.00  0.00    -0.355 OA 
ENDBRANCH  10  21
TORSDOF 2
ENDMDL
MODEL      171
REMARK 921   NORMALIZED FREE ENERGY PREDICTED BY IDOCK:    8.41 KCAL/MOL
REMARK 922        TOTAL FREE ENERGY PREDICTED BY IDOCK:    9.27 KCAL/MOL
REMARK 923 INTER-LIGAND FREE ENERGY PREDICTED BY IDOCK:    3.81 KCAL/MOL
REMARK 924 INTRA-LIGAND FREE ENERGY PREDICTED BY IDOCK:    5.45 KCAL/MOL
REMARK 927      BINDING AFFINITY PREDICTED BY RF-SCORE:    0.00 PKD
ROOT
HETATM    1 NA   UNL     1      -8.426  16.839  67.874  1.00  0.00    -0.175 Na 
HETATM    2 NA   UNL     2     -13.479  13.159  64.388  1.00  0.00    -0.628 Na 
HETATM    3 NA   UNL     3      -5.191  14.277  67.607  1.00  0.00    -0.096 Na 
HETATM    4 NA   UNL     4      -9.445  11.963  64.114  1.00  0.00    -0.227 Na 
HETATM    5  C   UNL     5     -10.560  14.263  68.029  1.00  0.00    -0.238 C  
HETATM    6  C   UNL     5     -10.055  12.865  67.876  1.00  0.00    -0.232 A  
HETATM    7  C   UNL     5      -8.834  12.377  68.337  1.00  0.00    -0.129 A  
HETATM    8  C   UNL     5     -10.875  12.024  67.130  1.00  0.00    -0.297 A  
HETATM    9  C   UNL     5      -8.469  11.007  68.087  1.00  0.00    -0.135 A  
HETATM   10  C   UNL     5     -10.428  10.791  66.681  1.00  0.00    -0.246 A  
HETATM   11  C   UNL     5      -7.325  10.403  68.666  1.00  0.00    -0.085 A  
HETATM   12  C   UNL     5      -9.269  10.215  67.221  1.00  0.00    -0.154 A  
HETATM   13  C   UNL     5      -7.001   9.062  68.431  1.00  0.00    -0.068 A  
HETATM   14  C   UNL     5      -8.897   8.878  66.951  1.00  0.00    -0.141 A  
HETATM   15  C   UNL     5      -7.788   8.302  67.571  1.00  0.00    -0.106 A  
ENDROOT
BRANCH   7  16
HETATM   16  O   UNL     5      -7.980  13.107  69.107  1.00  0.00     0.196 OA 
HETATM   17  O   UNL     5      -5.717  13.474  70.108  1.00  0.00    -0.118 OA 
HETATM   18  O   UNL     5      -5.792  12.344  67.993  1.00  0.00    -0.057 OA 
HETATM   19  P   UNL     5      -6.446  13.478  68.782  1.00  0.00    -0.114 P  
HETATM   20  O   UNL     5      -6.322  14.745  67.973  1.00  0.00    -0.126 OA 
ENDBRANCH   7  16
BRANCH  10  21
HETATM   21  O   UNL     5     -11.077  10.222  65.613  1.00  0.00     0.312 OA 
HETATM   22  P   UNL     5     -11.984  11.097  64.567  1.00  0.00     1.793 P  
HETATM   23  O   UNL     5     -11.384  12.510  64.486  1.00  0.00    -0.304 OA 
HETATM   24  O   UNL     5     -13.386  11.268  65.103  1.00  0.00     3.222 OA 
HETATM   25  O   UNL     5     -11.789  10.488  63.217  1.00  0.00     1.969 OA 
ENDBRANCH  10  21
TORSDOF 2
ENDMDL
MODEL      172
REMARK 921   NORMALIZED FREE ENERGY PREDICTED BY IDOCK:   10.13 KCAL/MOL
REMARK 922        TOTAL FREE ENERGY PREDICTED BY IDOCK:   11.18 KCAL/MOL
REMARK 923 INTER-LIGAND FREE ENERGY PREDICTED BY IDOCK:   -0.74 KCAL/MOL
REMARK 924 INTRA-LIGAND FREE ENERGY PREDICTED BY IDOCK:   11.93 KCAL/MOL
REMARK 927      BINDING AFFINITY PREDICTED BY RF-SCORE:    0.00 PKD
ROOT
HETATM    1 NA   UNL     1      -9.746  10.889  72.567  1.00  0.00     4.038 Na 
HETATM    2 NA   UNL     2     -11.000  17.110  69.257  1.00  0.00    -0.276 Na 
HETATM    3 NA   UNL     3      -7.323   8.957  69.828  1.00  0.00    -0.047 Na 
HETATM    4 NA   UNL     4      -7.966  14.549  67.836  1.00  0.00    -0.106 Na 
HETATM    5  C   UNL     5     -11.445  12.412  70.116  1.00  0.00    -0.018 C  
HETATM    6  C   UNL     5     -11.016  12.245  68.694  1.00  0.00    -0.276 A  
HETATM    7  C   UNL     5     -10.482  11.090  68.127  1.00  0.00    -0.189 A  
HETATM    8  C   UNL     5     -11.099  13.397  67.918  1.00  0.00    -0.289 A  
HETATM    9  C   UNL     5     -10.083  11.088  66.744  1.00  0.00    -0.260 A  
HETATM   10  C   UNL     5     -10.499  13.472  66.670  1.00  0.00    -0.274 A  
HETATM   11  C   UNL     5      -9.691   9.909  66.062  1.00  0.00    -0.310 A  
HETATM   12  C   UNL     5     -10.068  12.309  66.017  1.00  0.00    -0.269 A  
HETATM   13  C   UNL     5      -9.332   9.924  64.711  1.00  0.00    -0.339 A  
HETATM   14  C   UNL     5      -9.650  12.315  64.667  1.00  0.00     0.088 A  
HETATM   15  C   UNL     5      -9.309  11.129  64.015  1.00  0.00    -0.189 A  
ENDROOT
BRANCH   7  16
HETATM   16  O   UNL     5     -10.394   9.903  68.791  1.00  0.00    -0.186 OA 
HETATM   17  O   UNL     5     -10.123   7.417  68.786  1.00  0.00    -0.169 OA 
HETATM   18  O   UNL     5      -9.059   8.621  67.006  1.00  0.00    -0.132 OA 
HETATM   19  P   UNL     5      -9.367   8.695  68.501  1.00  0.00    -0.138 P  
HETATM   20  O   UNL     5      -8.063   8.863  69.241  1.00  0.00    -0.104 OA 
ENDBRANCH   7  16
BRANCH  10  21
HETATM   21  O   UNL     5     -10.228  14.718  66.162  1.00  0.00    -0.272 OA 
HETATM   22  P   UNL     5      -9.704  15.956  67.098  1.00  0.00    -0.232 P  
HETATM   23  O   UNL     5      -8.884  15.361  68.254  1.00  0.00    -0.169 OA 
HETATM   24  O   UNL     5     -10.875  16.664  67.736  1.00  0.00    -0.340 OA 
HETATM   25  O   UNL     5      -8.740  16.741  66.270  1.00  0.00    -0.284 OA 
ENDBRANCH  10  21
TORSDOF 2
ENDMDL
MODEL      173
REMARK 921   NORMALIZED FREE ENERGY PREDICTED BY IDOCK:   10.14 KCAL/MOL
REMARK 922        TOTAL FREE ENERGY PREDICTED BY IDOCK:   11.20 KCAL/MOL
REMARK 923 INTER-LIGAND FREE ENERGY PREDICTED BY IDOCK:    4.76 KCAL/MOL
REMARK 924 INTRA-LIGAND FREE ENERGY PREDICTED BY IDOCK:    6.44 KCAL/MOL
REMARK 927      BINDING AFFINITY PREDICTED BY RF-SCORE:    0.00 PKD
ROOT
HETATM    1 NA   UNL     1     -13.527  10.277  64.534  1.00  0.00     3.027 Na 
HETATM    2 NA   UNL     2     -10.088   4.372  66.664  1.00  0.00    -0.158 Na 
HETATM    3 NA   UNL     3     -10.382  12.721  63.421  1.00  0.00    -0.367 Na 
HETATM    4 NA   UNL     4      -8.015   7.350  64.515  1.00  0.00    -0.092 Na 
HETATM    5  C   UNL     5     -11.692   8.882  66.963  1.00  0.00     3.387 C  
HETATM    6  C   UNL     5     -10.251   9.246  67.114  1.00  0.00    -0.324 A  
HETATM    7  C   UNL     5      -9.693  10.502  66.888  1.00  0.00    -0.180 A  
HETATM    8  C   UNL     5      -9.409   8.184  67.432  1.00  0.00    -0.171 A  
HETATM    9  C   UNL     5      -8.274  10.696  67.044  1.00  0.00    -0.124 A  
HETATM   10  C   UNL     5      -8.030   8.306  67.347  1.00  0.00    -0.106 A  
HETATM   11  C   UNL     5      -7.667  11.975  66.994  1.00  0.00    -0.129 A  
HETATM   12  C   UNL     5      -7.432   9.571  67.249  1.00  0.00    -0.091 A  
HETATM   13  C   UNL     5      -6.290  12.144  67.173  1.00  0.00    -0.139 A  
HETATM   14  C   UNL     5      -6.036   9.754  67.374  1.00  0.00    -0.059 A  
HETATM   15  C   UNL     5      -5.476  11.032  67.361  1.00  0.00    -0.047 A  
ENDROOT
BRANCH   7  16
HETATM   16  O   UNL     5     -10.434  11.611  66.609  1.00  0.00    -0.218 OA 
HETATM   17  O   UNL     5     -12.643  12.712  66.204  1.00  0.00    -0.420 OA 
HETATM   18  O   UNL     5     -12.636  10.815  67.672  1.00  0.00     1.495 OA 
HETATM   19  P   UNL     5     -11.825  12.054  67.293  1.00  0.00     0.117 P  
HETATM   20  O   UNL     5     -11.614  12.876  68.539  1.00  0.00    -0.279 OA 
ENDBRANCH   7  16
BRANCH  10  21
HETATM   21  O   UNL     5      -7.290   7.155  67.233  1.00  0.00    -0.086 OA 
HETATM   22  P   UNL     5      -7.193   6.306  65.836  1.00  0.00    -0.078 P  
HETATM   23  O   UNL     5      -7.328   7.298  64.669  1.00  0.00    -0.068 OA 
HETATM   24  O   UNL     5      -8.361   5.357  65.716  1.00  0.00    -0.117 OA 
HETATM   25  O   UNL     5      -5.803   5.765  65.758  1.00  0.00    -0.019 OA 
ENDBRANCH  10  21
TORSDOF 2
ENDMDL
MODEL      174
REMARK 921   NORMALIZED FREE ENERGY PREDICTED BY IDOCK:   10.30 KCAL/MOL
REMARK 922        TOTAL FREE ENERGY PREDICTED BY IDOCK:   11.38 KCAL/MOL
REMARK 923 INTER-LIGAND FREE ENERGY PREDICTED BY IDOCK:    3.67 KCAL/MOL
REMARK 924 INTRA-LIGAND FREE ENERGY PREDICTED BY IDOCK:    7.71 KCAL/MOL
REMARK 927      BINDING AFFINITY PREDICTED BY RF-SCORE:    0.00 PKD
ROOT
HETATM    1 NA   UNL     1     -13.906  14.559  68.588  1.00  0.00     1.081 Na 
HETATM    2 NA   UNL     2     -10.240   8.560  69.930  1.00  0.00    -0.179 Na 
HETATM    3 NA   UNL     3     -11.662  16.251  65.554  1.00  0.00    -0.099 Na 
HETATM    4 NA   UNL     4      -9.415  10.791  66.449  1.00  0.00    -0.155 Na 
HETATM    5  C   UNL     5     -11.164  13.266  70.009  1.00  0.00     0.148 C  
HETATM    6  C   UNL     5      -9.838  13.404  69.336  1.00  0.00     0.717 A  
HETATM    7  C   UNL     5      -9.402  14.502  68.596  1.00  0.00    -0.199 A  
HETATM    8  C   UNL     5      -9.022  12.280  69.411  1.00  0.00     1.172 A  
HETATM    9  C   UNL     5      -8.103  14.479  67.976  1.00  0.00    -0.139 A  
HETATM   10  C   UNL     5      -7.887  12.157  68.624  1.00  0.00    -0.078 A  
HETATM   11  C   UNL     5      -7.533  15.617  67.353  1.00  0.00    -0.235 A  
HETATM   12  C   UNL     5      -7.350  13.275  67.970  1.00  0.00    -0.127 A  
HETATM   13  C   UNL     5      -6.258  15.582  66.779  1.00  0.00     0.964 A  
HETATM   14  C   UNL     5      -6.087  13.241  67.337  1.00  0.00     0.014 A  
HETATM   15  C   UNL     5      -5.537  14.392  66.770  1.00  0.00     2.202 A  
ENDROOT
BRANCH   7  16
HETATM   16  O   UNL     5     -10.109  15.662  68.494  1.00  0.00    -0.206 OA 
HETATM   17  O   UNL     5     -10.527  18.030  69.184  1.00  0.00    -0.241 OA 
HETATM   18  O   UNL     5      -8.262  17.252  69.315  1.00  0.00    -0.059 OA 
HETATM   19  P   UNL     5      -9.523  17.163  68.456  1.00  0.00    -0.287 P  
HETATM   20  O   UNL     5      -9.171  17.605  67.057  1.00  0.00    -0.239 OA 
ENDBRANCH   7  16
BRANCH  10  21
HETATM   21  O   UNL     5      -7.390  10.895  68.407  1.00  0.00    -0.085 OA 
HETATM   22  P   UNL     5      -6.814  10.415  66.951  1.00  0.00    -0.099 P  
HETATM   23  O   UNL     5      -6.225  11.647  66.245  1.00  0.00    -0.047 OA 
HETATM   24  O   UNL     5      -7.943   9.930  66.074  1.00  0.00    -0.109 OA 
HETATM   25  O   UNL     5      -5.660   9.505  67.225  1.00  0.00    -0.040 OA 
ENDBRANCH  10  21
TORSDOF 2
ENDMDL
MODEL      175
REMARK 921   NORMALIZED FREE ENERGY PREDICTED BY IDOCK:   11.75 KCAL/MOL
REMARK 922        TOTAL FREE ENERGY PREDICTED BY IDOCK:   13.00 KCAL/MOL
REMARK 923 INTER-LIGAND FREE ENERGY PREDICTED BY IDOCK:   10.16 KCAL/MOL
REMARK 924 INTRA-LIGAND FREE ENERGY PREDICTED BY IDOCK:    2.84 KCAL/MOL
REMARK 927      BINDING AFFINITY PREDICTED BY RF-SCORE:    0.00 PKD
ROOT
HETATM    1 NA   UNL     1      -8.210  15.794  73.194  1.00  0.00     6.209 Na 
HETATM    2 NA   UNL     2     -13.590  14.161  68.765  1.00  0.00     0.189 Na 
HETATM    3 NA   UNL     3      -6.755  19.273  71.496  1.00  0.00     0.157 Na 
HETATM    4 NA   UNL     4     -11.800  17.974  68.578  1.00  0.00     0.100 Na 
HETATM    5  C   UNL     5      -9.028  14.569  70.187  1.00  0.00     1.220 C  
HETATM    6  C   UNL     5      -8.860  15.413  68.965  1.00  0.00    -0.231 A  
HETATM    7  C   UNL     5      -7.841  16.335  68.737  1.00  0.00    -0.216 A  
HETATM    8  C   UNL     5      -9.882  15.296  68.028  1.00  0.00    -0.216 A  
HETATM    9  C   UNL     5      -7.828  17.103  67.519  1.00  0.00    -0.190 A  
HETATM   10  C   UNL     5     -10.006  16.196  66.980  1.00  0.00    -0.258 A  
HETATM   11  C   UNL     5      -6.739  17.931  67.150  1.00  0.00    -0.200 A  
HETATM   12  C   UNL     5      -8.945  17.048  66.644  1.00  0.00    -0.280 A  
HETATM   13  C   UNL     5      -6.734  18.650  65.949  1.00  0.00    -0.302 A  
HETATM   14  C   UNL     5      -8.947  17.823  65.462  1.00  0.00     0.954 A  
HETATM   15  C   UNL     5      -7.840  18.596  65.108  1.00  0.00     1.522 A  
ENDROOT
BRANCH   7  16
HETATM   16  O   UNL     5      -6.778  16.497  69.574  1.00  0.00    -0.220 OA 
HETATM   17  O   UNL     5      -5.704  16.215  71.816  1.00  0.00     0.531 OA 
HETATM   18  O   UNL     5      -7.317  14.559  71.176  1.00  0.00     1.179 OA 
HETATM   19  P   UNL     5      -6.185  15.423  70.620  1.00  0.00     0.383 P  
HETATM   20  O   UNL     5      -5.165  14.510  69.987  1.00  0.00    -0.093 OA 
ENDBRANCH   7  16
BRANCH  10  21
HETATM   21  O   UNL     5     -11.233  16.310  66.374  1.00  0.00     0.039 OA 
HETATM   22  P   UNL     5     -11.685  15.363  65.117  1.00  0.00     0.143 P  
HETATM   23  O   UNL     5     -10.986  14.003  65.272  1.00  0.00    -0.307 OA 
HETATM   24  O   UNL     5     -11.185  15.943  63.815  1.00  0.00    -0.236 OA 
HETATM   25  O   UNL     5     -13.146  15.097  65.283  1.00  0.00     0.285 OA 
ENDBRANCH  10  21
TORSDOF 2
ENDMDL
MODEL      176
REMARK 921   NORMALIZED FREE ENERGY PREDICTED BY IDOCK:   12.09 KCAL/MOL
REMARK 922        TOTAL FREE ENERGY PREDICTED BY IDOCK:   13.37 KCAL/MOL
REMARK 923 INTER-LIGAND FREE ENERGY PREDICTED BY IDOCK:    8.06 KCAL/MOL
REMARK 924 INTRA-LIGAND FREE ENERGY PREDICTED BY IDOCK:    5.32 KCAL/MOL
REMARK 927      BINDING AFFINITY PREDICTED BY RF-SCORE:    0.00 PKD
ROOT
HETATM    1 NA   UNL     1      -6.681  14.015  72.848  1.00  0.00    -0.065 Na 
HETATM    2 NA   UNL     2      -5.936   9.709  67.180  1.00  0.00    -0.046 Na 
HETATM    3 NA   UNL     3     -10.762  14.683  72.862  1.00  0.00    -0.247 Na 
HETATM    4 NA   UNL     4      -9.774  10.462  68.755  1.00  0.00    -0.140 Na 
HETATM    5  C   UNL     5      -6.635  13.846  69.504  1.00  0.00    -0.097 C  
HETATM    6  C   UNL     5      -7.915  13.910  68.735  1.00  0.00    -0.059 A  
HETATM    7  C   UNL     5      -9.033  14.673  69.063  1.00  0.00    -0.093 A  
HETATM    8  C   UNL     5      -7.985  13.052  67.642  1.00  0.00    -0.169 A  
HETATM    9  C   UNL     5     -10.212  14.609  68.240  1.00  0.00    -0.227 A  
HETATM   10  C   UNL     5      -9.186  12.804  66.995  1.00  0.00    -0.221 A  
HETATM   11  C   UNL     5     -11.318  15.477  68.418  1.00  0.00    -0.357 A  
HETATM   12  C   UNL     5     -10.294  13.637  67.208  1.00  0.00    -0.249 A  
HETATM   13  C   UNL     5     -12.444  15.416  67.591  1.00  0.00     1.067 A  
HETATM   14  C   UNL     5     -11.462  13.552  66.416  1.00  0.00    -0.356 A  
HETATM   15  C   UNL     5     -12.515  14.450  66.592  1.00  0.00    -0.097 A  
ENDROOT
BRANCH   7  16
HETATM   16  O   UNL     5      -9.051  15.570  70.089  1.00  0.00     0.056 OA 
HETATM   17  O   UNL     5      -7.997  17.442  71.369  1.00  0.00     7.202 OA 
HETATM   18  O   UNL     5      -7.509  17.330  69.023  1.00  0.00    -0.248 OA 
HETATM   19  P   UNL     5      -8.637  17.126  70.035  1.00  0.00     2.778 P  
HETATM   20  O   UNL     5      -9.790  18.013  69.637  1.00  0.00     0.148 OA 
ENDBRANCH   7  16
BRANCH  10  21
HETATM   21  O   UNL     5      -9.288  11.656  66.249  1.00  0.00    -0.206 OA 
HETATM   22  P   UNL     5     -10.595  11.323  65.320  1.00  0.00    -0.195 P  
HETATM   23  O   UNL     5     -11.181  12.658  64.831  1.00  0.00    -0.283 OA 
HETATM   24  O   UNL     5     -11.676  10.671  66.149  1.00  0.00     0.495 OA 
HETATM   25  O   UNL     5     -10.089  10.624  64.100  1.00  0.00    -0.333 OA 
ENDBRANCH  10  21
TORSDOF 2
ENDMDL
MODEL      177
REMARK 921   NORMALIZED FREE ENERGY PREDICTED BY IDOCK:   12.13 KCAL/MOL
REMARK 922        TOTAL FREE ENERGY PREDICTED BY IDOCK:   13.43 KCAL/MOL
REMARK 923 INTER-LIGAND FREE ENERGY PREDICTED BY IDOCK:    6.72 KCAL/MOL
REMARK 924 INTRA-LIGAND FREE ENERGY PREDICTED BY IDOCK:    6.71 KCAL/MOL
REMARK 927      BINDING AFFINITY PREDICTED BY RF-SCORE:    0.00 PKD
ROOT
HETATM    1 NA   UNL     1      -9.415  19.587  70.759  1.00  0.00     0.404 Na 
HETATM    2 NA   UNL     2      -8.258  12.548  70.175  1.00  0.00     0.425 Na 
HETATM    3 NA   UNL     3     -12.692  20.105  68.289  1.00  0.00     0.915 Na 
HETATM    4 NA   UNL     4     -11.862  14.210  68.749  1.00  0.00    -0.236 Na 
HETATM    5  C   UNL     5      -8.222  17.144  68.804  1.00  0.00    -0.238 C  
HETATM    6  C   UNL     5      -9.020  16.666  67.635  1.00  0.00    -0.206 A  
HETATM    7  C   UNL     5      -9.828  17.451  66.815  1.00  0.00    -0.296 A  
HETATM    8  C   UNL     5      -8.991  15.290  67.430  1.00  0.00    -0.194 A  
HETATM    9  C   UNL     5     -10.566  16.840  65.740  1.00  0.00    -0.259 A  
HETATM   10  C   UNL     5      -9.877  14.670  66.562  1.00  0.00    -0.275 A  
HETATM   11  C   UNL     5     -11.271  17.597  64.770  1.00  0.00     1.368 A  
HETATM   12  C   UNL     5     -10.610  15.425  65.634  1.00  0.00    -0.379 A  
HETATM   13  C   UNL     5     -11.961  16.986  63.718  1.00  0.00     3.983 A  
HETATM   14  C   UNL     5     -11.357  14.822  64.597  1.00  0.00    -0.370 A  
HETATM   15  C   UNL     5     -12.005  15.598  63.635  1.00  0.00     0.811 A  
ENDROOT
BRANCH   7  16
HETATM   16  O   UNL     5      -9.895  18.808  66.910  1.00  0.00    -0.306 OA 
HETATM   17  O   UNL     5     -11.050  20.884  67.693  1.00  0.00     1.436 OA 
HETATM   18  O   UNL     5     -11.328  18.921  69.043  1.00  0.00     1.847 OA 
HETATM   19  P   UNL     5     -10.296  19.678  68.207  1.00  0.00    -0.218 P  
HETATM   20  O   UNL     5      -9.107  19.976  69.086  1.00  0.00    -0.022 OA 
ENDBRANCH   7  16
BRANCH  10  21
HETATM   21  O   UNL     5     -10.105  13.327  66.729  1.00  0.00    -0.248 OA 
HETATM   22  P   UNL     5     -11.607  12.676  66.677  1.00  0.00    -0.380 P  
HETATM   23  O   UNL     5     -12.459  13.526  65.721  1.00  0.00    -0.457 OA 
HETATM   24  O   UNL     5     -12.270  12.776  68.030  1.00  0.00    -0.215 OA 
HETATM   25  O   UNL     5     -11.473  11.336  66.028  1.00  0.00    -0.177 OA 
ENDBRANCH  10  21
TORSDOF 2
ENDMDL
MODEL      178
REMARK 921   NORMALIZED FREE ENERGY PREDICTED BY IDOCK:   12.55 KCAL/MOL
REMARK 922        TOTAL FREE ENERGY PREDICTED BY IDOCK:   13.89 KCAL/MOL
REMARK 923 INTER-LIGAND FREE ENERGY PREDICTED BY IDOCK:    6.75 KCAL/MOL
REMARK 924 INTRA-LIGAND FREE ENERGY PREDICTED BY IDOCK:    7.14 KCAL/MOL
REMARK 927      BINDING AFFINITY PREDICTED BY RF-SCORE:    0.00 PKD
ROOT
HETATM    1 NA   UNL     1     -13.349  11.816  70.570  1.00  0.00    -0.146 Na 
HETATM    2 NA   UNL     2     -12.637  12.169  63.456  1.00  0.00    -0.376 Na 
HETATM    3 NA   UNL     3     -11.883  15.501  71.742  1.00  0.00    -0.261 Na 
HETATM    4 NA   UNL     4     -12.237  15.663  65.783  1.00  0.00    -0.006 Na 
HETATM    5  C   UNL     5     -11.199  11.683  68.006  1.00  0.00    -0.327 C  
HETATM    6  C   UNL     5     -10.313  12.849  67.713  1.00  0.00    -0.223 A  
HETATM    7  C   UNL     5      -9.732  13.697  68.654  1.00  0.00    -0.116 A  
HETATM    8  C   UNL     5     -10.141  13.129  66.360  1.00  0.00    -0.281 A  
HETATM    9  C   UNL     5      -8.922  14.805  68.218  1.00  0.00    -0.181 A  
HETATM   10  C   UNL     5      -9.571  14.320  65.937  1.00  0.00    -0.196 A  
HETATM   11  C   UNL     5      -8.170  15.602  69.116  1.00  0.00    -0.248 A  
HETATM   12  C   UNL     5      -8.868  15.133  66.837  1.00  0.00    -0.284 A  
HETATM   13  C   UNL     5      -7.369  16.658  68.670  1.00  0.00    -0.203 A  
HETATM   14  C   UNL     5      -8.096  16.237  66.409  1.00  0.00    -0.334 A  
HETATM   15  C   UNL     5      -7.335  16.975  67.316  1.00  0.00    -0.190 A  
ENDROOT
BRANCH   7  16
HETATM   16  O   UNL     5      -9.809  13.487  69.998  1.00  0.00     1.522 OA 
HETATM   17  O   UNL     5     -11.063  13.621  72.157  1.00  0.00     3.081 OA 
HETATM   18  O   UNL     5     -12.371  13.342  70.166  1.00  0.00    -0.301 OA 
HETATM   19  P   UNL     5     -11.063  12.904  70.825  1.00  0.00     3.163 P  
HETATM   20  O   UNL     5     -11.054  11.397  70.894  1.00  0.00     0.818 OA 
ENDBRANCH   7  16
BRANCH  10  21
HETATM   21  O   UNL     5      -9.828  14.733  64.653  1.00  0.00    -0.065 OA 
HETATM   22  P   UNL     5     -11.310  15.236  64.169  1.00  0.00     0.532 P  
HETATM   23  O   UNL     5     -12.010  15.877  65.378  1.00  0.00     0.463 OA 
HETATM   24  O   UNL     5     -12.161  14.054  63.771  1.00  0.00    -0.571 OA 
HETATM   25  O   UNL     5     -11.089  16.339  63.186  1.00  0.00     1.482 OA 
ENDBRANCH  10  21
TORSDOF 2
ENDMDL
MODEL      179
REMARK 921   NORMALIZED FREE ENERGY PREDICTED BY IDOCK:   12.65 KCAL/MOL
REMARK 922        TOTAL FREE ENERGY PREDICTED BY IDOCK:   14.00 KCAL/MOL
REMARK 923 INTER-LIGAND FREE ENERGY PREDICTED BY IDOCK:    9.35 KCAL/MOL
REMARK 924 INTRA-LIGAND FREE ENERGY PREDICTED BY IDOCK:    4.65 KCAL/MOL
REMARK 927      BINDING AFFINITY PREDICTED BY RF-SCORE:    0.00 PKD
ROOT
HETATM    1 NA   UNL     1      -7.340  13.939  65.090  1.00  0.00     3.604 Na 
HETATM    2 NA   UNL     2     -13.470  12.340  68.421  1.00  0.00     1.476 Na 
HETATM    3 NA   UNL     3      -5.399  16.206  67.953  1.00  0.00    -0.080 Na 
HETATM    4 NA   UNL     4     -10.251  13.959  70.610  1.00  0.00    -0.054 Na 
HETATM    5  C   UNL     5     -10.324  15.097  66.076  1.00  0.00    -0.326 C  
HETATM    6  C   UNL     5     -10.421  15.993  67.267  1.00  0.00    -0.308 A  
HETATM    7  C   UNL     5      -9.493  16.961  67.645  1.00  0.00    -0.241 A  
HETATM    8  C   UNL     5     -11.514  15.753  68.094  1.00  0.00    -0.302 A  
HETATM    9  C   UNL     5      -9.707  17.732  68.842  1.00  0.00    -0.262 A  
HETATM   10  C   UNL     5     -11.600  16.314  69.359  1.00  0.00    -0.178 A  
HETATM   11  C   UNL     5      -8.895  18.838  69.195  1.00  0.00    -0.020 A  
HETATM   12  C   UNL     5     -10.764  17.379  69.723  1.00  0.00     0.430 A  
HETATM   13  C   UNL     5      -9.135  19.590  70.349  1.00  0.00     1.528 A  
HETATM   14  C   UNL     5     -10.959  18.116  70.913  1.00  0.00     2.769 A  
HETATM   15  C   UNL     5     -10.166  19.226  71.209  1.00  0.00     2.646 A  
ENDROOT
BRANCH   7  16
HETATM   16  O   UNL     5      -8.412  17.297  66.887  1.00  0.00    -0.207 OA 
HETATM   17  O   UNL     5      -7.395  18.530  64.963  1.00  0.00    -0.039 OA 
HETATM   18  O   UNL     5      -9.308  19.539  66.001  1.00  0.00    -0.374 OA 
HETATM   19  P   UNL     5      -8.033  18.756  66.316  1.00  0.00    -0.175 P  
HETATM   20  O   UNL     5      -7.218  19.561  67.297  1.00  0.00    -0.211 OA 
ENDBRANCH   7  16
BRANCH  10  21
HETATM   21  O   UNL     5     -12.431  15.714  70.272  1.00  0.00    -0.410 OA 
HETATM   22  P   UNL     5     -11.936  14.492  71.243  1.00  0.00    -0.199 P  
HETATM   23  O   UNL     5     -10.437  14.688  71.523  1.00  0.00     0.986 OA 
HETATM   24  O   UNL     5     -12.059  13.169  70.526  1.00  0.00    -0.357 OA 
HETATM   25  O   UNL     5     -12.628  14.678  72.554  1.00  0.00    -0.341 OA 
ENDBRANCH  10  21
TORSDOF 2
ENDMDL
MODEL      180
REMARK 921   NORMALIZED FREE ENERGY PREDICTED BY IDOCK:   13.82 KCAL/MOL
REMARK 922        TOTAL FREE ENERGY PREDICTED BY IDOCK:   15.31 KCAL/MOL
REMARK 923 INTER-LIGAND FREE ENERGY PREDICTED BY IDOCK:   13.03 KCAL/MOL
REMARK 924 INTRA-LIGAND FREE ENERGY PREDICTED BY IDOCK:    2.28 KCAL/MOL
REMARK 927      BINDING AFFINITY PREDICTED BY RF-SCORE:    0.00 PKD
ROOT
HETATM    1 NA   UNL     1      -6.676  11.730  65.371  1.00  0.00    -0.336 Na 
HETATM    2 NA   UNL     2     -11.256   9.482  70.390  1.00  0.00    -0.204 Na 
HETATM    3 NA   UNL     3      -5.384  15.322  66.964  1.00  0.00    -0.049 Na 
HETATM    4 NA   UNL     4      -8.636  12.680  71.219  1.00  0.00     5.766 Na 
HETATM    5  C   UNL     5      -9.721  12.138  66.704  1.00  0.00    -0.228 C  
HETATM    6  C   UNL     5      -9.995  13.302  67.598  1.00  0.00    -0.229 A  
HETATM    7  C   UNL     5      -9.462  14.583  67.467  1.00  0.00    -0.203 A  
HETATM    8  C   UNL     5     -10.799  13.019  68.699  1.00  0.00    -0.287 A  
HETATM    9  C   UNL     5      -9.794  15.601  68.430  1.00  0.00    -0.206 A  
HETATM   10  C   UNL     5     -10.926  13.915  69.749  1.00  0.00     0.074 A  
HETATM   11  C   UNL     5      -9.424  16.958  68.266  1.00  0.00    -0.250 A  
HETATM   12  C   UNL     5     -10.515  15.248  69.602  1.00  0.00    -0.279 A  
HETATM   13  C   UNL     5      -9.779  17.937  69.200  1.00  0.00    -0.102 A  
HETATM   14  C   UNL     5     -10.819  16.239  70.562  1.00  0.00    -0.137 A  
HETATM   15  C   UNL     5     -10.475  17.575  70.349  1.00  0.00     1.185 A  
ENDROOT
BRANCH   7  16
HETATM   16  O   UNL     5      -8.696  14.969  66.408  1.00  0.00    -0.256 OA 
HETATM   17  O   UNL     5      -8.469  15.620  64.004  1.00  0.00     8.279 OA 
HETATM   18  O   UNL     5     -10.546  16.158  65.076  1.00  0.00    -0.588 OA 
HETATM   19  P   UNL     5      -9.038  16.106  65.318  1.00  0.00     2.152 P  
HETATM   20  O   UNL     5      -8.587  17.476  65.760  1.00  0.00    -0.521 OA 
ENDBRANCH   7  16
BRANCH  10  21
HETATM   21  O   UNL     5     -11.342  13.426  70.963  1.00  0.00     0.770 OA 
HETATM   22  P   UNL     5     -12.625  14.047  71.769  1.00  0.00    -0.186 P  
HETATM   23  O   UNL     5     -13.624  14.581  70.729  1.00  0.00    -0.253 OA 
HETATM   24  O   UNL     5     -12.202  15.239  72.593  1.00  0.00    -0.348 OA 
HETATM   25  O   UNL     5     -13.305  12.899  72.442  1.00  0.00    -0.528 OA 
ENDBRANCH  10  21
TORSDOF 2
ENDMDL
MODEL      181
REMARK 921   NORMALIZED FREE ENERGY PREDICTED BY IDOCK:   14.41 KCAL/MOL
REMARK 922        TOTAL FREE ENERGY PREDICTED BY IDOCK:   15.97 KCAL/MOL
REMARK 923 INTER-LIGAND FREE ENERGY PREDICTED BY IDOCK:    5.52 KCAL/MOL
REMARK 924 INTRA-LIGAND FREE ENERGY PREDICTED BY IDOCK:   10.44 KCAL/MOL
REMARK 927      BINDING AFFINITY PREDICTED BY RF-SCORE:    0.00 PKD
ROOT
HETATM    1 NA   UNL     1      -8.965   6.602  63.301  1.00  0.00    -0.344 Na 
HETATM    2 NA   UNL     2      -7.088  13.506  63.484  1.00  0.00     7.661 Na 
HETATM    3 NA   UNL     3      -9.884   5.878  67.267  1.00  0.00    -0.120 Na 
HETATM    4 NA   UNL     4      -9.033  11.770  66.798  1.00  0.00    -0.154 Na 
HETATM    5  C   UNL     5      -6.579   8.786  64.165  1.00  0.00    -0.075 C  
HETATM    6  C   UNL     5      -6.381   9.147  65.601  1.00  0.00    -0.067 A  
HETATM    7  C   UNL     5      -6.528   8.292  66.691  1.00  0.00    -0.056 A  
HETATM    8  C   UNL     5      -6.103  10.490  65.834  1.00  0.00    -0.128 A  
HETATM    9  C   UNL     5      -6.334   8.793  68.027  1.00  0.00    -0.056 A  
HETATM   10  C   UNL     5      -6.155  11.027  67.112  1.00  0.00    -0.074 A  
HETATM   11  C   UNL     5      -6.305   7.947  69.164  1.00  0.00    -0.036 A  
HETATM   12  C   UNL     5      -6.173  10.188  68.236  1.00  0.00    -0.049 A  
HETATM   13  C   UNL     5      -6.089   8.451  70.451  1.00  0.00    -0.031 A  
HETATM   14  C   UNL     5      -6.011  10.686  69.548  1.00  0.00    -0.048 A  
HETATM   15  C   UNL     5      -5.945   9.821  70.642  1.00  0.00    -0.078 A  
ENDROOT
BRANCH   7  16
HETATM   16  O   UNL     5      -6.762   6.955  66.567  1.00  0.00    -0.050 OA 
HETATM   17  O   UNL     5      -6.362   4.595  67.290  1.00  0.00    -0.038 OA 
HETATM   18  O   UNL     5      -6.172   6.288  68.979  1.00  0.00    -0.030 OA 
HETATM   19  P   UNL     5      -6.993   5.889  67.753  1.00  0.00    -0.072 P  
HETATM   20  O   UNL     5      -8.441   5.799  68.167  1.00  0.00    -0.109 OA 
ENDBRANCH   7  16
BRANCH  10  21
HETATM   21  O   UNL     5      -6.316  12.385  67.232  1.00  0.00    -0.149 OA 
HETATM   22  P   UNL     5      -7.577  13.054  68.033  1.00  0.00    -0.173 P  
HETATM   23  O   UNL     5      -7.988  12.091  69.159  1.00  0.00     0.097 OA 
HETATM   24  O   UNL     5      -8.776  13.170  67.123  1.00  0.00    -0.205 OA 
HETATM   25  O   UNL     5      -7.054  14.280  68.710  1.00  0.00    -0.094 OA 
ENDBRANCH  10  21
TORSDOF 2
ENDMDL
MODEL      182
REMARK 921   NORMALIZED FREE ENERGY PREDICTED BY IDOCK:   14.48 KCAL/MOL
REMARK 922        TOTAL FREE ENERGY PREDICTED BY IDOCK:   16.05 KCAL/MOL
REMARK 923 INTER-LIGAND FREE ENERGY PREDICTED BY IDOCK:    6.91 KCAL/MOL
REMARK 924 INTRA-LIGAND FREE ENERGY PREDICTED BY IDOCK:    9.14 KCAL/MOL
REMARK 927      BINDING AFFINITY PREDICTED BY RF-SCORE:    0.00 PKD
ROOT
HETATM    1 NA   UNL     1     -12.025  10.633  65.727  1.00  0.00     0.308 Na 
HETATM    2 NA   UNL     2      -9.305  11.719  72.257  1.00  0.00     8.893 Na 
HETATM    3 NA   UNL     3      -9.280  12.598  63.339  1.00  0.00    -0.528 Na 
HETATM    4 NA   UNL     4      -6.971  12.549  68.845  1.00  0.00    -0.068 Na 
HETATM    5  C   UNL     5     -11.591  12.852  68.196  1.00  0.00    -0.378 C  
HETATM    6  C   UNL     5     -10.556  13.922  68.066  1.00  0.00    -0.252 A  
HETATM    7  C   UNL     5     -10.201  14.583  66.893  1.00  0.00    -0.264 A  
HETATM    8  C   UNL     5      -9.848  14.197  69.233  1.00  0.00     0.163 A  
HETATM    9  C   UNL     5      -9.157  15.575  66.916  1.00  0.00    -0.264 A  
HETATM   10  C   UNL     5      -8.693  14.964  69.212  1.00  0.00    -0.097 A  
HETATM   11  C   UNL     5      -8.860  16.399  65.802  1.00  0.00     0.012 A  
HETATM   12  C   UNL     5      -8.376  15.743  68.090  1.00  0.00    -0.160 A  
HETATM   13  C   UNL     5      -7.859  17.375  65.853  1.00  0.00    -0.077 A  
HETATM   14  C   UNL     5      -7.332  16.696  68.107  1.00  0.00    -0.172 A  
HETATM   15  C   UNL     5      -7.095  17.520  67.006  1.00  0.00    -0.210 A  
ENDROOT
BRANCH   7  16
HETATM   16  O   UNL     5     -10.856  14.412  65.710  1.00  0.00    -0.292 OA 
HETATM   17  O   UNL     5     -10.903  13.623  63.337  1.00  0.00     0.507 OA 
HETATM   18  O   UNL     5      -9.466  12.431  64.842  1.00  0.00     0.037 OA 
HETATM   19  P   UNL     5     -10.832  13.112  64.759  1.00  0.00    -0.396 P  
HETATM   20  O   UNL     5     -11.884  12.101  65.143  1.00  0.00    -0.358 OA 
ENDBRANCH   7  16
BRANCH  10  21
HETATM   21  O   UNL     5      -7.818  14.834  70.262  1.00  0.00     0.323 OA 
HETATM   22  P   UNL     5      -6.262  15.338  70.179  1.00  0.00    -0.040 P  
HETATM   23  O   UNL     5      -6.205  16.542  69.225  1.00  0.00    -0.158 OA 
HETATM   24  O   UNL     5      -5.397  14.269  69.555  1.00  0.00    -0.090 OA 
HETATM   25  O   UNL     5      -5.909  15.866  71.531  1.00  0.00     0.467 OA 
ENDBRANCH  10  21
TORSDOF 2
ENDMDL
MODEL      183
REMARK 921   NORMALIZED FREE ENERGY PREDICTED BY IDOCK:   15.13 KCAL/MOL
REMARK 922        TOTAL FREE ENERGY PREDICTED BY IDOCK:   16.77 KCAL/MOL
REMARK 923 INTER-LIGAND FREE ENERGY PREDICTED BY IDOCK:   15.90 KCAL/MOL
REMARK 924 INTRA-LIGAND FREE ENERGY PREDICTED BY IDOCK:    0.87 KCAL/MOL
REMARK 927      BINDING AFFINITY PREDICTED BY RF-SCORE:    0.00 PKD
ROOT
HETATM    1 NA   UNL     1      -5.532   5.806  64.045  1.00  0.00    -0.013 Na 
HETATM    2 NA   UNL     2      -5.156   8.113  70.810  1.00  0.00    -0.022 Na 
HETATM    3 NA   UNL     3      -9.284   7.129  62.917  1.00  0.00    -0.332 Na 
HETATM    4 NA   UNL     4      -8.201   9.544  68.269  1.00  0.00    -0.101 Na 
HETATM    5  C   UNL     5      -6.564   5.300  67.190  1.00  0.00    -0.053 C  
HETATM    6  C   UNL     5      -7.947   5.694  67.595  1.00  0.00    -0.101 A  
HETATM    7  C   UNL     5      -9.090   5.615  66.801  1.00  0.00    -0.120 A  
HETATM    8  C   UNL     5      -8.047   6.262  68.861  1.00  0.00    -0.110 A  
HETATM    9  C   UNL     5     -10.356   6.064  67.320  1.00  0.00    -0.275 A  
HETATM   10  C   UNL     5      -9.201   6.912  69.272  1.00  0.00    -0.139 A  
HETATM   11  C   UNL     5     -11.579   5.860  66.634  1.00  0.00     0.939 A  
HETATM   12  C   UNL     5     -10.401   6.748  68.564  1.00  0.00    -0.210 A  
HETATM   13  C   UNL     5     -12.801   6.281  67.166  1.00  0.00     9.623 A  
HETATM   14  C   UNL     5     -11.638   7.214  69.062  1.00  0.00     0.386 A  
HETATM   15  C   UNL     5     -12.829   6.960  68.380  1.00  0.00     7.464 A  
ENDROOT
BRANCH   7  16
HETATM   16  O   UNL     5      -9.103   5.042  65.565  1.00  0.00    -0.154 OA 
HETATM   17  O   UNL     5      -8.869   3.039  64.087  1.00  0.00    -0.096 OA 
HETATM   18  O   UNL     5      -9.677   2.650  66.311  1.00  0.00     0.157 OA 
HETATM   19  P   UNL     5      -9.768   3.635  65.146  1.00  0.00    -0.081 P  
HETATM   20  O   UNL     5     -11.221   3.779  64.766  1.00  0.00    -0.091 OA 
ENDBRANCH   7  16
BRANCH  10  21
HETATM   21  O   UNL     5      -9.099   7.811  70.304  1.00  0.00    -0.151 OA 
HETATM   22  P   UNL     5      -8.126   7.560  71.597  1.00  0.00    -0.107 P  
HETATM   23  O   UNL     5      -6.920   6.730  71.128  1.00  0.00    -0.067 OA 
HETATM   24  O   UNL     5      -8.834   6.720  72.632  1.00  0.00    -0.123 OA 
HETATM   25  O   UNL     5      -7.579   8.894  71.989  1.00  0.00    -0.325 OA 
ENDBRANCH  10  21
TORSDOF 2
ENDMDL
MODEL      184
REMARK 921   NORMALIZED FREE ENERGY PREDICTED BY IDOCK:   16.84 KCAL/MOL
REMARK 922        TOTAL FREE ENERGY PREDICTED BY IDOCK:   18.68 KCAL/MOL
REMARK 923 INTER-LIGAND FREE ENERGY PREDICTED BY IDOCK:   11.35 KCAL/MOL
REMARK 924 INTRA-LIGAND FREE ENERGY PREDICTED BY IDOCK:    7.33 KCAL/MOL
REMARK 927      BINDING AFFINITY PREDICTED BY RF-SCORE:    0.00 PKD
ROOT
HETATM    1 NA   UNL     1     -10.682  11.054  62.558  1.00  0.00    -0.518 Na 
HETATM    2 NA   UNL     2     -12.155   7.041  68.299  1.00  0.00    -0.381 Na 
HETATM    3 NA   UNL     3      -8.434  14.101  64.221  1.00  0.00     1.831 Na 
HETATM    4 NA   UNL     4      -9.213  10.052  68.540  1.00  0.00    -0.124 Na 
HETATM    5  C   UNL     5     -12.535  10.792  65.335  1.00  0.00     4.548 C  
HETATM    6  C   UNL     5     -12.197  11.610  66.539  1.00  0.00     1.064 A  
HETATM    7  C   UNL     5     -11.698  12.911  66.534  1.00  0.00    -0.393 A  
HETATM    8  C   UNL     5     -12.331  10.947  67.755  1.00  0.00     1.634 A  
HETATM    9  C   UNL     5     -11.388  13.565  67.779  1.00  0.00    -0.327 A  
HETATM   10  C   UNL     5     -11.812  11.476  68.926  1.00  0.00    -0.341 A  
HETATM   11  C   UNL     5     -11.037  14.936  67.857  1.00  0.00    -0.304 A  
HETATM   12  C   UNL     5     -11.421  12.821  68.989  1.00  0.00    -0.360 A  
HETATM   13  C   UNL     5     -10.765  15.559  69.079  1.00  0.00    -0.243 A  
HETATM   14  C   UNL     5     -11.089  13.452  70.209  1.00  0.00     0.580 A  
HETATM   15  C   UNL     5     -10.789  14.814  70.254  1.00  0.00    -0.073 A  
ENDROOT
BRANCH   7  16
HETATM   16  O   UNL     5     -11.566  13.658  65.402  1.00  0.00    -0.311 OA 
HETATM   17  O   UNL     5     -10.587  15.605  64.175  1.00  0.00     0.163 OA 
HETATM   18  O   UNL     5      -9.252  14.650  65.925  1.00  0.00    -0.194 OA 
HETATM   19  P   UNL     5     -10.209  14.277  64.792  1.00  0.00     0.207 P  
HETATM   20  O   UNL     5      -9.498  13.310  63.878  1.00  0.00     0.542 OA 
ENDBRANCH   7  16
BRANCH  10  21
HETATM   21  O   UNL     5     -11.576  10.615  69.970  1.00  0.00    -0.271 OA 
HETATM   22  P   UNL     5     -10.069  10.299  70.527  1.00  0.00     0.808 P  
HETATM   23  O   UNL     5      -9.211  11.555  70.309  1.00  0.00     2.220 OA 
HETATM   24  O   UNL     5      -9.425   9.205  69.710  1.00  0.00    -0.165 OA 
HETATM   25  O   UNL     5     -10.186  10.132  72.008  1.00  0.00     1.757 OA 
ENDBRANCH  10  21
TORSDOF 2
ENDMDL
MODEL      185
REMARK 921   NORMALIZED FREE ENERGY PREDICTED BY IDOCK:   21.36 KCAL/MOL
REMARK 922        TOTAL FREE ENERGY PREDICTED BY IDOCK:   23.73 KCAL/MOL
REMARK 923 INTER-LIGAND FREE ENERGY PREDICTED BY IDOCK:   17.47 KCAL/MOL
REMARK 924 INTRA-LIGAND FREE ENERGY PREDICTED BY IDOCK:    6.26 KCAL/MOL
REMARK 927      BINDING AFFINITY PREDICTED BY RF-SCORE:    0.00 PKD
ROOT
HETATM    1 NA   UNL     1      -7.951   9.268  73.078  1.00  0.00     0.052 Na 
HETATM    2 NA   UNL     2      -7.869  16.168  71.175  1.00  0.00     1.559 Na 
HETATM    3 NA   UNL     3      -7.179   7.396  69.472  1.00  0.00    -0.062 Na 
HETATM    4 NA   UNL     4      -6.401  13.239  68.520  1.00  0.00    -0.065 Na 
HETATM    5  C   UNL     5      -9.632  11.722  71.540  1.00  0.00    12.259 C  
HETATM    6  C   UNL     5      -9.693  11.765  70.048  1.00  0.00     2.231 A  
HETATM    7  C   UNL     5      -9.762  10.664  69.196  1.00  0.00    -0.189 A  
HETATM    8  C   UNL     5      -9.589  13.037  69.493  1.00  0.00     1.339 A  
HETATM    9  C   UNL     5      -9.782  10.861  67.770  1.00  0.00    -0.183 A  
HETATM   10  C   UNL     5      -9.365  13.217  68.137  1.00  0.00    -0.217 A  
HETATM   11  C   UNL     5     -10.018   9.804  66.856  1.00  0.00    -0.270 A  
HETATM   12  C   UNL     5      -9.552  12.157  67.238  1.00  0.00    -0.185 A  
HETATM   13  C   UNL     5     -10.060  10.020  65.475  1.00  0.00    -0.325 A  
HETATM   14  C   UNL     5      -9.544  12.348  65.838  1.00  0.00    -0.193 A  
HETATM   15  C   UNL     5      -9.821  11.293  64.967  1.00  0.00    -0.307 A  
ENDROOT
BRANCH   7  16
HETATM   16  O   UNL     5      -9.904   9.383  69.640  1.00  0.00    -0.174 OA 
HETATM   17  O   UNL     5      -9.005   7.070  69.950  1.00  0.00    -0.142 OA 
HETATM   18  O   UNL     5      -7.406   8.858  69.950  1.00  0.00    -0.049 OA 
HETATM   19  P   UNL     5      -8.813   8.493  70.424  1.00  0.00    -0.172 P  
HETATM   20  O   UNL     5      -8.873   8.699  71.917  1.00  0.00    -0.199 OA 
ENDBRANCH   7  16
BRANCH  10  21
HETATM   21  O   UNL     5      -8.837  14.416  67.727  1.00  0.00    -0.171 OA 
HETATM   22  P   UNL     5      -7.342  14.541  67.071  1.00  0.00     0.839 P  
HETATM   23  O   UNL     5      -7.040  13.230  66.326  1.00  0.00     1.478 OA 
HETATM   24  O   UNL     5      -6.300  14.655  68.157  1.00  0.00    -0.113 OA 
HETATM   25  O   UNL     5      -7.421  15.602  66.022  1.00  0.00     0.729 OA 
ENDBRANCH  10  21
TORSDOF 2
ENDMDL
MODEL      186
REMARK 921   NORMALIZED FREE ENERGY PREDICTED BY IDOCK:   21.53 KCAL/MOL
REMARK 922        TOTAL FREE ENERGY PREDICTED BY IDOCK:   23.92 KCAL/MOL
REMARK 923 INTER-LIGAND FREE ENERGY PREDICTED BY IDOCK:   16.71 KCAL/MOL
REMARK 924 INTRA-LIGAND FREE ENERGY PREDICTED BY IDOCK:    7.22 KCAL/MOL
REMARK 927      BINDING AFFINITY PREDICTED BY RF-SCORE:    0.00 PKD
ROOT
HETATM    1 NA   UNL     1     -14.278  15.622  66.861  1.00  0.00     2.599 Na 
HETATM    2 NA   UNL     2     -10.847  21.270  69.610  1.00  0.00    -0.301 Na 
HETATM    3 NA   UNL     3     -12.122  12.475  68.456  1.00  0.00    -0.251 Na 
HETATM    4 NA   UNL     4     -10.103  17.412  71.140  1.00  0.00     1.044 Na 
HETATM    5  C   UNL     5     -11.529  17.528  66.689  1.00  0.00     1.316 C  
HETATM    6  C   UNL     5     -10.237  17.026  67.244  1.00  0.00    -0.310 A  
HETATM    7  C   UNL     5      -9.788  15.707  67.219  1.00  0.00    -0.225 A  
HETATM    8  C   UNL     5      -9.475  17.981  67.911  1.00  0.00    -0.273 A  
HETATM    9  C   UNL     5      -8.528  15.366  67.826  1.00  0.00    -0.157 A  
HETATM   10  C   UNL     5      -8.393  17.620  68.699  1.00  0.00    -0.267 A  
HETATM   11  C   UNL     5      -7.937  14.085  67.693  1.00  0.00    -0.186 A  
HETATM   12  C   UNL     5      -7.837  16.336  68.600  1.00  0.00    -0.202 A  
HETATM   13  C   UNL     5      -6.698  13.781  68.268  1.00  0.00    -0.109 A  
HETATM   14  C   UNL     5      -6.614  15.996  69.220  1.00  0.00    -0.176 A  
HETATM   15  C   UNL     5      -6.039  14.738  69.034  1.00  0.00    -0.093 A  
ENDROOT
BRANCH   7  16
HETATM   16  O   UNL     5     -10.441  14.708  66.562  1.00  0.00    -0.280 OA 
HETATM   17  O   UNL     5     -12.204  12.935  66.485  1.00  0.00    -0.441 OA 
HETATM   18  O   UNL     5     -12.660  14.852  67.853  1.00  0.00     0.272 OA 
HETATM   19  P   UNL     5     -12.029  14.437  66.524  1.00  0.00    -0.271 P  
HETATM   20  O   UNL     5     -12.714  15.203  65.420  1.00  0.00     0.280 OA 
ENDBRANCH   7  16
BRANCH  10  21
HETATM   21  O   UNL     5      -7.972  18.508  69.657  1.00  0.00     0.352 OA 
HETATM   22  P   UNL     5      -8.926  18.979  70.902  1.00  0.00     4.806 P  
HETATM   23  O   UNL     5      -9.870  17.813  71.241  1.00  0.00     4.073 OA 
HETATM   24  O   UNL     5      -9.813  20.126  70.479  1.00  0.00     0.492 OA 
HETATM   25  O   UNL     5      -8.034  19.145  72.088  1.00  0.00     5.014 OA 
ENDBRANCH  10  21
TORSDOF 2
ENDMDL
MODEL      187
REMARK 921   NORMALIZED FREE ENERGY PREDICTED BY IDOCK:   27.24 KCAL/MOL
REMARK 922        TOTAL FREE ENERGY PREDICTED BY IDOCK:   30.30 KCAL/MOL
REMARK 923 INTER-LIGAND FREE ENERGY PREDICTED BY IDOCK:   28.82 KCAL/MOL
REMARK 924 INTRA-LIGAND FREE ENERGY PREDICTED BY IDOCK:    1.48 KCAL/MOL
REMARK 927      BINDING AFFINITY PREDICTED BY RF-SCORE:    0.00 PKD
ROOT
HETATM    1 NA   UNL     1      -7.388  13.940  70.593  1.00  0.00    -0.354 Na 
HETATM    2 NA   UNL     2      -5.910  11.837  63.913  1.00  0.00    -0.075 Na 
HETATM    3 NA   UNL     3      -8.536  10.380  72.357  1.00  0.00     2.059 Na 
HETATM    4 NA   UNL     4      -6.424   8.962  66.954  1.00  0.00    -0.052 Na 
HETATM    5  C   UNL     5      -8.681  12.997  67.652  1.00  0.00    -0.189 C  
HETATM    6  C   UNL     5      -9.247  11.624  67.490  1.00  0.00    -0.172 A  
HETATM    7  C   UNL     5      -9.939  10.902  68.460  1.00  0.00    -0.182 A  
HETATM    8  C   UNL     5      -8.967  11.015  66.271  1.00  0.00    -0.195 A  
HETATM    9  C   UNL     5     -10.400   9.569  68.169  1.00  0.00    -0.251 A  
HETATM   10  C   UNL     5      -9.193   9.661  66.072  1.00  0.00    -0.182 A  
HETATM   11  C   UNL     5     -11.248   8.845  69.043  1.00  0.00     0.267 A  
HETATM   12  C   UNL     5      -9.994   8.934  66.965  1.00  0.00    -0.300 A  
HETATM   13  C   UNL     5     -11.707   7.562  68.730  1.00  0.00     1.188 A  
HETATM   14  C   UNL     5     -10.422   7.616  66.689  1.00  0.00    -0.198 A  
HETATM   15  C   UNL     5     -11.291   6.948  67.553  1.00  0.00    -0.011 A  
ENDROOT
BRANCH   7  16
HETATM   16  O   UNL     5     -10.294  11.422  69.668  1.00  0.00     0.046 OA 
HETATM   17  O   UNL     5      -9.783  11.913  72.067  1.00  0.00    12.949 OA 
HETATM   18  O   UNL     5      -7.920  11.856  70.556  1.00  0.00     2.735 OA 
HETATM   19  P   UNL     5      -9.379  12.301  70.661  1.00  0.00     9.161 P  
HETATM   20  O   UNL     5      -9.444  13.775  70.346  1.00  0.00     2.614 OA 
ENDBRANCH   7  16
BRANCH  10  21
HETATM   21  O   UNL     5      -8.508   9.039  65.058  1.00  0.00    -0.155 OA 
HETATM   22  P   UNL     5      -8.313   9.719  63.581  1.00  0.00    -0.204 P  
HETATM   23  O   UNL     5      -8.272  11.245  63.764  1.00  0.00     0.371 OA 
HETATM   24  O   UNL     5      -9.512   9.434  62.709  1.00  0.00     0.041 OA 
HETATM   25  O   UNL     5      -6.953   9.324  63.103  1.00  0.00    -0.090 OA 
ENDBRANCH  10  21
TORSDOF 2
ENDMDL
MODEL      188
REMARK 921   NORMALIZED FREE ENERGY PREDICTED BY IDOCK:   28.85 KCAL/MOL
REMARK 922        TOTAL FREE ENERGY PREDICTED BY IDOCK:   32.10 KCAL/MOL
REMARK 923 INTER-LIGAND FREE ENERGY PREDICTED BY IDOCK:   29.50 KCAL/MOL
REMARK 924 INTRA-LIGAND FREE ENERGY PREDICTED BY IDOCK:    2.61 KCAL/MOL
REMARK 927      BINDING AFFINITY PREDICTED BY RF-SCORE:    0.00 PKD
ROOT
HETATM    1 NA   UNL     1      -8.660  15.750  74.131  1.00  0.00     7.868 Na 
HETATM    2 NA   UNL     2     -13.630  11.560  71.134  1.00  0.00    -0.325 Na 
HETATM    3 NA   UNL     3      -8.373  18.815  71.369  1.00  0.00     3.221 Na 
HETATM    4 NA   UNL     4     -13.018  15.468  69.672  1.00  0.00    -0.506 Na 
HETATM    5  C   UNL     5      -9.291  13.519  71.714  1.00  0.00    12.319 C  
HETATM    6  C   UNL     5      -9.452  13.975  70.300  1.00  0.00     2.380 A  
HETATM    7  C   UNL     5      -8.755  15.014  69.687  1.00  0.00     0.017 A  
HETATM    8  C   UNL     5     -10.457  13.328  69.587  1.00  0.00     0.617 A  
HETATM    9  C   UNL     5      -9.042  15.361  68.320  1.00  0.00    -0.187 A  
HETATM   10  C   UNL     5     -10.901  13.812  68.366  1.00  0.00    -0.252 A  
HETATM   11  C   UNL     5      -8.262  16.290  67.587  1.00  0.00    -0.166 A  
HETATM   12  C   UNL     5     -10.152  14.766  67.663  1.00  0.00    -0.227 A  
HETATM   13  C   UNL     5      -8.541  16.595  66.251  1.00  0.00    -0.359 A  
HETATM   14  C   UNL     5     -10.453  15.126  66.330  1.00  0.00    -0.300 A  
HETATM   15  C   UNL     5      -9.638  16.013  65.625  1.00  0.00    -0.226 A  
ENDROOT
BRANCH   7  16
HETATM   16  O   UNL     5      -7.730  15.682  70.286  1.00  0.00     0.344 OA 
HETATM   17  O   UNL     5      -5.310  15.876  70.891  1.00  0.00    -0.155 OA 
HETATM   18  O   UNL     5      -5.824  14.727  68.849  1.00  0.00    -0.084 OA 
HETATM   19  P   UNL     5      -6.246  15.922  69.704  1.00  0.00    -0.164 P  
HETATM   20  O   UNL     5      -6.160  17.163  68.851  1.00  0.00    -0.155 OA 
ENDBRANCH   7  16
BRANCH  10  21
HETATM   21  O   UNL     5     -12.146  13.425  67.937  1.00  0.00    -0.338 OA 
HETATM   22  P   UNL     5     -12.384  12.634  66.523  1.00  0.00     0.724 P  
HETATM   23  O   UNL     5     -11.133  11.786  66.239  1.00  0.00    -0.297 OA 
HETATM   24  O   UNL     5     -12.491  13.618  65.383  1.00  0.00    -0.443 OA 
HETATM   25  O   UNL     5     -13.496  11.663  66.755  1.00  0.00     6.192 OA 
ENDBRANCH  10  21
TORSDOF 2
ENDMDL
MODEL      189
REMARK 921   NORMALIZED FREE ENERGY PREDICTED BY IDOCK:   55.02 KCAL/MOL
REMARK 922        TOTAL FREE ENERGY PREDICTED BY IDOCK:   61.33 KCAL/MOL
REMARK 923 INTER-LIGAND FREE ENERGY PREDICTED BY IDOCK:   59.48 KCAL/MOL
REMARK 924 INTRA-LIGAND FREE ENERGY PREDICTED BY IDOCK:    1.85 KCAL/MOL
REMARK 927      BINDING AFFINITY PREDICTED BY RF-SCORE:    0.00 PKD
ROOT
HETATM    1 NA   UNL     1      -6.097   5.286  68.047  1.00  0.00    -0.018 Na 
HETATM    2 NA   UNL     2      -7.102  12.312  68.970  1.00  0.00    -0.077 Na 
HETATM    3 NA   UNL     3      -8.074   4.619  64.476  1.00  0.00    -0.084 Na 
HETATM    4 NA   UNL     4      -7.957  10.540  65.240  1.00  0.00    -0.125 Na 
HETATM    5  C   UNL     5      -8.288   7.665  68.912  1.00  0.00    -0.129 C  
HETATM    6  C   UNL     5      -9.354   8.084  67.953  1.00  0.00    -0.148 A  
HETATM    7  C   UNL     5     -10.026   7.255  67.058  1.00  0.00    -0.224 A  
HETATM    8  C   UNL     5      -9.614   9.451  67.926  1.00  0.00    -0.155 A  
HETATM    9  C   UNL     5     -11.012   7.809  66.168  1.00  0.00     2.094 A  
HETATM   10  C   UNL     5     -10.375  10.021  66.918  1.00  0.00    -0.234 A  
HETATM   11  C   UNL     5     -11.847   7.004  65.354  1.00  0.00     8.417 A  
HETATM   12  C   UNL     5     -11.165   9.219  66.082  1.00  0.00     1.933 A  
HETATM   13  C   UNL     5     -12.817   7.561  64.514  1.00  0.00    21.042 A  
HETATM   14  C   UNL     5     -12.112   9.767  65.188  1.00  0.00     8.206 A  
HETATM   15  C   UNL     5     -12.947   8.943  64.431  1.00  0.00    20.664 A  
ENDROOT
BRANCH   7  16
HETATM   16  O   UNL     5      -9.870   5.901  67.032  1.00  0.00    -0.130 OA 
HETATM   17  O   UNL     5      -8.830   3.844  66.061  1.00  0.00    -0.115 OA 
HETATM   18  O   UNL     5      -7.526   5.856  65.976  1.00  0.00    -0.082 OA 
HETATM   19  P   UNL     5      -8.494   5.079  66.868  1.00  0.00    -0.104 P  
HETATM   20  O   UNL     5      -7.815   4.830  68.192  1.00  0.00    -0.081 OA 
ENDBRANCH   7  16
BRANCH  10  21
HETATM   21  O   UNL     5     -10.231  11.367  66.687  1.00  0.00    -0.210 OA 
HETATM   22  P   UNL     5     -10.743  12.502  67.750  1.00  0.00    -0.235 P  
HETATM   23  O   UNL     5     -10.634  11.910  69.165  1.00  0.00    -0.159 OA 
HETATM   24  O   UNL     5     -12.207  12.802  67.534  1.00  0.00    -0.348 OA 
HETATM   25  O   UNL     5      -9.754  13.620  67.694  1.00  0.00    -0.218 OA 
ENDBRANCH  10  21
TORSDOF 2
ENDMDL
MODEL      190
REMARK 921   NORMALIZED FREE ENERGY PREDICTED BY IDOCK:   62.84 KCAL/MOL
REMARK 922        TOTAL FREE ENERGY PREDICTED BY IDOCK:   70.07 KCAL/MOL
REMARK 923 INTER-LIGAND FREE ENERGY PREDICTED BY IDOCK:   60.28 KCAL/MOL
REMARK 924 INTRA-LIGAND FREE ENERGY PREDICTED BY IDOCK:    9.78 KCAL/MOL
REMARK 927      BINDING AFFINITY PREDICTED BY RF-SCORE:    0.00 PKD
ROOT
HETATM    1 NA   UNL     1      -7.023   8.763  73.762  1.00  0.00    -0.125 Na 
HETATM    2 NA   UNL     2      -5.134  15.336  71.652  1.00  0.00    -0.129 Na 
HETATM    3 NA   UNL     3      -8.816   7.270  70.346  1.00  0.00    -0.133 Na 
HETATM    4 NA   UNL     4      -6.347  12.481  68.796  1.00  0.00    -0.059 Na 
HETATM    5  C   UNL     5      -8.109  11.856  73.081  1.00  0.00    21.132 C  
HETATM    6  C   UNL     5      -8.832  12.130  71.803  1.00  0.00    17.858 A  
HETATM    7  C   UNL     5      -9.713  11.265  71.156  1.00  0.00     6.552 A  
HETATM    8  C   UNL     5      -8.508  13.337  71.192  1.00  0.00     9.489 A  
HETATM    9  C   UNL     5     -10.314  11.656  69.907  1.00  0.00     0.895 A  
HETATM   10  C   UNL     5      -8.888  13.612  69.888  1.00  0.00     2.201 A  
HETATM   11  C   UNL     5     -11.339  10.902  69.282  1.00  0.00    -0.345 A  
HETATM   12  C   UNL     5      -9.869  12.836  69.254  1.00  0.00     0.651 A  
HETATM   13  C   UNL     5     -11.928  11.313  68.082  1.00  0.00    -0.182 A  
HETATM   14  C   UNL     5     -10.437  13.207  68.014  1.00  0.00    -0.245 A  
HETATM   15  C   UNL     5     -11.474  12.464  67.448  1.00  0.00    -0.418 A  
ENDROOT
BRANCH   7  16
HETATM   16  O   UNL     5     -10.123  10.080  71.687  1.00  0.00     0.671 OA 
HETATM   17  O   UNL     5     -11.709   8.146  71.742  1.00  0.00    -0.268 OA 
HETATM   18  O   UNL     5     -11.357   9.192  69.613  1.00  0.00    -0.085 OA 
HETATM   19  P   UNL     5     -10.628   8.773  70.890  1.00  0.00    -0.263 P  
HETATM   20  O   UNL     5      -9.490   7.863  70.503  1.00  0.00    -0.162 OA 
ENDBRANCH   7  16
BRANCH  10  21
HETATM   21  O   UNL     5      -8.188  14.576  69.205  1.00  0.00    -0.117 OA 
HETATM   22  P   UNL     5      -7.366  15.771  69.964  1.00  0.00     0.700 P  
HETATM   23  O   UNL     5      -6.877  15.225  71.316  1.00  0.00     0.905 OA 
HETATM   24  O   UNL     5      -8.289  16.921  70.287  1.00  0.00     1.883 OA 
HETATM   25  O   UNL     5      -6.136  16.028  69.155  1.00  0.00    -0.124 OA 
ENDBRANCH  10  21
TORSDOF 2
ENDMDL
