MODEL        1
REMARK 921   NORMALIZED FREE ENERGY PREDICTED BY IDOCK:   -7.25 KCAL/MOL
REMARK 922        TOTAL FREE ENERGY PREDICTED BY IDOCK:   -8.86 KCAL/MOL
REMARK 923 INTER-LIGAND FREE ENERGY PREDICTED BY IDOCK:   -8.52 KCAL/MOL
REMARK 924 INTRA-LIGAND FREE ENERGY PREDICTED BY IDOCK:   -0.33 KCAL/MOL
REMARK 927      BINDING AFFINITY PREDICTED BY RF-SCORE:    0.00 PKD
ROOT
HETATM    1  C   UNL     1     -12.655  11.985  63.406  1.00  0.00    -0.469 C  
HETATM    2  O   UNL     1     -13.156  12.550  64.614  1.00  0.00    -0.845 OA 
ENDROOT
BRANCH   2   3
HETATM    3  C   UNL     1     -12.392  13.562  65.174  1.00  0.00    -0.449 C  
HETATM    4  C   UNL     1     -12.280  14.714  64.512  1.00  0.00    -0.473 C  
HETATM    5  C   UNL     1     -11.389  15.793  64.938  1.00  0.00    -0.280 C  
HETATM    6  O   UNL     1     -10.616  15.576  66.019  1.00  0.00    -0.303 OA 
HETATM    7  O   UNL     1     -11.324  16.830  64.291  1.00  0.00    -1.170 OA 
HETATM    8  C   UNL     1     -10.831  14.504  66.954  1.00  0.00    -0.305 C  
HETATM    9  C   UNL     1     -11.621  13.297  66.424  1.00  0.00    -0.387 C  
BRANCH   8  10
HETATM   10  C   UNL     1     -11.396  15.027  68.256  1.00  0.00    -0.331 C  
HETATM   11  C   UNL     1     -11.680  14.316  69.360  1.00  0.00    -0.363 C  
BRANCH  11  12
HETATM   12  C   UNL     1     -12.296  14.875  70.558  1.00  0.00    -0.400 C  
HETATM   13  C   UNL     1     -11.522  15.597  71.393  1.00  0.00    -0.488 C  
HETATM   14  C   UNL     1     -11.997  16.192  72.691  1.00  0.00    -0.653 C  
HETATM   15  C   UNL     1     -13.475  15.961  73.038  1.00  0.00    -0.653 C  
HETATM   16  C   UNL     1     -14.226  15.093  72.076  1.00  0.00    -0.673 C  
HETATM   17  C   UNL     1     -13.673  14.603  70.957  1.00  0.00    -0.281 C  
ENDBRANCH  11  12
ENDBRANCH   8  10
ENDBRANCH   2   3
TORSDOF 3
ENDMDL
MODEL        2
REMARK 921   NORMALIZED FREE ENERGY PREDICTED BY IDOCK:   -6.33 KCAL/MOL
REMARK 922        TOTAL FREE ENERGY PREDICTED BY IDOCK:   -7.77 KCAL/MOL
REMARK 923 INTER-LIGAND FREE ENERGY PREDICTED BY IDOCK:   -7.32 KCAL/MOL
REMARK 924 INTRA-LIGAND FREE ENERGY PREDICTED BY IDOCK:   -0.44 KCAL/MOL
REMARK 927      BINDING AFFINITY PREDICTED BY RF-SCORE:    0.00 PKD
ROOT
HETATM    1  C   UNL     1     -11.733  12.066  68.923  1.00  0.00    -0.326 C  
HETATM    2  O   UNL     1     -12.177  11.813  67.594  1.00  0.00    -0.534 OA 
ENDROOT
BRANCH   2   3
HETATM    3  C   UNL     1     -11.663  12.646  66.613  1.00  0.00    -0.398 C  
HETATM    4  C   UNL     1     -12.398  12.875  65.523  1.00  0.00    -0.517 C  
HETATM    5  C   UNL     1     -11.898  13.619  64.368  1.00  0.00    -0.424 C  
HETATM    6  O   UNL     1     -10.618  14.039  64.400  1.00  0.00    -0.382 OA 
HETATM    7  O   UNL     1     -12.616  13.798  63.392  1.00  0.00    -0.842 OA 
HETATM    8  C   UNL     1      -9.822  14.087  65.597  1.00  0.00    -0.228 C  
HETATM    9  C   UNL     1     -10.266  13.158  66.738  1.00  0.00    -0.252 C  
BRANCH   8  10
HETATM   10  C   UNL     1      -9.632  15.513  66.064  1.00  0.00    -0.380 C  
HETATM   11  C   UNL     1     -10.535  16.288  66.688  1.00  0.00    -0.290 C  
BRANCH  11  12
HETATM   12  C   UNL     1     -10.308  17.685  67.042  1.00  0.00    -0.330 C  
HETATM   13  C   UNL     1     -10.063  17.980  68.335  1.00  0.00    -0.392 C  
HETATM   14  C   UNL     1      -9.864  19.374  68.864  1.00  0.00    -0.523 C  
HETATM   15  C   UNL     1      -9.923  20.505  67.827  1.00  0.00    -0.410 C  
HETATM   16  C   UNL     1     -10.266  20.073  66.435  1.00  0.00    -0.598 C  
HETATM   17  C   UNL     1     -10.443  18.788  66.097  1.00  0.00    -0.499 C  
ENDBRANCH  11  12
ENDBRANCH   8  10
ENDBRANCH   2   3
TORSDOF 3
ENDMDL
MODEL        3
REMARK 921   NORMALIZED FREE ENERGY PREDICTED BY IDOCK:   -6.31 KCAL/MOL
REMARK 922        TOTAL FREE ENERGY PREDICTED BY IDOCK:   -7.74 KCAL/MOL
REMARK 923 INTER-LIGAND FREE ENERGY PREDICTED BY IDOCK:   -7.30 KCAL/MOL
REMARK 924 INTRA-LIGAND FREE ENERGY PREDICTED BY IDOCK:   -0.45 KCAL/MOL
REMARK 927      BINDING AFFINITY PREDICTED BY RF-SCORE:    0.00 PKD
ROOT
HETATM    1  C   UNL     1     -11.743  12.100  68.836  1.00  0.00    -0.327 C  
HETATM    2  O   UNL     1     -12.146  11.799  67.504  1.00  0.00    -0.599 OA 
ENDROOT
BRANCH   2   3
HETATM    3  C   UNL     1     -11.653  12.637  66.516  1.00  0.00    -0.381 C  
HETATM    4  C   UNL     1     -12.394  12.840  65.426  1.00  0.00    -0.528 C  
HETATM    5  C   UNL     1     -11.913  13.587  64.264  1.00  0.00    -0.432 C  
HETATM    6  O   UNL     1     -10.643  14.037  64.291  1.00  0.00    -0.290 OA 
HETATM    7  O   UNL     1     -12.635  13.741  63.288  1.00  0.00    -0.830 OA 
HETATM    8  C   UNL     1      -9.848  14.112  65.487  1.00  0.00    -0.230 C  
HETATM    9  C   UNL     1     -10.268  13.182  66.636  1.00  0.00    -0.259 C  
BRANCH   8  10
HETATM   10  C   UNL     1      -9.691  15.546  65.943  1.00  0.00    -0.392 C  
HETATM   11  C   UNL     1     -10.535  16.246  66.718  1.00  0.00    -0.287 C  
BRANCH  11  12
HETATM   12  C   UNL     1     -10.358  17.654  67.057  1.00  0.00    -0.330 C  
HETATM   13  C   UNL     1     -10.324  18.550  66.049  1.00  0.00    -0.423 C  
HETATM   14  C   UNL     1     -10.095  20.026  66.233  1.00  0.00    -0.603 C  
HETATM   15  C   UNL     1      -9.920  20.507  67.681  1.00  0.00    -0.454 C  
HETATM   16  C   UNL     1      -9.909  19.422  68.714  1.00  0.00    -0.530 C  
HETATM   17  C   UNL     1     -10.104  18.131  68.413  1.00  0.00    -0.401 C  
ENDBRANCH  11  12
ENDBRANCH   8  10
ENDBRANCH   2   3
TORSDOF 3
ENDMDL
MODEL        4
REMARK 921   NORMALIZED FREE ENERGY PREDICTED BY IDOCK:   -6.15 KCAL/MOL
REMARK 922        TOTAL FREE ENERGY PREDICTED BY IDOCK:   -7.56 KCAL/MOL
REMARK 923 INTER-LIGAND FREE ENERGY PREDICTED BY IDOCK:   -7.17 KCAL/MOL
REMARK 924 INTRA-LIGAND FREE ENERGY PREDICTED BY IDOCK:   -0.38 KCAL/MOL
REMARK 927      BINDING AFFINITY PREDICTED BY RF-SCORE:    0.00 PKD
ROOT
HETATM    1  C   UNL     1      -8.175  11.516  67.441  1.00  0.00    -0.149 C  
HETATM    2  O   UNL     1      -8.964  11.510  66.256  1.00  0.00    -0.193 OA 
ENDROOT
BRANCH   2   3
HETATM    3  C   UNL     1     -10.042  12.380  66.239  1.00  0.00    -0.240 C  
HETATM    4  C   UNL     1     -11.149  12.009  65.593  1.00  0.00    -0.361 C  
HETATM    5  C   UNL     1     -12.290  12.902  65.391  1.00  0.00    -0.485 C  
HETATM    6  O   UNL     1     -12.179  14.168  65.836  1.00  0.00    -0.412 OA 
HETATM    7  O   UNL     1     -13.280  12.509  64.788  1.00  0.00    -0.839 OA 
HETATM    8  C   UNL     1     -11.169  14.605  66.761  1.00  0.00    -0.344 C  
HETATM    9  C   UNL     1      -9.897  13.745  66.825  1.00  0.00    -0.275 C  
BRANCH   8  10
HETATM   10  C   UNL     1     -11.759  14.851  68.132  1.00  0.00    -0.344 C  
HETATM   11  C   UNL     1     -11.185  14.595  69.319  1.00  0.00    -0.306 C  
BRANCH  11  12
HETATM   12  C   UNL     1     -11.846  14.787  70.606  1.00  0.00    -0.364 C  
HETATM   13  C   UNL     1     -11.554  15.899  71.310  1.00  0.00    -0.509 C  
HETATM   14  C   UNL     1     -12.110  16.212  72.672  1.00  0.00    -0.652 C  
HETATM   15  C   UNL     1     -13.093  15.184  73.252  1.00  0.00    -0.622 C  
HETATM   16  C   UNL     1     -13.295  13.957  72.418  1.00  0.00    -0.629 C  
HETATM   17  C   UNL     1     -12.717  13.790  71.221  1.00  0.00    -0.450 C  
ENDBRANCH  11  12
ENDBRANCH   8  10
ENDBRANCH   2   3
TORSDOF 3
ENDMDL
MODEL        5
REMARK 921   NORMALIZED FREE ENERGY PREDICTED BY IDOCK:   -6.08 KCAL/MOL
REMARK 922        TOTAL FREE ENERGY PREDICTED BY IDOCK:   -7.48 KCAL/MOL
REMARK 923 INTER-LIGAND FREE ENERGY PREDICTED BY IDOCK:   -7.19 KCAL/MOL
REMARK 924 INTRA-LIGAND FREE ENERGY PREDICTED BY IDOCK:   -0.29 KCAL/MOL
REMARK 927      BINDING AFFINITY PREDICTED BY RF-SCORE:    0.00 PKD
ROOT
HETATM    1  C   UNL     1      -9.772   9.898  65.138  1.00  0.00    -0.306 C  
HETATM    2  O   UNL     1     -10.397  10.811  64.243  1.00  0.00    -0.359 OA 
ENDROOT
BRANCH   2   3
HETATM    3  C   UNL     1     -10.744  12.043  64.775  1.00  0.00    -0.306 C  
HETATM    4  C   UNL     1     -11.529  12.847  64.057  1.00  0.00    -0.478 C  
HETATM    5  C   UNL     1     -11.841  14.220  64.456  1.00  0.00    -0.442 C  
HETATM    6  O   UNL     1     -11.258  14.693  65.574  1.00  0.00    -0.325 OA 
HETATM    7  O   UNL     1     -12.566  14.915  63.757  1.00  0.00    -0.791 OA 
HETATM    8  C   UNL     1     -10.617  13.860  66.556  1.00  0.00    -0.279 C  
HETATM    9  C   UNL     1     -10.136  12.486  66.064  1.00  0.00    -0.268 C  
BRANCH   8  10
HETATM   10  C   UNL     1     -11.460  13.754  67.808  1.00  0.00    -0.354 C  
HETATM   11  C   UNL     1     -11.448  14.582  68.865  1.00  0.00    -0.327 C  
BRANCH  11  12
HETATM   12  C   UNL     1     -12.235  14.376  70.076  1.00  0.00    -0.408 C  
HETATM   13  C   UNL     1     -12.865  15.440  70.614  1.00  0.00    -0.484 C  
HETATM   14  C   UNL     1     -13.668  15.398  71.886  1.00  0.00    -0.603 C  
HETATM   15  C   UNL     1     -13.775  14.028  72.571  1.00  0.00    -0.651 C  
HETATM   16  C   UNL     1     -12.986  12.931  71.927  1.00  0.00    -0.405 C  
HETATM   17  C   UNL     1     -12.287  13.107  70.797  1.00  0.00    -0.404 C  
ENDBRANCH  11  12
ENDBRANCH   8  10
ENDBRANCH   2   3
TORSDOF 3
ENDMDL
MODEL        6
REMARK 921   NORMALIZED FREE ENERGY PREDICTED BY IDOCK:   -6.05 KCAL/MOL
REMARK 922        TOTAL FREE ENERGY PREDICTED BY IDOCK:   -7.44 KCAL/MOL
REMARK 923 INTER-LIGAND FREE ENERGY PREDICTED BY IDOCK:   -6.99 KCAL/MOL
REMARK 924 INTRA-LIGAND FREE ENERGY PREDICTED BY IDOCK:   -0.45 KCAL/MOL
REMARK 927      BINDING AFFINITY PREDICTED BY RF-SCORE:    0.00 PKD
ROOT
HETATM    1  C   UNL     1     -12.534  12.084  63.440  1.00  0.00    -0.509 C  
HETATM    2  O   UNL     1     -13.135  12.652  64.599  1.00  0.00    -0.821 OA 
ENDROOT
BRANCH   2   3
HETATM    3  C   UNL     1     -12.283  12.904  65.663  1.00  0.00    -0.463 C  
HETATM    4  C   UNL     1     -12.393  14.070  66.303  1.00  0.00    -0.482 C  
HETATM    5  C   UNL     1     -11.458  14.499  67.342  1.00  0.00    -0.368 C  
HETATM    6  O   UNL     1     -10.414  13.692  67.616  1.00  0.00    -0.235 OA 
HETATM    7  O   UNL     1     -11.605  15.581  67.895  1.00  0.00    -0.319 OA 
HETATM    8  C   UNL     1     -10.333  12.320  67.195  1.00  0.00    -0.218 C  
HETATM    9  C   UNL     1     -11.194  11.934  65.982  1.00  0.00    -0.377 C  
BRANCH   8  10
HETATM   10  C   UNL     1     -10.543  11.382  68.363  1.00  0.00    -0.230 C  
HETATM   11  C   UNL     1     -11.664  11.229  69.088  1.00  0.00    -0.410 C  
BRANCH  11  12
HETATM   12  C   UNL     1     -11.772  10.359  70.254  1.00  0.00    -0.406 C  
HETATM   13  C   UNL     1     -10.708   9.596  70.578  1.00  0.00    -0.374 C  
HETATM   14  C   UNL     1     -10.685   8.612  71.716  1.00  0.00    -0.392 C  
HETATM   15  C   UNL     1     -11.967   8.520  72.556  1.00  0.00    -0.401 C  
HETATM   16  C   UNL     1     -13.106   9.361  72.070  1.00  0.00    -0.516 C  
HETATM   17  C   UNL     1     -13.003  10.186  71.019  1.00  0.00    -0.473 C  
ENDBRANCH  11  12
ENDBRANCH   8  10
ENDBRANCH   2   3
TORSDOF 3
ENDMDL
MODEL        7
REMARK 921   NORMALIZED FREE ENERGY PREDICTED BY IDOCK:   -5.94 KCAL/MOL
REMARK 922        TOTAL FREE ENERGY PREDICTED BY IDOCK:   -7.31 KCAL/MOL
REMARK 923 INTER-LIGAND FREE ENERGY PREDICTED BY IDOCK:   -6.87 KCAL/MOL
REMARK 924 INTRA-LIGAND FREE ENERGY PREDICTED BY IDOCK:   -0.45 KCAL/MOL
REMARK 927      BINDING AFFINITY PREDICTED BY RF-SCORE:    0.00 PKD
ROOT
HETATM    1  C   UNL     1     -12.392  12.198  63.516  1.00  0.00    -0.574 C  
HETATM    2  O   UNL     1     -13.042  12.664  64.694  1.00  0.00    -0.821 OA 
ENDROOT
BRANCH   2   3
HETATM    3  C   UNL     1     -12.219  12.925  65.779  1.00  0.00    -0.439 C  
HETATM    4  C   UNL     1     -12.389  14.068  66.445  1.00  0.00    -0.468 C  
HETATM    5  C   UNL     1     -11.490  14.510  67.510  1.00  0.00    -0.356 C  
HETATM    6  O   UNL     1     -10.418  13.742  67.782  1.00  0.00    -0.235 OA 
HETATM    7  O   UNL     1     -11.693  15.571  68.087  1.00  0.00    -0.342 OA 
HETATM    8  C   UNL     1     -10.271  12.385  67.329  1.00  0.00    -0.215 C  
HETATM    9  C   UNL     1     -11.095  11.994  66.093  1.00  0.00    -0.367 C  
BRANCH   8  10
HETATM   10  C   UNL     1     -10.459  11.411  68.471  1.00  0.00    -0.223 C  
HETATM   11  C   UNL     1     -11.622  11.013  69.012  1.00  0.00    -0.392 C  
BRANCH  11  12
HETATM   12  C   UNL     1     -11.726  10.126  70.166  1.00  0.00    -0.330 C  
HETATM   13  C   UNL     1     -12.889  10.105  70.849  1.00  0.00    -0.442 C  
HETATM   14  C   UNL     1     -13.132   9.287  72.087  1.00  0.00    -0.520 C  
HETATM   15  C   UNL     1     -11.963   8.409  72.557  1.00  0.00    -0.418 C  
HETATM   16  C   UNL     1     -10.700   8.557  71.766  1.00  0.00    -0.373 C  
HETATM   17  C   UNL     1     -10.608   9.346  70.687  1.00  0.00    -0.354 C  
ENDBRANCH  11  12
ENDBRANCH   8  10
ENDBRANCH   2   3
TORSDOF 3
ENDMDL
MODEL        8
REMARK 921   NORMALIZED FREE ENERGY PREDICTED BY IDOCK:   -5.85 KCAL/MOL
REMARK 922        TOTAL FREE ENERGY PREDICTED BY IDOCK:   -7.20 KCAL/MOL
REMARK 923 INTER-LIGAND FREE ENERGY PREDICTED BY IDOCK:   -6.88 KCAL/MOL
REMARK 924 INTRA-LIGAND FREE ENERGY PREDICTED BY IDOCK:   -0.32 KCAL/MOL
REMARK 927      BINDING AFFINITY PREDICTED BY RF-SCORE:    0.00 PKD
ROOT
HETATM    1  C   UNL     1     -13.841  15.606  72.640  1.00  0.00    -0.564 C  
HETATM    2  O   UNL     1     -14.133  14.213  72.702  1.00  0.00    -0.617 OA 
ENDROOT
BRANCH   2   3
HETATM    3  C   UNL     1     -13.375  13.396  71.878  1.00  0.00    -0.451 C  
HETATM    4  C   UNL     1     -13.518  12.075  71.987  1.00  0.00    -0.364 C  
HETATM    5  C   UNL     1     -12.671  11.120  71.272  1.00  0.00    -0.426 C  
HETATM    6  O   UNL     1     -11.673  11.615  70.515  1.00  0.00    -0.292 OA 
HETATM    7  O   UNL     1     -12.845   9.917  71.412  1.00  0.00    -0.346 OA 
HETATM    8  C   UNL     1     -11.582  12.993  70.113  1.00  0.00    -0.064 C  
HETATM    9  C   UNL     1     -12.339  14.002  70.990  1.00  0.00    -0.443 C  
BRANCH   8  10
HETATM   10  C   UNL     1     -11.915  13.151  68.646  1.00  0.00    -0.319 C  
HETATM   11  C   UNL     1     -11.402  12.452  67.619  1.00  0.00    -0.371 C  
BRANCH  11  12
HETATM   12  C   UNL     1     -11.713  12.711  66.217  1.00  0.00    -0.460 C  
HETATM   13  C   UNL     1     -11.406  11.759  65.313  1.00  0.00    -0.284 C  
HETATM   14  C   UNL     1     -11.615  11.899  63.829  1.00  0.00    -0.555 C  
HETATM   15  C   UNL     1     -12.245  13.217  63.357  1.00  0.00    -0.521 C  
HETATM   16  C   UNL     1     -12.485  14.228  64.435  1.00  0.00    -0.328 C  
HETATM   17  C   UNL     1     -12.232  13.984  65.728  1.00  0.00    -0.475 C  
ENDBRANCH  11  12
ENDBRANCH   8  10
ENDBRANCH   2   3
TORSDOF 3
ENDMDL
MODEL        9
REMARK 921   NORMALIZED FREE ENERGY PREDICTED BY IDOCK:   -5.83 KCAL/MOL
REMARK 922        TOTAL FREE ENERGY PREDICTED BY IDOCK:   -7.18 KCAL/MOL
REMARK 923 INTER-LIGAND FREE ENERGY PREDICTED BY IDOCK:   -6.78 KCAL/MOL
REMARK 924 INTRA-LIGAND FREE ENERGY PREDICTED BY IDOCK:   -0.40 KCAL/MOL
REMARK 927      BINDING AFFINITY PREDICTED BY RF-SCORE:    0.00 PKD
ROOT
HETATM    1  C   UNL     1     -10.519  18.848  65.899  1.00  0.00    -0.391 C  
HETATM    2  O   UNL     1     -10.602  17.554  65.312  1.00  0.00    -0.664 OA 
ENDROOT
BRANCH   2   3
HETATM    3  C   UNL     1     -10.087  16.511  66.065  1.00  0.00    -0.348 C  
HETATM    4  C   UNL     1      -8.773  16.478  66.293  1.00  0.00    -0.369 C  
HETATM    5  C   UNL     1      -8.106  15.355  66.951  1.00  0.00    -0.224 C  
HETATM    6  O   UNL     1      -8.860  14.290  67.287  1.00  0.00    -0.192 OA 
HETATM    7  O   UNL     1      -6.896  15.377  67.132  1.00  0.00    -0.244 OA 
HETATM    8  C   UNL     1     -10.297  14.312  67.335  1.00  0.00    -0.259 C  
HETATM    9  C   UNL     1     -10.984  15.395  66.490  1.00  0.00    -0.271 C  
BRANCH   8  10
HETATM   10  C   UNL     1     -10.790  14.307  68.765  1.00  0.00    -0.265 C  
HETATM   11  C   UNL     1     -11.800  15.032  69.276  1.00  0.00    -0.344 C  
BRANCH  11  12
HETATM   12  C   UNL     1     -12.173  15.035  70.686  1.00  0.00    -0.381 C  
HETATM   13  C   UNL     1     -11.743  16.056  71.455  1.00  0.00    -0.536 C  
HETATM   14  C   UNL     1     -11.999  16.172  72.933  1.00  0.00    -0.623 C  
HETATM   15  C   UNL     1     -12.832  15.047  73.565  1.00  0.00    -0.636 C  
HETATM   16  C   UNL     1     -13.201  13.932  72.636  1.00  0.00    -0.592 C  
HETATM   17  C   UNL     1     -12.889  13.939  71.333  1.00  0.00    -0.439 C  
ENDBRANCH  11  12
ENDBRANCH   8  10
ENDBRANCH   2   3
TORSDOF 3
ENDMDL
MODEL       10
REMARK 921   NORMALIZED FREE ENERGY PREDICTED BY IDOCK:   -5.76 KCAL/MOL
REMARK 922        TOTAL FREE ENERGY PREDICTED BY IDOCK:   -7.10 KCAL/MOL
REMARK 923 INTER-LIGAND FREE ENERGY PREDICTED BY IDOCK:   -6.79 KCAL/MOL
REMARK 924 INTRA-LIGAND FREE ENERGY PREDICTED BY IDOCK:   -0.31 KCAL/MOL
REMARK 927      BINDING AFFINITY PREDICTED BY RF-SCORE:    0.00 PKD
ROOT
HETATM    1  C   UNL     1      -9.235  10.888  63.043  1.00  0.00    -0.319 C  
HETATM    2  O   UNL     1     -10.632  11.007  63.291  1.00  0.00    -0.312 OA 
ENDROOT
BRANCH   2   3
HETATM    3  C   UNL     1     -10.989  11.681  64.448  1.00  0.00    -0.337 C  
HETATM    4  C   UNL     1     -12.045  12.495  64.410  1.00  0.00    -0.500 C  
HETATM    5  C   UNL     1     -12.424  13.360  65.527  1.00  0.00    -0.483 C  
HETATM    6  O   UNL     1     -11.629  13.361  66.614  1.00  0.00    -0.329 OA 
HETATM    7  O   UNL     1     -13.403  14.089  65.437  1.00  0.00    -0.721 OA 
HETATM    8  C   UNL     1     -10.634  12.357  66.879  1.00  0.00    -0.229 C  
HETATM    9  C   UNL     1     -10.119  11.581  65.657  1.00  0.00    -0.278 C  
BRANCH   8  10
HETATM   10  C   UNL     1     -11.079  11.436  67.994  1.00  0.00    -0.317 C  
HETATM   11  C   UNL     1     -11.291  11.764  69.279  1.00  0.00    -0.348 C  
BRANCH  11  12
HETATM   12  C   UNL     1     -11.646  10.805  70.320  1.00  0.00    -0.427 C  
HETATM   13  C   UNL     1     -10.808   9.772  70.544  1.00  0.00    -0.387 C  
HETATM   14  C   UNL     1     -11.062   8.675  71.543  1.00  0.00    -0.358 C  
HETATM   15  C   UNL     1     -12.357   8.792  72.359  1.00  0.00    -0.414 C  
HETATM   16  C   UNL     1     -13.243   9.939  71.985  1.00  0.00    -0.555 C  
HETATM   17  C   UNL     1     -12.908  10.841  71.052  1.00  0.00    -0.480 C  
ENDBRANCH  11  12
ENDBRANCH   8  10
ENDBRANCH   2   3
TORSDOF 3
ENDMDL
MODEL       11
REMARK 921   NORMALIZED FREE ENERGY PREDICTED BY IDOCK:   -5.75 KCAL/MOL
REMARK 922        TOTAL FREE ENERGY PREDICTED BY IDOCK:   -7.09 KCAL/MOL
REMARK 923 INTER-LIGAND FREE ENERGY PREDICTED BY IDOCK:   -6.79 KCAL/MOL
REMARK 924 INTRA-LIGAND FREE ENERGY PREDICTED BY IDOCK:   -0.30 KCAL/MOL
REMARK 927      BINDING AFFINITY PREDICTED BY RF-SCORE:    0.00 PKD
ROOT
HETATM    1  C   UNL     1      -8.379  16.553  66.549  1.00  0.00    -0.292 C  
HETATM    2  O   UNL     1      -9.474  16.731  65.656  1.00  0.00    -0.523 OA 
ENDROOT
BRANCH   2   3
HETATM    3  C   UNL     1     -10.478  15.778  65.730  1.00  0.00    -0.367 C  
HETATM    4  C   UNL     1     -10.977  15.291  64.593  1.00  0.00    -0.322 C  
HETATM    5  C   UNL     1     -12.131  14.393  64.550  1.00  0.00    -0.481 C  
HETATM    6  O   UNL     1     -12.736  14.097  65.716  1.00  0.00    -0.508 OA 
HETATM    7  O   UNL     1     -12.549  13.978  63.477  1.00  0.00    -0.842 OA 
HETATM    8  C   UNL     1     -12.149  14.338  67.006  1.00  0.00    -0.390 C  
HETATM    9  C   UNL     1     -11.058  15.419  67.058  1.00  0.00    -0.273 C  
BRANCH   8  10
HETATM   10  C   UNL     1     -11.698  13.044  67.646  1.00  0.00    -0.415 C  
HETATM   11  C   UNL     1     -11.890  12.660  68.920  1.00  0.00    -0.345 C  
BRANCH  11  12
HETATM   12  C   UNL     1     -11.359  11.427  69.492  1.00  0.00    -0.357 C  
HETATM   13  C   UNL     1     -12.041  10.852  70.503  1.00  0.00    -0.464 C  
HETATM   14  C   UNL     1     -11.595   9.612  71.229  1.00  0.00    -0.466 C  
HETATM   15  C   UNL     1     -10.287   8.975  70.739  1.00  0.00    -0.305 C  
HETATM   16  C   UNL     1      -9.579   9.731  69.657  1.00  0.00    -0.239 C  
HETATM   17  C   UNL     1     -10.077  10.846  69.106  1.00  0.00    -0.198 C  
ENDBRANCH  11  12
ENDBRANCH   8  10
ENDBRANCH   2   3
TORSDOF 3
ENDMDL
MODEL       12
REMARK 921   NORMALIZED FREE ENERGY PREDICTED BY IDOCK:   -5.74 KCAL/MOL
REMARK 922        TOTAL FREE ENERGY PREDICTED BY IDOCK:   -7.08 KCAL/MOL
REMARK 923 INTER-LIGAND FREE ENERGY PREDICTED BY IDOCK:   -6.67 KCAL/MOL
REMARK 924 INTRA-LIGAND FREE ENERGY PREDICTED BY IDOCK:   -0.41 KCAL/MOL
REMARK 927      BINDING AFFINITY PREDICTED BY RF-SCORE:    0.00 PKD
ROOT
HETATM    1  C   UNL     1     -10.534  18.763  65.960  1.00  0.00    -0.432 C  
HETATM    2  O   UNL     1     -10.579  17.521  65.266  1.00  0.00    -0.664 OA 
ENDROOT
BRANCH   2   3
HETATM    3  C   UNL     1     -10.162  16.410  65.981  1.00  0.00    -0.356 C  
HETATM    4  C   UNL     1      -8.856  16.247  66.198  1.00  0.00    -0.362 C  
HETATM    5  C   UNL     1      -8.295  15.045  66.814  1.00  0.00    -0.154 C  
HETATM    6  O   UNL     1      -9.144  14.045  67.121  1.00  0.00    -0.212 OA 
HETATM    7  O   UNL     1      -7.087  14.947  66.988  1.00  0.00    -0.167 OA 
HETATM    8  C   UNL     1     -10.572  14.199  67.181  1.00  0.00    -0.278 C  
HETATM    9  C   UNL     1     -11.158  15.370  66.376  1.00  0.00    -0.230 C  
BRANCH   8  10
HETATM   10  C   UNL     1     -11.058  14.194  68.613  1.00  0.00    -0.283 C  
HETATM   11  C   UNL     1     -11.821  15.123  69.213  1.00  0.00    -0.347 C  
BRANCH  11  12
HETATM   12  C   UNL     1     -12.189  15.092  70.625  1.00  0.00    -0.401 C  
HETATM   13  C   UNL     1     -12.879  14.026  71.078  1.00  0.00    -0.410 C  
HETATM   14  C   UNL     1     -13.376  13.874  72.490  1.00  0.00    -0.656 C  
HETATM   15  C   UNL     1     -13.030  15.018  73.454  1.00  0.00    -0.622 C  
HETATM   16  C   UNL     1     -12.320  16.181  72.832  1.00  0.00    -0.607 C  
HETATM   17  C   UNL     1     -11.951  16.201  71.544  1.00  0.00    -0.490 C  
ENDBRANCH  11  12
ENDBRANCH   8  10
ENDBRANCH   2   3
TORSDOF 3
ENDMDL
MODEL       13
REMARK 921   NORMALIZED FREE ENERGY PREDICTED BY IDOCK:   -5.68 KCAL/MOL
REMARK 922        TOTAL FREE ENERGY PREDICTED BY IDOCK:   -7.01 KCAL/MOL
REMARK 923 INTER-LIGAND FREE ENERGY PREDICTED BY IDOCK:   -6.71 KCAL/MOL
REMARK 924 INTRA-LIGAND FREE ENERGY PREDICTED BY IDOCK:   -0.30 KCAL/MOL
REMARK 927      BINDING AFFINITY PREDICTED BY RF-SCORE:    0.00 PKD
ROOT
HETATM    1  C   UNL     1     -10.118  17.973  66.185  1.00  0.00    -0.334 C  
HETATM    2  O   UNL     1      -9.654  16.678  65.815  1.00  0.00    -0.492 OA 
ENDROOT
BRANCH   2   3
HETATM    3  C   UNL     1     -10.618  15.686  65.737  1.00  0.00    -0.361 C  
HETATM    4  C   UNL     1     -11.057  15.319  64.533  1.00  0.00    -0.260 C  
HETATM    5  C   UNL     1     -12.168  14.388  64.339  1.00  0.00    -0.458 C  
HETATM    6  O   UNL     1     -12.800  13.932  65.438  1.00  0.00    -0.662 OA 
HETATM    7  O   UNL     1     -12.531  14.088  63.210  1.00  0.00    -0.795 OA 
HETATM    8  C   UNL     1     -12.267  14.041  66.770  1.00  0.00    -0.404 C  
HETATM    9  C   UNL     1     -11.226  15.149  66.991  1.00  0.00    -0.308 C  
BRANCH   8  10
HETATM   10  C   UNL     1     -11.784  12.698  67.270  1.00  0.00    -0.435 C  
HETATM   11  C   UNL     1     -11.901  12.208  68.516  1.00  0.00    -0.365 C  
BRANCH  11  12
HETATM   12  C   UNL     1     -11.341  10.932  68.949  1.00  0.00    -0.354 C  
HETATM   13  C   UNL     1     -11.034  10.020  68.004  1.00  0.00    -0.296 C  
HETATM   14  C   UNL     1     -10.502   8.643  68.295  1.00  0.00    -0.234 C  
HETATM   15  C   UNL     1     -10.283   8.302  69.776  1.00  0.00    -0.204 C  
HETATM   16  C   UNL     1     -10.718   9.361  70.742  1.00  0.00    -0.373 C  
HETATM   17  C   UNL     1     -11.202  10.547  70.350  1.00  0.00    -0.378 C  
ENDBRANCH  11  12
ENDBRANCH   8  10
ENDBRANCH   2   3
TORSDOF 3
ENDMDL
MODEL       14
REMARK 921   NORMALIZED FREE ENERGY PREDICTED BY IDOCK:   -5.65 KCAL/MOL
REMARK 922        TOTAL FREE ENERGY PREDICTED BY IDOCK:   -6.97 KCAL/MOL
REMARK 923 INTER-LIGAND FREE ENERGY PREDICTED BY IDOCK:   -6.50 KCAL/MOL
REMARK 924 INTRA-LIGAND FREE ENERGY PREDICTED BY IDOCK:   -0.47 KCAL/MOL
REMARK 927      BINDING AFFINITY PREDICTED BY RF-SCORE:    0.00 PKD
ROOT
HETATM    1  C   UNL     1     -12.549  11.976  63.511  1.00  0.00    -0.507 C  
HETATM    2  O   UNL     1     -13.036  12.506  64.740  1.00  0.00    -0.827 OA 
ENDROOT
BRANCH   2   3
HETATM    3  C   UNL     1     -12.075  12.823  65.688  1.00  0.00    -0.459 C  
HETATM    4  C   UNL     1     -10.835  12.365  65.514  1.00  0.00    -0.316 C  
HETATM    5  C   UNL     1      -9.782  12.518  66.517  1.00  0.00    -0.246 C  
HETATM    6  O   UNL     1     -10.111  13.103  67.685  1.00  0.00    -0.215 OA 
HETATM    7  O   UNL     1      -8.660  12.076  66.306  1.00  0.00    -0.106 OA 
HETATM    8  C   UNL     1     -11.317  13.860  67.888  1.00  0.00    -0.292 C  
HETATM    9  C   UNL     1     -12.476  13.552  66.928  1.00  0.00    -0.162 C  
BRANCH   8  10
HETATM   10  C   UNL     1     -11.019  15.341  67.964  1.00  0.00    -0.299 C  
HETATM   11  C   UNL     1     -10.734  16.164  66.940  1.00  0.00    -0.247 C  
BRANCH  11  12
HETATM   12  C   UNL     1     -10.380  17.571  67.095  1.00  0.00    -0.330 C  
HETATM   13  C   UNL     1     -10.211  18.049  68.345  1.00  0.00    -0.399 C  
HETATM   14  C   UNL     1      -9.899  19.485  68.669  1.00  0.00    -0.530 C  
HETATM   15  C   UNL     1      -9.744  20.430  67.468  1.00  0.00    -0.571 C  
HETATM   16  C   UNL     1     -10.017  19.810  66.133  1.00  0.00    -0.573 C  
HETATM   17  C   UNL     1     -10.310  18.512  65.981  1.00  0.00    -0.423 C  
ENDBRANCH  11  12
ENDBRANCH   8  10
ENDBRANCH   2   3
TORSDOF 3
ENDMDL
MODEL       15
REMARK 921   NORMALIZED FREE ENERGY PREDICTED BY IDOCK:   -5.56 KCAL/MOL
REMARK 922        TOTAL FREE ENERGY PREDICTED BY IDOCK:   -6.86 KCAL/MOL
REMARK 923 INTER-LIGAND FREE ENERGY PREDICTED BY IDOCK:   -6.43 KCAL/MOL
REMARK 924 INTRA-LIGAND FREE ENERGY PREDICTED BY IDOCK:   -0.44 KCAL/MOL
REMARK 927      BINDING AFFINITY PREDICTED BY RF-SCORE:    0.00 PKD
ROOT
HETATM    1  C   UNL     1     -10.660  19.837  65.736  1.00  0.00    -0.419 C  
HETATM    2  O   UNL     1     -10.681  18.425  65.558  1.00  0.00    -0.588 OA 
ENDROOT
BRANCH   2   3
HETATM    3  C   UNL     1      -9.997  17.682  66.507  1.00  0.00    -0.332 C  
HETATM    4  C   UNL     1      -9.123  18.309  67.296  1.00  0.00    -0.256 C  
HETATM    5  C   UNL     1      -8.246  17.604  68.231  1.00  0.00    -0.276 C  
HETATM    6  O   UNL     1      -8.299  16.258  68.244  1.00  0.00    -0.174 OA 
HETATM    7  O   UNL     1      -7.460  18.230  68.929  1.00  0.00    -0.286 OA 
HETATM    8  C   UNL     1      -9.362  15.494  67.648  1.00  0.00    -0.203 C  
HETATM    9  C   UNL     1     -10.158  16.198  66.538  1.00  0.00    -0.301 C  
BRANCH   8  10
HETATM   10  C   UNL     1     -10.264  14.904  68.709  1.00  0.00    -0.243 C  
HETATM   11  C   UNL     1     -11.518  15.284  69.009  1.00  0.00    -0.338 C  
BRANCH  11  12
HETATM   12  C   UNL     1     -12.305  14.719  70.100  1.00  0.00    -0.381 C  
HETATM   13  C   UNL     1     -13.025  15.563  70.867  1.00  0.00    -0.526 C  
HETATM   14  C   UNL     1     -13.841  15.140  72.058  1.00  0.00    -0.608 C  
HETATM   15  C   UNL     1     -13.851  13.637  72.371  1.00  0.00    -0.691 C  
HETATM   16  C   UNL     1     -12.967  12.801  71.499  1.00  0.00    -0.388 C  
HETATM   17  C   UNL     1     -12.267  13.309  70.475  1.00  0.00    -0.416 C  
ENDBRANCH  11  12
ENDBRANCH   8  10
ENDBRANCH   2   3
TORSDOF 3
ENDMDL
MODEL       16
REMARK 921   NORMALIZED FREE ENERGY PREDICTED BY IDOCK:   -5.55 KCAL/MOL
REMARK 922        TOTAL FREE ENERGY PREDICTED BY IDOCK:   -6.86 KCAL/MOL
REMARK 923 INTER-LIGAND FREE ENERGY PREDICTED BY IDOCK:   -6.41 KCAL/MOL
REMARK 924 INTRA-LIGAND FREE ENERGY PREDICTED BY IDOCK:   -0.45 KCAL/MOL
REMARK 927      BINDING AFFINITY PREDICTED BY RF-SCORE:    0.00 PKD
ROOT
HETATM    1  C   UNL     1     -10.769  17.544  65.325  1.00  0.00     0.086 C  
HETATM    2  O   UNL     1     -10.906  16.237  64.777  1.00  0.00    -0.671 OA 
ENDROOT
BRANCH   2   3
HETATM    3  C   UNL     1     -10.708  15.186  65.657  1.00  0.00    -0.363 C  
HETATM    4  C   UNL     1      -9.456  14.825  65.945  1.00  0.00    -0.266 C  
HETATM    5  C   UNL     1      -9.132  13.645  66.746  1.00  0.00    -0.217 C  
HETATM    6  O   UNL     1     -10.153  12.869  67.158  1.00  0.00    -0.237 OA 
HETATM    7  O   UNL     1      -7.965  13.359  66.978  1.00  0.00    -0.102 OA 
HETATM    8  C   UNL     1     -11.530  13.283  67.140  1.00  0.00    -0.341 C  
HETATM    9  C   UNL     1     -11.882  14.410  66.156  1.00  0.00    -0.391 C  
BRANCH   8  10
HETATM   10  C   UNL     1     -12.026  13.574  68.539  1.00  0.00    -0.379 C  
HETATM   11  C   UNL     1     -11.860  14.710  69.237  1.00  0.00    -0.357 C  
BRANCH  11  12
HETATM   12  C   UNL     1     -12.300  14.894  70.616  1.00  0.00    -0.406 C  
HETATM   13  C   UNL     1     -11.888  15.998  71.272  1.00  0.00    -0.502 C  
HETATM   14  C   UNL     1     -12.212  16.301  72.710  1.00  0.00    -0.592 C  
HETATM   15  C   UNL     1     -13.094  15.275  73.435  1.00  0.00    -0.612 C  
HETATM   16  C   UNL     1     -13.440  14.057  72.635  1.00  0.00    -0.650 C  
HETATM   17  C   UNL     1     -13.066  13.897  71.358  1.00  0.00    -0.413 C  
ENDBRANCH  11  12
ENDBRANCH   8  10
ENDBRANCH   2   3
TORSDOF 3
ENDMDL
MODEL       17
REMARK 921   NORMALIZED FREE ENERGY PREDICTED BY IDOCK:   -5.53 KCAL/MOL
REMARK 922        TOTAL FREE ENERGY PREDICTED BY IDOCK:   -6.83 KCAL/MOL
REMARK 923 INTER-LIGAND FREE ENERGY PREDICTED BY IDOCK:   -6.40 KCAL/MOL
REMARK 924 INTRA-LIGAND FREE ENERGY PREDICTED BY IDOCK:   -0.43 KCAL/MOL
REMARK 927      BINDING AFFINITY PREDICTED BY RF-SCORE:    0.00 PKD
ROOT
HETATM    1  C   UNL     1     -10.640   6.768  68.466  1.00  0.00    -0.225 C  
HETATM    2  O   UNL     1     -11.581   6.283  69.418  1.00  0.00    -0.403 OA 
ENDROOT
BRANCH   2   3
HETATM    3  C   UNL     1     -11.689   7.012  70.591  1.00  0.00    -0.338 C  
HETATM    4  C   UNL     1     -10.615   7.120  71.374  1.00  0.00    -0.234 C  
HETATM    5  C   UNL     1     -10.653   7.742  72.697  1.00  0.00    -0.317 C  
HETATM    6  O   UNL     1     -11.846   8.172  73.152  1.00  0.00    -0.224 OA 
HETATM    7  O   UNL     1      -9.636   7.812  73.375  1.00  0.00    -0.263 OA 
HETATM    8  C   UNL     1     -13.003   8.350  72.316  1.00  0.00    -0.301 C  
HETATM    9  C   UNL     1     -13.020   7.544  71.008  1.00  0.00    -0.160 C  
BRANCH   8  10
HETATM   10  C   UNL     1     -13.281   9.818  72.084  1.00  0.00    -0.530 C  
HETATM   11  C   UNL     1     -12.490  10.702  71.452  1.00  0.00    -0.496 C  
BRANCH  11  12
HETATM   12  C   UNL     1     -12.787  12.126  71.331  1.00  0.00    -0.378 C  
HETATM   13  C   UNL     1     -12.230  12.806  70.309  1.00  0.00    -0.351 C  
HETATM   14  C   UNL     1     -12.398  14.284  70.082  1.00  0.00    -0.413 C  
HETATM   15  C   UNL     1     -13.291  15.025  71.087  1.00  0.00    -0.510 C  
HETATM   16  C   UNL     1     -13.804  14.188  72.218  1.00  0.00    -0.643 C  
HETATM   17  C   UNL     1     -13.561  12.874  72.317  1.00  0.00    -0.611 C  
ENDBRANCH  11  12
ENDBRANCH   8  10
ENDBRANCH   2   3
TORSDOF 3
ENDMDL
MODEL       18
REMARK 921   NORMALIZED FREE ENERGY PREDICTED BY IDOCK:   -5.43 KCAL/MOL
REMARK 922        TOTAL FREE ENERGY PREDICTED BY IDOCK:   -6.72 KCAL/MOL
REMARK 923 INTER-LIGAND FREE ENERGY PREDICTED BY IDOCK:   -6.38 KCAL/MOL
REMARK 924 INTRA-LIGAND FREE ENERGY PREDICTED BY IDOCK:   -0.34 KCAL/MOL
REMARK 927      BINDING AFFINITY PREDICTED BY RF-SCORE:    0.00 PKD
ROOT
HETATM    1  C   UNL     1      -8.484  16.631  66.713  1.00  0.00    -0.235 C  
HETATM    2  O   UNL     1      -8.665  15.464  65.918  1.00  0.00    -0.117 OA 
ENDROOT
BRANCH   2   3
HETATM    3  C   UNL     1      -9.910  14.861  66.000  1.00  0.00    -0.318 C  
HETATM    4  C   UNL     1     -10.473  14.409  64.879  1.00  0.00    -0.448 C  
HETATM    5  C   UNL     1     -11.839  13.887  64.827  1.00  0.00    -0.397 C  
HETATM    6  O   UNL     1     -12.564  13.920  65.962  1.00  0.00    -0.467 OA 
HETATM    7  O   UNL     1     -12.306  13.487  63.769  1.00  0.00    -0.661 OA 
HETATM    8  C   UNL     1     -11.997  14.131  67.267  1.00  0.00    -0.414 C  
HETATM    9  C   UNL     1     -10.638  14.846  67.304  1.00  0.00    -0.272 C  
BRANCH   8  10
HETATM   10  C   UNL     1     -11.987  12.846  68.066  1.00  0.00    -0.323 C  
HETATM   11  C   UNL     1     -11.794  12.717  69.390  1.00  0.00    -0.359 C  
BRANCH  11  12
HETATM   12  C   UNL     1     -11.721  11.437  70.085  1.00  0.00    -0.414 C  
HETATM   13  C   UNL     1     -10.888  10.495  69.596  1.00  0.00    -0.320 C  
HETATM   14  C   UNL     1     -10.743   9.111  70.167  1.00  0.00    -0.263 C  
HETATM   15  C   UNL     1     -11.595   8.799  71.406  1.00  0.00    -0.366 C  
HETATM   16  C   UNL     1     -12.530   9.891  71.825  1.00  0.00    -0.487 C  
HETATM   17  C   UNL     1     -12.579  11.081  71.211  1.00  0.00    -0.517 C  
ENDBRANCH  11  12
ENDBRANCH   8  10
ENDBRANCH   2   3
TORSDOF 3
ENDMDL
MODEL       19
REMARK 921   NORMALIZED FREE ENERGY PREDICTED BY IDOCK:   -5.38 KCAL/MOL
REMARK 922        TOTAL FREE ENERGY PREDICTED BY IDOCK:   -6.65 KCAL/MOL
REMARK 923 INTER-LIGAND FREE ENERGY PREDICTED BY IDOCK:   -6.20 KCAL/MOL
REMARK 924 INTRA-LIGAND FREE ENERGY PREDICTED BY IDOCK:   -0.46 KCAL/MOL
REMARK 927      BINDING AFFINITY PREDICTED BY RF-SCORE:    0.00 PKD
ROOT
HETATM    1  C   UNL     1      -7.515  20.467  67.274  1.00  0.00    -0.339 C  
HETATM    2  O   UNL     1      -8.694  19.986  67.911  1.00  0.00    -0.309 OA 
ENDROOT
BRANCH   2   3
HETATM    3  C   UNL     1      -8.988  18.646  67.714  1.00  0.00    -0.282 C  
HETATM    4  C   UNL     1      -7.978  17.788  67.572  1.00  0.00    -0.217 C  
HETATM    5  C   UNL     1      -8.171  16.381  67.219  1.00  0.00    -0.168 C  
HETATM    6  O   UNL     1      -9.429  15.965  66.978  1.00  0.00    -0.215 OA 
HETATM    7  O   UNL     1      -7.206  15.638  67.098  1.00  0.00    -0.210 OA 
HETATM    8  C   UNL     1     -10.602  16.709  67.349  1.00  0.00    -0.295 C  
HETATM    9  C   UNL     1     -10.409  18.221  67.540  1.00  0.00    -0.415 C  
BRANCH   8  10
HETATM   10  C   UNL     1     -11.298  16.069  68.530  1.00  0.00    -0.382 C  
HETATM   11  C   UNL     1     -11.086  16.328  69.831  1.00  0.00    -0.347 C  
BRANCH  11  12
HETATM   12  C   UNL     1     -11.740  15.616  70.924  1.00  0.00    -0.423 C  
HETATM   13  C   UNL     1     -12.288  14.412  70.660  1.00  0.00    -0.422 C  
HETATM   14  C   UNL     1     -13.042  13.584  71.665  1.00  0.00    -0.459 C  
HETATM   15  C   UNL     1     -13.148  14.170  73.080  1.00  0.00    -0.458 C  
HETATM   16  C   UNL     1     -12.562  15.539  73.246  1.00  0.00    -0.617 C  
HETATM   17  C   UNL     1     -11.932  16.183  72.255  1.00  0.00    -0.637 C  
ENDBRANCH  11  12
ENDBRANCH   8  10
ENDBRANCH   2   3
TORSDOF 3
ENDMDL
MODEL       20
REMARK 921   NORMALIZED FREE ENERGY PREDICTED BY IDOCK:   -5.35 KCAL/MOL
REMARK 922        TOTAL FREE ENERGY PREDICTED BY IDOCK:   -6.62 KCAL/MOL
REMARK 923 INTER-LIGAND FREE ENERGY PREDICTED BY IDOCK:   -6.28 KCAL/MOL
REMARK 924 INTRA-LIGAND FREE ENERGY PREDICTED BY IDOCK:   -0.34 KCAL/MOL
REMARK 927      BINDING AFFINITY PREDICTED BY RF-SCORE:    0.00 PKD
ROOT
HETATM    1  C   UNL     1     -11.844  15.614  63.967  1.00  0.00     0.068 C  
HETATM    2  O   UNL     1     -11.396  16.925  64.296  1.00  0.00    -1.202 OA 
ENDROOT
BRANCH   2   3
HETATM    3  C   UNL     1     -10.878  17.088  65.571  1.00  0.00    -0.069 C  
HETATM    4  C   UNL     1     -10.621  18.325  65.999  1.00  0.00    -0.318 C  
HETATM    5  C   UNL     1      -9.944  18.604  67.266  1.00  0.00    -0.329 C  
HETATM    6  O   UNL     1      -9.521  17.553  67.994  1.00  0.00    -0.265 OA 
HETATM    7  O   UNL     1      -9.731  19.760  67.609  1.00  0.00    -0.333 OA 
HETATM    8  C   UNL     1      -9.962  16.201  67.777  1.00  0.00    -0.237 C  
HETATM    9  C   UNL     1     -10.506  15.886  66.375  1.00  0.00    -0.311 C  
BRANCH   8  10
HETATM   10  C   UNL     1     -10.911  15.760  68.869  1.00  0.00    -0.283 C  
HETATM   11  C   UNL     1     -10.753  15.920  70.193  1.00  0.00    -0.338 C  
BRANCH  11  12
HETATM   12  C   UNL     1     -11.676  15.400  71.196  1.00  0.00    -0.418 C  
HETATM   13  C   UNL     1     -12.405  14.309  70.883  1.00  0.00    -0.429 C  
HETATM   14  C   UNL     1     -13.435  13.689  71.788  1.00  0.00    -0.465 C  
HETATM   15  C   UNL     1     -13.619  14.354  73.159  1.00  0.00    -0.031 C  
HETATM   16  C   UNL     1     -12.808  15.595  73.377  1.00  0.00    -0.667 C  
HETATM   17  C   UNL     1     -11.935  16.059  72.473  1.00  0.00    -0.649 C  
ENDBRANCH  11  12
ENDBRANCH   8  10
ENDBRANCH   2   3
TORSDOF 3
ENDMDL
MODEL       21
REMARK 921   NORMALIZED FREE ENERGY PREDICTED BY IDOCK:   -5.33 KCAL/MOL
REMARK 922        TOTAL FREE ENERGY PREDICTED BY IDOCK:   -6.60 KCAL/MOL
REMARK 923 INTER-LIGAND FREE ENERGY PREDICTED BY IDOCK:   -6.28 KCAL/MOL
REMARK 924 INTRA-LIGAND FREE ENERGY PREDICTED BY IDOCK:   -0.32 KCAL/MOL
REMARK 927      BINDING AFFINITY PREDICTED BY RF-SCORE:    0.00 PKD
ROOT
HETATM    1  C   UNL     1     -12.312  12.241  63.391  1.00  0.00    -0.517 C  
HETATM    2  O   UNL     1     -12.885  12.982  64.463  1.00  0.00    -0.692 OA 
ENDROOT
BRANCH   2   3
HETATM    3  C   UNL     1     -12.185  12.961  65.659  1.00  0.00    -0.463 C  
HETATM    4  C   UNL     1     -12.280  14.016  66.470  1.00  0.00    -0.485 C  
HETATM    5  C   UNL     1     -11.477  14.162  67.684  1.00  0.00    -0.338 C  
HETATM    6  O   UNL     1     -10.568  13.204  67.951  1.00  0.00    -0.225 OA 
HETATM    7  O   UNL     1     -11.603  15.153  68.391  1.00  0.00    -0.318 OA 
HETATM    8  C   UNL     1     -10.554  11.915  67.314  1.00  0.00    -0.228 C  
HETATM    9  C   UNL     1     -11.254  11.831  65.948  1.00  0.00    -0.345 C  
BRANCH   8  10
HETATM   10  C   UNL     1     -11.026  10.837  68.263  1.00  0.00    -0.307 C  
HETATM   11  C   UNL     1     -10.490  10.513  69.452  1.00  0.00    -0.264 C  
BRANCH  11  12
HETATM   12  C   UNL     1     -10.952   9.407  70.284  1.00  0.00    -0.305 C  
HETATM   13  C   UNL     1     -10.892   8.160  69.774  1.00  0.00    -0.190 C  
HETATM   14  C   UNL     1     -11.379   6.927  70.485  1.00  0.00    -0.374 C  
HETATM   15  C   UNL     1     -11.950   7.142  71.894  1.00  0.00    -0.343 C  
HETATM   16  C   UNL     1     -12.031   8.571  72.336  1.00  0.00    -0.434 C  
HETATM   17  C   UNL     1     -11.579   9.587  71.590  1.00  0.00    -0.451 C  
ENDBRANCH  11  12
ENDBRANCH   8  10
ENDBRANCH   2   3
TORSDOF 3
ENDMDL
MODEL       22
REMARK 921   NORMALIZED FREE ENERGY PREDICTED BY IDOCK:   -5.32 KCAL/MOL
REMARK 922        TOTAL FREE ENERGY PREDICTED BY IDOCK:   -6.58 KCAL/MOL
REMARK 923 INTER-LIGAND FREE ENERGY PREDICTED BY IDOCK:   -6.14 KCAL/MOL
REMARK 924 INTRA-LIGAND FREE ENERGY PREDICTED BY IDOCK:   -0.45 KCAL/MOL
REMARK 927      BINDING AFFINITY PREDICTED BY RF-SCORE:    0.00 PKD
ROOT
HETATM    1  C   UNL     1      -5.804  20.337  69.580  1.00  0.00    -0.346 C  
HETATM    2  O   UNL     1      -7.034  19.621  69.535  1.00  0.00    -0.347 OA 
ENDROOT
BRANCH   2   3
HETATM    3  C   UNL     1      -7.650  19.548  68.296  1.00  0.00    -0.311 C  
HETATM    4  C   UNL     1      -6.883  19.526  67.205  1.00  0.00    -0.219 C  
HETATM    5  C   UNL     1      -7.426  19.593  65.848  1.00  0.00    -0.316 C  
HETATM    6  O   UNL     1      -8.758  19.737  65.715  1.00  0.00    -0.379 OA 
HETATM    7  O   UNL     1      -6.674  19.571  64.882  1.00  0.00    -0.402 OA 
HETATM    8  C   UNL     1      -9.697  19.512  66.780  1.00  0.00    -0.366 C  
HETATM    9  C   UNL     1      -9.138  19.624  68.207  1.00  0.00    -0.395 C  
BRANCH   8  10
HETATM   10  C   UNL     1     -10.459  18.223  66.566  1.00  0.00    -0.378 C  
HETATM   11  C   UNL     1      -9.991  16.972  66.715  1.00  0.00    -0.297 C  
BRANCH  11  12
HETATM   12  C   UNL     1     -10.762  15.770  66.416  1.00  0.00    -0.277 C  
HETATM   13  C   UNL     1     -11.047  14.930  67.432  1.00  0.00    -0.325 C  
HETATM   14  C   UNL     1     -11.784  13.627  67.275  1.00  0.00    -0.416 C  
HETATM   15  C   UNL     1     -12.248  13.281  65.853  1.00  0.00    -0.497 C  
HETATM   16  C   UNL     1     -11.822  14.249  64.792  1.00  0.00    -0.436 C  
HETATM   17  C   UNL     1     -11.143  15.371  65.065  1.00  0.00    -0.428 C  
ENDBRANCH  11  12
ENDBRANCH   8  10
ENDBRANCH   2   3
TORSDOF 3
ENDMDL
MODEL       23
REMARK 921   NORMALIZED FREE ENERGY PREDICTED BY IDOCK:   -5.31 KCAL/MOL
REMARK 922        TOTAL FREE ENERGY PREDICTED BY IDOCK:   -6.57 KCAL/MOL
REMARK 923 INTER-LIGAND FREE ENERGY PREDICTED BY IDOCK:   -6.18 KCAL/MOL
REMARK 924 INTRA-LIGAND FREE ENERGY PREDICTED BY IDOCK:   -0.39 KCAL/MOL
REMARK 927      BINDING AFFINITY PREDICTED BY RF-SCORE:    0.00 PKD
ROOT
HETATM    1  C   UNL     1      -9.493  17.529  66.919  1.00  0.00    -0.274 C  
HETATM    2  O   UNL     1      -9.417  16.617  65.828  1.00  0.00    -0.495 OA 
ENDROOT
BRANCH   2   3
HETATM    3  C   UNL     1     -10.381  15.622  65.800  1.00  0.00    -0.365 C  
HETATM    4  C   UNL     1     -11.047  15.413  64.663  1.00  0.00    -0.361 C  
HETATM    5  C   UNL     1     -12.177  14.490  64.560  1.00  0.00    -0.465 C  
HETATM    6  O   UNL     1     -12.584  13.872  65.686  1.00  0.00    -0.492 OA 
HETATM    7  O   UNL     1     -12.754  14.339  63.491  1.00  0.00    -0.767 OA 
HETATM    8  C   UNL     1     -11.803  13.810  66.891  1.00  0.00    -0.413 C  
HETATM    9  C   UNL     1     -10.735  14.903  67.060  1.00  0.00    -0.307 C  
BRANCH   8  10
HETATM   10  C   UNL     1     -11.235  12.424  67.097  1.00  0.00    -0.353 C  
HETATM   11  C   UNL     1     -10.668  11.635  66.169  1.00  0.00    -0.325 C  
BRANCH  11  12
HETATM   12  C   UNL     1     -10.209  10.273  66.422  1.00  0.00    -0.290 C  
HETATM   13  C   UNL     1      -9.319   9.733  65.565  1.00  0.00    -0.299 C  
HETATM   14  C   UNL     1      -8.795   8.326  65.660  1.00  0.00    -0.172 C  
HETATM   15  C   UNL     1      -9.311   7.492  66.841  1.00  0.00    -0.197 C  
HETATM   16  C   UNL     1     -10.343   8.165  67.692  1.00  0.00    -0.313 C  
HETATM   17  C   UNL     1     -10.744   9.427  67.484  1.00  0.00    -0.290 C  
ENDBRANCH  11  12
ENDBRANCH   8  10
ENDBRANCH   2   3
TORSDOF 3
ENDMDL
MODEL       24
REMARK 921   NORMALIZED FREE ENERGY PREDICTED BY IDOCK:   -5.30 KCAL/MOL
REMARK 922        TOTAL FREE ENERGY PREDICTED BY IDOCK:   -6.57 KCAL/MOL
REMARK 923 INTER-LIGAND FREE ENERGY PREDICTED BY IDOCK:   -6.27 KCAL/MOL
REMARK 924 INTRA-LIGAND FREE ENERGY PREDICTED BY IDOCK:   -0.30 KCAL/MOL
REMARK 927      BINDING AFFINITY PREDICTED BY RF-SCORE:    0.00 PKD
ROOT
HETATM    1  C   UNL     1     -12.262  12.809  63.429  1.00  0.00    -0.504 C  
HETATM    2  O   UNL     1     -12.952  13.167  64.622  1.00  0.00    -0.708 OA 
ENDROOT
BRANCH   2   3
HETATM    3  C   UNL     1     -12.231  13.050  65.800  1.00  0.00    -0.453 C  
HETATM    4  C   UNL     1     -12.269  14.059  66.671  1.00  0.00    -0.463 C  
HETATM    5  C   UNL     1     -11.438  14.104  67.874  1.00  0.00    -0.312 C  
HETATM    6  O   UNL     1     -10.562  13.099  68.067  1.00  0.00    -0.224 OA 
HETATM    7  O   UNL     1     -11.513  15.056  68.640  1.00  0.00    -0.281 OA 
HETATM    8  C   UNL     1     -10.610  11.850  67.357  1.00  0.00    -0.225 C  
HETATM    9  C   UNL     1     -11.339  11.871  66.004  1.00  0.00    -0.375 C  
BRANCH   8  10
HETATM   10  C   UNL     1     -11.106  10.736  68.253  1.00  0.00    -0.327 C  
HETATM   11  C   UNL     1     -10.584  10.351  69.430  1.00  0.00    -0.267 C  
BRANCH  11  12
HETATM   12  C   UNL     1     -11.069   9.215  70.207  1.00  0.00    -0.272 C  
HETATM   13  C   UNL     1     -11.501   9.444  71.464  1.00  0.00    -0.467 C  
HETATM   14  C   UNL     1     -11.977   8.371  72.406  1.00  0.00    -0.451 C  
HETATM   15  C   UNL     1     -11.984   6.939  71.851  1.00  0.00    -0.363 C  
HETATM   16  C   UNL     1     -11.423   6.790  70.470  1.00  0.00    -0.413 C  
HETATM   17  C   UNL     1     -11.007   7.834  69.740  1.00  0.00    -0.162 C  
ENDBRANCH  11  12
ENDBRANCH   8  10
ENDBRANCH   2   3
TORSDOF 3
ENDMDL
MODEL       25
REMARK 921   NORMALIZED FREE ENERGY PREDICTED BY IDOCK:   -5.29 KCAL/MOL
REMARK 922        TOTAL FREE ENERGY PREDICTED BY IDOCK:   -6.55 KCAL/MOL
REMARK 923 INTER-LIGAND FREE ENERGY PREDICTED BY IDOCK:   -6.10 KCAL/MOL
REMARK 924 INTRA-LIGAND FREE ENERGY PREDICTED BY IDOCK:   -0.45 KCAL/MOL
REMARK 927      BINDING AFFINITY PREDICTED BY RF-SCORE:    0.00 PKD
ROOT
HETATM    1  C   UNL     1     -12.257  14.161  69.580  1.00  0.00    -0.305 C  
HETATM    2  O   UNL     1     -12.272  13.292  68.452  1.00  0.00    -0.271 OA 
ENDROOT
BRANCH   2   3
HETATM    3  C   UNL     1     -11.656  13.772  67.307  1.00  0.00    -0.361 C  
HETATM    4  C   UNL     1     -12.410  14.022  66.236  1.00  0.00    -0.482 C  
HETATM    5  C   UNL     1     -11.851  14.394  64.937  1.00  0.00    -0.417 C  
HETATM    6  O   UNL     1     -10.509  14.428  64.821  1.00  0.00    -0.430 OA 
HETATM    7  O   UNL     1     -12.591  14.610  63.987  1.00  0.00    -0.819 OA 
HETATM    8  C   UNL     1      -9.610  14.438  65.942  1.00  0.00    -0.220 C  
HETATM    9  C   UNL     1     -10.167  13.874  67.259  1.00  0.00    -0.249 C  
BRANCH   8  10
HETATM   10  C   UNL     1      -8.990  15.806  66.126  1.00  0.00    -0.372 C  
HETATM   11  C   UNL     1      -9.606  16.925  66.542  1.00  0.00    -0.295 C  
BRANCH  11  12
HETATM   12  C   UNL     1      -8.961  18.231  66.623  1.00  0.00    -0.296 C  
HETATM   13  C   UNL     1      -7.720  18.361  66.112  1.00  0.00    -0.253 C  
HETATM   14  C   UNL     1      -6.907  19.625  66.167  1.00  0.00    -0.249 C  
HETATM   15  C   UNL     1      -7.580  20.833  66.834  1.00  0.00    -0.242 C  
HETATM   16  C   UNL     1      -8.929  20.562  67.425  1.00  0.00    -0.420 C  
HETATM   17  C   UNL     1      -9.540  19.373  67.326  1.00  0.00    -0.415 C  
ENDBRANCH  11  12
ENDBRANCH   8  10
ENDBRANCH   2   3
TORSDOF 3
ENDMDL
MODEL       26
REMARK 921   NORMALIZED FREE ENERGY PREDICTED BY IDOCK:   -5.29 KCAL/MOL
REMARK 922        TOTAL FREE ENERGY PREDICTED BY IDOCK:   -6.54 KCAL/MOL
REMARK 923 INTER-LIGAND FREE ENERGY PREDICTED BY IDOCK:   -6.23 KCAL/MOL
REMARK 924 INTRA-LIGAND FREE ENERGY PREDICTED BY IDOCK:   -0.31 KCAL/MOL
REMARK 927      BINDING AFFINITY PREDICTED BY RF-SCORE:    0.00 PKD
ROOT
HETATM    1  C   UNL     1     -14.336   7.502  71.558  1.00  0.00    -0.458 C  
HETATM    2  O   UNL     1     -13.767   8.722  72.021  1.00  0.00    -0.389 OA 
ENDROOT
BRANCH   2   3
HETATM    3  C   UNL     1     -12.691   9.206  71.292  1.00  0.00    -0.278 C  
HETATM    4  C   UNL     1     -11.653   8.396  71.077  1.00  0.00    -0.307 C  
HETATM    5  C   UNL     1     -10.412   8.844  70.447  1.00  0.00    -0.210 C  
HETATM    6  O   UNL     1     -10.309  10.148  70.124  1.00  0.00    -0.270 OA 
HETATM    7  O   UNL     1      -9.489   8.058  70.276  1.00  0.00    -0.166 OA 
HETATM    8  C   UNL     1     -11.430  11.047  70.063  1.00  0.00    -0.314 C  
HETATM    9  C   UNL     1     -12.666  10.641  70.881  1.00  0.00    -0.498 C  
BRANCH   8  10
HETATM   10  C   UNL     1     -11.780  11.377  68.628  1.00  0.00    -0.394 C  
HETATM   11  C   UNL     1     -10.943  11.803  67.668  1.00  0.00    -0.286 C  
BRANCH  11  12
HETATM   12  C   UNL     1     -11.365  12.177  66.322  1.00  0.00    -0.411 C  
HETATM   13  C   UNL     1     -10.925  11.431  65.288  1.00  0.00    -0.251 C  
HETATM   14  C   UNL     1     -11.227  11.720  63.843  1.00  0.00    -0.493 C  
HETATM   15  C   UNL     1     -12.122  12.939  63.571  1.00  0.00    -0.633 C  
HETATM   16  C   UNL     1     -12.499  13.733  64.784  1.00  0.00    -0.386 C  
HETATM   17  C   UNL     1     -12.142  13.376  66.025  1.00  0.00    -0.487 C  
ENDBRANCH  11  12
ENDBRANCH   8  10
ENDBRANCH   2   3
TORSDOF 3
ENDMDL
MODEL       27
REMARK 921   NORMALIZED FREE ENERGY PREDICTED BY IDOCK:   -5.28 KCAL/MOL
REMARK 922        TOTAL FREE ENERGY PREDICTED BY IDOCK:   -6.53 KCAL/MOL
REMARK 923 INTER-LIGAND FREE ENERGY PREDICTED BY IDOCK:   -6.17 KCAL/MOL
REMARK 924 INTRA-LIGAND FREE ENERGY PREDICTED BY IDOCK:   -0.36 KCAL/MOL
REMARK 927      BINDING AFFINITY PREDICTED BY RF-SCORE:    0.00 PKD
ROOT
HETATM    1  C   UNL     1      -9.782   9.881  64.995  1.00  0.00    -0.288 C  
HETATM    2  O   UNL     1     -10.090  11.023  64.201  1.00  0.00    -0.287 OA 
ENDROOT
BRANCH   2   3
HETATM    3  C   UNL     1     -10.714  12.070  64.860  1.00  0.00    -0.301 C  
HETATM    4  C   UNL     1     -11.046  11.908  66.141  1.00  0.00    -0.374 C  
HETATM    5  C   UNL     1     -11.832  12.889  66.891  1.00  0.00    -0.379 C  
HETATM    6  O   UNL     1     -12.276  13.973  66.227  1.00  0.00    -0.433 OA 
HETATM    7  O   UNL     1     -12.110  12.687  68.066  1.00  0.00    -0.305 OA 
HETATM    8  C   UNL     1     -11.775  14.386  64.944  1.00  0.00    -0.408 C  
HETATM    9  C   UNL     1     -11.110  13.291  64.096  1.00  0.00    -0.393 C  
BRANCH   8  10
HETATM   10  C   UNL     1     -10.902  15.614  65.074  1.00  0.00    -0.468 C  
HETATM   11  C   UNL     1     -10.657  16.319  66.191  1.00  0.00    -0.272 C  
BRANCH  11  12
HETATM   12  C   UNL     1      -9.863  17.543  66.229  1.00  0.00    -0.295 C  
HETATM   13  C   UNL     1      -8.525  17.428  66.348  1.00  0.00    -0.292 C  
HETATM   14  C   UNL     1      -7.580  18.594  66.455  1.00  0.00    -0.284 C  
HETATM   15  C   UNL     1      -8.218  19.989  66.392  1.00  0.00    -0.338 C  
HETATM   16  C   UNL     1      -9.714  20.001  66.326  1.00  0.00    -0.546 C  
HETATM   17  C   UNL     1     -10.446  18.881  66.258  1.00  0.00    -0.510 C  
ENDBRANCH  11  12
ENDBRANCH   8  10
ENDBRANCH   2   3
TORSDOF 3
ENDMDL
MODEL       28
REMARK 921   NORMALIZED FREE ENERGY PREDICTED BY IDOCK:   -5.27 KCAL/MOL
REMARK 922        TOTAL FREE ENERGY PREDICTED BY IDOCK:   -6.53 KCAL/MOL
REMARK 923 INTER-LIGAND FREE ENERGY PREDICTED BY IDOCK:   -6.12 KCAL/MOL
REMARK 924 INTRA-LIGAND FREE ENERGY PREDICTED BY IDOCK:   -0.41 KCAL/MOL
REMARK 927      BINDING AFFINITY PREDICTED BY RF-SCORE:    0.00 PKD
ROOT
HETATM    1  C   UNL     1      -8.644   9.248  68.340  1.00  0.00    -0.124 C  
HETATM    2  O   UNL     1      -8.481   8.500  69.541  1.00  0.00    -0.123 OA 
ENDROOT
BRANCH   2   3
HETATM    3  C   UNL     1      -9.547   8.533  70.427  1.00  0.00    -0.172 C  
HETATM    4  C   UNL     1      -9.346   8.118  71.678  1.00  0.00    -0.228 C  
HETATM    5  C   UNL     1     -10.428   7.976  72.653  1.00  0.00    -0.339 C  
HETATM    6  O   UNL     1     -11.683   8.228  72.235  1.00  0.00    -0.338 OA 
HETATM    7  O   UNL     1     -10.187   7.588  73.788  1.00  0.00    -0.322 OA 
HETATM    8  C   UNL     1     -11.995   8.923  71.015  1.00  0.00    -0.261 C  
HETATM    9  C   UNL     1     -10.905   8.906  69.932  1.00  0.00    -0.219 C  
BRANCH   8  10
HETATM   10  C   UNL     1     -12.491  10.323  71.301  1.00  0.00    -0.514 C  
HETATM   11  C   UNL     1     -12.233  11.434  70.592  1.00  0.00    -0.484 C  
BRANCH  11  12
HETATM   12  C   UNL     1     -12.683  12.769  70.971  1.00  0.00    -0.331 C  
HETATM   13  C   UNL     1     -12.253  13.816  70.238  1.00  0.00    -0.429 C  
HETATM   14  C   UNL     1     -12.586  15.254  70.535  1.00  0.00    -0.450 C  
HETATM   15  C   UNL     1     -13.500  15.500  71.744  1.00  0.00    -0.576 C  
HETATM   16  C   UNL     1     -13.864  14.275  72.524  1.00  0.00    -0.575 C  
HETATM   17  C   UNL     1     -13.480  13.043  72.163  1.00  0.00    -0.638 C  
ENDBRANCH  11  12
ENDBRANCH   8  10
ENDBRANCH   2   3
TORSDOF 3
ENDMDL
MODEL       29
REMARK 921   NORMALIZED FREE ENERGY PREDICTED BY IDOCK:   -5.26 KCAL/MOL
REMARK 922        TOTAL FREE ENERGY PREDICTED BY IDOCK:   -6.52 KCAL/MOL
REMARK 923 INTER-LIGAND FREE ENERGY PREDICTED BY IDOCK:   -6.23 KCAL/MOL
REMARK 924 INTRA-LIGAND FREE ENERGY PREDICTED BY IDOCK:   -0.29 KCAL/MOL
REMARK 927      BINDING AFFINITY PREDICTED BY RF-SCORE:    0.00 PKD
ROOT
HETATM    1  C   UNL     1      -6.509  21.116  66.915  1.00  0.00    -0.330 C  
HETATM    2  O   UNL     1      -6.803  19.759  67.231  1.00  0.00    -0.206 OA 
ENDROOT
BRANCH   2   3
HETATM    3  C   UNL     1      -8.146  19.416  67.247  1.00  0.00    -0.269 C  
HETATM    4  C   UNL     1      -8.918  19.820  66.237  1.00  0.00    -0.431 C  
HETATM    5  C   UNL     1     -10.369  19.638  66.222  1.00  0.00    -0.518 C  
HETATM    6  O   UNL     1     -10.941  19.083  67.308  1.00  0.00    -0.459 OA 
HETATM    7  O   UNL     1     -11.029  20.031  65.269  1.00  0.00    -0.315 OA 
HETATM    8  C   UNL     1     -10.208  18.378  68.325  1.00  0.00    -0.384 C  
HETATM    9  C   UNL     1      -8.715  18.721  68.439  1.00  0.00    -0.369 C  
BRANCH   8  10
HETATM   10  C   UNL     1     -10.445  16.887  68.227  1.00  0.00    -0.352 C  
HETATM   11  C   UNL     1     -11.497  16.201  68.704  1.00  0.00    -0.340 C  
BRANCH  11  12
HETATM   12  C   UNL     1     -11.623  14.749  68.642  1.00  0.00    -0.345 C  
HETATM   13  C   UNL     1     -11.730  14.070  69.802  1.00  0.00    -0.375 C  
HETATM   14  C   UNL     1     -11.813  12.571  69.903  1.00  0.00    -0.373 C  
HETATM   15  C   UNL     1     -11.799  11.802  68.574  1.00  0.00    -0.365 C  
HETATM   16  C   UNL     1     -11.611  12.648  67.353  1.00  0.00    -0.421 C  
HETATM   17  C   UNL     1     -11.527  13.984  67.402  1.00  0.00    -0.373 C  
ENDBRANCH  11  12
ENDBRANCH   8  10
ENDBRANCH   2   3
TORSDOF 3
ENDMDL
MODEL       30
REMARK 921   NORMALIZED FREE ENERGY PREDICTED BY IDOCK:   -5.26 KCAL/MOL
REMARK 922        TOTAL FREE ENERGY PREDICTED BY IDOCK:   -6.52 KCAL/MOL
REMARK 923 INTER-LIGAND FREE ENERGY PREDICTED BY IDOCK:   -6.14 KCAL/MOL
REMARK 924 INTRA-LIGAND FREE ENERGY PREDICTED BY IDOCK:   -0.38 KCAL/MOL
REMARK 927      BINDING AFFINITY PREDICTED BY RF-SCORE:    0.00 PKD
ROOT
HETATM    1  C   UNL     1      -8.884  10.443  63.324  1.00  0.00    -0.216 C  
HETATM    2  O   UNL     1      -8.966  11.345  64.423  1.00  0.00     0.012 OA 
ENDROOT
BRANCH   2   3
HETATM    3  C   UNL     1     -10.149  12.058  64.537  1.00  0.00    -0.265 C  
HETATM    4  C   UNL     1     -11.211  11.641  63.847  1.00  0.00    -0.479 C  
HETATM    5  C   UNL     1     -12.464  12.394  63.781  1.00  0.00    -0.492 C  
HETATM    6  O   UNL     1     -12.511  13.585  64.409  1.00  0.00    -0.578 OA 
HETATM    7  O   UNL     1     -13.407  11.965  63.130  1.00  0.00    -0.470 OA 
HETATM    8  C   UNL     1     -11.546  14.012  65.386  1.00  0.00    -0.328 C  
HETATM    9  C   UNL     1     -10.171  13.329  65.319  1.00  0.00    -0.303 C  
BRANCH   8  10
HETATM   10  C   UNL     1     -12.134  13.974  66.779  1.00  0.00    -0.480 C  
HETATM   11  C   UNL     1     -11.464  13.861  67.938  1.00  0.00    -0.350 C  
BRANCH  11  12
HETATM   12  C   UNL     1     -12.103  13.753  69.245  1.00  0.00    -0.374 C  
HETATM   13  C   UNL     1     -12.631  14.869  69.788  1.00  0.00    -0.147 C  
HETATM   14  C   UNL     1     -13.273  14.930  71.147  1.00  0.00    -0.476 C  
HETATM   15  C   UNL     1     -13.335  13.607  71.925  1.00  0.00    -0.510 C  
HETATM   16  C   UNL     1     -12.661  12.447  71.259  1.00  0.00    -0.347 C  
HETATM   17  C   UNL     1     -12.101  12.532  70.045  1.00  0.00    -0.337 C  
ENDBRANCH  11  12
ENDBRANCH   8  10
ENDBRANCH   2   3
TORSDOF 3
ENDMDL
MODEL       31
REMARK 921   NORMALIZED FREE ENERGY PREDICTED BY IDOCK:   -5.25 KCAL/MOL
REMARK 922        TOTAL FREE ENERGY PREDICTED BY IDOCK:   -6.50 KCAL/MOL
REMARK 923 INTER-LIGAND FREE ENERGY PREDICTED BY IDOCK:   -6.19 KCAL/MOL
REMARK 924 INTRA-LIGAND FREE ENERGY PREDICTED BY IDOCK:   -0.31 KCAL/MOL
REMARK 927      BINDING AFFINITY PREDICTED BY RF-SCORE:    0.00 PKD
ROOT
HETATM    1  C   UNL     1     -13.268  11.035  71.806  1.00  0.00    -0.400 C  
HETATM    2  O   UNL     1     -12.324  11.698  70.973  1.00  0.00    -0.360 OA 
ENDROOT
BRANCH   2   3
HETATM    3  C   UNL     1     -12.476  13.071  70.855  1.00  0.00    -0.310 C  
HETATM    4  C   UNL     1     -13.089  13.730  71.840  1.00  0.00    -0.474 C  
HETATM    5  C   UNL     1     -13.429  15.150  71.757  1.00  0.00    -0.433 C  
HETATM    6  O   UNL     1     -13.151  15.793  70.606  1.00  0.00    -0.497 OA 
HETATM    7  O   UNL     1     -13.994  15.704  72.690  1.00  0.00    -0.566 OA 
HETATM    8  C   UNL     1     -12.272  15.275  69.593  1.00  0.00    -0.271 C  
HETATM    9  C   UNL     1     -12.070  13.752  69.589  1.00  0.00    -0.392 C  
BRANCH   8  10
HETATM   10  C   UNL     1     -10.957  16.023  69.583  1.00  0.00    -0.326 C  
HETATM   11  C   UNL     1     -10.548  16.931  68.681  1.00  0.00    -0.360 C  
BRANCH  11  12
HETATM   12  C   UNL     1      -9.231  17.559  68.691  1.00  0.00    -0.267 C  
HETATM   13  C   UNL     1      -8.156  16.775  68.910  1.00  0.00    -0.230 C  
HETATM   14  C   UNL     1      -6.742  17.281  69.003  1.00  0.00    -0.238 C  
HETATM   15  C   UNL     1      -6.551  18.792  68.802  1.00  0.00    -0.282 C  
HETATM   16  C   UNL     1      -7.815  19.575  68.631  1.00  0.00    -0.383 C  
HETATM   17  C   UNL     1      -9.025  19.000  68.589  1.00  0.00    -0.402 C  
ENDBRANCH  11  12
ENDBRANCH   8  10
ENDBRANCH   2   3
TORSDOF 3
ENDMDL
MODEL       32
REMARK 921   NORMALIZED FREE ENERGY PREDICTED BY IDOCK:   -5.22 KCAL/MOL
REMARK 922        TOTAL FREE ENERGY PREDICTED BY IDOCK:   -6.47 KCAL/MOL
REMARK 923 INTER-LIGAND FREE ENERGY PREDICTED BY IDOCK:   -6.14 KCAL/MOL
REMARK 924 INTRA-LIGAND FREE ENERGY PREDICTED BY IDOCK:   -0.33 KCAL/MOL
REMARK 927      BINDING AFFINITY PREDICTED BY RF-SCORE:    0.00 PKD
ROOT
HETATM    1  C   UNL     1     -12.474  16.527  74.531  1.00  0.00    -0.258 C  
HETATM    2  O   UNL     1     -11.799  16.815  73.311  1.00  0.00    -0.423 OA 
ENDROOT
BRANCH   2   3
HETATM    3  C   UNL     1     -12.014  15.923  72.272  1.00  0.00    -0.518 C  
HETATM    4  C   UNL     1     -11.463  16.184  71.086  1.00  0.00    -0.433 C  
HETATM    5  C   UNL     1     -11.739  15.391  69.888  1.00  0.00    -0.336 C  
HETATM    6  O   UNL     1     -12.633  14.389  69.994  1.00  0.00    -0.330 OA 
HETATM    7  O   UNL     1     -11.206  15.677  68.824  1.00  0.00    -0.289 OA 
HETATM    8  C   UNL     1     -13.086  13.851  71.248  1.00  0.00    -0.315 C  
HETATM    9  C   UNL     1     -12.949  14.776  72.467  1.00  0.00    -0.481 C  
BRANCH   8  10
HETATM   10  C   UNL     1     -12.486  12.485  71.498  1.00  0.00    -0.122 C  
HETATM   11  C   UNL     1     -12.400  11.466  70.628  1.00  0.00    -0.466 C  
BRANCH  11  12
HETATM   12  C   UNL     1     -11.876  10.146  70.962  1.00  0.00    -0.475 C  
HETATM   13  C   UNL     1     -12.648   9.324  71.701  1.00  0.00    -0.446 C  
HETATM   14  C   UNL     1     -12.227   7.958  72.170  1.00  0.00    -0.353 C  
HETATM   15  C   UNL     1     -10.829   7.495  71.735  1.00  0.00    -0.261 C  
HETATM   16  C   UNL     1     -10.033   8.510  70.974  1.00  0.00    -0.255 C  
HETATM   17  C   UNL     1     -10.521   9.711  70.637  1.00  0.00    -0.379 C  
ENDBRANCH  11  12
ENDBRANCH   8  10
ENDBRANCH   2   3
TORSDOF 3
ENDMDL
MODEL       33
REMARK 921   NORMALIZED FREE ENERGY PREDICTED BY IDOCK:   -5.18 KCAL/MOL
REMARK 922        TOTAL FREE ENERGY PREDICTED BY IDOCK:   -6.42 KCAL/MOL
REMARK 923 INTER-LIGAND FREE ENERGY PREDICTED BY IDOCK:   -5.97 KCAL/MOL
REMARK 924 INTRA-LIGAND FREE ENERGY PREDICTED BY IDOCK:   -0.45 KCAL/MOL
REMARK 927      BINDING AFFINITY PREDICTED BY RF-SCORE:    0.00 PKD
ROOT
HETATM    1  C   UNL     1      -6.963  12.473  68.094  1.00  0.00    -0.089 C  
HETATM    2  O   UNL     1      -7.792  12.831  66.993  1.00  0.00    -0.125 OA 
ENDROOT
BRANCH   2   3
HETATM    3  C   UNL     1      -9.152  12.626  67.164  1.00  0.00    -0.210 C  
HETATM    4  C   UNL     1      -9.582  11.388  67.411  1.00  0.00    -0.185 C  
HETATM    5  C   UNL     1     -11.000  11.034  67.467  1.00  0.00    -0.281 C  
HETATM    6  O   UNL     1     -11.897  12.004  67.203  1.00  0.00    -0.565 OA 
HETATM    7  O   UNL     1     -11.339   9.880  67.695  1.00  0.00    -0.151 OA 
HETATM    8  C   UNL     1     -11.578  13.405  67.185  1.00  0.00    -0.358 C  
HETATM    9  C   UNL     1     -10.101  13.757  66.945  1.00  0.00    -0.260 C  
BRANCH   8  10
HETATM   10  C   UNL     1     -12.138  14.103  68.404  1.00  0.00    -0.308 C  
HETATM   11  C   UNL     1     -11.634  14.089  69.649  1.00  0.00    -0.348 C  
BRANCH  11  12
HETATM   12  C   UNL     1     -12.271  14.724  70.798  1.00  0.00    -0.380 C  
HETATM   13  C   UNL     1     -11.480  15.190  71.786  1.00  0.00    -0.452 C  
HETATM   14  C   UNL     1     -11.989  15.819  73.055  1.00  0.00    -0.596 C  
HETATM   15  C   UNL     1     -13.514  15.944  73.182  1.00  0.00    -0.650 C  
HETATM   16  C   UNL     1     -14.297  15.337  72.060  1.00  0.00    -0.689 C  
HETATM   17  C   UNL     1     -13.717  14.781  70.988  1.00  0.00    -0.322 C  
ENDBRANCH  11  12
ENDBRANCH   8  10
ENDBRANCH   2   3
TORSDOF 3
ENDMDL
MODEL       34
REMARK 921   NORMALIZED FREE ENERGY PREDICTED BY IDOCK:   -5.14 KCAL/MOL
REMARK 922        TOTAL FREE ENERGY PREDICTED BY IDOCK:   -6.37 KCAL/MOL
REMARK 923 INTER-LIGAND FREE ENERGY PREDICTED BY IDOCK:   -5.97 KCAL/MOL
REMARK 924 INTRA-LIGAND FREE ENERGY PREDICTED BY IDOCK:   -0.40 KCAL/MOL
REMARK 927      BINDING AFFINITY PREDICTED BY RF-SCORE:    0.00 PKD
ROOT
HETATM    1  C   UNL     1      -7.831   7.398  69.020  1.00  0.00    -0.120 C  
HETATM    2  O   UNL     1      -8.455   8.658  69.243  1.00  0.00    -0.120 OA 
ENDROOT
BRANCH   2   3
HETATM    3  C   UNL     1      -9.395   8.699  70.261  1.00  0.00    -0.167 C  
HETATM    4  C   UNL     1      -9.009   8.378  71.496  1.00  0.00    -0.251 C  
HETATM    5  C   UNL     1      -9.943   8.250  72.614  1.00  0.00    -0.287 C  
HETATM    6  O   UNL     1     -11.255   8.416  72.355  1.00  0.00    -0.353 OA 
HETATM    7  O   UNL     1      -9.534   7.950  73.728  1.00  0.00    -0.268 OA 
HETATM    8  C   UNL     1     -11.762   9.012  71.150  1.00  0.00    -0.302 C  
HETATM    9  C   UNL     1     -10.825   8.974  69.932  1.00  0.00    -0.228 C  
BRANCH   8  10
HETATM   10  C   UNL     1     -12.293  10.403  71.417  1.00  0.00    -0.500 C  
HETATM   11  C   UNL     1     -12.148  11.489  70.638  1.00  0.00    -0.450 C  
BRANCH  11  12
HETATM   12  C   UNL     1     -12.622  12.822  70.996  1.00  0.00    -0.362 C  
HETATM   13  C   UNL     1     -13.525  12.928  71.992  1.00  0.00    -0.568 C  
HETATM   14  C   UNL     1     -14.147  14.224  72.439  1.00  0.00    -0.561 C  
HETATM   15  C   UNL     1     -13.676  15.487  71.705  1.00  0.00    -0.562 C  
HETATM   16  C   UNL     1     -12.723  15.248  70.574  1.00  0.00    -0.440 C  
HETATM   17  C   UNL     1     -12.259  14.030  70.262  1.00  0.00    -0.430 C  
ENDBRANCH  11  12
ENDBRANCH   8  10
ENDBRANCH   2   3
TORSDOF 3
ENDMDL
MODEL       35
REMARK 921   NORMALIZED FREE ENERGY PREDICTED BY IDOCK:   -5.13 KCAL/MOL
REMARK 922        TOTAL FREE ENERGY PREDICTED BY IDOCK:   -6.37 KCAL/MOL
REMARK 923 INTER-LIGAND FREE ENERGY PREDICTED BY IDOCK:   -6.02 KCAL/MOL
REMARK 924 INTRA-LIGAND FREE ENERGY PREDICTED BY IDOCK:   -0.35 KCAL/MOL
REMARK 927      BINDING AFFINITY PREDICTED BY RF-SCORE:    0.00 PKD
ROOT
HETATM    1  C   UNL     1      -9.616  18.455  68.327  1.00  0.00    -0.334 C  
HETATM    2  O   UNL     1     -10.262  17.537  69.203  1.00  0.00    -0.333 OA 
ENDROOT
BRANCH   2   3
HETATM    3  C   UNL     1     -10.582  16.302  68.660  1.00  0.00    -0.297 C  
HETATM    4  C   UNL     1      -9.825  15.827  67.671  1.00  0.00    -0.232 C  
HETATM    5  C   UNL     1     -10.153  14.607  66.932  1.00  0.00    -0.255 C  
HETATM    6  O   UNL     1     -11.303  13.978  67.244  1.00  0.00    -0.303 OA 
HETATM    7  O   UNL     1      -9.423  14.218  66.031  1.00  0.00    -0.268 OA 
HETATM    8  C   UNL     1     -12.055  14.234  68.442  1.00  0.00    -0.262 C  
HETATM    9  C   UNL     1     -11.824  15.602  69.104  1.00  0.00    -0.378 C  
BRANCH   8  10
HETATM   10  C   UNL     1     -11.910  13.094  69.426  1.00  0.00    -0.383 C  
HETATM   11  C   UNL     1     -11.753  11.791  69.138  1.00  0.00    -0.388 C  
BRANCH  11  12
HETATM   12  C   UNL     1     -11.696  10.733  70.141  1.00  0.00    -0.425 C  
HETATM   13  C   UNL     1     -12.765  10.562  70.945  1.00  0.00    -0.495 C  
HETATM   14  C   UNL     1     -12.837   9.553  72.058  1.00  0.00    -0.499 C  
HETATM   15  C   UNL     1     -11.602   8.659  72.241  1.00  0.00    -0.424 C  
HETATM   16  C   UNL     1     -10.449   8.977  71.339  1.00  0.00    -0.395 C  
HETATM   17  C   UNL     1     -10.507   9.926  70.395  1.00  0.00    -0.347 C  
ENDBRANCH  11  12
ENDBRANCH   8  10
ENDBRANCH   2   3
TORSDOF 3
ENDMDL
MODEL       36
REMARK 921   NORMALIZED FREE ENERGY PREDICTED BY IDOCK:   -5.13 KCAL/MOL
REMARK 922        TOTAL FREE ENERGY PREDICTED BY IDOCK:   -6.36 KCAL/MOL
REMARK 923 INTER-LIGAND FREE ENERGY PREDICTED BY IDOCK:   -5.92 KCAL/MOL
REMARK 924 INTRA-LIGAND FREE ENERGY PREDICTED BY IDOCK:   -0.44 KCAL/MOL
REMARK 927      BINDING AFFINITY PREDICTED BY RF-SCORE:    0.00 PKD
ROOT
HETATM    1  C   UNL     1     -10.156  19.917  68.034  1.00  0.00    -0.440 C  
HETATM    2  O   UNL     1      -9.355  18.917  68.654  1.00  0.00    -0.347 OA 
ENDROOT
BRANCH   2   3
HETATM    3  C   UNL     1      -9.449  17.643  68.116  1.00  0.00    -0.286 C  
HETATM    4  C   UNL     1      -8.323  16.964  67.890  1.00  0.00    -0.198 C  
HETATM    5  C   UNL     1      -8.296  15.676  67.197  1.00  0.00    -0.208 C  
HETATM    6  O   UNL     1      -9.462  15.194  66.727  1.00  0.00    -0.218 OA 
HETATM    7  O   UNL     1      -7.233  15.098  67.014  1.00  0.00    -0.170 OA 
HETATM    8  C   UNL     1     -10.751  15.688  67.129  1.00  0.00    -0.314 C  
HETATM    9  C   UNL     1     -10.780  17.118  67.691  1.00  0.00    -0.302 C  
BRANCH   8  10
HETATM   10  C   UNL     1     -11.447  14.704  68.043  1.00  0.00    -0.346 C  
HETATM   11  C   UNL     1     -11.287  14.579  69.371  1.00  0.00    -0.314 C  
BRANCH  11  12
HETATM   12  C   UNL     1     -11.936  13.553  70.181  1.00  0.00    -0.399 C  
HETATM   13  C   UNL     1     -12.687  13.950  71.228  1.00  0.00    -0.444 C  
HETATM   14  C   UNL     1     -13.373  13.013  72.185  1.00  0.00    -0.622 C  
HETATM   15  C   UNL     1     -13.204  11.514  71.900  1.00  0.00    -0.479 C  
HETATM   16  C   UNL     1     -12.297  11.183  70.754  1.00  0.00    -0.504 C  
HETATM   17  C   UNL     1     -11.725  12.121  69.988  1.00  0.00    -0.330 C  
ENDBRANCH  11  12
ENDBRANCH   8  10
ENDBRANCH   2   3
TORSDOF 3
ENDMDL
MODEL       37
REMARK 921   NORMALIZED FREE ENERGY PREDICTED BY IDOCK:   -5.11 KCAL/MOL
REMARK 922        TOTAL FREE ENERGY PREDICTED BY IDOCK:   -6.33 KCAL/MOL
REMARK 923 INTER-LIGAND FREE ENERGY PREDICTED BY IDOCK:   -6.02 KCAL/MOL
REMARK 924 INTRA-LIGAND FREE ENERGY PREDICTED BY IDOCK:   -0.31 KCAL/MOL
REMARK 927      BINDING AFFINITY PREDICTED BY RF-SCORE:    0.00 PKD
ROOT
HETATM    1  C   UNL     1     -12.766  15.876  73.260  1.00  0.00    -0.539 C  
HETATM    2  O   UNL     1     -11.577  15.380  72.654  1.00  0.00    -0.459 OA 
ENDROOT
BRANCH   2   3
HETATM    3  C   UNL     1     -11.594  15.286  71.271  1.00  0.00    -0.380 C  
HETATM    4  C   UNL     1     -10.936  16.205  70.563  1.00  0.00    -0.284 C  
HETATM    5  C   UNL     1     -11.004  16.284  69.104  1.00  0.00    -0.324 C  
HETATM    6  O   UNL     1     -11.812  15.415  68.467  1.00  0.00    -0.345 OA 
HETATM    7  O   UNL     1     -10.381  17.151  68.505  1.00  0.00    -0.318 OA 
HETATM    8  C   UNL     1     -12.356  14.233  69.079  1.00  0.00    -0.112 C  
HETATM    9  C   UNL     1     -12.440  14.246  70.614  1.00  0.00    -0.428 C  
BRANCH   8  10
HETATM   10  C   UNL     1     -11.670  12.990  68.558  1.00  0.00    -0.377 C  
HETATM   11  C   UNL     1     -11.715  12.504  67.306  1.00  0.00    -0.431 C  
BRANCH  11  12
HETATM   12  C   UNL     1     -11.090  11.254  66.890  1.00  0.00    -0.339 C  
HETATM   13  C   UNL     1     -11.101  10.219  67.755  1.00  0.00    -0.335 C  
HETATM   14  C   UNL     1     -10.452   8.887  67.494  1.00  0.00    -0.337 C  
HETATM   15  C   UNL     1      -9.766   8.726  66.130  1.00  0.00    -0.320 C  
HETATM   16  C   UNL     1      -9.756   9.956  65.275  1.00  0.00    -0.383 C  
HETATM   17  C   UNL     1     -10.356  11.097  65.637  1.00  0.00    -0.311 C  
ENDBRANCH  11  12
ENDBRANCH   8  10
ENDBRANCH   2   3
TORSDOF 3
ENDMDL
MODEL       38
REMARK 921   NORMALIZED FREE ENERGY PREDICTED BY IDOCK:   -5.08 KCAL/MOL
REMARK 922        TOTAL FREE ENERGY PREDICTED BY IDOCK:   -6.30 KCAL/MOL
REMARK 923 INTER-LIGAND FREE ENERGY PREDICTED BY IDOCK:   -5.86 KCAL/MOL
REMARK 924 INTRA-LIGAND FREE ENERGY PREDICTED BY IDOCK:   -0.44 KCAL/MOL
REMARK 927      BINDING AFFINITY PREDICTED BY RF-SCORE:    0.00 PKD
ROOT
HETATM    1  C   UNL     1      -6.239  20.958  65.744  1.00  0.00    -0.233 C  
HETATM    2  O   UNL     1      -7.281  20.085  65.320  1.00  0.00    -0.298 OA 
ENDROOT
BRANCH   2   3
HETATM    3  C   UNL     1      -7.921  19.371  66.321  1.00  0.00    -0.319 C  
HETATM    4  C   UNL     1      -8.869  19.982  67.033  1.00  0.00    -0.433 C  
HETATM    5  C   UNL     1      -9.506  19.373  68.200  1.00  0.00    -0.347 C  
HETATM    6  O   UNL     1      -9.067  18.161  68.590  1.00  0.00    -0.308 OA 
HETATM    7  O   UNL     1     -10.370  19.981  68.818  1.00  0.00    -0.433 OA 
HETATM    8  C   UNL     1      -8.256  17.302  67.771  1.00  0.00    -0.203 C  
HETATM    9  C   UNL     1      -7.452  17.994  66.658  1.00  0.00    -0.256 C  
BRANCH   8  10
HETATM   10  C   UNL     1      -9.062  16.134  67.248  1.00  0.00    -0.215 C  
HETATM   11  C   UNL     1      -9.979  16.157  66.266  1.00  0.00    -0.336 C  
BRANCH  11  12
HETATM   12  C   UNL     1     -10.777  15.004  65.864  1.00  0.00    -0.337 C  
HETATM   13  C   UNL     1     -11.251  14.968  64.602  1.00  0.00    -0.342 C  
HETATM   14  C   UNL     1     -12.131  13.876  64.057  1.00  0.00    -0.437 C  
HETATM   15  C   UNL     1     -12.466  12.732  65.025  1.00  0.00    -0.572 C  
HETATM   16  C   UNL     1     -11.943  12.904  66.418  1.00  0.00    -0.462 C  
HETATM   17  C   UNL     1     -11.183  13.945  66.784  1.00  0.00    -0.328 C  
ENDBRANCH  11  12
ENDBRANCH   8  10
ENDBRANCH   2   3
TORSDOF 3
ENDMDL
MODEL       39
REMARK 921   NORMALIZED FREE ENERGY PREDICTED BY IDOCK:   -5.05 KCAL/MOL
REMARK 922        TOTAL FREE ENERGY PREDICTED BY IDOCK:   -6.26 KCAL/MOL
REMARK 923 INTER-LIGAND FREE ENERGY PREDICTED BY IDOCK:   -5.91 KCAL/MOL
REMARK 924 INTRA-LIGAND FREE ENERGY PREDICTED BY IDOCK:   -0.35 KCAL/MOL
REMARK 927      BINDING AFFINITY PREDICTED BY RF-SCORE:    0.00 PKD
ROOT
HETATM    1  C   UNL     1      -9.609  10.619  62.917  1.00  0.00    -0.327 C  
HETATM    2  O   UNL     1      -9.229  10.996  64.236  1.00  0.00    -0.200 OA 
ENDROOT
BRANCH   2   3
HETATM    3  C   UNL     1     -10.120  11.812  64.915  1.00  0.00    -0.259 C  
HETATM    4  C   UNL     1     -10.538  11.432  66.123  1.00  0.00    -0.316 C  
HETATM    5  C   UNL     1     -11.581  12.140  66.865  1.00  0.00    -0.341 C  
HETATM    6  O   UNL     1     -12.171  13.191  66.263  1.00  0.00    -0.408 OA 
HETATM    7  O   UNL     1     -11.928  11.745  67.970  1.00  0.00    -0.553 OA 
HETATM    8  C   UNL     1     -11.640  13.849  65.100  1.00  0.00    -0.335 C  
HETATM    9  C   UNL     1     -10.680  13.018  64.235  1.00  0.00    -0.430 C  
BRANCH   8  10
HETATM   10  C   UNL     1     -11.058  15.198  65.461  1.00  0.00    -0.347 C  
HETATM   11  C   UNL     1     -11.113  15.811  66.655  1.00  0.00    -0.099 C  
BRANCH  11  12
HETATM   12  C   UNL     1     -10.595  17.150  66.912  1.00  0.00    -0.209 C  
HETATM   13  C   UNL     1     -10.180  17.442  68.161  1.00  0.00    -0.350 C  
HETATM   14  C   UNL     1      -9.673  18.791  68.594  1.00  0.00    -0.437 C  
HETATM   15  C   UNL     1      -9.613  19.871  67.505  1.00  0.00    -0.493 C  
HETATM   16  C   UNL     1     -10.158  19.460  66.172  1.00  0.00    -0.533 C  
HETATM   17  C   UNL     1     -10.605  18.222  65.921  1.00  0.00    -0.274 C  
ENDBRANCH  11  12
ENDBRANCH   8  10
ENDBRANCH   2   3
TORSDOF 3
ENDMDL
MODEL       40
REMARK 921   NORMALIZED FREE ENERGY PREDICTED BY IDOCK:   -5.03 KCAL/MOL
REMARK 922        TOTAL FREE ENERGY PREDICTED BY IDOCK:   -6.25 KCAL/MOL
REMARK 923 INTER-LIGAND FREE ENERGY PREDICTED BY IDOCK:   -5.86 KCAL/MOL
REMARK 924 INTRA-LIGAND FREE ENERGY PREDICTED BY IDOCK:   -0.39 KCAL/MOL
REMARK 927      BINDING AFFINITY PREDICTED BY RF-SCORE:    0.00 PKD
ROOT
HETATM    1  C   UNL     1     -14.082  15.232  72.086  1.00  0.00    -0.560 C  
HETATM    2  O   UNL     1     -13.951  13.936  72.660  1.00  0.00    -0.684 OA 
ENDROOT
BRANCH   2   3
HETATM    3  C   UNL     1     -13.351  12.975  71.862  1.00  0.00    -0.446 C  
HETATM    4  C   UNL     1     -12.488  13.374  70.926  1.00  0.00    -0.439 C  
HETATM    5  C   UNL     1     -11.908  12.465  69.938  1.00  0.00    -0.305 C  
HETATM    6  O   UNL     1     -12.313  11.181  69.956  1.00  0.00    -0.304 OA 
HETATM    7  O   UNL     1     -11.122  12.886  69.099  1.00  0.00    -0.243 OA 
HETATM    8  C   UNL     1     -13.019  10.581  71.056  1.00  0.00    -0.383 C  
HETATM    9  C   UNL     1     -13.774  11.548  71.981  1.00  0.00     0.056 C  
BRANCH   8  10
HETATM   10  C   UNL     1     -12.120   9.640  71.827  1.00  0.00    -0.446 C  
HETATM   11  C   UNL     1     -10.840   9.337  71.554  1.00  0.00    -0.442 C  
BRANCH  11  12
HETATM   12  C   UNL     1     -10.054   8.359  72.298  1.00  0.00    -0.382 C  
HETATM   13  C   UNL     1     -10.709   7.489  73.092  1.00  0.00    -0.452 C  
HETATM   14  C   UNL     1     -10.038   6.460  73.961  1.00  0.00    -0.328 C  
HETATM   15  C   UNL     1      -8.505   6.413  73.889  1.00  0.00    -0.122 C  
HETATM   16  C   UNL     1      -7.876   7.465  73.028  1.00  0.00    -0.119 C  
HETATM   17  C   UNL     1      -8.594   8.345  72.317  1.00  0.00    -0.263 C  
ENDBRANCH  11  12
ENDBRANCH   8  10
ENDBRANCH   2   3
TORSDOF 3
ENDMDL
MODEL       41
REMARK 921   NORMALIZED FREE ENERGY PREDICTED BY IDOCK:   -5.00 KCAL/MOL
REMARK 922        TOTAL FREE ENERGY PREDICTED BY IDOCK:   -6.21 KCAL/MOL
REMARK 923 INTER-LIGAND FREE ENERGY PREDICTED BY IDOCK:   -5.91 KCAL/MOL
REMARK 924 INTRA-LIGAND FREE ENERGY PREDICTED BY IDOCK:   -0.29 KCAL/MOL
REMARK 927      BINDING AFFINITY PREDICTED BY RF-SCORE:    0.00 PKD
ROOT
HETATM    1  C   UNL     1      -8.349  10.020  63.369  1.00  0.00    -0.170 C  
HETATM    2  O   UNL     1      -9.690  10.440  63.141  1.00  0.00    -0.319 OA 
ENDROOT
BRANCH   2   3
HETATM    3  C   UNL     1     -10.351  10.982  64.231  1.00  0.00    -0.364 C  
HETATM    4  C   UNL     1     -11.504  11.620  64.024  1.00  0.00    -0.404 C  
HETATM    5  C   UNL     1     -12.211  12.350  65.076  1.00  0.00    -0.399 C  
HETATM    6  O   UNL     1     -11.631  12.415  66.290  1.00  0.00    -0.357 OA 
HETATM    7  O   UNL     1     -13.265  12.919  64.829  1.00  0.00    -0.764 OA 
HETATM    8  C   UNL     1     -10.546  11.567  66.704  1.00  0.00    -0.253 C  
HETATM    9  C   UNL     1      -9.703  10.951  65.576  1.00  0.00    -0.282 C  
BRANCH   8  10
HETATM   10  C   UNL     1     -11.020  10.526  67.693  1.00  0.00    -0.375 C  
HETATM   11  C   UNL     1     -10.672  10.419  68.986  1.00  0.00    -0.260 C  
BRANCH  11  12
HETATM   12  C   UNL     1     -11.111   9.340  69.866  1.00  0.00    -0.200 C  
HETATM   13  C   UNL     1     -11.669   9.671  71.047  1.00  0.00    -0.433 C  
HETATM   14  C   UNL     1     -12.120   8.676  72.082  1.00  0.00    -0.451 C  
HETATM   15  C   UNL     1     -11.941   7.195  71.717  1.00  0.00    -0.348 C  
HETATM   16  C   UNL     1     -11.252   6.941  70.412  1.00  0.00    -0.359 C  
HETATM   17  C   UNL     1     -10.876   7.927  69.586  1.00  0.00    -0.177 C  
ENDBRANCH  11  12
ENDBRANCH   8  10
ENDBRANCH   2   3
TORSDOF 3
ENDMDL
MODEL       42
REMARK 921   NORMALIZED FREE ENERGY PREDICTED BY IDOCK:   -4.94 KCAL/MOL
REMARK 922        TOTAL FREE ENERGY PREDICTED BY IDOCK:   -6.14 KCAL/MOL
REMARK 923 INTER-LIGAND FREE ENERGY PREDICTED BY IDOCK:   -5.84 KCAL/MOL
REMARK 924 INTRA-LIGAND FREE ENERGY PREDICTED BY IDOCK:   -0.30 KCAL/MOL
REMARK 927      BINDING AFFINITY PREDICTED BY RF-SCORE:    0.00 PKD
ROOT
HETATM    1  C   UNL     1     -10.791  16.502  68.352  1.00  0.00    -0.348 C  
HETATM    2  O   UNL     1     -11.025  15.557  69.390  1.00  0.00    -0.240 OA 
ENDROOT
BRANCH   2   3
HETATM    3  C   UNL     1     -11.348  14.273  68.982  1.00  0.00    -0.272 C  
HETATM    4  C   UNL     1     -11.173  13.951  67.699  1.00  0.00    -0.316 C  
HETATM    5  C   UNL     1     -11.612  12.676  67.132  1.00  0.00    -0.368 C  
HETATM    6  O   UNL     1     -12.267  11.823  67.943  1.00  0.00    -0.538 OA 
HETATM    7  O   UNL     1     -11.428  12.433  65.946  1.00  0.00    -0.337 OA 
HETATM    8  C   UNL     1     -12.284  11.936  69.376  1.00  0.00    -0.125 C  
HETATM    9  C   UNL     1     -11.994  13.333  69.946  1.00  0.00    -0.400 C  
BRANCH   8  10
HETATM   10  C   UNL     1     -11.418  10.871  70.013  1.00  0.00    -0.411 C  
HETATM   11  C   UNL     1     -11.784   9.987  70.956  1.00  0.00    -0.479 C  
BRANCH  11  12
HETATM   12  C   UNL     1     -10.873   9.035  71.582  1.00  0.00    -0.437 C  
HETATM   13  C   UNL     1     -11.392   8.123  72.430  1.00  0.00    -0.456 C  
HETATM   14  C   UNL     1     -10.578   7.113  73.192  1.00  0.00    -0.377 C  
HETATM   15  C   UNL     1      -9.063   7.137  72.940  1.00  0.00    -0.164 C  
HETATM   16  C   UNL     1      -8.588   8.231  72.033  1.00  0.00    -0.238 C  
HETATM   17  C   UNL     1      -9.422   9.087  71.430  1.00  0.00    -0.334 C  
ENDBRANCH  11  12
ENDBRANCH   8  10
ENDBRANCH   2   3
TORSDOF 3
ENDMDL
MODEL       43
REMARK 921   NORMALIZED FREE ENERGY PREDICTED BY IDOCK:   -4.92 KCAL/MOL
REMARK 922        TOTAL FREE ENERGY PREDICTED BY IDOCK:   -6.12 KCAL/MOL
REMARK 923 INTER-LIGAND FREE ENERGY PREDICTED BY IDOCK:   -5.71 KCAL/MOL
REMARK 924 INTRA-LIGAND FREE ENERGY PREDICTED BY IDOCK:   -0.41 KCAL/MOL
REMARK 927      BINDING AFFINITY PREDICTED BY RF-SCORE:    0.00 PKD
ROOT
HETATM    1  C   UNL     1     -12.366  11.990  63.240  1.00  0.00    -0.438 C  
HETATM    2  O   UNL     1     -12.749  12.932  64.237  1.00  0.00    -0.652 OA 
ENDROOT
BRANCH   2   3
HETATM    3  C   UNL     1     -11.977  12.948  65.388  1.00  0.00    -0.426 C  
HETATM    4  C   UNL     1     -12.346  13.747  66.389  1.00  0.00    -0.460 C  
HETATM    5  C   UNL     1     -11.531  13.950  67.588  1.00  0.00    -0.324 C  
HETATM    6  O   UNL     1     -10.334  13.334  67.641  1.00  0.00    -0.225 OA 
HETATM    7  O   UNL     1     -11.917  14.698  68.476  1.00  0.00    -0.315 OA 
HETATM    8  C   UNL     1      -9.948  12.260  66.766  1.00  0.00    -0.205 C  
HETATM    9  C   UNL     1     -10.700  12.176  65.429  1.00  0.00    -0.323 C  
BRANCH   8  10
HETATM   10  C   UNL     1      -9.944  10.938  67.501  1.00  0.00    -0.201 C  
HETATM   11  C   UNL     1     -10.520   9.790  67.106  1.00  0.00    -0.316 C  
BRANCH  11  12
HETATM   12  C   UNL     1     -10.542   8.569  67.905  1.00  0.00    -0.219 C  
HETATM   13  C   UNL     1     -10.653   7.391  67.259  1.00  0.00    -0.393 C  
HETATM   14  C   UNL     1     -10.744   6.053  67.943  1.00  0.00    -0.363 C  
HETATM   15  C   UNL     1     -10.675   6.074  69.477  1.00  0.00    -0.405 C  
HETATM   16  C   UNL     1     -10.618   7.438  70.093  1.00  0.00    -0.240 C  
HETATM   17  C   UNL     1     -10.565   8.561  69.364  1.00  0.00    -0.203 C  
ENDBRANCH  11  12
ENDBRANCH   8  10
ENDBRANCH   2   3
TORSDOF 3
ENDMDL
MODEL       44
REMARK 921   NORMALIZED FREE ENERGY PREDICTED BY IDOCK:   -4.92 KCAL/MOL
REMARK 922        TOTAL FREE ENERGY PREDICTED BY IDOCK:   -6.11 KCAL/MOL
REMARK 923 INTER-LIGAND FREE ENERGY PREDICTED BY IDOCK:   -5.70 KCAL/MOL
REMARK 924 INTRA-LIGAND FREE ENERGY PREDICTED BY IDOCK:   -0.41 KCAL/MOL
REMARK 927      BINDING AFFINITY PREDICTED BY RF-SCORE:    0.00 PKD
ROOT
HETATM    1  C   UNL     1     -12.242  14.507  64.222  1.00  0.00    -0.415 C  
HETATM    2  O   UNL     1     -12.016  14.567  65.627  1.00  0.00    -0.359 OA 
ENDROOT
BRANCH   2   3
HETATM    3  C   UNL     1     -11.133  13.631  66.141  1.00  0.00    -0.295 C  
HETATM    4  C   UNL     1      -9.983  14.061  66.661  1.00  0.00    -0.280 C  
HETATM    5  C   UNL     1      -8.920  13.157  67.101  1.00  0.00    -0.228 C  
HETATM    6  O   UNL     1      -9.106  11.836  66.915  1.00  0.00    -0.180 OA 
HETATM    7  O   UNL     1      -7.883  13.608  67.569  1.00  0.00    -0.158 OA 
HETATM    8  C   UNL     1     -10.382  11.243  66.616  1.00  0.00    -0.237 C  
HETATM    9  C   UNL     1     -11.428  12.176  65.987  1.00  0.00    -0.427 C  
BRANCH   8  10
HETATM   10  C   UNL     1     -10.928  10.503  67.817  1.00  0.00    -0.372 C  
HETATM   11  C   UNL     1     -11.135  10.998  69.049  1.00  0.00    -0.301 C  
BRANCH  11  12
HETATM   12  C   UNL     1     -11.594  10.203  70.183  1.00  0.00    -0.350 C  
HETATM   13  C   UNL     1     -12.774  10.528  70.750  1.00  0.00    -0.471 C  
HETATM   14  C   UNL     1     -13.354   9.841  71.957  1.00  0.00    -0.547 C  
HETATM   15  C   UNL     1     -12.530   8.680  72.533  1.00  0.00    -0.372 C  
HETATM   16  C   UNL     1     -11.208   8.447  71.869  1.00  0.00    -0.379 C  
HETATM   17  C   UNL     1     -10.796   9.152  70.807  1.00  0.00    -0.331 C  
ENDBRANCH  11  12
ENDBRANCH   8  10
ENDBRANCH   2   3
TORSDOF 3
ENDMDL
MODEL       45
REMARK 921   NORMALIZED FREE ENERGY PREDICTED BY IDOCK:   -4.91 KCAL/MOL
REMARK 922        TOTAL FREE ENERGY PREDICTED BY IDOCK:   -6.10 KCAL/MOL
REMARK 923 INTER-LIGAND FREE ENERGY PREDICTED BY IDOCK:   -5.78 KCAL/MOL
REMARK 924 INTRA-LIGAND FREE ENERGY PREDICTED BY IDOCK:   -0.32 KCAL/MOL
REMARK 927      BINDING AFFINITY PREDICTED BY RF-SCORE:    0.00 PKD
ROOT
HETATM    1  C   UNL     1     -12.729  11.182  71.438  1.00  0.00    -0.418 C  
HETATM    2  O   UNL     1     -13.361  12.018  72.403  1.00  0.00    -0.403 OA 
ENDROOT
BRANCH   2   3
HETATM    3  C   UNL     1     -13.146  13.380  72.261  1.00  0.00    -0.383 C  
HETATM    4  C   UNL     1     -12.899  14.102  73.355  1.00  0.00     0.072 C  
HETATM    5  C   UNL     1     -12.799  15.561  73.341  1.00  0.00    -0.540 C  
HETATM    6  O   UNL     1     -13.020  16.191  72.171  1.00  0.00    -0.393 OA 
HETATM    7  O   UNL     1     -12.573  16.173  74.376  1.00  0.00    -0.700 OA 
HETATM    8  C   UNL     1     -13.031  15.527  70.895  1.00  0.00    -0.467 C  
HETATM    9  C   UNL     1     -13.318  14.018  70.923  1.00  0.00    -0.176 C  
BRANCH   8  10
HETATM   10  C   UNL     1     -11.784  15.856  70.104  1.00  0.00    -0.342 C  
HETATM   11  C   UNL     1     -11.657  15.880  68.766  1.00  0.00    -0.389 C  
BRANCH  11  12
HETATM   12  C   UNL     1     -10.400  16.131  68.069  1.00  0.00    -0.271 C  
HETATM   13  C   UNL     1     -10.305  15.754  66.777  1.00  0.00    -0.293 C  
HETATM   14  C   UNL     1      -9.061  15.896  65.942  1.00  0.00    -0.304 C  
HETATM   15  C   UNL     1      -7.852  16.541  66.634  1.00  0.00    -0.321 C  
HETATM   16  C   UNL     1      -8.046  16.861  68.084  1.00  0.00    -0.201 C  
HETATM   17  C   UNL     1      -9.208  16.663  68.722  1.00  0.00    -0.253 C  
ENDBRANCH  11  12
ENDBRANCH   8  10
ENDBRANCH   2   3
TORSDOF 3
ENDMDL
MODEL       46
REMARK 921   NORMALIZED FREE ENERGY PREDICTED BY IDOCK:   -4.89 KCAL/MOL
REMARK 922        TOTAL FREE ENERGY PREDICTED BY IDOCK:   -6.07 KCAL/MOL
REMARK 923 INTER-LIGAND FREE ENERGY PREDICTED BY IDOCK:   -5.70 KCAL/MOL
REMARK 924 INTRA-LIGAND FREE ENERGY PREDICTED BY IDOCK:   -0.37 KCAL/MOL
REMARK 927      BINDING AFFINITY PREDICTED BY RF-SCORE:    0.00 PKD
ROOT
HETATM    1  C   UNL     1      -8.890   9.742  63.078  1.00  0.00    -0.246 C  
HETATM    2  O   UNL     1      -9.901  10.726  62.888  1.00  0.00    -0.316 OA 
ENDROOT
BRANCH   2   3
HETATM    3  C   UNL     1     -10.488  11.225  64.041  1.00  0.00    -0.378 C  
HETATM    4  C   UNL     1     -10.275  10.584  65.191  1.00  0.00    -0.358 C  
HETATM    5  C   UNL     1     -10.956  10.937  66.437  1.00  0.00    -0.088 C  
HETATM    6  O   UNL     1     -11.875  11.921  66.390  1.00  0.00    -0.561 OA 
HETATM    7  O   UNL     1     -10.724  10.314  67.464  1.00  0.00    -0.255 OA 
HETATM    8  C   UNL     1     -12.001  12.846  65.296  1.00  0.00    -0.419 C  
HETATM    9  C   UNL     1     -11.434  12.376  63.947  1.00  0.00    -0.509 C  
BRANCH   8  10
HETATM   10  C   UNL     1     -11.488  14.215  65.683  1.00  0.00    -0.325 C  
HETATM   11  C   UNL     1     -11.359  14.711  66.925  1.00  0.00    -0.361 C  
BRANCH  11  12
HETATM   12  C   UNL     1     -10.928  16.072  67.222  1.00  0.00    -0.207 C  
HETATM   13  C   UNL     1     -10.625  16.883  66.188  1.00  0.00    -0.195 C  
HETATM   14  C   UNL     1     -10.116  18.291  66.334  1.00  0.00    -0.406 C  
HETATM   15  C   UNL     1      -9.972  18.811  67.771  1.00  0.00    -0.396 C  
HETATM   16  C   UNL     1     -10.272  17.809  68.843  1.00  0.00    -0.345 C  
HETATM   17  C   UNL     1     -10.699  16.568  68.576  1.00  0.00    -0.336 C  
ENDBRANCH  11  12
ENDBRANCH   8  10
ENDBRANCH   2   3
TORSDOF 3
ENDMDL
MODEL       47
REMARK 921   NORMALIZED FREE ENERGY PREDICTED BY IDOCK:   -4.88 KCAL/MOL
REMARK 922        TOTAL FREE ENERGY PREDICTED BY IDOCK:   -6.07 KCAL/MOL
REMARK 923 INTER-LIGAND FREE ENERGY PREDICTED BY IDOCK:   -5.69 KCAL/MOL
REMARK 924 INTRA-LIGAND FREE ENERGY PREDICTED BY IDOCK:   -0.39 KCAL/MOL
REMARK 927      BINDING AFFINITY PREDICTED BY RF-SCORE:    0.00 PKD
ROOT
HETATM    1  C   UNL     1     -14.279   8.630  72.137  1.00  0.00    -0.439 C  
HETATM    2  O   UNL     1     -13.457   7.524  71.782  1.00  0.00    -0.349 OA 
ENDROOT
BRANCH   2   3
HETATM    3  C   UNL     1     -12.255   7.833  71.166  1.00  0.00    -0.268 C  
HETATM    4  C   UNL     1     -11.643   6.887  70.453  1.00  0.00    -0.385 C  
HETATM    5  C   UNL     1     -10.307   7.058  69.882  1.00  0.00    -0.210 C  
HETATM    6  O   UNL     1      -9.659   8.210  70.142  1.00  0.00    -0.167 OA 
HETATM    7  O   UNL     1      -9.792   6.154  69.237  1.00  0.00    -0.143 OA 
HETATM    8  C   UNL     1     -10.299   9.387  70.662  1.00  0.00    -0.284 C  
HETATM    9  C   UNL     1     -11.618   9.160  71.418  1.00  0.00    -0.411 C  
BRANCH   8  10
HETATM   10  C   UNL     1     -10.432  10.448  69.592  1.00  0.00    -0.279 C  
HETATM   11  C   UNL     1     -11.455  11.302  69.420  1.00  0.00    -0.370 C  
BRANCH  11  12
HETATM   12  C   UNL     1     -11.552  12.251  68.316  1.00  0.00    -0.385 C  
HETATM   13  C   UNL     1     -11.707  13.557  68.614  1.00  0.00    -0.389 C  
HETATM   14  C   UNL     1     -11.876  14.647  67.590  1.00  0.00    -0.366 C  
HETATM   15  C   UNL     1     -11.835  14.204  66.120  1.00  0.00    -0.420 C  
HETATM   16  C   UNL     1     -11.724  12.727  65.904  1.00  0.00    -0.464 C  
HETATM   17  C   UNL     1     -11.602  11.853  66.913  1.00  0.00    -0.358 C  
ENDBRANCH  11  12
ENDBRANCH   8  10
ENDBRANCH   2   3
TORSDOF 3
ENDMDL
MODEL       48
REMARK 921   NORMALIZED FREE ENERGY PREDICTED BY IDOCK:   -4.86 KCAL/MOL
REMARK 922        TOTAL FREE ENERGY PREDICTED BY IDOCK:   -6.05 KCAL/MOL
REMARK 923 INTER-LIGAND FREE ENERGY PREDICTED BY IDOCK:   -5.71 KCAL/MOL
REMARK 924 INTRA-LIGAND FREE ENERGY PREDICTED BY IDOCK:   -0.34 KCAL/MOL
REMARK 927      BINDING AFFINITY PREDICTED BY RF-SCORE:    0.00 PKD
ROOT
HETATM    1  C   UNL     1      -8.634   8.095  70.418  1.00  0.00    -0.131 C  
HETATM    2  O   UNL     1      -9.822   7.502  70.930  1.00  0.00    -0.177 OA 
ENDROOT
BRANCH   2   3
HETATM    3  C   UNL     1     -10.954   8.302  70.920  1.00  0.00    -0.246 C  
HETATM    4  C   UNL     1     -12.019   7.906  71.618  1.00  0.00    -0.329 C  
HETATM    5  C   UNL     1     -13.308   8.596  71.565  1.00  0.00    -0.305 C  
HETATM    6  O   UNL     1     -13.421   9.645  70.727  1.00  0.00    -0.207 OA 
HETATM    7  O   UNL     1     -14.253   8.187  72.225  1.00  0.00    -0.327 OA 
HETATM    8  C   UNL     1     -12.298  10.319  70.134  1.00  0.00    -0.142 C  
HETATM    9  C   UNL     1     -10.997   9.506  70.038  1.00  0.00    -0.284 C  
BRANCH   8  10
HETATM   10  C   UNL     1     -12.079  11.671  70.774  1.00  0.00    -0.383 C  
HETATM   11  C   UNL     1     -13.018  12.575  71.100  1.00  0.00    -0.237 C  
BRANCH  11  12
HETATM   12  C   UNL     1     -12.728  13.896  71.647  1.00  0.00    -0.416 C  
HETATM   13  C   UNL     1     -12.111  14.792  70.850  1.00  0.00    -0.387 C  
HETATM   14  C   UNL     1     -11.698  16.172  71.285  1.00  0.00    -0.480 C  
HETATM   15  C   UNL     1     -12.044  16.556  72.730  1.00  0.00    -0.457 C  
HETATM   16  C   UNL     1     -12.667  15.466  73.546  1.00  0.00    -0.689 C  
HETATM   17  C   UNL     1     -12.966  14.262  73.040  1.00  0.00    -0.512 C  
ENDBRANCH  11  12
ENDBRANCH   8  10
ENDBRANCH   2   3
TORSDOF 3
ENDMDL
MODEL       49
REMARK 921   NORMALIZED FREE ENERGY PREDICTED BY IDOCK:   -4.81 KCAL/MOL
REMARK 922        TOTAL FREE ENERGY PREDICTED BY IDOCK:   -5.99 KCAL/MOL
REMARK 923 INTER-LIGAND FREE ENERGY PREDICTED BY IDOCK:   -5.62 KCAL/MOL
REMARK 924 INTRA-LIGAND FREE ENERGY PREDICTED BY IDOCK:   -0.37 KCAL/MOL
REMARK 927      BINDING AFFINITY PREDICTED BY RF-SCORE:    0.00 PKD
ROOT
HETATM    1  C   UNL     1      -9.646   6.469  74.502  1.00  0.00    -0.282 C  
HETATM    2  O   UNL     1      -9.473   7.743  73.890  1.00  0.00    -0.264 OA 
ENDROOT
BRANCH   2   3
HETATM    3  C   UNL     1     -10.217   7.972  72.743  1.00  0.00    -0.319 C  
HETATM    4  C   UNL     1     -11.498   7.602  72.732  1.00  0.00    -0.384 C  
HETATM    5  C   UNL     1     -12.335   7.666  71.534  1.00  0.00    -0.330 C  
HETATM    6  O   UNL     1     -11.755   8.068  70.387  1.00  0.00    -0.154 OA 
HETATM    7  O   UNL     1     -13.505   7.311  71.580  1.00  0.00    -0.375 OA 
HETATM    8  C   UNL     1     -10.480   8.732  70.326  1.00  0.00    -0.208 C  
HETATM    9  C   UNL     1      -9.543   8.503  71.521  1.00  0.00    -0.297 C  
BRANCH   8  10
HETATM   10  C   UNL     1     -10.650  10.201  70.008  1.00  0.00    -0.338 C  
HETATM   11  C   UNL     1     -11.773  10.931  70.125  1.00  0.00    -0.433 C  
BRANCH  11  12
HETATM   12  C   UNL     1     -11.884  12.330  69.726  1.00  0.00    -0.388 C  
HETATM   13  C   UNL     1     -11.615  12.648  68.444  1.00  0.00    -0.370 C  
HETATM   14  C   UNL     1     -11.634  14.049  67.895  1.00  0.00    -0.377 C  
HETATM   15  C   UNL     1     -12.016  15.157  68.886  1.00  0.00    -0.284 C  
HETATM   16  C   UNL     1     -12.231  14.702  70.297  1.00  0.00    -0.389 C  
HETATM   17  C   UNL     1     -12.161  13.415  70.662  1.00  0.00    -0.427 C  
ENDBRANCH  11  12
ENDBRANCH   8  10
ENDBRANCH   2   3
TORSDOF 3
ENDMDL
MODEL       50
REMARK 921   NORMALIZED FREE ENERGY PREDICTED BY IDOCK:   -4.81 KCAL/MOL
REMARK 922        TOTAL FREE ENERGY PREDICTED BY IDOCK:   -5.98 KCAL/MOL
REMARK 923 INTER-LIGAND FREE ENERGY PREDICTED BY IDOCK:   -5.64 KCAL/MOL
REMARK 924 INTRA-LIGAND FREE ENERGY PREDICTED BY IDOCK:   -0.34 KCAL/MOL
REMARK 927      BINDING AFFINITY PREDICTED BY RF-SCORE:    0.00 PKD
ROOT
HETATM    1  C   UNL     1     -10.138  18.318  68.151  1.00  0.00    -0.379 C  
HETATM    2  O   UNL     1     -10.181  16.908  68.346  1.00  0.00    -0.284 OA 
ENDROOT
BRANCH   2   3
HETATM    3  C   UNL     1     -10.657  16.161  67.280  1.00  0.00    -0.305 C  
HETATM    4  C   UNL     1     -10.763  16.751  66.088  1.00  0.00    -0.116 C  
HETATM    5  C   UNL     1     -11.383  16.103  64.932  1.00  0.00    -0.198 C  
HETATM    6  O   UNL     1     -11.912  14.878  65.111  1.00  0.00    -0.308 OA 
HETATM    7  O   UNL     1     -11.456  16.693  63.862  1.00  0.00    -1.186 OA 
HETATM    8  C   UNL     1     -11.634  14.045  66.250  1.00  0.00    -0.369 C  
HETATM    9  C   UNL     1     -11.152  14.772  67.515  1.00  0.00    -0.323 C  
BRANCH   8  10
HETATM   10  C   UNL     1     -10.724  12.898  65.872  1.00  0.00    -0.291 C  
HETATM   11  C   UNL     1     -10.658  12.274  64.683  1.00  0.00    -0.338 C  
BRANCH  11  12
HETATM   12  C   UNL     1      -9.808  11.120  64.411  1.00  0.00    -0.334 C  
HETATM   13  C   UNL     1      -9.661  10.728  63.129  1.00  0.00    -0.394 C  
HETATM   14  C   UNL     1      -8.864   9.528  62.694  1.00  0.00    -0.249 C  
HETATM   15  C   UNL     1      -8.164   8.742  63.812  1.00  0.00    -0.163 C  
HETATM   16  C   UNL     1      -8.447   9.224  65.201  1.00  0.00    -0.173 C  
HETATM   17  C   UNL     1      -9.200  10.302  65.456  1.00  0.00    -0.232 C  
ENDBRANCH  11  12
ENDBRANCH   8  10
ENDBRANCH   2   3
TORSDOF 3
ENDMDL
MODEL       51
REMARK 921   NORMALIZED FREE ENERGY PREDICTED BY IDOCK:   -4.79 KCAL/MOL
REMARK 922        TOTAL FREE ENERGY PREDICTED BY IDOCK:   -5.97 KCAL/MOL
REMARK 923 INTER-LIGAND FREE ENERGY PREDICTED BY IDOCK:   -5.62 KCAL/MOL
REMARK 924 INTRA-LIGAND FREE ENERGY PREDICTED BY IDOCK:   -0.34 KCAL/MOL
REMARK 927      BINDING AFFINITY PREDICTED BY RF-SCORE:    0.00 PKD
ROOT
HETATM    1  C   UNL     1     -10.569   9.358  66.782  1.00  0.00    -0.139 C  
HETATM    2  O   UNL     1     -10.398  10.644  66.194  1.00  0.00    -0.245 OA 
ENDROOT
BRANCH   2   3
HETATM    3  C   UNL     1     -10.920  11.712  66.907  1.00  0.00    -0.292 C  
HETATM    4  C   UNL     1     -11.062  11.586  68.227  1.00  0.00    -0.295 C  
HETATM    5  C   UNL     1     -11.730  12.590  69.055  1.00  0.00    -0.318 C  
HETATM    6  O   UNL     1     -12.265  13.658  68.433  1.00  0.00    -0.332 OA 
HETATM    7  O   UNL     1     -11.835  12.422  70.263  1.00  0.00    -0.322 OA 
HETATM    8  C   UNL     1     -11.955  14.033  67.080  1.00  0.00    -0.438 C  
HETATM    9  C   UNL     1     -11.421  12.913  66.175  1.00  0.00    -0.393 C  
BRANCH   8  10
HETATM   10  C   UNL     1     -11.072  15.261  67.048  1.00  0.00    -0.305 C  
HETATM   11  C   UNL     1     -11.151  16.337  67.849  1.00  0.00    -0.270 C  
BRANCH  11  12
HETATM   12  C   UNL     1     -10.312  17.523  67.711  1.00  0.00    -0.367 C  
HETATM   13  C   UNL     1     -10.407  18.240  66.573  1.00  0.00    -0.410 C  
HETATM   14  C   UNL     1      -9.572  19.452  66.262  1.00  0.00    -0.437 C  
HETATM   15  C   UNL     1      -8.578  19.885  67.349  1.00  0.00    -0.392 C  
HETATM   16  C   UNL     1      -8.508  18.982  68.542  1.00  0.00    -0.387 C  
HETATM   17  C   UNL     1      -9.299  17.910  68.688  1.00  0.00    -0.282 C  
ENDBRANCH  11  12
ENDBRANCH   8  10
ENDBRANCH   2   3
TORSDOF 3
ENDMDL
MODEL       52
REMARK 921   NORMALIZED FREE ENERGY PREDICTED BY IDOCK:   -4.77 KCAL/MOL
REMARK 922        TOTAL FREE ENERGY PREDICTED BY IDOCK:   -5.94 KCAL/MOL
REMARK 923 INTER-LIGAND FREE ENERGY PREDICTED BY IDOCK:   -5.61 KCAL/MOL
REMARK 924 INTRA-LIGAND FREE ENERGY PREDICTED BY IDOCK:   -0.33 KCAL/MOL
REMARK 927      BINDING AFFINITY PREDICTED BY RF-SCORE:    0.00 PKD
ROOT
HETATM    1  C   UNL     1      -8.890   4.128  70.929  1.00  0.00    -0.090 C  
HETATM    2  O   UNL     1     -10.208   4.643  70.771  1.00  0.00    -0.215 OA 
ENDROOT
BRANCH   2   3
HETATM    3  C   UNL     1     -10.472   5.844  71.409  1.00  0.00    -0.236 C  
HETATM    4  C   UNL     1      -9.655   6.238  72.387  1.00  0.00    -0.156 C  
HETATM    5  C   UNL     1      -9.918   7.412  73.220  1.00  0.00    -0.291 C  
HETATM    6  O   UNL     1     -11.067   8.082  73.010  1.00  0.00    -0.382 OA 
HETATM    7  O   UNL     1      -9.134   7.726  74.106  1.00  0.00    -0.240 OA 
HETATM    8  C   UNL     1     -11.885   7.921  71.839  1.00  0.00    -0.301 C  
HETATM    9  C   UNL     1     -11.719   6.596  71.078  1.00  0.00    -0.415 C  
BRANCH   8  10
HETATM   10  C   UNL     1     -11.765   9.121  70.926  1.00  0.00    -0.341 C  
HETATM   11  C   UNL     1     -12.137  10.384  71.194  1.00  0.00    -0.487 C  
BRANCH  11  12
HETATM   12  C   UNL     1     -12.062  11.480  70.235  1.00  0.00    -0.444 C  
HETATM   13  C   UNL     1     -11.758  11.185  68.955  1.00  0.00    -0.408 C  
HETATM   14  C   UNL     1     -11.591  12.208  67.864  1.00  0.00    -0.413 C  
HETATM   15  C   UNL     1     -11.818  13.671  68.271  1.00  0.00    -0.404 C  
HETATM   16  C   UNL     1     -12.086  13.892  69.727  1.00  0.00    -0.404 C  
HETATM   17  C   UNL     1     -12.188  12.886  70.607  1.00  0.00    -0.386 C  
ENDBRANCH  11  12
ENDBRANCH   8  10
ENDBRANCH   2   3
TORSDOF 3
ENDMDL
MODEL       53
REMARK 921   NORMALIZED FREE ENERGY PREDICTED BY IDOCK:   -4.77 KCAL/MOL
REMARK 922        TOTAL FREE ENERGY PREDICTED BY IDOCK:   -5.94 KCAL/MOL
REMARK 923 INTER-LIGAND FREE ENERGY PREDICTED BY IDOCK:   -5.65 KCAL/MOL
REMARK 924 INTRA-LIGAND FREE ENERGY PREDICTED BY IDOCK:   -0.28 KCAL/MOL
REMARK 927      BINDING AFFINITY PREDICTED BY RF-SCORE:    0.00 PKD
ROOT
HETATM    1  C   UNL     1     -10.899  11.000  68.021  1.00  0.00    -0.229 C  
HETATM    2  O   UNL     1     -11.828  11.971  67.550  1.00  0.00    -0.526 OA 
ENDROOT
BRANCH   2   3
HETATM    3  C   UNL     1     -11.804  13.197  68.194  1.00  0.00    -0.348 C  
HETATM    4  C   UNL     1     -11.881  13.218  69.526  1.00  0.00    -0.388 C  
HETATM    5  C   UNL     1     -12.007  14.454  70.297  1.00  0.00    -0.321 C  
HETATM    6  O   UNL     1     -12.102  15.611  69.613  1.00  0.00    -0.364 OA 
HETATM    7  O   UNL     1     -12.076  14.415  71.518  1.00  0.00    -0.349 OA 
HETATM    8  C   UNL     1     -11.773  15.745  68.220  1.00  0.00    -0.222 C  
HETATM    9  C   UNL     1     -11.822  14.454  67.388  1.00  0.00    -0.430 C  
BRANCH   8  10
HETATM   10  C   UNL     1     -10.467  16.488  68.042  1.00  0.00    -0.313 C  
HETATM   11  C   UNL     1     -10.287  17.820  68.038  1.00  0.00    -0.395 C  
BRANCH  11  12
HETATM   12  C   UNL     1      -9.007  18.471  67.784  1.00  0.00    -0.289 C  
HETATM   13  C   UNL     1      -8.391  19.086  68.814  1.00  0.00    -0.364 C  
HETATM   14  C   UNL     1      -7.097  19.846  68.698  1.00  0.00    -0.338 C  
HETATM   15  C   UNL     1      -6.454  19.875  67.304  1.00  0.00    -0.222 C  
HETATM   16  C   UNL     1      -7.253  19.218  66.222  1.00  0.00    -0.265 C  
HETATM   17  C   UNL     1      -8.413  18.590  66.455  1.00  0.00    -0.291 C  
ENDBRANCH  11  12
ENDBRANCH   8  10
ENDBRANCH   2   3
TORSDOF 3
ENDMDL
MODEL       54
REMARK 921   NORMALIZED FREE ENERGY PREDICTED BY IDOCK:   -4.74 KCAL/MOL
REMARK 922        TOTAL FREE ENERGY PREDICTED BY IDOCK:   -5.90 KCAL/MOL
REMARK 923 INTER-LIGAND FREE ENERGY PREDICTED BY IDOCK:   -5.46 KCAL/MOL
REMARK 924 INTRA-LIGAND FREE ENERGY PREDICTED BY IDOCK:   -0.44 KCAL/MOL
REMARK 927      BINDING AFFINITY PREDICTED BY RF-SCORE:    0.00 PKD
ROOT
HETATM    1  C   UNL     1      -8.434   9.468  64.284  1.00  0.00    -0.184 C  
HETATM    2  O   UNL     1      -9.563   9.980  63.582  1.00  0.00    -0.273 OA 
ENDROOT
BRANCH   2   3
HETATM    3  C   UNL     1     -10.166  11.099  64.134  1.00  0.00    -0.347 C  
HETATM    4  C   UNL     1     -11.213  11.633  63.504  1.00  0.00    -0.462 C  
HETATM    5  C   UNL     1     -11.834  12.891  63.917  1.00  0.00    -0.473 C  
HETATM    6  O   UNL     1     -11.279  13.553  64.950  1.00  0.00    -0.318 OA 
HETATM    7  O   UNL     1     -12.793  13.337  63.300  1.00  0.00    -0.527 OA 
HETATM    8  C   UNL     1     -10.333  12.965  65.861  1.00  0.00    -0.285 C  
HETATM    9  C   UNL     1      -9.559  11.747  65.335  1.00  0.00    -0.210 C  
BRANCH   8  10
HETATM   10  C   UNL     1     -10.972  12.698  67.206  1.00  0.00    -0.291 C  
HETATM   11  C   UNL     1     -11.126  11.506  67.806  1.00  0.00    -0.319 C  
BRANCH  11  12
HETATM   12  C   UNL     1     -11.822  11.312  69.074  1.00  0.00    -0.421 C  
HETATM   13  C   UNL     1     -12.157  12.406  69.788  1.00  0.00    -0.292 C  
HETATM   14  C   UNL     1     -12.827  12.368  71.135  1.00  0.00    -0.299 C  
HETATM   15  C   UNL     1     -13.161  10.973  71.684  1.00  0.00    -0.543 C  
HETATM   16  C   UNL     1     -12.687   9.829  70.841  1.00  0.00    -0.329 C  
HETATM   17  C   UNL     1     -12.076  10.000  69.662  1.00  0.00     0.112 C  
ENDBRANCH  11  12
ENDBRANCH   8  10
ENDBRANCH   2   3
TORSDOF 3
ENDMDL
MODEL       55
REMARK 921   NORMALIZED FREE ENERGY PREDICTED BY IDOCK:   -4.69 KCAL/MOL
REMARK 922        TOTAL FREE ENERGY PREDICTED BY IDOCK:   -5.84 KCAL/MOL
REMARK 923 INTER-LIGAND FREE ENERGY PREDICTED BY IDOCK:   -5.39 KCAL/MOL
REMARK 924 INTRA-LIGAND FREE ENERGY PREDICTED BY IDOCK:   -0.45 KCAL/MOL
REMARK 927      BINDING AFFINITY PREDICTED BY RF-SCORE:    0.00 PKD
ROOT
HETATM    1  C   UNL     1      -9.449   8.320  66.061  1.00  0.00    -0.119 C  
HETATM    2  O   UNL     1      -9.165   9.646  65.628  1.00  0.00    -0.181 OA 
ENDROOT
BRANCH   2   3
HETATM    3  C   UNL     1     -10.109  10.607  65.952  1.00  0.00    -0.261 C  
HETATM    4  C   UNL     1     -10.676  10.560  67.158  1.00  0.00    -0.323 C  
HETATM    5  C   UNL     1     -11.782  11.433  67.553  1.00  0.00    -0.140 C  
HETATM    6  O   UNL     1     -12.272  12.278  66.626  1.00  0.00    -0.574 OA 
HETATM    7  O   UNL     1     -12.267  11.345  68.673  1.00  0.00    -0.532 OA 
HETATM    8  C   UNL     1     -11.592  12.605  65.402  1.00  0.00    -0.363 C  
HETATM    9  C   UNL     1     -10.557  11.581  64.912  1.00  0.00    -0.360 C  
BRANCH   8  10
HETATM   10  C   UNL     1     -11.025  14.006  65.456  1.00  0.00    -0.309 C  
HETATM   11  C   UNL     1     -10.001  14.437  66.211  1.00  0.00    -0.320 C  
BRANCH  11  12
HETATM   12  C   UNL     1      -9.554  15.825  66.270  1.00  0.00    -0.343 C  
HETATM   13  C   UNL     1     -10.483  16.796  66.156  1.00  0.00    -0.282 C  
HETATM   14  C   UNL     1     -10.174  18.269  66.143  1.00  0.00    -0.393 C  
HETATM   15  C   UNL     1      -8.695  18.650  66.302  1.00  0.00    -0.229 C  
HETATM   16  C   UNL     1      -7.743  17.494  66.355  1.00  0.00    -0.332 C  
HETATM   17  C   UNL     1      -8.150  16.218  66.334  1.00  0.00    -0.334 C  
ENDBRANCH  11  12
ENDBRANCH   8  10
ENDBRANCH   2   3
TORSDOF 3
ENDMDL
MODEL       56
REMARK 921   NORMALIZED FREE ENERGY PREDICTED BY IDOCK:   -4.66 KCAL/MOL
REMARK 922        TOTAL FREE ENERGY PREDICTED BY IDOCK:   -5.80 KCAL/MOL
REMARK 923 INTER-LIGAND FREE ENERGY PREDICTED BY IDOCK:   -5.40 KCAL/MOL
REMARK 924 INTRA-LIGAND FREE ENERGY PREDICTED BY IDOCK:   -0.40 KCAL/MOL
REMARK 927      BINDING AFFINITY PREDICTED BY RF-SCORE:    0.00 PKD
ROOT
HETATM    1  C   UNL     1     -10.479  19.864  66.414  1.00  0.00    -0.475 C  
HETATM    2  O   UNL     1     -10.748  19.314  67.699  1.00  0.00    -0.452 OA 
ENDROOT
BRANCH   2   3
HETATM    3  C   UNL     1     -10.236  18.049  67.938  1.00  0.00    -0.378 C  
HETATM    4  C   UNL     1     -10.638  17.396  69.029  1.00  0.00    -0.207 C  
HETATM    5  C   UNL     1     -10.059  16.121  69.453  1.00  0.00    -0.256 C  
HETATM    6  O   UNL     1      -9.039  15.626  68.726  1.00  0.00    -0.183 OA 
HETATM    7  O   UNL     1     -10.466  15.566  70.465  1.00  0.00    -0.302 OA 
HETATM    8  C   UNL     1      -8.697  16.088  67.408  1.00  0.00    -0.180 C  
HETATM    9  C   UNL     1      -9.166  17.507  67.049  1.00  0.00    -0.253 C  
BRANCH   8  10
HETATM   10  C   UNL     1      -9.097  15.074  66.359  1.00  0.00    -0.312 C  
HETATM   11  C   UNL     1     -10.289  14.469  66.230  1.00  0.00    -0.300 C  
BRANCH  11  12
HETATM   12  C   UNL     1     -10.582  13.441  65.237  1.00  0.00    -0.333 C  
HETATM   13  C   UNL     1     -11.684  13.589  64.475  1.00  0.00    -0.431 C  
HETATM   14  C   UNL     1     -12.147  12.591  63.449  1.00  0.00    -0.621 C  
HETATM   15  C   UNL     1     -11.264  11.348  63.269  1.00  0.00    -0.152 C  
HETATM   16  C   UNL     1     -10.103  11.252  64.210  1.00  0.00    -0.366 C  
HETATM   17  C   UNL     1      -9.811  12.209  65.102  1.00  0.00    -0.200 C  
ENDBRANCH  11  12
ENDBRANCH   8  10
ENDBRANCH   2   3
TORSDOF 3
ENDMDL
MODEL       57
REMARK 921   NORMALIZED FREE ENERGY PREDICTED BY IDOCK:   -4.62 KCAL/MOL
REMARK 922        TOTAL FREE ENERGY PREDICTED BY IDOCK:   -5.76 KCAL/MOL
REMARK 923 INTER-LIGAND FREE ENERGY PREDICTED BY IDOCK:   -5.37 KCAL/MOL
REMARK 924 INTRA-LIGAND FREE ENERGY PREDICTED BY IDOCK:   -0.39 KCAL/MOL
REMARK 927      BINDING AFFINITY PREDICTED BY RF-SCORE:    0.00 PKD
ROOT
HETATM    1  C   UNL     1     -10.387  20.215  68.766  1.00  0.00    -0.121 C  
HETATM    2  O   UNL     1      -9.224  19.400  68.867  1.00  0.00    -0.378 OA 
ENDROOT
BRANCH   2   3
HETATM    3  C   UNL     1      -9.139  18.348  67.968  1.00  0.00    -0.294 C  
HETATM    4  C   UNL     1      -7.940  18.022  67.482  1.00  0.00    -0.224 C  
HETATM    5  C   UNL     1      -7.753  17.029  66.425  1.00  0.00    -0.315 C  
HETATM    6  O   UNL     1      -8.855  16.466  65.893  1.00  0.00    -0.432 OA 
HETATM    7  O   UNL     1      -6.629  16.770  66.014  1.00  0.00    -0.033 OA 
HETATM    8  C   UNL     1     -10.158  16.534  66.498  1.00  0.00    -0.299 C  
HETATM    9  C   UNL     1     -10.389  17.698  67.474  1.00  0.00    -0.365 C  
BRANCH   8  10
HETATM   10  C   UNL     1     -10.546  15.201  67.099  1.00  0.00    -0.295 C  
HETATM   11  C   UNL     1     -11.335  14.993  68.166  1.00  0.00    -0.343 C  
BRANCH  11  12
HETATM   12  C   UNL     1     -11.606  13.679  68.740  1.00  0.00    -0.359 C  
HETATM   13  C   UNL     1     -11.550  12.606  67.924  1.00  0.00    -0.401 C  
HETATM   14  C   UNL     1     -11.856  11.197  68.354  1.00  0.00    -0.302 C  
HETATM   15  C   UNL     1     -12.224  11.006  69.832  1.00  0.00    -0.408 C  
HETATM   16  C   UNL     1     -12.320  12.269  70.631  1.00  0.00    -0.375 C  
HETATM   17  C   UNL     1     -12.041  13.475  70.118  1.00  0.00    -0.425 C  
ENDBRANCH  11  12
ENDBRANCH   8  10
ENDBRANCH   2   3
TORSDOF 3
ENDMDL
MODEL       58
REMARK 921   NORMALIZED FREE ENERGY PREDICTED BY IDOCK:   -4.61 KCAL/MOL
REMARK 922        TOTAL FREE ENERGY PREDICTED BY IDOCK:   -5.75 KCAL/MOL
REMARK 923 INTER-LIGAND FREE ENERGY PREDICTED BY IDOCK:   -5.31 KCAL/MOL
REMARK 924 INTRA-LIGAND FREE ENERGY PREDICTED BY IDOCK:   -0.44 KCAL/MOL
REMARK 927      BINDING AFFINITY PREDICTED BY RF-SCORE:    0.00 PKD
ROOT
HETATM    1  C   UNL     1      -7.326  13.691  67.887  1.00  0.00    -0.148 C  
HETATM    2  O   UNL     1      -8.617  14.289  67.836  1.00  0.00    -0.153 OA 
ENDROOT
BRANCH   2   3
HETATM    3  C   UNL     1      -9.676  13.429  67.591  1.00  0.00    -0.222 C  
HETATM    4  C   UNL     1      -9.723  12.796  66.418  1.00  0.00    -0.261 C  
HETATM    5  C   UNL     1     -10.862  11.979  65.999  1.00  0.00    -0.289 C  
HETATM    6  O   UNL     1     -11.924  11.917  66.824  1.00  0.00    -0.613 OA 
HETATM    7  O   UNL     1     -10.852  11.422  64.909  1.00  0.00    -0.297 OA 
HETATM    8  C   UNL     1     -11.891  12.328  68.202  1.00  0.00    -0.311 C  
HETATM    9  C   UNL     1     -10.789  13.330  68.581  1.00  0.00    -0.285 C  
BRANCH   8  10
HETATM   10  C   UNL     1     -11.912  11.129  69.124  1.00  0.00    -0.413 C  
HETATM   11  C   UNL     1     -10.904  10.272  69.361  1.00  0.00    -0.282 C  
BRANCH  11  12
HETATM   12  C   UNL     1     -11.019   9.088  70.207  1.00  0.00    -0.274 C  
HETATM   13  C   UNL     1     -11.165   9.269  71.535  1.00  0.00    -0.457 C  
HETATM   14  C   UNL     1     -11.242   8.151  72.540  1.00  0.00    -0.459 C  
HETATM   15  C   UNL     1     -11.173   6.727  71.972  1.00  0.00    -0.297 C  
HETATM   16  C   UNL     1     -10.944   6.642  70.495  1.00  0.00    -0.337 C  
HETATM   17  C   UNL     1     -10.871   7.724  69.709  1.00  0.00    -0.211 C  
ENDBRANCH  11  12
ENDBRANCH   8  10
ENDBRANCH   2   3
TORSDOF 3
ENDMDL
MODEL       59
REMARK 921   NORMALIZED FREE ENERGY PREDICTED BY IDOCK:   -4.59 KCAL/MOL
REMARK 922        TOTAL FREE ENERGY PREDICTED BY IDOCK:   -5.72 KCAL/MOL
REMARK 923 INTER-LIGAND FREE ENERGY PREDICTED BY IDOCK:   -5.37 KCAL/MOL
REMARK 924 INTRA-LIGAND FREE ENERGY PREDICTED BY IDOCK:   -0.35 KCAL/MOL
REMARK 927      BINDING AFFINITY PREDICTED BY RF-SCORE:    0.00 PKD
ROOT
HETATM    1  C   UNL     1      -8.426   8.983  70.884  1.00  0.00    -0.208 C  
HETATM    2  O   UNL     1      -9.434   8.603  69.953  1.00  0.00    -0.163 OA 
ENDROOT
BRANCH   2   3
HETATM    3  C   UNL     1     -10.436   9.533  69.730  1.00  0.00    -0.231 C  
HETATM    4  C   UNL     1     -11.163   9.946  70.769  1.00  0.00    -0.427 C  
HETATM    5  C   UNL     1     -12.333  10.813  70.628  1.00  0.00    -0.372 C  
HETATM    6  O   UNL     1     -12.710  11.156  69.381  1.00  0.00    -0.240 OA 
HETATM    7  O   UNL     1     -12.965  11.160  71.616  1.00  0.00    -0.445 OA 
HETATM    8  C   UNL     1     -11.875  10.998  68.221  1.00  0.00    -0.148 C  
HETATM    9  C   UNL     1     -10.758   9.948  68.332  1.00  0.00    -0.271 C  
BRANCH   8  10
HETATM   10  C   UNL     1     -11.353  12.336  67.744  1.00  0.00    -0.362 C  
HETATM   11  C   UNL     1     -11.809  13.552  68.088  1.00  0.00    -0.400 C  
BRANCH  11  12
HETATM   12  C   UNL     1     -11.306  14.802  67.528  1.00  0.00    -0.355 C  
HETATM   13  C   UNL     1     -11.215  15.872  68.343  1.00  0.00    -0.368 C  
HETATM   14  C   UNL     1     -10.768  17.240  67.903  1.00  0.00    -0.351 C  
HETATM   15  C   UNL     1     -10.373  17.378  66.425  1.00  0.00    -0.317 C  
HETATM   16  C   UNL     1     -10.575  16.147  65.596  1.00  0.00    -0.377 C  
HETATM   17  C   UNL     1     -11.005  14.987  66.111  1.00  0.00    -0.334 C  
ENDBRANCH  11  12
ENDBRANCH   8  10
ENDBRANCH   2   3
TORSDOF 3
ENDMDL
MODEL       60
REMARK 921   NORMALIZED FREE ENERGY PREDICTED BY IDOCK:   -4.57 KCAL/MOL
REMARK 922        TOTAL FREE ENERGY PREDICTED BY IDOCK:   -5.70 KCAL/MOL
REMARK 923 INTER-LIGAND FREE ENERGY PREDICTED BY IDOCK:   -5.38 KCAL/MOL
REMARK 924 INTRA-LIGAND FREE ENERGY PREDICTED BY IDOCK:   -0.32 KCAL/MOL
REMARK 927      BINDING AFFINITY PREDICTED BY RF-SCORE:    0.00 PKD
ROOT
HETATM    1  C   UNL     1     -12.361   6.573  71.935  1.00  0.00    -0.288 C  
HETATM    2  O   UNL     1     -11.695   7.771  71.547  1.00  0.00    -0.265 OA 
ENDROOT
BRANCH   2   3
HETATM    3  C   UNL     1     -11.165   7.784  70.267  1.00  0.00    -0.206 C  
HETATM    4  C   UNL     1     -11.270   6.682  69.524  1.00  0.00    -0.383 C  
HETATM    5  C   UNL     1     -10.625   6.537  68.219  1.00  0.00    -0.249 C  
HETATM    6  O   UNL     1      -9.851   7.552  67.788  1.00  0.00    -0.144 OA 
HETATM    7  O   UNL     1     -10.753   5.501  67.580  1.00  0.00    -0.219 OA 
HETATM    8  C   UNL     1      -9.871   8.871  68.360  1.00  0.00    -0.174 C  
HETATM    9  C   UNL     1     -10.388   8.972  69.803  1.00  0.00    -0.219 C  
BRANCH   8  10
HETATM   10  C   UNL     1     -10.562   9.851  67.437  1.00  0.00    -0.338 C  
HETATM   11  C   UNL     1     -10.096  10.334  66.274  1.00  0.00    -0.300 C  
BRANCH  11  12
HETATM   12  C   UNL     1     -10.785  11.338  65.470  1.00  0.00    -0.283 C  
HETATM   13  C   UNL     1     -11.594  12.212  66.103  1.00  0.00    -0.418 C  
HETATM   14  C   UNL     1     -12.412  13.267  65.409  1.00  0.00    -0.543 C  
HETATM   15  C   UNL     1     -12.266  13.339  63.883  1.00  0.00    -0.491 C  
HETATM   16  C   UNL     1     -11.394  12.283  63.277  1.00  0.00    -0.414 C  
HETATM   17  C   UNL     1     -10.734  11.378  64.012  1.00  0.00    -0.450 C  
ENDBRANCH  11  12
ENDBRANCH   8  10
ENDBRANCH   2   3
TORSDOF 3
ENDMDL
MODEL       61
REMARK 921   NORMALIZED FREE ENERGY PREDICTED BY IDOCK:   -4.56 KCAL/MOL
REMARK 922        TOTAL FREE ENERGY PREDICTED BY IDOCK:   -5.70 KCAL/MOL
REMARK 923 INTER-LIGAND FREE ENERGY PREDICTED BY IDOCK:   -5.25 KCAL/MOL
REMARK 924 INTRA-LIGAND FREE ENERGY PREDICTED BY IDOCK:   -0.44 KCAL/MOL
REMARK 927      BINDING AFFINITY PREDICTED BY RF-SCORE:    0.00 PKD
ROOT
HETATM    1  C   UNL     1     -10.435  19.653  65.877  1.00  0.00    -0.493 C  
HETATM    2  O   UNL     1     -10.519  18.263  65.577  1.00  0.00    -0.616 OA 
ENDROOT
BRANCH   2   3
HETATM    3  C   UNL     1     -10.089  17.399  66.572  1.00  0.00    -0.320 C  
HETATM    4  C   UNL     1     -10.771  17.358  67.717  1.00  0.00    -0.332 C  
HETATM    5  C   UNL     1     -10.326  16.593  68.882  1.00  0.00    -0.300 C  
HETATM    6  O   UNL     1      -9.146  15.949  68.793  1.00  0.00    -0.194 OA 
HETATM    7  O   UNL     1     -10.990  16.593  69.909  1.00  0.00    -0.347 OA 
HETATM    8  C   UNL     1      -8.461  15.703  67.553  1.00  0.00    -0.167 C  
HETATM    9  C   UNL     1      -8.817  16.640  66.388  1.00  0.00    -0.337 C  
BRANCH   8  10
HETATM   10  C   UNL     1      -8.559  14.245  67.161  1.00  0.00    -0.234 C  
HETATM   11  C   UNL     1      -9.578  13.644  66.525  1.00  0.00    -0.294 C  
BRANCH  11  12
HETATM   12  C   UNL     1      -9.639  12.213  66.246  1.00  0.00    -0.246 C  
HETATM   13  C   UNL     1      -9.250  11.360  67.216  1.00  0.00    -0.167 C  
HETATM   14  C   UNL     1      -9.205   9.864  67.062  1.00  0.00    -0.164 C  
HETATM   15  C   UNL     1      -9.666   9.311  65.706  1.00  0.00    -0.339 C  
HETATM   16  C   UNL     1     -10.013  10.346  64.682  1.00  0.00    -0.408 C  
HETATM   17  C   UNL     1      -9.990  11.661  64.942  1.00  0.00    -0.293 C  
ENDBRANCH  11  12
ENDBRANCH   8  10
ENDBRANCH   2   3
TORSDOF 3
ENDMDL
MODEL       62
REMARK 921   NORMALIZED FREE ENERGY PREDICTED BY IDOCK:   -4.56 KCAL/MOL
REMARK 922        TOTAL FREE ENERGY PREDICTED BY IDOCK:   -5.69 KCAL/MOL
REMARK 923 INTER-LIGAND FREE ENERGY PREDICTED BY IDOCK:   -5.36 KCAL/MOL
REMARK 924 INTRA-LIGAND FREE ENERGY PREDICTED BY IDOCK:   -0.33 KCAL/MOL
REMARK 927      BINDING AFFINITY PREDICTED BY RF-SCORE:    0.00 PKD
ROOT
HETATM    1  C   UNL     1      -5.629  18.415  69.936  1.00  0.00    -0.234 C  
HETATM    2  O   UNL     1      -6.609  17.402  69.735  1.00  0.00    -0.175 OA 
ENDROOT
BRANCH   2   3
HETATM    3  C   UNL     1      -7.357  17.503  68.572  1.00  0.00    -0.243 C  
HETATM    4  C   UNL     1      -6.837  18.162  67.536  1.00  0.00    -0.203 C  
HETATM    5  C   UNL     1      -7.591  18.450  66.316  1.00  0.00    -0.256 C  
HETATM    6  O   UNL     1      -8.883  18.072  66.276  1.00  0.00    -0.402 OA 
HETATM    7  O   UNL     1      -7.064  19.062  65.397  1.00  0.00    -0.476 OA 
HETATM    8  C   UNL     1      -9.473  17.141  67.199  1.00  0.00    -0.248 C  
HETATM    9  C   UNL     1      -8.758  16.988  68.551  1.00  0.00    -0.253 C  
BRANCH   8  10
HETATM   10  C   UNL     1      -9.725  15.806  66.534  1.00  0.00    -0.285 C  
HETATM   11  C   UNL     1     -10.321  15.591  65.350  1.00  0.00    -0.422 C  
BRANCH  11  12
HETATM   12  C   UNL     1     -10.601  14.268  64.802  1.00  0.00    -0.434 C  
HETATM   13  C   UNL     1     -11.702  14.116  64.040  1.00  0.00    -0.234 C  
HETATM   14  C   UNL     1     -12.153  12.806  63.451  1.00  0.00    -0.619 C  
HETATM   15  C   UNL     1     -11.257  11.593  63.738  1.00  0.00    -0.498 C  
HETATM   16  C   UNL     1     -10.098  11.860  64.647  1.00  0.00    -0.301 C  
HETATM   17  C   UNL     1      -9.817  13.079  65.127  1.00  0.00    -0.078 C  
ENDBRANCH  11  12
ENDBRANCH   8  10
ENDBRANCH   2   3
TORSDOF 3
ENDMDL
MODEL       63
REMARK 921   NORMALIZED FREE ENERGY PREDICTED BY IDOCK:   -4.56 KCAL/MOL
REMARK 922        TOTAL FREE ENERGY PREDICTED BY IDOCK:   -5.69 KCAL/MOL
REMARK 923 INTER-LIGAND FREE ENERGY PREDICTED BY IDOCK:   -5.25 KCAL/MOL
REMARK 924 INTRA-LIGAND FREE ENERGY PREDICTED BY IDOCK:   -0.44 KCAL/MOL
REMARK 927      BINDING AFFINITY PREDICTED BY RF-SCORE:    0.00 PKD
ROOT
HETATM    1  C   UNL     1     -11.710  12.844  69.054  1.00  0.00    -0.327 C  
HETATM    2  O   UNL     1     -12.360  11.582  68.935  1.00  0.00    -0.400 OA 
ENDROOT
BRANCH   2   3
HETATM    3  C   UNL     1     -12.081  10.658  69.930  1.00  0.00    -0.299 C  
HETATM    4  C   UNL     1     -13.077  10.256  70.721  1.00  0.00    -0.360 C  
HETATM    5  C   UNL     1     -12.870   9.397  71.887  1.00  0.00    -0.412 C  
HETATM    6  O   UNL     1     -11.604   9.050  72.191  1.00  0.00    -0.355 OA 
HETATM    7  O   UNL     1     -13.820   9.060  72.581  1.00  0.00    -0.467 OA 
HETATM    8  C   UNL     1     -10.496   9.196  71.286  1.00  0.00    -0.328 C  
HETATM    9  C   UNL     1     -10.669  10.238  70.170  1.00  0.00    -0.334 C  
BRANCH   8  10
HETATM   10  C   UNL     1     -10.058   7.852  70.747  1.00  0.00    -0.201 C  
HETATM   11  C   UNL     1     -10.596   7.177  69.718  1.00  0.00    -0.250 C  
BRANCH  11  12
HETATM   12  C   UNL     1     -10.171   5.846  69.299  1.00  0.00    -0.275 C  
HETATM   13  C   UNL     1     -10.133   5.577  67.978  1.00  0.00    -0.221 C  
HETATM   14  C   UNL     1      -9.769   4.239  67.395  1.00  0.00    -0.210 C  
HETATM   15  C   UNL     1      -9.395   3.142  68.402  1.00  0.00    -0.244 C  
HETATM   16  C   UNL     1      -9.533   3.528  69.842  1.00  0.00    -0.254 C  
HETATM   17  C   UNL     1      -9.892   4.759  70.232  1.00  0.00    -0.313 C  
ENDBRANCH  11  12
ENDBRANCH   8  10
ENDBRANCH   2   3
TORSDOF 3
ENDMDL
MODEL       64
REMARK 921   NORMALIZED FREE ENERGY PREDICTED BY IDOCK:   -4.55 KCAL/MOL
REMARK 922        TOTAL FREE ENERGY PREDICTED BY IDOCK:   -5.68 KCAL/MOL
REMARK 923 INTER-LIGAND FREE ENERGY PREDICTED BY IDOCK:   -5.35 KCAL/MOL
REMARK 924 INTRA-LIGAND FREE ENERGY PREDICTED BY IDOCK:   -0.33 KCAL/MOL
REMARK 927      BINDING AFFINITY PREDICTED BY RF-SCORE:    0.00 PKD
ROOT
HETATM    1  C   UNL     1     -13.386  15.778  73.183  1.00  0.00    -0.587 C  
HETATM    2  O   UNL     1     -13.376  14.567  72.434  1.00  0.00    -0.364 OA 
ENDROOT
BRANCH   2   3
HETATM    3  C   UNL     1     -12.479  14.512  71.379  1.00  0.00    -0.353 C  
HETATM    4  C   UNL     1     -12.661  13.585  70.437  1.00  0.00    -0.173 C  
HETATM    5  C   UNL     1     -11.701  13.345  69.360  1.00  0.00    -0.325 C  
HETATM    6  O   UNL     1     -10.563  14.066  69.365  1.00  0.00    -0.137 OA 
HETATM    7  O   UNL     1     -11.918  12.479  68.524  1.00  0.00    -0.313 OA 
HETATM    8  C   UNL     1     -10.372  15.253  70.153  1.00  0.00    -0.187 C  
HETATM    9  C   UNL     1     -11.276  15.396  71.387  1.00  0.00    -0.402 C  
BRANCH   8  10
HETATM   10  C   UNL     1     -10.398  16.490  69.282  1.00  0.00    -0.318 C  
HETATM   11  C   UNL     1      -9.654  16.726  68.189  1.00  0.00    -0.242 C  
BRANCH  11  12
HETATM   12  C   UNL     1      -9.676  17.977  67.439  1.00  0.00    -0.296 C  
HETATM   13  C   UNL     1      -8.954  19.014  67.911  1.00  0.00    -0.338 C  
HETATM   14  C   UNL     1      -8.918  20.380  67.282  1.00  0.00    -0.460 C  
HETATM   15  C   UNL     1      -9.750  20.557  66.004  1.00  0.00    -0.096 C  
HETATM   16  C   UNL     1     -10.563  19.365  65.605  1.00  0.00    -0.386 C  
HETATM   17  C   UNL     1     -10.523  18.203  66.271  1.00  0.00    -0.374 C  
ENDBRANCH  11  12
ENDBRANCH   8  10
ENDBRANCH   2   3
TORSDOF 3
ENDMDL
MODEL       65
REMARK 921   NORMALIZED FREE ENERGY PREDICTED BY IDOCK:   -4.55 KCAL/MOL
REMARK 922        TOTAL FREE ENERGY PREDICTED BY IDOCK:   -5.68 KCAL/MOL
REMARK 923 INTER-LIGAND FREE ENERGY PREDICTED BY IDOCK:   -5.29 KCAL/MOL
REMARK 924 INTRA-LIGAND FREE ENERGY PREDICTED BY IDOCK:   -0.39 KCAL/MOL
REMARK 927      BINDING AFFINITY PREDICTED BY RF-SCORE:    0.00 PKD
ROOT
HETATM    1  C   UNL     1     -11.851   6.787  70.939  1.00  0.00    -0.385 C  
HETATM    2  O   UNL     1     -11.659   6.152  69.680  1.00  0.00    -0.407 OA 
ENDROOT
BRANCH   2   3
HETATM    3  C   UNL     1     -10.864   6.832  68.771  1.00  0.00    -0.231 C  
HETATM    4  C   UNL     1     -10.440   6.183  67.686  1.00  0.00    -0.295 C  
HETATM    5  C   UNL     1      -9.486   6.757  66.737  1.00  0.00    -0.162 C  
HETATM    6  O   UNL     1      -8.982   7.975  67.016  1.00  0.00    -0.131 OA 
HETATM    7  O   UNL     1      -9.129   6.115  65.758  1.00  0.00    -0.135 OA 
HETATM    8  C   UNL     1      -9.546   8.869  67.991  1.00  0.00    -0.148 C  
HETATM    9  C   UNL     1     -10.403   8.217  69.087  1.00  0.00    -0.225 C  
BRANCH   8  10
HETATM   10  C   UNL     1     -10.260  10.021  67.319  1.00  0.00    -0.275 C  
HETATM   11  C   UNL     1     -10.351  10.259  66.000  1.00  0.00    -0.248 C  
BRANCH  11  12
HETATM   12  C   UNL     1     -10.992  11.436  65.423  1.00  0.00    -0.249 C  
HETATM   13  C   UNL     1     -11.616  12.292  66.258  1.00  0.00    -0.446 C  
HETATM   14  C   UNL     1     -12.367  13.517  65.811  1.00  0.00    -0.516 C  
HETATM   15  C   UNL     1     -12.376  13.790  64.300  1.00  0.00    -0.384 C  
HETATM   16  C   UNL     1     -11.710  12.743  63.461  1.00  0.00    -0.597 C  
HETATM   17  C   UNL     1     -11.092  11.677  63.987  1.00  0.00    -0.458 C  
ENDBRANCH  11  12
ENDBRANCH   8  10
ENDBRANCH   2   3
TORSDOF 3
ENDMDL
MODEL       66
REMARK 921   NORMALIZED FREE ENERGY PREDICTED BY IDOCK:   -4.50 KCAL/MOL
REMARK 922        TOTAL FREE ENERGY PREDICTED BY IDOCK:   -5.62 KCAL/MOL
REMARK 923 INTER-LIGAND FREE ENERGY PREDICTED BY IDOCK:   -5.32 KCAL/MOL
REMARK 924 INTRA-LIGAND FREE ENERGY PREDICTED BY IDOCK:   -0.31 KCAL/MOL
REMARK 927      BINDING AFFINITY PREDICTED BY RF-SCORE:    0.00 PKD
ROOT
HETATM    1  C   UNL     1      -8.785  16.343  67.211  1.00  0.00    -0.181 C  
HETATM    2  O   UNL     1     -10.181  16.245  67.476  1.00  0.00    -0.258 OA 
ENDROOT
BRANCH   2   3
HETATM    3  C   UNL     1     -10.838  15.177  66.888  1.00  0.00    -0.317 C  
HETATM    4  C   UNL     1     -11.251  15.301  65.626  1.00  0.00    -0.256 C  
HETATM    5  C   UNL     1     -12.076  14.296  64.955  1.00  0.00    -0.425 C  
HETATM    6  O   UNL     1     -12.470  13.229  65.676  1.00  0.00    -0.457 OA 
HETATM    7  O   UNL     1     -12.429  14.463  63.795  1.00  0.00    -0.814 OA 
HETATM    8  C   UNL     1     -11.887  12.855  66.936  1.00  0.00    -0.379 C  
HETATM    9  C   UNL     1     -11.176  13.977  67.709  1.00  0.00    -0.302 C  
BRANCH   8  10
HETATM   10  C   UNL     1     -11.015  11.627  66.785  1.00  0.00    -0.341 C  
HETATM   11  C   UNL     1     -11.064  10.504  67.520  1.00  0.00    -0.358 C  
BRANCH  11  12
HETATM   12  C   UNL     1     -10.139   9.386  67.368  1.00  0.00    -0.271 C  
HETATM   13  C   UNL     1      -8.833   9.603  67.623  1.00  0.00    -0.127 C  
HETATM   14  C   UNL     1      -7.753   8.569  67.460  1.00  0.00    -0.098 C  
HETATM   15  C   UNL     1      -8.213   7.179  66.998  1.00  0.00    -0.117 C  
HETATM   16  C   UNL     1      -9.673   7.066  66.681  1.00  0.00    -0.226 C  
HETATM   17  C   UNL     1     -10.532   8.079  66.849  1.00  0.00    -0.387 C  
ENDBRANCH  11  12
ENDBRANCH   8  10
ENDBRANCH   2   3
TORSDOF 3
ENDMDL
MODEL       67
REMARK 921   NORMALIZED FREE ENERGY PREDICTED BY IDOCK:   -4.44 KCAL/MOL
REMARK 922        TOTAL FREE ENERGY PREDICTED BY IDOCK:   -5.55 KCAL/MOL
REMARK 923 INTER-LIGAND FREE ENERGY PREDICTED BY IDOCK:   -5.11 KCAL/MOL
REMARK 924 INTRA-LIGAND FREE ENERGY PREDICTED BY IDOCK:   -0.44 KCAL/MOL
REMARK 927      BINDING AFFINITY PREDICTED BY RF-SCORE:    0.00 PKD
ROOT
HETATM    1  C   UNL     1     -12.658  11.848  63.141  1.00  0.00    -0.195 C  
HETATM    2  O   UNL     1     -13.076  12.602  64.274  1.00  0.00    -0.741 OA 
ENDROOT
BRANCH   2   3
HETATM    3  C   UNL     1     -12.176  12.668  65.326  1.00  0.00    -0.475 C  
HETATM    4  C   UNL     1     -12.495  13.407  66.390  1.00  0.00    -0.297 C  
HETATM    5  C   UNL     1     -11.565  13.662  67.490  1.00  0.00    -0.350 C  
HETATM    6  O   UNL     1     -10.318  13.164  67.382  1.00  0.00    -0.236 OA 
HETATM    7  O   UNL     1     -11.910  14.350  68.441  1.00  0.00    -0.316 OA 
HETATM    8  C   UNL     1      -9.940  12.152  66.433  1.00  0.00    -0.225 C  
HETATM    9  C   UNL     1     -10.836  12.024  65.191  1.00  0.00    -0.347 C  
BRANCH   8  10
HETATM   10  C   UNL     1      -9.724  10.821  67.119  1.00  0.00    -0.198 C  
HETATM   11  C   UNL     1     -10.347   9.661  66.851  1.00  0.00    -0.307 C  
BRANCH  11  12
HETATM   12  C   UNL     1     -10.144   8.429  67.606  1.00  0.00    -0.268 C  
HETATM   13  C   UNL     1      -9.216   8.430  68.585  1.00  0.00    -0.143 C  
HETATM   14  C   UNL     1      -8.855   7.227  69.413  1.00  0.00    -0.137 C  
HETATM   15  C   UNL     1      -9.636   5.940  69.111  1.00  0.00    -0.166 C  
HETATM   16  C   UNL     1     -10.594   6.033  67.964  1.00  0.00    -0.330 C  
HETATM   17  C   UNL     1     -10.808   7.169  67.287  1.00  0.00    -0.382 C  
ENDBRANCH  11  12
ENDBRANCH   8  10
ENDBRANCH   2   3
TORSDOF 3
ENDMDL
MODEL       68
REMARK 921   NORMALIZED FREE ENERGY PREDICTED BY IDOCK:   -4.41 KCAL/MOL
REMARK 922        TOTAL FREE ENERGY PREDICTED BY IDOCK:   -5.51 KCAL/MOL
REMARK 923 INTER-LIGAND FREE ENERGY PREDICTED BY IDOCK:   -5.16 KCAL/MOL
REMARK 924 INTRA-LIGAND FREE ENERGY PREDICTED BY IDOCK:   -0.35 KCAL/MOL
REMARK 927      BINDING AFFINITY PREDICTED BY RF-SCORE:    0.00 PKD
ROOT
HETATM    1  C   UNL     1     -12.388  12.687  65.137  1.00  0.00    -0.484 C  
HETATM    2  O   UNL     1     -12.659  13.742  66.054  1.00  0.00    -0.454 OA 
ENDROOT
BRANCH   2   3
HETATM    3  C   UNL     1     -11.625  14.084  66.911  1.00  0.00    -0.386 C  
HETATM    4  C   UNL     1     -10.601  13.240  67.040  1.00  0.00    -0.259 C  
HETATM    5  C   UNL     1      -9.530  13.431  68.017  1.00  0.00    -0.218 C  
HETATM    6  O   UNL     1      -9.626  14.484  68.852  1.00  0.00    -0.210 OA 
HETATM    7  O   UNL     1      -8.614  12.623  68.094  1.00  0.00    -0.177 OA 
HETATM    8  C   UNL     1     -10.521  15.590  68.645  1.00  0.00    -0.237 C  
HETATM    9  C   UNL     1     -11.742  15.311  67.753  1.00  0.00    -0.206 C  
BRANCH   8  10
HETATM   10  C   UNL     1      -9.764  16.823  68.205  1.00  0.00    -0.247 C  
HETATM   11  C   UNL     1      -8.615  17.294  68.717  1.00  0.00    -0.230 C  
BRANCH  11  12
HETATM   12  C   UNL     1      -7.978  18.536  68.293  1.00  0.00    -0.325 C  
HETATM   13  C   UNL     1      -8.282  19.021  67.072  1.00  0.00    -0.285 C  
HETATM   14  C   UNL     1      -7.669  20.258  66.473  1.00  0.00    -0.283 C  
HETATM   15  C   UNL     1      -6.655  21.003  67.354  1.00  0.00    -0.439 C  
HETATM   16  C   UNL     1      -6.343  20.343  68.661  1.00  0.00    -0.340 C  
HETATM   17  C   UNL     1      -6.948  19.220  69.070  1.00  0.00    -0.381 C  
ENDBRANCH  11  12
ENDBRANCH   8  10
ENDBRANCH   2   3
TORSDOF 3
ENDMDL
MODEL       69
REMARK 921   NORMALIZED FREE ENERGY PREDICTED BY IDOCK:   -4.40 KCAL/MOL
REMARK 922        TOTAL FREE ENERGY PREDICTED BY IDOCK:   -5.50 KCAL/MOL
REMARK 923 INTER-LIGAND FREE ENERGY PREDICTED BY IDOCK:   -5.13 KCAL/MOL
REMARK 924 INTRA-LIGAND FREE ENERGY PREDICTED BY IDOCK:   -0.37 KCAL/MOL
REMARK 927      BINDING AFFINITY PREDICTED BY RF-SCORE:    0.00 PKD
ROOT
HETATM    1  C   UNL     1     -12.423  13.521  64.670  1.00  0.00    -0.323 C  
HETATM    2  O   UNL     1     -11.993  14.695  65.351  1.00  0.00    -0.341 OA 
ENDROOT
BRANCH   2   3
HETATM    3  C   UNL     1     -11.080  14.503  66.376  1.00  0.00    -0.331 C  
HETATM    4  C   UNL     1     -10.678  15.565  67.076  1.00  0.00    -0.321 C  
HETATM    5  C   UNL     1      -9.617  15.501  68.081  1.00  0.00    -0.199 C  
HETATM    6  O   UNL     1      -8.993  14.320  68.257  1.00  0.00    -0.175 OA 
HETATM    7  O   UNL     1      -9.286  16.508  68.693  1.00  0.00    -0.221 OA 
HETATM    8  C   UNL     1      -9.500  13.067  67.767  1.00  0.00    -0.209 C  
HETATM    9  C   UNL     1     -10.481  13.152  66.587  1.00  0.00    -0.280 C  
BRANCH   8  10
HETATM   10  C   UNL     1     -10.043  12.223  68.899  1.00  0.00     0.002 C  
HETATM   11  C   UNL     1     -10.897  11.191  68.802  1.00  0.00    -0.256 C  
BRANCH  11  12
HETATM   12  C   UNL     1     -11.440  10.468  69.947  1.00  0.00    -0.384 C  
HETATM   13  C   UNL     1     -11.058   9.187  70.129  1.00  0.00    -0.248 C  
HETATM   14  C   UNL     1     -11.571   8.297  71.228  1.00  0.00    -0.318 C  
HETATM   15  C   UNL     1     -12.572   8.934  72.202  1.00  0.00    -0.467 C  
HETATM   16  C   UNL     1     -12.976  10.338  71.870  1.00  0.00    -0.554 C  
HETATM   17  C   UNL     1     -12.457  11.017  70.839  1.00  0.00    -0.509 C  
ENDBRANCH  11  12
ENDBRANCH   8  10
ENDBRANCH   2   3
TORSDOF 3
ENDMDL
MODEL       70
REMARK 921   NORMALIZED FREE ENERGY PREDICTED BY IDOCK:   -4.34 KCAL/MOL
REMARK 922        TOTAL FREE ENERGY PREDICTED BY IDOCK:   -5.44 KCAL/MOL
REMARK 923 INTER-LIGAND FREE ENERGY PREDICTED BY IDOCK:   -4.98 KCAL/MOL
REMARK 924 INTRA-LIGAND FREE ENERGY PREDICTED BY IDOCK:   -0.45 KCAL/MOL
REMARK 927      BINDING AFFINITY PREDICTED BY RF-SCORE:    0.00 PKD
ROOT
HETATM    1  C   UNL     1     -12.255  16.132  73.547  1.00  0.00    -0.528 C  
HETATM    2  O   UNL     1     -12.492  14.860  72.952  1.00  0.00    -0.359 OA 
ENDROOT
BRANCH   2   3
HETATM    3  C   UNL     1     -12.078  14.717  71.637  1.00  0.00    -0.350 C  
HETATM    4  C   UNL     1     -10.967  15.344  71.248  1.00  0.00    -0.240 C  
HETATM    5  C   UNL     1     -10.518  15.380  69.857  1.00  0.00    -0.297 C  
HETATM    6  O   UNL     1     -11.302  14.792  68.932  1.00  0.00    -0.254 OA 
HETATM    7  O   UNL     1      -9.491  15.973  69.556  1.00  0.00    -0.248 OA 
HETATM    8  C   UNL     1     -12.363  13.875  69.249  1.00  0.00    -0.161 C  
HETATM    9  C   UNL     1     -12.943  13.980  70.669  1.00  0.00    -0.261 C  
BRANCH   8  10
HETATM   10  C   UNL     1     -11.976  12.456  68.896  1.00  0.00    -0.289 C  
HETATM   11  C   UNL     1     -11.468  11.526  69.721  1.00  0.00    -0.362 C  
BRANCH  11  12
HETATM   12  C   UNL     1     -11.044  10.197  69.293  1.00  0.00    -0.270 C  
HETATM   13  C   UNL     1     -10.763  10.009  67.988  1.00  0.00    -0.303 C  
HETATM   14  C   UNL     1     -10.367   8.688  67.386  1.00  0.00    -0.353 C  
HETATM   15  C   UNL     1     -10.260   7.507  68.361  1.00  0.00    -0.211 C  
HETATM   16  C   UNL     1     -10.656   7.811  69.773  1.00  0.00    -0.241 C  
HETATM   17  C   UNL     1     -11.015   9.036  70.178  1.00  0.00    -0.256 C  
ENDBRANCH  11  12
ENDBRANCH   8  10
ENDBRANCH   2   3
TORSDOF 3
ENDMDL
MODEL       71
REMARK 921   NORMALIZED FREE ENERGY PREDICTED BY IDOCK:   -4.34 KCAL/MOL
REMARK 922        TOTAL FREE ENERGY PREDICTED BY IDOCK:   -5.43 KCAL/MOL
REMARK 923 INTER-LIGAND FREE ENERGY PREDICTED BY IDOCK:   -4.99 KCAL/MOL
REMARK 924 INTRA-LIGAND FREE ENERGY PREDICTED BY IDOCK:   -0.44 KCAL/MOL
REMARK 927      BINDING AFFINITY PREDICTED BY RF-SCORE:    0.00 PKD
ROOT
HETATM    1  C   UNL     1     -12.659  12.931  64.230  1.00  0.00    -0.286 C  
HETATM    2  O   UNL     1     -12.716  13.677  65.441  1.00  0.00    -0.547 OA 
ENDROOT
BRANCH   2   3
HETATM    3  C   UNL     1     -11.720  13.409  66.367  1.00  0.00    -0.368 C  
HETATM    4  C   UNL     1     -10.798  12.495  66.063  1.00  0.00    -0.309 C  
HETATM    5  C   UNL     1      -9.790  12.033  67.017  1.00  0.00    -0.194 C  
HETATM    6  O   UNL     1      -9.844  12.523  68.270  1.00  0.00    -0.222 OA 
HETATM    7  O   UNL     1      -8.968  11.189  66.684  1.00  0.00    -0.160 OA 
HETATM    8  C   UNL     1     -10.605  13.685  68.642  1.00  0.00    -0.248 C  
HETATM    9  C   UNL     1     -11.777  14.048  67.716  1.00  0.00    -0.403 C  
BRANCH   8  10
HETATM   10  C   UNL     1      -9.698  14.866  68.902  1.00  0.00    -0.223 C  
HETATM   11  C   UNL     1      -9.705  16.050  68.265  1.00  0.00    -0.214 C  
BRANCH  11  12
HETATM   12  C   UNL     1      -8.747  17.121  68.517  1.00  0.00    -0.261 C  
HETATM   13  C   UNL     1      -7.491  16.779  68.870  1.00  0.00    -0.240 C  
HETATM   14  C   UNL     1      -6.408  17.766  69.213  1.00  0.00    -0.246 C  
HETATM   15  C   UNL     1      -6.791  19.250  69.116  1.00  0.00    -0.371 C  
HETATM   16  C   UNL     1      -8.226  19.515  68.780  1.00  0.00    -0.348 C  
HETATM   17  C   UNL     1      -9.103  18.536  68.516  1.00  0.00    -0.353 C  
ENDBRANCH  11  12
ENDBRANCH   8  10
ENDBRANCH   2   3
TORSDOF 3
ENDMDL
MODEL       72
REMARK 921   NORMALIZED FREE ENERGY PREDICTED BY IDOCK:   -4.30 KCAL/MOL
REMARK 922        TOTAL FREE ENERGY PREDICTED BY IDOCK:   -5.38 KCAL/MOL
REMARK 923 INTER-LIGAND FREE ENERGY PREDICTED BY IDOCK:   -4.93 KCAL/MOL
REMARK 924 INTRA-LIGAND FREE ENERGY PREDICTED BY IDOCK:   -0.45 KCAL/MOL
REMARK 927      BINDING AFFINITY PREDICTED BY RF-SCORE:    0.00 PKD
ROOT
HETATM    1  C   UNL     1      -6.686  21.079  66.933  1.00  0.00    -0.318 C  
HETATM    2  O   UNL     1      -7.787  20.219  67.209  1.00  0.00    -0.301 OA 
ENDROOT
BRANCH   2   3
HETATM    3  C   UNL     1      -7.481  19.022  67.835  1.00  0.00    -0.251 C  
HETATM    4  C   UNL     1      -6.712  19.052  68.925  1.00  0.00    -0.321 C  
HETATM    5  C   UNL     1      -6.211  17.843  69.580  1.00  0.00    -0.237 C  
HETATM    6  O   UNL     1      -6.506  16.657  69.013  1.00  0.00    -0.166 OA 
HETATM    7  O   UNL     1      -5.506  17.930  70.576  1.00  0.00    -0.252 OA 
HETATM    8  C   UNL     1      -7.524  16.480  68.013  1.00  0.00    -0.156 C  
HETATM    9  C   UNL     1      -7.907  17.734  67.212  1.00  0.00    -0.225 C  
BRANCH   8  10
HETATM   10  C   UNL     1      -8.735  15.782  68.592  1.00  0.00    -0.195 C  
HETATM   11  C   UNL     1      -9.648  16.304  69.429  1.00  0.00    -0.173 C  
BRANCH  11  12
HETATM   12  C   UNL     1     -10.752  15.547  70.010  1.00  0.00    -0.331 C  
HETATM   13  C   UNL     1     -11.072  14.362  69.453  1.00  0.00    -0.294 C  
HETATM   14  C   UNL     1     -12.215  13.494  69.904  1.00  0.00    -0.356 C  
HETATM   15  C   UNL     1     -13.030  14.015  71.097  1.00  0.00    -0.402 C  
HETATM   16  C   UNL     1     -12.631  15.369  71.595  1.00  0.00    -0.458 C  
HETATM   17  C   UNL     1     -11.597  16.054  71.087  1.00  0.00    -0.492 C  
ENDBRANCH  11  12
ENDBRANCH   8  10
ENDBRANCH   2   3
TORSDOF 3
ENDMDL
MODEL       73
REMARK 921   NORMALIZED FREE ENERGY PREDICTED BY IDOCK:   -4.29 KCAL/MOL
REMARK 922        TOTAL FREE ENERGY PREDICTED BY IDOCK:   -5.38 KCAL/MOL
REMARK 923 INTER-LIGAND FREE ENERGY PREDICTED BY IDOCK:   -4.98 KCAL/MOL
REMARK 924 INTRA-LIGAND FREE ENERGY PREDICTED BY IDOCK:   -0.40 KCAL/MOL
REMARK 927      BINDING AFFINITY PREDICTED BY RF-SCORE:    0.00 PKD
ROOT
HETATM    1  C   UNL     1     -10.111  20.092  68.387  1.00  0.00    -0.386 C  
HETATM    2  O   UNL     1      -8.824  19.736  68.879  1.00  0.00    -0.259 OA 
ENDROOT
BRANCH   2   3
HETATM    3  C   UNL     1      -8.204  18.671  68.245  1.00  0.00    -0.323 C  
HETATM    4  C   UNL     1      -7.289  17.973  68.920  1.00  0.00    -0.249 C  
HETATM    5  C   UNL     1      -6.474  16.925  68.306  1.00  0.00    -0.142 C  
HETATM    6  O   UNL     1      -6.631  16.703  66.987  1.00  0.00    -0.171 OA 
HETATM    7  O   UNL     1      -5.647  16.318  68.973  1.00  0.00    -0.113 OA 
HETATM    8  C   UNL     1      -7.746  17.192  66.221  1.00  0.00    -0.315 C  
HETATM    9  C   UNL     1      -8.479  18.412  66.800  1.00  0.00    -0.274 C  
BRANCH   8  10
HETATM   10  C   UNL     1      -8.697  16.068  65.873  1.00  0.00    -0.103 C  
HETATM   11  C   UNL     1     -10.038  16.129  65.823  1.00  0.00    -0.390 C  
BRANCH  11  12
HETATM   12  C   UNL     1     -10.900  14.983  65.554  1.00  0.00    -0.360 C  
HETATM   13  C   UNL     1     -11.050  14.060  66.525  1.00  0.00    -0.315 C  
HETATM   14  C   UNL     1     -11.859  12.799  66.381  1.00  0.00    -0.472 C  
HETATM   15  C   UNL     1     -12.567  12.602  65.033  1.00  0.00    -0.504 C  
HETATM   16  C   UNL     1     -12.280  13.653  64.005  1.00  0.00    -0.443 C  
HETATM   17  C   UNL     1     -11.516  14.724  64.256  1.00  0.00    -0.159 C  
ENDBRANCH  11  12
ENDBRANCH   8  10
ENDBRANCH   2   3
TORSDOF 3
ENDMDL
MODEL       74
REMARK 921   NORMALIZED FREE ENERGY PREDICTED BY IDOCK:   -4.29 KCAL/MOL
REMARK 922        TOTAL FREE ENERGY PREDICTED BY IDOCK:   -5.38 KCAL/MOL
REMARK 923 INTER-LIGAND FREE ENERGY PREDICTED BY IDOCK:   -4.94 KCAL/MOL
REMARK 924 INTRA-LIGAND FREE ENERGY PREDICTED BY IDOCK:   -0.44 KCAL/MOL
REMARK 927      BINDING AFFINITY PREDICTED BY RF-SCORE:    0.00 PKD
ROOT
HETATM    1  C   UNL     1     -11.923   9.794  71.466  1.00  0.00    -0.407 C  
HETATM    2  O   UNL     1     -11.743  10.576  70.290  1.00  0.00    -0.278 OA 
ENDROOT
BRANCH   2   3
HETATM    3  C   UNL     1     -12.107  11.910  70.385  1.00  0.00    -0.333 C  
HETATM    4  C   UNL     1     -12.549  12.367  71.558  1.00  0.00    -0.250 C  
HETATM    5  C   UNL     1     -13.091  13.714  71.735  1.00  0.00    -0.382 C  
HETATM    6  O   UNL     1     -13.191  14.496  70.642  1.00  0.00    -0.334 OA 
HETATM    7  O   UNL     1     -13.484  14.080  72.834  1.00  0.00    -0.647 OA 
HETATM    8  C   UNL     1     -12.520  14.224  69.400  1.00  0.00    -0.075 C  
HETATM    9  C   UNL     1     -12.117  12.761  69.158  1.00  0.00    -0.206 C  
BRANCH   8  10
HETATM   10  C   UNL     1     -11.363  15.175  69.190  1.00  0.00    -0.311 C  
HETATM   11  C   UNL     1     -10.054  14.872  69.198  1.00  0.00    -0.227 C  
BRANCH  11  12
HETATM   12  C   UNL     1      -8.985  15.856  69.064  1.00  0.00    -0.245 C  
HETATM   13  C   UNL     1      -7.764  15.536  69.538  1.00  0.00    -0.197 C  
HETATM   14  C   UNL     1      -6.578  16.462  69.523  1.00  0.00    -0.210 C  
HETATM   15  C   UNL     1      -6.808  17.843  68.894  1.00  0.00    -0.250 C  
HETATM   16  C   UNL     1      -8.215  18.118  68.460  1.00  0.00    -0.320 C  
HETATM   17  C   UNL     1      -9.192  17.206  68.550  1.00  0.00    -0.264 C  
ENDBRANCH  11  12
ENDBRANCH   8  10
ENDBRANCH   2   3
TORSDOF 3
ENDMDL
MODEL       75
REMARK 921   NORMALIZED FREE ENERGY PREDICTED BY IDOCK:   -4.29 KCAL/MOL
REMARK 922        TOTAL FREE ENERGY PREDICTED BY IDOCK:   -5.38 KCAL/MOL
REMARK 923 INTER-LIGAND FREE ENERGY PREDICTED BY IDOCK:   -5.01 KCAL/MOL
REMARK 924 INTRA-LIGAND FREE ENERGY PREDICTED BY IDOCK:   -0.37 KCAL/MOL
REMARK 927      BINDING AFFINITY PREDICTED BY RF-SCORE:    0.00 PKD
ROOT
HETATM    1  C   UNL     1     -10.180  18.259  68.675  1.00  0.00    -0.353 C  
HETATM    2  O   UNL     1     -10.348  16.900  69.066  1.00  0.00    -0.297 OA 
ENDROOT
BRANCH   2   3
HETATM    3  C   UNL     1     -10.780  16.032  68.075  1.00  0.00    -0.309 C  
HETATM    4  C   UNL     1     -10.601  16.381  66.801  1.00  0.00    -0.238 C  
HETATM    5  C   UNL     1     -11.142  15.612  65.681  1.00  0.00    -0.194 C  
HETATM    6  O   UNL     1     -11.898  14.535  65.969  1.00  0.00    -0.373 OA 
HETATM    7  O   UNL     1     -10.948  15.980  64.530  1.00  0.00    -0.592 OA 
HETATM    8  C   UNL     1     -11.945  13.915  67.266  1.00  0.00    -0.411 C  
HETATM    9  C   UNL     1     -11.540  14.803  68.453  1.00  0.00    -0.350 C  
BRANCH   8  10
HETATM   10  C   UNL     1     -11.202  12.597  67.262  1.00  0.00    -0.346 C  
HETATM   11  C   UNL     1     -10.651  11.981  66.203  1.00  0.00    -0.298 C  
BRANCH  11  12
HETATM   12  C   UNL     1     -10.015  10.669  66.259  1.00  0.00    -0.274 C  
HETATM   13  C   UNL     1     -10.742   9.630  66.717  1.00  0.00    -0.149 C  
HETATM   14  C   UNL     1     -10.211   8.232  66.884  1.00  0.00    -0.388 C  
HETATM   15  C   UNL     1      -8.750   8.009  66.469  1.00  0.00    -0.161 C  
HETATM   16  C   UNL     1      -8.018   9.242  66.038  1.00  0.00    -0.110 C  
HETATM   17  C   UNL     1      -8.605  10.443  65.953  1.00  0.00    -0.165 C  
ENDBRANCH  11  12
ENDBRANCH   8  10
ENDBRANCH   2   3
TORSDOF 3
ENDMDL
MODEL       76
REMARK 921   NORMALIZED FREE ENERGY PREDICTED BY IDOCK:   -4.27 KCAL/MOL
REMARK 922        TOTAL FREE ENERGY PREDICTED BY IDOCK:   -5.35 KCAL/MOL
REMARK 923 INTER-LIGAND FREE ENERGY PREDICTED BY IDOCK:   -5.05 KCAL/MOL
REMARK 924 INTRA-LIGAND FREE ENERGY PREDICTED BY IDOCK:   -0.30 KCAL/MOL
REMARK 927      BINDING AFFINITY PREDICTED BY RF-SCORE:    0.00 PKD
ROOT
HETATM    1  C   UNL     1     -10.243  17.378  68.529  1.00  0.00    -0.369 C  
HETATM    2  O   UNL     1     -11.298  16.457  68.783  1.00  0.00    -0.336 OA 
ENDROOT
BRANCH   2   3
HETATM    3  C   UNL     1     -11.291  15.299  68.021  1.00  0.00    -0.338 C  
HETATM    4  C   UNL     1     -10.779  15.351  66.791  1.00  0.00    -0.310 C  
HETATM    5  C   UNL     1     -10.849  14.232  65.852  1.00  0.00    -0.300 C  
HETATM    6  O   UNL     1     -11.509  13.126  66.245  1.00  0.00    -0.309 OA 
HETATM    7  O   UNL     1     -10.365  14.335  64.733  1.00  0.00    -0.433 OA 
HETATM    8  C   UNL     1     -11.866  12.851  67.611  1.00  0.00    -0.346 C  
HETATM    9  C   UNL     1     -11.962  14.071  68.541  1.00  0.00    -0.383 C  
BRANCH   8  10
HETATM   10  C   UNL     1     -10.993  11.761  68.190  1.00  0.00    -0.275 C  
HETATM   11  C   UNL     1     -11.269  10.447  68.250  1.00  0.00    -0.330 C  
BRANCH  11  12
HETATM   12  C   UNL     1     -10.411   9.459  68.894  1.00  0.00    -0.236 C  
HETATM   13  C   UNL     1     -10.244   8.268  68.282  1.00  0.00    -0.246 C  
HETATM   14  C   UNL     1      -9.436   7.131  68.845  1.00  0.00    -0.142 C  
HETATM   15  C   UNL     1      -8.749   7.393  70.194  1.00  0.00    -0.143 C  
HETATM   16  C   UNL     1      -9.055   8.721  70.814  1.00  0.00    -0.233 C  
HETATM   17  C   UNL     1      -9.816   9.645  70.213  1.00  0.00    -0.321 C  
ENDBRANCH  11  12
ENDBRANCH   8  10
ENDBRANCH   2   3
TORSDOF 3
ENDMDL
MODEL       77
REMARK 921   NORMALIZED FREE ENERGY PREDICTED BY IDOCK:   -4.26 KCAL/MOL
REMARK 922        TOTAL FREE ENERGY PREDICTED BY IDOCK:   -5.34 KCAL/MOL
REMARK 923 INTER-LIGAND FREE ENERGY PREDICTED BY IDOCK:   -4.99 KCAL/MOL
REMARK 924 INTRA-LIGAND FREE ENERGY PREDICTED BY IDOCK:   -0.35 KCAL/MOL
REMARK 927      BINDING AFFINITY PREDICTED BY RF-SCORE:    0.00 PKD
ROOT
HETATM    1  C   UNL     1     -10.972  10.628  68.317  1.00  0.00    -0.263 C  
HETATM    2  O   UNL     1     -10.277  10.665  69.560  1.00  0.00    -0.218 OA 
ENDROOT
BRANCH   2   3
HETATM    3  C   UNL     1     -10.792   9.867  70.568  1.00  0.00    -0.326 C  
HETATM    4  C   UNL     1     -12.111   9.863  70.766  1.00  0.00    -0.396 C  
HETATM    5  C   UNL     1     -12.747   9.172  71.887  1.00  0.00    -0.389 C  
HETATM    6  O   UNL     1     -11.944   8.560  72.780  1.00  0.00    -0.335 OA 
HETATM    7  O   UNL     1     -13.963   9.204  72.022  1.00  0.00    -0.402 OA 
HETATM    8  C   UNL     1     -10.556   8.272  72.542  1.00  0.00    -0.337 C  
HETATM    9  C   UNL     1      -9.861   9.137  71.479  1.00  0.00    -0.335 C  
BRANCH   8  10
HETATM   10  C   UNL     1     -10.345   6.794  72.299  1.00  0.00    -0.219 C  
HETATM   11  C   UNL     1     -10.870   5.775  73.001  1.00  0.00    -0.306 C  
BRANCH  11  12
HETATM   12  C   UNL     1     -10.560   4.370  72.758  1.00  0.00    -0.254 C  
HETATM   13  C   UNL     1      -9.742   4.068  71.730  1.00  0.00    -0.241 C  
HETATM   14  C   UNL     1      -9.373   2.667  71.321  1.00  0.00    -0.207 C  
HETATM   15  C   UNL     1      -9.968   1.537  72.174  1.00  0.00    -0.204 C  
HETATM   16  C   UNL     1     -10.914   1.980  73.247  1.00  0.00    -0.277 C  
HETATM   17  C   UNL     1     -11.176   3.270  73.495  1.00  0.00    -0.280 C  
ENDBRANCH  11  12
ENDBRANCH   8  10
ENDBRANCH   2   3
TORSDOF 3
ENDMDL
MODEL       78
REMARK 921   NORMALIZED FREE ENERGY PREDICTED BY IDOCK:   -4.22 KCAL/MOL
REMARK 922        TOTAL FREE ENERGY PREDICTED BY IDOCK:   -5.29 KCAL/MOL
REMARK 923 INTER-LIGAND FREE ENERGY PREDICTED BY IDOCK:   -4.91 KCAL/MOL
REMARK 924 INTRA-LIGAND FREE ENERGY PREDICTED BY IDOCK:   -0.38 KCAL/MOL
REMARK 927      BINDING AFFINITY PREDICTED BY RF-SCORE:    0.00 PKD
ROOT
HETATM    1  C   UNL     1      -6.425  10.873  67.807  1.00  0.00    -0.063 C  
HETATM    2  O   UNL     1      -7.513  10.809  66.891  1.00  0.00    -0.107 OA 
ENDROOT
BRANCH   2   3
HETATM    3  C   UNL     1      -8.758  10.549  67.443  1.00  0.00    -0.125 C  
HETATM    4  C   UNL     1      -8.864   9.566  68.338  1.00  0.00    -0.124 C  
HETATM    5  C   UNL     1     -10.147   9.114  68.875  1.00  0.00    -0.197 C  
HETATM    6  O   UNL     1     -11.265   9.692  68.394  1.00  0.00    -0.102 OA 
HETATM    7  O   UNL     1     -10.186   8.205  69.694  1.00  0.00    -0.196 OA 
HETATM    8  C   UNL     1     -11.271  10.917  67.641  1.00  0.00    -0.309 C  
HETATM    9  C   UNL     1      -9.956  11.281  66.935  1.00  0.00    -0.238 C  
BRANCH   8  10
HETATM   10  C   UNL     1     -11.806  12.061  68.474  1.00  0.00    -0.369 C  
HETATM   11  C   UNL     1     -11.627  12.256  69.791  1.00  0.00    -0.314 C  
BRANCH  11  12
HETATM   12  C   UNL     1     -12.238  13.344  70.548  1.00  0.00    -0.425 C  
HETATM   13  C   UNL     1     -13.271  13.050  71.362  1.00  0.00    -0.276 C  
HETATM   14  C   UNL     1     -14.038  14.067  72.163  1.00  0.00    -0.641 C  
HETATM   15  C   UNL     1     -13.562  15.522  72.038  1.00  0.00    -0.595 C  
HETATM   16  C   UNL     1     -12.452  15.746  71.059  1.00  0.00    -0.473 C  
HETATM   17  C   UNL     1     -11.865  14.746  70.386  1.00  0.00    -0.352 C  
ENDBRANCH  11  12
ENDBRANCH   8  10
ENDBRANCH   2   3
TORSDOF 3
ENDMDL
MODEL       79
REMARK 921   NORMALIZED FREE ENERGY PREDICTED BY IDOCK:   -4.21 KCAL/MOL
REMARK 922        TOTAL FREE ENERGY PREDICTED BY IDOCK:   -5.28 KCAL/MOL
REMARK 923 INTER-LIGAND FREE ENERGY PREDICTED BY IDOCK:   -4.95 KCAL/MOL
REMARK 924 INTRA-LIGAND FREE ENERGY PREDICTED BY IDOCK:   -0.34 KCAL/MOL
REMARK 927      BINDING AFFINITY PREDICTED BY RF-SCORE:    0.00 PKD
ROOT
HETATM    1  C   UNL     1     -13.743  15.187  72.772  1.00  0.00    -0.457 C  
HETATM    2  O   UNL     1     -13.611  13.774  72.890  1.00  0.00    -0.681 OA 
ENDROOT
BRANCH   2   3
HETATM    3  C   UNL     1     -13.082  13.119  71.790  1.00  0.00    -0.383 C  
HETATM    4  C   UNL     1     -12.595  13.852  70.787  1.00  0.00    -0.424 C  
HETATM    5  C   UNL     1     -12.145  13.271  69.522  1.00  0.00    -0.258 C  
HETATM    6  O   UNL     1     -12.286  11.941  69.359  1.00  0.00    -0.235 OA 
HETATM    7  O   UNL     1     -11.709  13.992  68.634  1.00  0.00    -0.310 OA 
HETATM    8  C   UNL     1     -12.544  11.027  70.439  1.00  0.00    -0.267 C  
HETATM    9  C   UNL     1     -13.185  11.632  71.697  1.00  0.00    -0.376 C  
BRANCH   8  10
HETATM   10  C   UNL     1     -11.311  10.212  70.764  1.00  0.00    -0.436 C  
HETATM   11  C   UNL     1     -10.418   9.713  69.893  1.00  0.00    -0.285 C  
BRANCH  11  12
HETATM   12  C   UNL     1      -9.290   8.868  70.272  1.00  0.00    -0.208 C  
HETATM   13  C   UNL     1      -8.858   7.950  69.384  1.00  0.00    -0.145 C  
HETATM   14  C   UNL     1      -7.745   6.972  69.648  1.00  0.00    -0.110 C  
HETATM   15  C   UNL     1      -7.064   7.078  71.021  1.00  0.00    -0.070 C  
HETATM   16  C   UNL     1      -7.665   8.085  71.952  1.00  0.00    -0.114 C  
HETATM   17  C   UNL     1      -8.679   8.886  71.598  1.00  0.00    -0.186 C  
ENDBRANCH  11  12
ENDBRANCH   8  10
ENDBRANCH   2   3
TORSDOF 3
ENDMDL
MODEL       80
REMARK 921   NORMALIZED FREE ENERGY PREDICTED BY IDOCK:   -4.17 KCAL/MOL
REMARK 922        TOTAL FREE ENERGY PREDICTED BY IDOCK:   -5.24 KCAL/MOL
REMARK 923 INTER-LIGAND FREE ENERGY PREDICTED BY IDOCK:   -4.92 KCAL/MOL
REMARK 924 INTRA-LIGAND FREE ENERGY PREDICTED BY IDOCK:   -0.32 KCAL/MOL
REMARK 927      BINDING AFFINITY PREDICTED BY RF-SCORE:    0.00 PKD
ROOT
HETATM    1  C   UNL     1     -10.756   7.304  67.005  1.00  0.00    -0.336 C  
HETATM    2  O   UNL     1     -10.118   8.569  67.151  1.00  0.00    -0.210 OA 
ENDROOT
BRANCH   2   3
HETATM    3  C   UNL     1     -10.642   9.405  68.125  1.00  0.00    -0.212 C  
HETATM    4  C   UNL     1     -10.568   9.021  69.400  1.00  0.00    -0.231 C  
HETATM    5  C   UNL     1     -11.211   9.753  70.491  1.00  0.00    -0.315 C  
HETATM    6  O   UNL     1     -11.951  10.831  70.169  1.00  0.00    -0.290 OA 
HETATM    7  O   UNL     1     -11.113   9.353  71.643  1.00  0.00    -0.369 OA 
HETATM    8  C   UNL     1     -11.894  11.488  68.891  1.00  0.00    -0.341 C  
HETATM    9  C   UNL     1     -11.380  10.638  67.719  1.00  0.00    -0.320 C  
BRANCH   8  10
HETATM   10  C   UNL     1     -11.169  12.811  68.995  1.00  0.00    -0.317 C  
HETATM   11  C   UNL     1     -11.417  13.929  68.292  1.00  0.00    -0.346 C  
BRANCH  11  12
HETATM   12  C   UNL     1     -10.626  15.150  68.389  1.00  0.00    -0.238 C  
HETATM   13  C   UNL     1      -9.366  15.055  68.861  1.00  0.00    -0.208 C  
HETATM   14  C   UNL     1      -8.447  16.227  69.071  1.00  0.00    -0.244 C  
HETATM   15  C   UNL     1      -9.009  17.603  68.685  1.00  0.00    -0.261 C  
HETATM   16  C   UNL     1     -10.437  17.603  68.234  1.00  0.00    -0.376 C  
HETATM   17  C   UNL     1     -11.159  16.480  68.112  1.00  0.00    -0.303 C  
ENDBRANCH  11  12
ENDBRANCH   8  10
ENDBRANCH   2   3
TORSDOF 3
ENDMDL
MODEL       81
REMARK 921   NORMALIZED FREE ENERGY PREDICTED BY IDOCK:   -4.17 KCAL/MOL
REMARK 922        TOTAL FREE ENERGY PREDICTED BY IDOCK:   -5.23 KCAL/MOL
REMARK 923 INTER-LIGAND FREE ENERGY PREDICTED BY IDOCK:   -4.87 KCAL/MOL
REMARK 924 INTRA-LIGAND FREE ENERGY PREDICTED BY IDOCK:   -0.37 KCAL/MOL
REMARK 927      BINDING AFFINITY PREDICTED BY RF-SCORE:    0.00 PKD
ROOT
HETATM    1  C   UNL     1     -12.280  15.797  70.997  1.00  0.00    -0.418 C  
HETATM    2  O   UNL     1     -12.398  14.989  69.830  1.00  0.00    -0.312 OA 
ENDROOT
BRANCH   2   3
HETATM    3  C   UNL     1     -11.349  15.066  68.929  1.00  0.00    -0.297 C  
HETATM    4  C   UNL     1     -11.602  14.847  67.638  1.00  0.00    -0.357 C  
HETATM    5  C   UNL     1     -10.551  14.763  66.623  1.00  0.00    -0.299 C  
HETATM    6  O   UNL     1      -9.273  14.859  67.037  1.00  0.00    -0.211 OA 
HETATM    7  O   UNL     1     -10.841  14.558  65.452  1.00  0.00    -0.315 OA 
HETATM    8  C   UNL     1      -8.887  15.349  68.333  1.00  0.00    -0.177 C  
HETATM    9  C   UNL     1      -9.957  15.262  69.433  1.00  0.00    -0.257 C  
BRANCH   8  10
HETATM   10  C   UNL     1      -8.288  16.734  68.231  1.00  0.00    -0.213 C  
HETATM   11  C   UNL     1      -7.704  17.287  67.154  1.00  0.00    -0.220 C  
BRANCH  11  12
HETATM   12  C   UNL     1      -7.076  18.604  67.149  1.00  0.00    -0.212 C  
HETATM   13  C   UNL     1      -6.594  19.082  68.314  1.00  0.00    -0.265 C  
HETATM   14  C   UNL     1      -5.970  20.441  68.480  1.00  0.00    -0.340 C  
HETATM   15  C   UNL     1      -5.870  21.298  67.210  1.00  0.00    -0.409 C  
HETATM   16  C   UNL     1      -6.494  20.698  65.988  1.00  0.00    -0.275 C  
HETATM   17  C   UNL     1      -7.043  19.476  65.979  1.00  0.00    -0.293 C  
ENDBRANCH  11  12
ENDBRANCH   8  10
ENDBRANCH   2   3
TORSDOF 3
ENDMDL
MODEL       82
REMARK 921   NORMALIZED FREE ENERGY PREDICTED BY IDOCK:   -4.17 KCAL/MOL
REMARK 922        TOTAL FREE ENERGY PREDICTED BY IDOCK:   -5.23 KCAL/MOL
REMARK 923 INTER-LIGAND FREE ENERGY PREDICTED BY IDOCK:   -4.82 KCAL/MOL
REMARK 924 INTRA-LIGAND FREE ENERGY PREDICTED BY IDOCK:   -0.41 KCAL/MOL
REMARK 927      BINDING AFFINITY PREDICTED BY RF-SCORE:    0.00 PKD
ROOT
HETATM    1  C   UNL     1     -10.480   4.714  65.897  1.00  0.00    -0.268 C  
HETATM    2  O   UNL     1     -10.774   5.620  66.955  1.00  0.00    -0.283 OA 
ENDROOT
BRANCH   2   3
HETATM    3  C   UNL     1     -10.036   6.793  66.973  1.00  0.00    -0.200 C  
HETATM    4  C   UNL     1      -8.911   6.848  66.259  1.00  0.00    -0.161 C  
HETATM    5  C   UNL     1      -7.985   7.979  66.317  1.00  0.00    -0.105 C  
HETATM    6  O   UNL     1      -8.271   8.978  67.174  1.00  0.00    -0.109 OA 
HETATM    7  O   UNL     1      -6.965   7.975  65.641  1.00  0.00    -0.061 OA 
HETATM    8  C   UNL     1      -9.558   9.159  67.789  1.00  0.00    -0.146 C  
HETATM    9  C   UNL     1     -10.446   7.908  67.878  1.00  0.00    -0.261 C  
BRANCH   8  10
HETATM   10  C   UNL     1     -10.289  10.334  67.177  1.00  0.00    -0.292 C  
HETATM   11  C   UNL     1     -10.277  10.713  65.888  1.00  0.00    -0.314 C  
BRANCH  11  12
HETATM   12  C   UNL     1     -10.946  11.905  65.380  1.00  0.00    -0.352 C  
HETATM   13  C   UNL     1     -11.373  12.823  66.271  1.00  0.00    -0.365 C  
HETATM   14  C   UNL     1     -12.125  14.074  65.907  1.00  0.00    -0.448 C  
HETATM   15  C   UNL     1     -12.379  14.298  64.409  1.00  0.00    -0.417 C  
HETATM   16  C   UNL     1     -11.921  13.188  63.515  1.00  0.00    -0.580 C  
HETATM   17  C   UNL     1     -11.277  12.105  63.972  1.00  0.00    -0.458 C  
ENDBRANCH  11  12
ENDBRANCH   8  10
ENDBRANCH   2   3
TORSDOF 3
ENDMDL
MODEL       83
REMARK 921   NORMALIZED FREE ENERGY PREDICTED BY IDOCK:   -4.16 KCAL/MOL
REMARK 922        TOTAL FREE ENERGY PREDICTED BY IDOCK:   -5.23 KCAL/MOL
REMARK 923 INTER-LIGAND FREE ENERGY PREDICTED BY IDOCK:   -4.93 KCAL/MOL
REMARK 924 INTRA-LIGAND FREE ENERGY PREDICTED BY IDOCK:   -0.30 KCAL/MOL
REMARK 927      BINDING AFFINITY PREDICTED BY RF-SCORE:    0.00 PKD
ROOT
HETATM    1  C   UNL     1      -6.684  18.798  68.835  1.00  0.00    -0.280 C  
HETATM    2  O   UNL     1      -7.253  17.563  69.259  1.00  0.00    -0.206 OA 
ENDROOT
BRANCH   2   3
HETATM    3  C   UNL     1      -8.354  17.123  68.541  1.00  0.00    -0.262 C  
HETATM    4  C   UNL     1      -8.682  17.769  67.421  1.00  0.00    -0.235 C  
HETATM    5  C   UNL     1      -9.900  17.482  66.664  1.00  0.00    -0.306 C  
HETATM    6  O   UNL     1     -10.744  16.559  67.165  1.00  0.00    -0.303 OA 
HETATM    7  O   UNL     1     -10.153  18.108  65.643  1.00  0.00    -0.544 OA 
HETATM    8  C   UNL     1     -10.386  15.625  68.198  1.00  0.00    -0.246 C  
HETATM    9  C   UNL     1      -9.210  16.034  69.098  1.00  0.00    -0.247 C  
BRANCH   8  10
HETATM   10  C   UNL     1     -10.213  14.233  67.633  1.00  0.00    -0.237 C  
HETATM   11  C   UNL     1     -10.906  13.131  67.968  1.00  0.00    -0.261 C  
BRANCH  11  12
HETATM   12  C   UNL     1     -10.633  11.800  67.436  1.00  0.00    -0.258 C  
HETATM   13  C   UNL     1     -10.327  11.690  66.127  1.00  0.00    -0.280 C  
HETATM   14  C   UNL     1     -10.074  10.385  65.422  1.00  0.00    -0.354 C  
HETATM   15  C   UNL     1     -10.153   9.121  66.290  1.00  0.00    -0.319 C  
HETATM   16  C   UNL     1     -10.564   9.352  67.712  1.00  0.00    -0.317 C  
HETATM   17  C   UNL     1     -10.784  10.575  68.214  1.00  0.00    -0.270 C  
ENDBRANCH  11  12
ENDBRANCH   8  10
ENDBRANCH   2   3
TORSDOF 3
ENDMDL
MODEL       84
REMARK 921   NORMALIZED FREE ENERGY PREDICTED BY IDOCK:   -4.14 KCAL/MOL
REMARK 922        TOTAL FREE ENERGY PREDICTED BY IDOCK:   -5.20 KCAL/MOL
REMARK 923 INTER-LIGAND FREE ENERGY PREDICTED BY IDOCK:   -4.78 KCAL/MOL
REMARK 924 INTRA-LIGAND FREE ENERGY PREDICTED BY IDOCK:   -0.42 KCAL/MOL
REMARK 927      BINDING AFFINITY PREDICTED BY RF-SCORE:    0.00 PKD
ROOT
HETATM    1  C   UNL     1      -9.469   9.290  66.173  1.00  0.00    -0.236 C  
HETATM    2  O   UNL     1      -8.701   8.628  67.173  1.00  0.00    -0.126 OA 
ENDROOT
BRANCH   2   3
HETATM    3  C   UNL     1      -9.151   8.767  68.476  1.00  0.00    -0.138 C  
HETATM    4  C   UNL     1      -8.269   8.643  69.470  1.00  0.00    -0.115 C  
HETATM    5  C   UNL     1      -8.656   8.629  70.880  1.00  0.00    -0.172 C  
HETATM    6  O   UNL     1      -9.970   8.692  71.169  1.00  0.00    -0.192 OA 
HETATM    7  O   UNL     1      -7.805   8.511  71.752  1.00  0.00    -0.117 OA 
HETATM    8  C   UNL     1     -10.979   9.086  70.222  1.00  0.00    -0.244 C  
HETATM    9  C   UNL     1     -10.612   8.922  68.739  1.00  0.00    -0.185 C  
BRANCH   8  10
HETATM   10  C   UNL     1     -11.498  10.473  70.531  1.00  0.00    -0.433 C  
HETATM   11  C   UNL     1     -11.637  11.495  69.670  1.00  0.00    -0.403 C  
BRANCH  11  12
HETATM   12  C   UNL     1     -12.072  12.834  70.054  1.00  0.00    -0.355 C  
HETATM   13  C   UNL     1     -11.634  13.878  69.322  1.00  0.00    -0.358 C  
HETATM   14  C   UNL     1     -11.951  15.318  69.623  1.00  0.00    -0.364 C  
HETATM   15  C   UNL     1     -12.859  15.570  70.836  1.00  0.00    -0.535 C  
HETATM   16  C   UNL     1     -13.233  14.347  71.615  1.00  0.00    -0.425 C  
HETATM   17  C   UNL     1     -12.863  13.113  71.249  1.00  0.00    -0.384 C  
ENDBRANCH  11  12
ENDBRANCH   8  10
ENDBRANCH   2   3
TORSDOF 3
ENDMDL
MODEL       85
REMARK 921   NORMALIZED FREE ENERGY PREDICTED BY IDOCK:   -4.14 KCAL/MOL
REMARK 922        TOTAL FREE ENERGY PREDICTED BY IDOCK:   -5.20 KCAL/MOL
REMARK 923 INTER-LIGAND FREE ENERGY PREDICTED BY IDOCK:   -4.89 KCAL/MOL
REMARK 924 INTRA-LIGAND FREE ENERGY PREDICTED BY IDOCK:   -0.31 KCAL/MOL
REMARK 927      BINDING AFFINITY PREDICTED BY RF-SCORE:    0.00 PKD
ROOT
HETATM    1  C   UNL     1     -11.238  16.388  68.220  1.00  0.00    -0.300 C  
HETATM    2  O   UNL     1     -11.676  15.103  68.646  1.00  0.00    -0.335 OA 
ENDROOT
BRANCH   2   3
HETATM    3  C   UNL     1     -11.765  14.133  67.660  1.00  0.00    -0.387 C  
HETATM    4  C   UNL     1     -12.036  14.518  66.412  1.00  0.00    -0.320 C  
HETATM    5  C   UNL     1     -12.292  13.573  65.325  1.00  0.00    -0.467 C  
HETATM    6  O   UNL     1     -12.302  12.260  65.627  1.00  0.00    -0.619 OA 
HETATM    7  O   UNL     1     -12.539  13.982  64.198  1.00  0.00    -0.680 OA 
HETATM    8  C   UNL     1     -11.774  11.717  66.850  1.00  0.00    -0.139 C  
HETATM    9  C   UNL     1     -11.681  12.690  68.035  1.00  0.00    -0.402 C  
BRANCH   8  10
HETATM   10  C   UNL     1     -10.467  10.997  66.601  1.00  0.00    -0.307 C  
HETATM   11  C   UNL     1     -10.263   9.669  66.593  1.00  0.00    -0.302 C  
BRANCH  11  12
HETATM   12  C   UNL     1      -8.956   9.043  66.422  1.00  0.00    -0.189 C  
HETATM   13  C   UNL     1      -8.023   9.249  67.373  1.00  0.00    -0.106 C  
HETATM   14  C   UNL     1      -6.617   8.718  67.313  1.00  0.00    -0.058 C  
HETATM   15  C   UNL     1      -6.269   7.866  66.083  1.00  0.00    -0.045 C  
HETATM   16  C   UNL     1      -7.356   7.756  65.059  1.00  0.00    -0.073 C  
HETATM   17  C   UNL     1      -8.568   8.301  65.226  1.00  0.00    -0.159 C  
ENDBRANCH  11  12
ENDBRANCH   8  10
ENDBRANCH   2   3
TORSDOF 3
ENDMDL
MODEL       86
REMARK 921   NORMALIZED FREE ENERGY PREDICTED BY IDOCK:   -4.07 KCAL/MOL
REMARK 922        TOTAL FREE ENERGY PREDICTED BY IDOCK:   -5.12 KCAL/MOL
REMARK 923 INTER-LIGAND FREE ENERGY PREDICTED BY IDOCK:   -4.73 KCAL/MOL
REMARK 924 INTRA-LIGAND FREE ENERGY PREDICTED BY IDOCK:   -0.39 KCAL/MOL
REMARK 927      BINDING AFFINITY PREDICTED BY RF-SCORE:    0.00 PKD
ROOT
HETATM    1  C   UNL     1     -13.433  11.542  72.019  1.00  0.00    -0.193 C  
HETATM    2  O   UNL     1     -13.498  10.120  72.044  1.00  0.00    -0.403 OA 
ENDROOT
BRANCH   2   3
HETATM    3  C   UNL     1     -12.435   9.452  71.457  1.00  0.00    -0.366 C  
HETATM    4  C   UNL     1     -12.537   8.135  71.269  1.00  0.00    -0.243 C  
HETATM    5  C   UNL     1     -11.427   7.311  70.791  1.00  0.00    -0.299 C  
HETATM    6  O   UNL     1     -10.241   7.917  70.587  1.00  0.00    -0.195 OA 
HETATM    7  O   UNL     1     -11.576   6.106  70.638  1.00  0.00    -0.321 OA 
HETATM    8  C   UNL     1     -10.076   9.342  70.501  1.00  0.00    -0.275 C  
HETATM    9  C   UNL     1     -11.170  10.190  71.169  1.00  0.00    -0.244 C  
BRANCH   8  10
HETATM   10  C   UNL     1      -9.817   9.771  69.073  1.00  0.00    -0.183 C  
HETATM   11  C   UNL     1     -10.396   9.283  67.963  1.00  0.00    -0.270 C  
BRANCH  11  12
HETATM   12  C   UNL     1     -10.041   9.691  66.608  1.00  0.00    -0.307 C  
HETATM   13  C   UNL     1     -10.598  10.817  66.118  1.00  0.00    -0.241 C  
HETATM   14  C   UNL     1     -10.374  11.337  64.724  1.00  0.00    -0.366 C  
HETATM   15  C   UNL     1      -9.420  10.518  63.843  1.00  0.00    -0.338 C  
HETATM   16  C   UNL     1      -8.910   9.254  64.463  1.00  0.00    -0.203 C  
HETATM   17  C   UNL     1      -9.207   8.890  65.718  1.00  0.00    -0.283 C  
ENDBRANCH  11  12
ENDBRANCH   8  10
ENDBRANCH   2   3
TORSDOF 3
ENDMDL
MODEL       87
REMARK 921   NORMALIZED FREE ENERGY PREDICTED BY IDOCK:   -4.04 KCAL/MOL
REMARK 922        TOTAL FREE ENERGY PREDICTED BY IDOCK:   -5.08 KCAL/MOL
REMARK 923 INTER-LIGAND FREE ENERGY PREDICTED BY IDOCK:   -4.63 KCAL/MOL
REMARK 924 INTRA-LIGAND FREE ENERGY PREDICTED BY IDOCK:   -0.45 KCAL/MOL
REMARK 927      BINDING AFFINITY PREDICTED BY RF-SCORE:    0.00 PKD
ROOT
HETATM    1  C   UNL     1     -14.402   7.614  71.624  1.00  0.00    -0.477 C  
HETATM    2  O   UNL     1     -13.787   8.874  71.871  1.00  0.00    -0.402 OA 
ENDROOT
BRANCH   2   3
HETATM    3  C   UNL     1     -12.421   8.938  71.648  1.00  0.00    -0.344 C  
HETATM    4  C   UNL     1     -11.602   8.408  72.558  1.00  0.00    -0.426 C  
HETATM    5  C   UNL     1     -10.147   8.543  72.495  1.00  0.00    -0.249 C  
HETATM    6  O   UNL     1      -9.631   9.285  71.496  1.00  0.00    -0.252 OA 
HETATM    7  O   UNL     1      -9.444   8.038  73.360  1.00  0.00    -0.279 OA 
HETATM    8  C   UNL     1     -10.371   9.678  70.328  1.00  0.00    -0.280 C  
HETATM    9  C   UNL     1     -11.900   9.700  70.474  1.00  0.00    -0.284 C  
BRANCH   8  10
HETATM   10  C   UNL     1      -9.926   8.891  69.115  1.00  0.00    -0.192 C  
HETATM   11  C   UNL     1     -10.525   7.810  68.587  1.00  0.00    -0.199 C  
BRANCH  11  12
HETATM   12  C   UNL     1      -9.997   7.052  67.458  1.00  0.00    -0.201 C  
HETATM   13  C   UNL     1     -10.567   5.865  67.167  1.00  0.00    -0.373 C  
HETATM   14  C   UNL     1     -10.102   4.945  66.071  1.00  0.00    -0.264 C  
HETATM   15  C   UNL     1      -8.913   5.439  65.234  1.00  0.00    -0.104 C  
HETATM   16  C   UNL     1      -8.316   6.737  65.683  1.00  0.00    -0.147 C  
HETATM   17  C   UNL     1      -8.817   7.454  66.698  1.00  0.00    -0.157 C  
ENDBRANCH  11  12
ENDBRANCH   8  10
ENDBRANCH   2   3
TORSDOF 3
ENDMDL
MODEL       88
REMARK 921   NORMALIZED FREE ENERGY PREDICTED BY IDOCK:   -4.04 KCAL/MOL
REMARK 922        TOTAL FREE ENERGY PREDICTED BY IDOCK:   -5.08 KCAL/MOL
REMARK 923 INTER-LIGAND FREE ENERGY PREDICTED BY IDOCK:   -4.63 KCAL/MOL
REMARK 924 INTRA-LIGAND FREE ENERGY PREDICTED BY IDOCK:   -0.45 KCAL/MOL
REMARK 927      BINDING AFFINITY PREDICTED BY RF-SCORE:    0.00 PKD
ROOT
HETATM    1  C   UNL     1      -8.026   6.162  67.095  1.00  0.00    -0.102 C  
HETATM    2  O   UNL     1      -8.968   6.295  68.154  1.00  0.00    -0.117 OA 
ENDROOT
BRANCH   2   3
HETATM    3  C   UNL     1      -9.156   7.577  68.643  1.00  0.00    -0.134 C  
HETATM    4  C   UNL     1      -8.093   8.252  69.084  1.00  0.00    -0.120 C  
HETATM    5  C   UNL     1      -8.193   9.551  69.749  1.00  0.00    -0.151 C  
HETATM    6  O   UNL     1      -9.426  10.048  69.966  1.00  0.00    -0.224 OA 
HETATM    7  O   UNL     1      -7.184  10.125  70.136  1.00  0.00    -0.145 OA 
HETATM    8  C   UNL     1     -10.612   9.557  69.318  1.00  0.00    -0.220 C  
HETATM    9  C   UNL     1     -10.541   8.118  68.783  1.00  0.00    -0.149 C  
BRANCH   8  10
HETATM   10  C   UNL     1     -11.098  10.531  68.268  1.00  0.00    -0.340 C  
HETATM   11  C   UNL     1     -10.601  10.706  67.032  1.00  0.00    -0.317 C  
BRANCH  11  12
HETATM   12  C   UNL     1     -11.072  11.721  66.097  1.00  0.00    -0.358 C  
HETATM   13  C   UNL     1     -10.586  11.700  64.839  1.00  0.00    -0.349 C  
HETATM   14  C   UNL     1     -10.933  12.709  63.778  1.00  0.00    -0.481 C  
HETATM   15  C   UNL     1     -11.930  13.802  64.186  1.00  0.00    -0.473 C  
HETATM   16  C   UNL     1     -12.355  13.771  65.622  1.00  0.00    -0.517 C  
HETATM   17  C   UNL     1     -11.951  12.822  66.477  1.00  0.00    -0.428 C  
ENDBRANCH  11  12
ENDBRANCH   8  10
ENDBRANCH   2   3
TORSDOF 3
ENDMDL
MODEL       89
REMARK 921   NORMALIZED FREE ENERGY PREDICTED BY IDOCK:   -3.97 KCAL/MOL
REMARK 922        TOTAL FREE ENERGY PREDICTED BY IDOCK:   -5.00 KCAL/MOL
REMARK 923 INTER-LIGAND FREE ENERGY PREDICTED BY IDOCK:   -4.57 KCAL/MOL
REMARK 924 INTRA-LIGAND FREE ENERGY PREDICTED BY IDOCK:   -0.44 KCAL/MOL
REMARK 927      BINDING AFFINITY PREDICTED BY RF-SCORE:    0.00 PKD
ROOT
HETATM    1  C   UNL     1      -6.321   9.095  68.604  1.00  0.00    -0.049 C  
HETATM    2  O   UNL     1      -6.816   8.013  67.822  1.00  0.00    -0.066 OA 
ENDROOT
BRANCH   2   3
HETATM    3  C   UNL     1      -8.183   8.004  67.593  1.00  0.00    -0.124 C  
HETATM    4  C   UNL     1      -8.840   6.849  67.714  1.00  0.00    -0.119 C  
HETATM    5  C   UNL     1     -10.250   6.695  67.359  1.00  0.00    -0.190 C  
HETATM    6  O   UNL     1     -10.885   7.764  66.839  1.00  0.00    -0.311 OA 
HETATM    7  O   UNL     1     -10.803   5.611  67.488  1.00  0.00    -0.233 OA 
HETATM    8  C   UNL     1     -10.374   9.106  66.904  1.00  0.00    -0.251 C  
HETATM    9  C   UNL     1      -8.856   9.242  67.100  1.00  0.00    -0.137 C  
BRANCH   8  10
HETATM   10  C   UNL     1     -11.153   9.933  67.904  1.00  0.00    -0.216 C  
HETATM   11  C   UNL     1     -10.780  10.255  69.154  1.00  0.00    -0.259 C  
BRANCH  11  12
HETATM   12  C   UNL     1     -11.618  10.993  70.093  1.00  0.00    -0.421 C  
HETATM   13  C   UNL     1     -12.302  10.293  71.020  1.00  0.00    -0.483 C  
HETATM   14  C   UNL     1     -13.246  10.905  72.020  1.00  0.00    -0.456 C  
HETATM   15  C   UNL     1     -13.390  12.432  71.965  1.00  0.00    -0.511 C  
HETATM   16  C   UNL     1     -12.638  13.103  70.857  1.00  0.00    -0.377 C  
HETATM   17  C   UNL     1     -11.842  12.434  70.012  1.00  0.00    -0.363 C  
ENDBRANCH  11  12
ENDBRANCH   8  10
ENDBRANCH   2   3
TORSDOF 3
ENDMDL
MODEL       90
REMARK 921   NORMALIZED FREE ENERGY PREDICTED BY IDOCK:   -3.97 KCAL/MOL
REMARK 922        TOTAL FREE ENERGY PREDICTED BY IDOCK:   -4.99 KCAL/MOL
REMARK 923 INTER-LIGAND FREE ENERGY PREDICTED BY IDOCK:   -4.57 KCAL/MOL
REMARK 924 INTRA-LIGAND FREE ENERGY PREDICTED BY IDOCK:   -0.42 KCAL/MOL
REMARK 927      BINDING AFFINITY PREDICTED BY RF-SCORE:    0.00 PKD
ROOT
HETATM    1  C   UNL     1     -10.250   3.537  72.926  1.00  0.00    -0.164 C  
HETATM    2  O   UNL     1     -10.076   4.411  71.816  1.00  0.00    -0.182 OA 
ENDROOT
BRANCH   2   3
HETATM    3  C   UNL     1     -10.265   5.761  72.069  1.00  0.00    -0.201 C  
HETATM    4  C   UNL     1      -9.306   6.428  72.712  1.00  0.00    -0.143 C  
HETATM    5  C   UNL     1      -9.460   7.813  73.156  1.00  0.00    -0.264 C  
HETATM    6  O   UNL     1     -10.649   8.409  72.945  1.00  0.00    -0.257 OA 
HETATM    7  O   UNL     1      -8.546   8.377  73.744  1.00  0.00    -0.277 OA 
HETATM    8  C   UNL     1     -11.651   7.899  72.047  1.00  0.00    -0.308 C  
HETATM    9  C   UNL     1     -11.575   6.396  71.736  1.00  0.00    -0.367 C  
BRANCH   8  10
HETATM   10  C   UNL     1     -11.728   8.738  70.791  1.00  0.00    -0.253 C  
HETATM   11  C   UNL     1     -10.760   8.921  69.878  1.00  0.00    -0.236 C  
BRANCH  11  12
HETATM   12  C   UNL     1     -10.879   9.808  68.726  1.00  0.00    -0.219 C  
HETATM   13  C   UNL     1     -10.233   9.466  67.592  1.00  0.00    -0.281 C  
HETATM   14  C   UNL     1     -10.214  10.302  66.341  1.00  0.00    -0.290 C  
HETATM   15  C   UNL     1     -11.019  11.609  66.390  1.00  0.00    -0.345 C  
HETATM   16  C   UNL     1     -11.642  11.922  67.716  1.00  0.00    -0.393 C  
HETATM   17  C   UNL     1     -11.563  11.096  68.768  1.00  0.00    -0.389 C  
ENDBRANCH  11  12
ENDBRANCH   8  10
ENDBRANCH   2   3
TORSDOF 3
ENDMDL
MODEL       91
REMARK 921   NORMALIZED FREE ENERGY PREDICTED BY IDOCK:   -3.92 KCAL/MOL
REMARK 922        TOTAL FREE ENERGY PREDICTED BY IDOCK:   -4.93 KCAL/MOL
REMARK 923 INTER-LIGAND FREE ENERGY PREDICTED BY IDOCK:   -4.66 KCAL/MOL
REMARK 924 INTRA-LIGAND FREE ENERGY PREDICTED BY IDOCK:   -0.28 KCAL/MOL
REMARK 927      BINDING AFFINITY PREDICTED BY RF-SCORE:    0.00 PKD
ROOT
HETATM    1  C   UNL     1     -10.490  20.227  68.436  1.00  0.00    -0.088 C  
HETATM    2  O   UNL     1      -9.361  19.440  68.802  1.00  0.00    -0.373 OA 
ENDROOT
BRANCH   2   3
HETATM    3  C   UNL     1      -8.948  18.499  67.872  1.00  0.00    -0.284 C  
HETATM    4  C   UNL     1      -7.664  18.482  67.513  1.00  0.00    -0.236 C  
HETATM    5  C   UNL     1      -7.149  17.631  66.440  1.00  0.00    -0.275 C  
HETATM    6  O   UNL     1      -8.034  16.876  65.761  1.00  0.00    -0.374 OA 
HETATM    7  O   UNL     1      -5.960  17.657  66.150  1.00  0.00    -0.193 OA 
HETATM    8  C   UNL     1      -9.373  16.611  66.215  1.00  0.00    -0.292 C  
HETATM    9  C   UNL     1      -9.960  17.624  67.210  1.00  0.00    -0.322 C  
BRANCH   8  10
HETATM   10  C   UNL     1      -9.505  15.187  66.707  1.00  0.00    -0.260 C  
HETATM   11  C   UNL     1      -9.890  14.116  65.993  1.00  0.00    -0.329 C  
BRANCH  11  12
HETATM   12  C   UNL     1     -10.070  12.781  66.554  1.00  0.00    -0.264 C  
HETATM   13  C   UNL     1      -9.144  11.843  66.269  1.00  0.00    -0.188 C  
HETATM   14  C   UNL     1      -9.218  10.411  66.726  1.00  0.00    -0.176 C  
HETATM   15  C   UNL     1     -10.429  10.041  67.595  1.00  0.00    -0.297 C  
HETATM   16  C   UNL     1     -11.427  11.140  67.794  1.00  0.00    -0.349 C  
HETATM   17  C   UNL     1     -11.252  12.377  67.310  1.00  0.00    -0.357 C  
ENDBRANCH  11  12
ENDBRANCH   8  10
ENDBRANCH   2   3
TORSDOF 3
ENDMDL
MODEL       92
REMARK 921   NORMALIZED FREE ENERGY PREDICTED BY IDOCK:   -3.86 KCAL/MOL
REMARK 922        TOTAL FREE ENERGY PREDICTED BY IDOCK:   -4.87 KCAL/MOL
REMARK 923 INTER-LIGAND FREE ENERGY PREDICTED BY IDOCK:   -4.53 KCAL/MOL
REMARK 924 INTRA-LIGAND FREE ENERGY PREDICTED BY IDOCK:   -0.33 KCAL/MOL
REMARK 927      BINDING AFFINITY PREDICTED BY RF-SCORE:    0.00 PKD
ROOT
HETATM    1  C   UNL     1      -6.064   8.515  67.836  1.00  0.00    -0.048 C  
HETATM    2  O   UNL     1      -7.207   7.744  68.190  1.00  0.00    -0.085 OA 
ENDROOT
BRANCH   2   3
HETATM    3  C   UNL     1      -8.402   8.438  68.288  1.00  0.00    -0.131 C  
HETATM    4  C   UNL     1      -8.807   8.839  69.494  1.00  0.00    -0.144 C  
HETATM    5  C   UNL     1     -10.114   9.451  69.732  1.00  0.00    -0.211 C  
HETATM    6  O   UNL     1     -10.954   9.559  68.685  1.00  0.00    -0.174 OA 
HETATM    7  O   UNL     1     -10.436   9.798  70.861  1.00  0.00    -0.302 OA 
HETATM    8  C   UNL     1     -10.546   9.413  67.314  1.00  0.00    -0.244 C  
HETATM    9  C   UNL     1      -9.258   8.608  67.077  1.00  0.00    -0.186 C  
BRANCH   8  10
HETATM   10  C   UNL     1     -10.518  10.752  66.612  1.00  0.00    -0.302 C  
HETATM   11  C   UNL     1     -11.148  11.877  66.988  1.00  0.00    -0.354 C  
BRANCH  11  12
HETATM   12  C   UNL     1     -11.139  13.117  66.218  1.00  0.00    -0.308 C  
HETATM   13  C   UNL     1     -10.120  13.978  66.414  1.00  0.00    -0.299 C  
HETATM   14  C   UNL     1      -9.999  15.317  65.738  1.00  0.00    -0.391 C  
HETATM   15  C   UNL     1     -11.115  15.676  64.747  1.00  0.00    -0.426 C  
HETATM   16  C   UNL     1     -12.229  14.679  64.655  1.00  0.00    -0.447 C  
HETATM   17  C   UNL     1     -12.227  13.525  65.335  1.00  0.00    -0.482 C  
ENDBRANCH  11  12
ENDBRANCH   8  10
ENDBRANCH   2   3
TORSDOF 3
ENDMDL
MODEL       93
REMARK 921   NORMALIZED FREE ENERGY PREDICTED BY IDOCK:   -3.81 KCAL/MOL
REMARK 922        TOTAL FREE ENERGY PREDICTED BY IDOCK:   -4.81 KCAL/MOL
REMARK 923 INTER-LIGAND FREE ENERGY PREDICTED BY IDOCK:   -4.45 KCAL/MOL
REMARK 924 INTRA-LIGAND FREE ENERGY PREDICTED BY IDOCK:   -0.35 KCAL/MOL
REMARK 927      BINDING AFFINITY PREDICTED BY RF-SCORE:    0.00 PKD
ROOT
HETATM    1  C   UNL     1      -9.358   1.589  73.061  1.00  0.00    -0.065 C  
HETATM    2  O   UNL     1      -9.801   2.647  72.217  1.00  0.00    -0.138 OA 
ENDROOT
BRANCH   2   3
HETATM    3  C   UNL     1      -9.686   3.927  72.735  1.00  0.00    -0.138 C  
HETATM    4  C   UNL     1      -8.467   4.402  72.992  1.00  0.00    -0.098 C  
HETATM    5  C   UNL     1      -8.236   5.678  73.669  1.00  0.00    -0.112 C  
HETATM    6  O   UNL     1      -9.314   6.366  74.092  1.00  0.00    -0.149 OA 
HETATM    7  O   UNL     1      -7.094   6.065  73.882  1.00  0.00    -0.083 OA 
HETATM    8  C   UNL     1     -10.656   6.097  73.653  1.00  0.00    -0.263 C  
HETATM    9  C   UNL     1     -10.918   4.684  73.108  1.00  0.00    -0.364 C  
BRANCH   8  10
HETATM   10  C   UNL     1     -11.139   7.171  72.703  1.00  0.00    -0.330 C  
HETATM   11  C   UNL     1     -10.420   8.184  72.193  1.00  0.00    -0.352 C  
BRANCH  11  12
HETATM   12  C   UNL     1     -10.971   9.232  71.341  1.00  0.00    -0.429 C  
HETATM   13  C   UNL     1     -10.208   9.698  70.332  1.00  0.00    -0.348 C  
HETATM   14  C   UNL     1     -10.614  10.811  69.404  1.00  0.00    -0.254 C  
HETATM   15  C   UNL     1     -12.008  11.409  69.637  1.00  0.00    -0.416 C  
HETATM   16  C   UNL     1     -12.744  10.864  70.822  1.00  0.00    -0.431 C  
HETATM   17  C   UNL     1     -12.256   9.880  71.589  1.00  0.00    -0.482 C  
ENDBRANCH  11  12
ENDBRANCH   8  10
ENDBRANCH   2   3
TORSDOF 3
ENDMDL
MODEL       94
REMARK 921   NORMALIZED FREE ENERGY PREDICTED BY IDOCK:   -3.80 KCAL/MOL
REMARK 922        TOTAL FREE ENERGY PREDICTED BY IDOCK:   -4.80 KCAL/MOL
REMARK 923 INTER-LIGAND FREE ENERGY PREDICTED BY IDOCK:   -4.41 KCAL/MOL
REMARK 924 INTRA-LIGAND FREE ENERGY PREDICTED BY IDOCK:   -0.39 KCAL/MOL
REMARK 927      BINDING AFFINITY PREDICTED BY RF-SCORE:    0.00 PKD
ROOT
HETATM    1  C   UNL     1     -10.041  10.610  67.864  1.00  0.00    -0.168 C  
HETATM    2  O   UNL     1      -9.673  11.573  66.883  1.00  0.00    -0.183 OA 
ENDROOT
BRANCH   2   3
HETATM    3  C   UNL     1     -10.146  12.860  67.086  1.00  0.00    -0.243 C  
HETATM    4  C   UNL     1     -10.888  13.101  68.167  1.00  0.00    -0.271 C  
HETATM    5  C   UNL     1     -11.555  14.381  68.407  1.00  0.00    -0.319 C  
HETATM    6  O   UNL     1     -11.447  15.329  67.456  1.00  0.00    -0.333 OA 
HETATM    7  O   UNL     1     -12.227  14.546  69.416  1.00  0.00    -0.306 OA 
HETATM    8  C   UNL     1     -10.479  15.289  66.394  1.00  0.00    -0.303 C  
HETATM    9  C   UNL     1      -9.923  13.901  66.039  1.00  0.00    -0.325 C  
BRANCH   8  10
HETATM   10  C   UNL     1      -9.378  16.301  66.626  1.00  0.00    -0.272 C  
HETATM   11  C   UNL     1      -8.884  16.703  67.810  1.00  0.00    -0.206 C  
BRANCH  11  12
HETATM   12  C   UNL     1      -7.872  17.742  67.963  1.00  0.00    -0.241 C  
HETATM   13  C   UNL     1      -6.575  17.372  67.949  1.00  0.00    -0.171 C  
HETATM   14  C   UNL     1      -5.421  18.317  68.149  1.00  0.00    -0.165 C  
HETATM   15  C   UNL     1      -5.786  19.795  68.352  1.00  0.00    -0.242 C  
HETATM   16  C   UNL     1      -7.254  20.084  68.415  1.00  0.00    -0.297 C  
HETATM   17  C   UNL     1      -8.188  19.139  68.243  1.00  0.00    -0.369 C  
ENDBRANCH  11  12
ENDBRANCH   8  10
ENDBRANCH   2   3
TORSDOF 3
ENDMDL
MODEL       95
REMARK 921   NORMALIZED FREE ENERGY PREDICTED BY IDOCK:   -3.79 KCAL/MOL
REMARK 922        TOTAL FREE ENERGY PREDICTED BY IDOCK:   -4.79 KCAL/MOL
REMARK 923 INTER-LIGAND FREE ENERGY PREDICTED BY IDOCK:   -4.33 KCAL/MOL
REMARK 924 INTRA-LIGAND FREE ENERGY PREDICTED BY IDOCK:   -0.46 KCAL/MOL
REMARK 927      BINDING AFFINITY PREDICTED BY RF-SCORE:    0.00 PKD
ROOT
HETATM    1  C   UNL     1      -6.301   5.797  67.360  1.00  0.00    -0.042 C  
HETATM    2  O   UNL     1      -7.412   6.425  66.729  1.00  0.00    -0.083 OA 
ENDROOT
BRANCH   2   3
HETATM    3  C   UNL     1      -8.055   7.406  67.467  1.00  0.00    -0.114 C  
HETATM    4  C   UNL     1      -7.329   8.156  68.297  1.00  0.00    -0.095 C  
HETATM    5  C   UNL     1      -7.921   9.119  69.225  1.00  0.00    -0.097 C  
HETATM    6  O   UNL     1      -9.265   9.201  69.267  1.00  0.00    -0.141 OA 
HETATM    7  O   UNL     1      -7.207   9.780  69.967  1.00  0.00    -0.093 OA 
HETATM    8  C   UNL     1     -10.132   8.652  68.260  1.00  0.00    -0.192 C  
HETATM    9  C   UNL     1      -9.543   7.513  67.412  1.00  0.00    -0.187 C  
BRANCH   8  10
HETATM   10  C   UNL     1     -10.730   9.747  67.405  1.00  0.00    -0.314 C  
HETATM   11  C   UNL     1     -10.238  10.237  66.255  1.00  0.00    -0.287 C  
BRANCH  11  12
HETATM   12  C   UNL     1     -10.829  11.350  65.520  1.00  0.00    -0.282 C  
HETATM   13  C   UNL     1     -11.466  12.308  66.223  1.00  0.00    -0.435 C  
HETATM   14  C   UNL     1     -12.171  13.486  65.608  1.00  0.00    -0.500 C  
HETATM   15  C   UNL     1     -12.112  13.583  64.076  1.00  0.00    -0.494 C  
HETATM   16  C   UNL     1     -11.437  12.435  63.392  1.00  0.00    -0.526 C  
HETATM   17  C   UNL     1     -10.864  11.426  64.063  1.00  0.00    -0.450 C  
ENDBRANCH  11  12
ENDBRANCH   8  10
ENDBRANCH   2   3
TORSDOF 3
ENDMDL
MODEL       96
REMARK 921   NORMALIZED FREE ENERGY PREDICTED BY IDOCK:   -3.78 KCAL/MOL
REMARK 922        TOTAL FREE ENERGY PREDICTED BY IDOCK:   -4.78 KCAL/MOL
REMARK 923 INTER-LIGAND FREE ENERGY PREDICTED BY IDOCK:   -4.41 KCAL/MOL
REMARK 924 INTRA-LIGAND FREE ENERGY PREDICTED BY IDOCK:   -0.37 KCAL/MOL
REMARK 927      BINDING AFFINITY PREDICTED BY RF-SCORE:    0.00 PKD
ROOT
HETATM    1  C   UNL     1     -11.252  14.874  69.495  1.00  0.00    -0.277 C  
HETATM    2  O   UNL     1     -11.853  13.903  68.645  1.00  0.00    -0.335 OA 
ENDROOT
BRANCH   2   3
HETATM    3  C   UNL     1     -11.190  12.691  68.542  1.00  0.00    -0.279 C  
HETATM    4  C   UNL     1      -9.980  12.674  67.980  1.00  0.00    -0.220 C  
HETATM    5  C   UNL     1      -9.253  11.438  67.692  1.00  0.00    -0.158 C  
HETATM    6  O   UNL     1      -9.870  10.272  67.965  1.00  0.00    -0.148 OA 
HETATM    7  O   UNL     1      -8.146  11.481  67.172  1.00  0.00    -0.144 OA 
HETATM    8  C   UNL     1     -11.037  10.160  68.798  1.00  0.00    -0.203 C  
HETATM    9  C   UNL     1     -11.887  11.432  68.942  1.00  0.00    -0.413 C  
BRANCH   8  10
HETATM   10  C   UNL     1     -10.688   9.555  70.140  1.00  0.00    -0.299 C  
HETATM   11  C   UNL     1      -9.462   9.244  70.594  1.00  0.00    -0.333 C  
BRANCH  11  12
HETATM   12  C   UNL     1      -9.205   8.589  71.872  1.00  0.00    -0.326 C  
HETATM   13  C   UNL     1      -7.933   8.546  72.319  1.00  0.00    -0.135 C  
HETATM   14  C   UNL     1      -7.502   7.861  73.587  1.00  0.00    -0.179 C  
HETATM   15  C   UNL     1      -8.617   7.204  74.413  1.00  0.00    -0.234 C  
HETATM   16  C   UNL     1      -9.980   7.254  73.793  1.00  0.00    -0.368 C  
HETATM   17  C   UNL     1     -10.228   7.882  72.636  1.00  0.00    -0.361 C  
ENDBRANCH  11  12
ENDBRANCH   8  10
ENDBRANCH   2   3
TORSDOF 3
ENDMDL
MODEL       97
REMARK 921   NORMALIZED FREE ENERGY PREDICTED BY IDOCK:   -3.78 KCAL/MOL
REMARK 922        TOTAL FREE ENERGY PREDICTED BY IDOCK:   -4.78 KCAL/MOL
REMARK 923 INTER-LIGAND FREE ENERGY PREDICTED BY IDOCK:   -4.45 KCAL/MOL
REMARK 924 INTRA-LIGAND FREE ENERGY PREDICTED BY IDOCK:   -0.33 KCAL/MOL
REMARK 927      BINDING AFFINITY PREDICTED BY RF-SCORE:    0.00 PKD
ROOT
HETATM    1  C   UNL     1      -7.282  20.190  65.665  1.00  0.00    -0.280 C  
HETATM    2  O   UNL     1      -7.184  18.776  65.534  1.00  0.00    -0.493 OA 
ENDROOT
BRANCH   2   3
HETATM    3  C   UNL     1      -7.741  18.030  66.561  1.00  0.00    -0.249 C  
HETATM    4  C   UNL     1      -8.751  18.558  67.254  1.00  0.00    -0.272 C  
HETATM    5  C   UNL     1      -9.318  17.922  68.444  1.00  0.00    -0.288 C  
HETATM    6  O   UNL     1      -8.748  16.780  68.874  1.00  0.00    -0.255 OA 
HETATM    7  O   UNL     1     -10.243  18.453  69.044  1.00  0.00    -0.367 OA 
HETATM    8  C   UNL     1      -7.847  15.988  68.081  1.00  0.00    -0.141 C  
HETATM    9  C   UNL     1      -7.124  16.726  66.943  1.00  0.00    -0.258 C  
BRANCH   8  10
HETATM   10  C   UNL     1      -8.519  14.721  67.602  1.00  0.00    -0.185 C  
HETATM   11  C   UNL     1      -9.280  13.884  68.327  1.00  0.00    -0.207 C  
BRANCH  11  12
HETATM   12  C   UNL     1      -9.836  12.635  67.817  1.00  0.00    -0.212 C  
HETATM   13  C   UNL     1     -10.408  11.788  68.698  1.00  0.00    -0.228 C  
HETATM   14  C   UNL     1     -10.975  10.443  68.335  1.00  0.00    -0.312 C  
HETATM   15  C   UNL     1     -10.904  10.057  66.851  1.00  0.00    -0.152 C  
HETATM   16  C   UNL     1     -10.192  11.039  65.973  1.00  0.00    -0.305 C  
HETATM   17  C   UNL     1      -9.707  12.202  66.429  1.00  0.00    -0.243 C  
ENDBRANCH  11  12
ENDBRANCH   8  10
ENDBRANCH   2   3
TORSDOF 3
ENDMDL
MODEL       98
REMARK 921   NORMALIZED FREE ENERGY PREDICTED BY IDOCK:   -3.77 KCAL/MOL
REMARK 922        TOTAL FREE ENERGY PREDICTED BY IDOCK:   -4.76 KCAL/MOL
REMARK 923 INTER-LIGAND FREE ENERGY PREDICTED BY IDOCK:   -4.32 KCAL/MOL
REMARK 924 INTRA-LIGAND FREE ENERGY PREDICTED BY IDOCK:   -0.45 KCAL/MOL
REMARK 927      BINDING AFFINITY PREDICTED BY RF-SCORE:    0.00 PKD
ROOT
HETATM    1  C   UNL     1      -7.678   3.801  67.347  1.00  0.00    -0.079 C  
HETATM    2  O   UNL     1      -8.189   5.097  67.641  1.00  0.00    -0.099 OA 
ENDROOT
BRANCH   2   3
HETATM    3  C   UNL     1      -8.694   5.275  68.919  1.00  0.00    -0.090 C  
HETATM    4  C   UNL     1      -7.835   5.346  69.937  1.00  0.00    -0.081 C  
HETATM    5  C   UNL     1      -8.260   5.390  71.336  1.00  0.00    -0.117 C  
HETATM    6  O   UNL     1      -9.580   5.301  71.591  1.00  0.00    -0.146 OA 
HETATM    7  O   UNL     1      -7.428   5.452  72.231  1.00  0.00    -0.091 OA 
HETATM    8  C   UNL     1     -10.601   5.485  70.595  1.00  0.00    -0.259 C  
HETATM    9  C   UNL     1     -10.170   5.257  69.138  1.00  0.00    -0.281 C  
BRANCH   8  10
HETATM   10  C   UNL     1     -11.304   6.812  70.780  1.00  0.00    -0.374 C  
HETATM   11  C   UNL     1     -10.876   8.019  70.373  1.00  0.00    -0.247 C  
BRANCH  11  12
HETATM   12  C   UNL     1     -11.571   9.271  70.654  1.00  0.00    -0.305 C  
HETATM   13  C   UNL     1     -11.220  10.364  69.947  1.00  0.00    -0.371 C  
HETATM   14  C   UNL     1     -11.805  11.735  70.157  1.00  0.00    -0.408 C  
HETATM   15  C   UNL     1     -12.889  11.847  71.239  1.00  0.00    -0.391 C  
HETATM   16  C   UNL     1     -13.155  10.589  72.006  1.00  0.00    -0.511 C  
HETATM   17  C   UNL     1     -12.543   9.429  71.732  1.00  0.00    -0.470 C  
ENDBRANCH  11  12
ENDBRANCH   8  10
ENDBRANCH   2   3
TORSDOF 3
ENDMDL
MODEL       99
REMARK 921   NORMALIZED FREE ENERGY PREDICTED BY IDOCK:   -3.72 KCAL/MOL
REMARK 922        TOTAL FREE ENERGY PREDICTED BY IDOCK:   -4.70 KCAL/MOL
REMARK 923 INTER-LIGAND FREE ENERGY PREDICTED BY IDOCK:   -4.26 KCAL/MOL
REMARK 924 INTRA-LIGAND FREE ENERGY PREDICTED BY IDOCK:   -0.45 KCAL/MOL
REMARK 927      BINDING AFFINITY PREDICTED BY RF-SCORE:    0.00 PKD
ROOT
HETATM    1  C   UNL     1     -11.979  15.329  70.392  1.00  0.00    -0.335 C  
HETATM    2  O   UNL     1     -12.423  14.216  69.624  1.00  0.00    -0.310 OA 
ENDROOT
BRANCH   2   3
HETATM    3  C   UNL     1     -11.540  13.749  68.663  1.00  0.00    -0.334 C  
HETATM    4  C   UNL     1     -10.298  14.235  68.651  1.00  0.00    -0.246 C  
HETATM    5  C   UNL     1      -9.331  13.922  67.600  1.00  0.00    -0.205 C  
HETATM    6  O   UNL     1      -9.746  13.148  66.579  1.00  0.00    -0.257 OA 
HETATM    7  O   UNL     1      -8.204  14.398  67.638  1.00  0.00    -0.149 OA 
HETATM    8  C   UNL     1     -10.950  12.362  66.609  1.00  0.00    -0.268 C  
HETATM    9  C   UNL     1     -12.030  12.822  67.601  1.00  0.00    -0.331 C  
BRANCH   8  10
HETATM   10  C   UNL     1     -10.632  10.891  66.754  1.00  0.00    -0.313 C  
HETATM   11  C   UNL     1     -10.510  10.198  67.899  1.00  0.00    -0.265 C  
BRANCH  11  12
HETATM   12  C   UNL     1     -10.124   8.792  67.968  1.00  0.00    -0.241 C  
HETATM   13  C   UNL     1      -9.374   8.390  69.013  1.00  0.00    -0.147 C  
HETATM   14  C   UNL     1      -8.853   6.990  69.196  1.00  0.00    -0.135 C  
HETATM   15  C   UNL     1      -9.248   5.976  68.112  1.00  0.00    -0.116 C  
HETATM   16  C   UNL     1     -10.027   6.543  66.965  1.00  0.00    -0.216 C  
HETATM   17  C   UNL     1     -10.411   7.825  66.913  1.00  0.00    -0.388 C  
ENDBRANCH  11  12
ENDBRANCH   8  10
ENDBRANCH   2   3
TORSDOF 3
ENDMDL
MODEL      100
REMARK 921   NORMALIZED FREE ENERGY PREDICTED BY IDOCK:   -3.69 KCAL/MOL
REMARK 922        TOTAL FREE ENERGY PREDICTED BY IDOCK:   -4.67 KCAL/MOL
REMARK 923 INTER-LIGAND FREE ENERGY PREDICTED BY IDOCK:   -4.34 KCAL/MOL
REMARK 924 INTRA-LIGAND FREE ENERGY PREDICTED BY IDOCK:   -0.33 KCAL/MOL
REMARK 927      BINDING AFFINITY PREDICTED BY RF-SCORE:    0.00 PKD
ROOT
HETATM    1  C   UNL     1     -12.393  13.601  63.884  1.00  0.00    -0.316 C  
HETATM    2  O   UNL     1     -11.656  12.419  63.593  1.00  0.00    -0.419 OA 
ENDROOT
BRANCH   2   3
HETATM    3  C   UNL     1     -10.757  12.008  64.565  1.00  0.00    -0.312 C  
HETATM    4  C   UNL     1     -10.394  12.881  65.506  1.00  0.00    -0.304 C  
HETATM    5  C   UNL     1      -9.351  12.601  66.492  1.00  0.00    -0.228 C  
HETATM    6  O   UNL     1      -8.700  11.425  66.397  1.00  0.00    -0.180 OA 
HETATM    7  O   UNL     1      -9.056  13.441  67.332  1.00  0.00    -0.196 OA 
HETATM    8  C   UNL     1      -9.167  10.315  65.613  1.00  0.00    -0.184 C  
HETATM    9  C   UNL     1     -10.128  10.657  64.464  1.00  0.00    -0.421 C  
BRANCH   8  10
HETATM   10  C   UNL     1      -9.708   9.215  66.499  1.00  0.00    -0.306 C  
HETATM   11  C   UNL     1      -9.218   8.816  67.685  1.00  0.00    -0.148 C  
BRANCH  11  12
HETATM   12  C   UNL     1      -9.747   7.693  68.453  1.00  0.00    -0.164 C  
HETATM   13  C   UNL     1     -10.319   7.954  69.646  1.00  0.00    -0.216 C  
HETATM   14  C   UNL     1     -10.861   6.902  70.575  1.00  0.00    -0.289 C  
HETATM   15  C   UNL     1     -10.760   5.450  70.084  1.00  0.00    -0.295 C  
HETATM   16  C   UNL     1     -10.049   5.269  68.778  1.00  0.00    -0.248 C  
HETATM   17  C   UNL     1      -9.590   6.298  68.053  1.00  0.00    -0.115 C  
ENDBRANCH  11  12
ENDBRANCH   8  10
ENDBRANCH   2   3
TORSDOF 3
ENDMDL
MODEL      101
REMARK 921   NORMALIZED FREE ENERGY PREDICTED BY IDOCK:   -3.69 KCAL/MOL
REMARK 922        TOTAL FREE ENERGY PREDICTED BY IDOCK:   -4.67 KCAL/MOL
REMARK 923 INTER-LIGAND FREE ENERGY PREDICTED BY IDOCK:   -4.22 KCAL/MOL
REMARK 924 INTRA-LIGAND FREE ENERGY PREDICTED BY IDOCK:   -0.45 KCAL/MOL
REMARK 927      BINDING AFFINITY PREDICTED BY RF-SCORE:    0.00 PKD
ROOT
HETATM    1  C   UNL     1     -11.799  11.494  69.682  1.00  0.00    -0.354 C  
HETATM    2  O   UNL     1     -12.167  11.482  68.307  1.00  0.00    -0.561 OA 
ENDROOT
BRANCH   2   3
HETATM    3  C   UNL     1     -11.149  11.738  67.403  1.00  0.00    -0.282 C  
HETATM    4  C   UNL     1     -11.461  11.858  66.111  1.00  0.00    -0.352 C  
HETATM    5  C   UNL     1     -10.454  11.986  65.058  1.00  0.00    -0.287 C  
HETATM    6  O   UNL     1      -9.158  11.927  65.421  1.00  0.00    -0.042 OA 
HETATM    7  O   UNL     1     -10.796  12.090  63.888  1.00  0.00    -0.324 OA 
HETATM    8  C   UNL     1      -8.701  12.065  66.777  1.00  0.00    -0.192 C  
HETATM    9  C   UNL     1      -9.732  11.749  67.872  1.00  0.00    -0.185 C  
BRANCH   8  10
HETATM   10  C   UNL     1      -8.037  13.407  66.990  1.00  0.00    -0.018 C  
HETATM   11  C   UNL     1      -8.632  14.557  67.351  1.00  0.00    -0.213 C  
BRANCH  11  12
HETATM   12  C   UNL     1      -7.940  15.836  67.464  1.00  0.00    -0.171 C  
HETATM   13  C   UNL     1      -7.381  16.153  68.649  1.00  0.00    -0.175 C  
HETATM   14  C   UNL     1      -6.682  17.454  68.938  1.00  0.00    -0.226 C  
HETATM   15  C   UNL     1      -6.598  18.448  67.770  1.00  0.00    -0.213 C  
HETATM   16  C   UNL     1      -7.308  18.024  66.522  1.00  0.00    -0.273 C  
HETATM   17  C   UNL     1      -7.917  16.837  66.401  1.00  0.00    -0.356 C  
ENDBRANCH  11  12
ENDBRANCH   8  10
ENDBRANCH   2   3
TORSDOF 3
ENDMDL
MODEL      102
REMARK 921   NORMALIZED FREE ENERGY PREDICTED BY IDOCK:   -3.68 KCAL/MOL
REMARK 922        TOTAL FREE ENERGY PREDICTED BY IDOCK:   -4.66 KCAL/MOL
REMARK 923 INTER-LIGAND FREE ENERGY PREDICTED BY IDOCK:   -4.32 KCAL/MOL
REMARK 924 INTRA-LIGAND FREE ENERGY PREDICTED BY IDOCK:   -0.34 KCAL/MOL
REMARK 927      BINDING AFFINITY PREDICTED BY RF-SCORE:    0.00 PKD
ROOT
HETATM    1  C   UNL     1      -9.282   4.073  64.860  1.00  0.00    -0.152 C  
HETATM    2  O   UNL     1     -10.103   4.228  66.013  1.00  0.00    -0.225 OA 
ENDROOT
BRANCH   2   3
HETATM    3  C   UNL     1      -9.598   5.043  67.014  1.00  0.00    -0.152 C  
HETATM    4  C   UNL     1      -8.503   5.761  66.758  1.00  0.00    -0.112 C  
HETATM    5  C   UNL     1      -7.806   6.541  67.780  1.00  0.00    -0.111 C  
HETATM    6  O   UNL     1      -8.274   6.479  69.041  1.00  0.00    -0.114 OA 
HETATM    7  O   UNL     1      -6.803   7.180  67.489  1.00  0.00    -0.065 OA 
HETATM    8  C   UNL     1      -9.572   5.967  69.389  1.00  0.00    -0.138 C  
HETATM    9  C   UNL     1     -10.209   5.002  68.376  1.00  0.00    -0.143 C  
BRANCH   8  10
HETATM   10  C   UNL     1     -10.510   7.088  69.775  1.00  0.00    -0.235 C  
HETATM   11  C   UNL     1     -10.229   8.148  70.552  1.00  0.00    -0.207 C  
BRANCH  11  12
HETATM   12  C   UNL     1     -11.208   9.155  70.948  1.00  0.00    -0.359 C  
HETATM   13  C   UNL     1     -12.142   8.810  71.858  1.00  0.00    -0.433 C  
HETATM   14  C   UNL     1     -13.247   9.717  72.325  1.00  0.00    -0.492 C  
HETATM   15  C   UNL     1     -13.263  11.129  71.723  1.00  0.00    -0.486 C  
HETATM   16  C   UNL     1     -12.223  11.384  70.675  1.00  0.00    -0.484 C  
HETATM   17  C   UNL     1     -11.301  10.475  70.331  1.00  0.00    -0.411 C  
ENDBRANCH  11  12
ENDBRANCH   8  10
ENDBRANCH   2   3
TORSDOF 3
ENDMDL
MODEL      103
REMARK 921   NORMALIZED FREE ENERGY PREDICTED BY IDOCK:   -3.67 KCAL/MOL
REMARK 922        TOTAL FREE ENERGY PREDICTED BY IDOCK:   -4.65 KCAL/MOL
REMARK 923 INTER-LIGAND FREE ENERGY PREDICTED BY IDOCK:   -4.33 KCAL/MOL
REMARK 924 INTRA-LIGAND FREE ENERGY PREDICTED BY IDOCK:   -0.32 KCAL/MOL
REMARK 927      BINDING AFFINITY PREDICTED BY RF-SCORE:    0.00 PKD
ROOT
HETATM    1  C   UNL     1      -7.967   6.294  65.026  1.00  0.00    -0.120 C  
HETATM    2  O   UNL     1      -7.504   7.148  66.067  1.00  0.00    -0.076 OA 
ENDROOT
BRANCH   2   3
HETATM    3  C   UNL     1      -8.451   7.532  67.003  1.00  0.00    -0.122 C  
HETATM    4  C   UNL     1      -8.238   7.229  68.284  1.00  0.00    -0.125 C  
HETATM    5  C   UNL     1      -9.231   7.459  69.333  1.00  0.00    -0.145 C  
HETATM    6  O   UNL     1     -10.429   7.950  68.962  1.00  0.00    -0.214 OA 
HETATM    7  O   UNL     1      -8.983   7.160  70.493  1.00  0.00    -0.153 OA 
HETATM    8  C   UNL     1     -10.685   8.553  67.681  1.00  0.00    -0.119 C  
HETATM    9  C   UNL     1      -9.729   8.155  66.546  1.00  0.00    -0.309 C  
BRANCH   8  10
HETATM   10  C   UNL     1     -10.824  10.054  67.808  1.00  0.00    -0.337 C  
HETATM   11  C   UNL     1     -11.414  10.731  68.808  1.00  0.00    -0.364 C  
BRANCH  11  12
HETATM   12  C   UNL     1     -11.581  12.180  68.827  1.00  0.00    -0.380 C  
HETATM   13  C   UNL     1     -11.860  12.771  70.007  1.00  0.00    -0.352 C  
HETATM   14  C   UNL     1     -12.112  14.245  70.179  1.00  0.00    -0.403 C  
HETATM   15  C   UNL     1     -12.008  15.101  68.909  1.00  0.00    -0.284 C  
HETATM   16  C   UNL     1     -11.759  14.336  67.646  1.00  0.00    -0.421 C  
HETATM   17  C   UNL     1     -11.573  13.009  67.626  1.00  0.00    -0.403 C  
ENDBRANCH  11  12
ENDBRANCH   8  10
ENDBRANCH   2   3
TORSDOF 3
ENDMDL
MODEL      104
REMARK 921   NORMALIZED FREE ENERGY PREDICTED BY IDOCK:   -3.67 KCAL/MOL
REMARK 922        TOTAL FREE ENERGY PREDICTED BY IDOCK:   -4.65 KCAL/MOL
REMARK 923 INTER-LIGAND FREE ENERGY PREDICTED BY IDOCK:   -4.30 KCAL/MOL
REMARK 924 INTRA-LIGAND FREE ENERGY PREDICTED BY IDOCK:   -0.35 KCAL/MOL
REMARK 927      BINDING AFFINITY PREDICTED BY RF-SCORE:    0.00 PKD
ROOT
HETATM    1  C   UNL     1      -7.072   7.828  65.528  1.00  0.00    -0.063 C  
HETATM    2  O   UNL     1      -7.295   9.046  64.826  1.00  0.00    -0.097 OA 
ENDROOT
BRANCH   2   3
HETATM    3  C   UNL     1      -8.226   9.908  65.384  1.00  0.00    -0.139 C  
HETATM    4  C   UNL     1      -9.249  10.314  64.631  1.00  0.00    -0.290 C  
HETATM    5  C   UNL     1     -10.206  11.329  65.070  1.00  0.00    -0.284 C  
HETATM    6  O   UNL     1     -10.000  11.907  66.269  1.00  0.00    -0.211 OA 
HETATM    7  O   UNL     1     -11.126  11.666  64.336  1.00  0.00    -0.325 OA 
HETATM    8  C   UNL     1      -9.108  11.381  67.267  1.00  0.00    -0.162 C  
HETATM    9  C   UNL     1      -7.995  10.454  66.755  1.00  0.00    -0.117 C  
BRANCH   8  10
HETATM   10  C   UNL     1      -9.880  10.765  68.412  1.00  0.00    -0.177 C  
HETATM   11  C   UNL     1      -9.374  10.119  69.476  1.00  0.00    -0.230 C  
BRANCH  11  12
HETATM   12  C   UNL     1     -10.185   9.480  70.507  1.00  0.00    -0.349 C  
HETATM   13  C   UNL     1      -9.552   8.774  71.466  1.00  0.00    -0.354 C  
HETATM   14  C   UNL     1     -10.250   8.016  72.562  1.00  0.00    -0.361 C  
HETATM   15  C   UNL     1     -11.784   8.101  72.571  1.00  0.00    -0.457 C  
HETATM   16  C   UNL     1     -12.385   8.856  71.426  1.00  0.00    -0.368 C  
HETATM   17  C   UNL     1     -11.645   9.471  70.494  1.00  0.00    -0.316 C  
ENDBRANCH  11  12
ENDBRANCH   8  10
ENDBRANCH   2   3
TORSDOF 3
ENDMDL
MODEL      105
REMARK 921   NORMALIZED FREE ENERGY PREDICTED BY IDOCK:   -3.66 KCAL/MOL
REMARK 922        TOTAL FREE ENERGY PREDICTED BY IDOCK:   -4.63 KCAL/MOL
REMARK 923 INTER-LIGAND FREE ENERGY PREDICTED BY IDOCK:   -4.19 KCAL/MOL
REMARK 924 INTRA-LIGAND FREE ENERGY PREDICTED BY IDOCK:   -0.44 KCAL/MOL
REMARK 927      BINDING AFFINITY PREDICTED BY RF-SCORE:    0.00 PKD
ROOT
HETATM    1  C   UNL     1     -10.622   8.043  72.848  1.00  0.00    -0.329 C  
HETATM    2  O   UNL     1      -9.484   8.626  72.223  1.00  0.00    -0.283 OA 
ENDROOT
BRANCH   2   3
HETATM    3  C   UNL     1      -9.425   8.516  70.843  1.00  0.00    -0.180 C  
HETATM    4  C   UNL     1     -10.262   7.673  70.236  1.00  0.00    -0.205 C  
HETATM    5  C   UNL     1     -10.192   7.373  68.806  1.00  0.00    -0.191 C  
HETATM    6  O   UNL     1      -9.199   7.941  68.096  1.00  0.00    -0.137 OA 
HETATM    7  O   UNL     1     -10.985   6.589  68.302  1.00  0.00    -0.280 OA 
HETATM    8  C   UNL     1      -8.412   9.049  68.567  1.00  0.00    -0.128 C  
HETATM    9  C   UNL     1      -8.356   9.237  70.091  1.00  0.00    -0.189 C  
BRANCH   8  10
HETATM   10  C   UNL     1      -8.792  10.325  67.849  1.00  0.00    -0.122 C  
HETATM   11  C   UNL     1     -10.006  10.900  67.806  1.00  0.00    -0.198 C  
BRANCH  11  12
HETATM   12  C   UNL     1     -10.319  12.094  67.028  1.00  0.00    -0.232 C  
HETATM   13  C   UNL     1      -9.509  13.165  67.155  1.00  0.00    -0.239 C  
HETATM   14  C   UNL     1      -9.730  14.482  66.463  1.00  0.00    -0.301 C  
HETATM   15  C   UNL     1     -10.953  14.563  65.538  1.00  0.00    -0.337 C  
HETATM   16  C   UNL     1     -11.818  13.341  65.521  1.00  0.00    -0.405 C  
HETATM   17  C   UNL     1     -11.519  12.230  66.208  1.00  0.00    -0.435 C  
ENDBRANCH  11  12
ENDBRANCH   8  10
ENDBRANCH   2   3
TORSDOF 3
ENDMDL
MODEL      106
REMARK 921   NORMALIZED FREE ENERGY PREDICTED BY IDOCK:   -3.64 KCAL/MOL
REMARK 922        TOTAL FREE ENERGY PREDICTED BY IDOCK:   -4.61 KCAL/MOL
REMARK 923 INTER-LIGAND FREE ENERGY PREDICTED BY IDOCK:   -4.20 KCAL/MOL
REMARK 924 INTRA-LIGAND FREE ENERGY PREDICTED BY IDOCK:   -0.41 KCAL/MOL
REMARK 927      BINDING AFFINITY PREDICTED BY RF-SCORE:    0.00 PKD
ROOT
HETATM    1  C   UNL     1      -8.867   4.438  64.198  1.00  0.00    -0.146 C  
HETATM    2  O   UNL     1      -9.055   5.274  65.335  1.00  0.00    -0.160 OA 
ENDROOT
BRANCH   2   3
HETATM    3  C   UNL     1      -8.545   6.559  65.235  1.00  0.00    -0.028 C  
HETATM    4  C   UNL     1      -7.824   6.875  64.158  1.00  0.00    -0.104 C  
HETATM    5  C   UNL     1      -7.122   8.151  64.016  1.00  0.00    -0.087 C  
HETATM    6  O   UNL     1      -7.173   9.011  65.051  1.00  0.00    -0.089 OA 
HETATM    7  O   UNL     1      -6.473   8.387  63.006  1.00  0.00    -0.085 OA 
HETATM    8  C   UNL     1      -8.113   8.903  66.135  1.00  0.00    -0.114 C  
HETATM    9  C   UNL     1      -8.704   7.506  66.378  1.00  0.00    -0.158 C  
BRANCH   8  10
HETATM   10  C   UNL     1      -9.185   9.965  66.028  1.00  0.00    -0.215 C  
HETATM   11  C   UNL     1      -9.877  10.310  64.929  1.00  0.00    -0.404 C  
BRANCH  11  12
HETATM   12  C   UNL     1     -10.846  11.399  64.881  1.00  0.00    -0.323 C  
HETATM   13  C   UNL     1     -11.278  11.812  63.672  1.00  0.00    -0.519 C  
HETATM   14  C   UNL     1     -12.232  12.955  63.456  1.00  0.00    -0.595 C  
HETATM   15  C   UNL     1     -12.745  13.655  64.723  1.00  0.00    -0.268 C  
HETATM   16  C   UNL     1     -12.152  13.161  66.006  1.00  0.00    -0.495 C  
HETATM   17  C   UNL     1     -11.286  12.139  66.059  1.00  0.00    -0.410 C  
ENDBRANCH  11  12
ENDBRANCH   8  10
ENDBRANCH   2   3
TORSDOF 3
ENDMDL
MODEL      107
REMARK 921   NORMALIZED FREE ENERGY PREDICTED BY IDOCK:   -3.64 KCAL/MOL
REMARK 922        TOTAL FREE ENERGY PREDICTED BY IDOCK:   -4.61 KCAL/MOL
REMARK 923 INTER-LIGAND FREE ENERGY PREDICTED BY IDOCK:   -4.31 KCAL/MOL
REMARK 924 INTRA-LIGAND FREE ENERGY PREDICTED BY IDOCK:   -0.29 KCAL/MOL
REMARK 927      BINDING AFFINITY PREDICTED BY RF-SCORE:    0.00 PKD
ROOT
HETATM    1  C   UNL     1      -7.742   5.869  66.328  1.00  0.00    -0.102 C  
HETATM    2  O   UNL     1      -7.506   7.273  66.319  1.00  0.00    -0.080 OA 
ENDROOT
BRANCH   2   3
HETATM    3  C   UNL     1      -8.392   8.044  67.055  1.00  0.00    -0.116 C  
HETATM    4  C   UNL     1      -8.211   8.136  68.373  1.00  0.00    -0.129 C  
HETATM    5  C   UNL     1      -9.163   8.802  69.263  1.00  0.00    -0.149 C  
HETATM    6  O   UNL     1     -10.292   9.291  68.716  1.00  0.00    -0.201 OA 
HETATM    7  O   UNL     1      -8.947   8.855  70.466  1.00  0.00    -0.158 OA 
HETATM    8  C   UNL     1     -10.478   9.486  67.304  1.00  0.00    -0.262 C  
HETATM    9  C   UNL     1      -9.585   8.639  66.383  1.00  0.00    -0.316 C  
BRANCH   8  10
HETATM   10  C   UNL     1     -10.429  10.956  66.950  1.00  0.00    -0.299 C  
HETATM   11  C   UNL     1     -11.340  11.651  66.249  1.00  0.00    -0.293 C  
BRANCH  11  12
HETATM   12  C   UNL     1     -11.191  13.054  65.877  1.00  0.00    -0.315 C  
HETATM   13  C   UNL     1     -11.997  13.545  64.914  1.00  0.00    -0.410 C  
HETATM   14  C   UNL     1     -11.928  14.952  64.385  1.00  0.00    -0.408 C  
HETATM   15  C   UNL     1     -10.874  15.865  65.030  1.00  0.00    -0.444 C  
HETATM   16  C   UNL     1      -9.991  15.200  66.041  1.00  0.00    -0.335 C  
HETATM   17  C   UNL     1     -10.145  13.921  66.410  1.00  0.00    -0.298 C  
ENDBRANCH  11  12
ENDBRANCH   8  10
ENDBRANCH   2   3
TORSDOF 3
ENDMDL
MODEL      108
REMARK 921   NORMALIZED FREE ENERGY PREDICTED BY IDOCK:   -3.63 KCAL/MOL
REMARK 922        TOTAL FREE ENERGY PREDICTED BY IDOCK:   -4.60 KCAL/MOL
REMARK 923 INTER-LIGAND FREE ENERGY PREDICTED BY IDOCK:   -4.29 KCAL/MOL
REMARK 924 INTRA-LIGAND FREE ENERGY PREDICTED BY IDOCK:   -0.30 KCAL/MOL
REMARK 927      BINDING AFFINITY PREDICTED BY RF-SCORE:    0.00 PKD
ROOT
HETATM    1  C   UNL     1      -8.008   8.370  64.187  1.00  0.00    -0.151 C  
HETATM    2  O   UNL     1      -7.856   8.668  65.571  1.00  0.00    -0.092 OA 
ENDROOT
BRANCH   2   3
HETATM    3  C   UNL     1      -8.938   9.281  66.182  1.00  0.00    -0.165 C  
HETATM    4  C   UNL     1      -9.332   8.833  67.375  1.00  0.00    -0.166 C  
HETATM    5  C   UNL     1     -10.542   9.309  68.045  1.00  0.00    -0.208 C  
HETATM    6  O   UNL     1     -11.310  10.200  67.389  1.00  0.00    -0.257 OA 
HETATM    7  O   UNL     1     -10.858   8.860  69.139  1.00  0.00    -0.182 OA 
HETATM    8  C   UNL     1     -10.868  10.944  66.240  1.00  0.00    -0.124 C  
HETATM    9  C   UNL     1      -9.705  10.329  65.446  1.00  0.00    -0.340 C  
BRANCH   8  10
HETATM   10  C   UNL     1     -10.610  12.391  66.599  1.00  0.00    -0.256 C  
HETATM   11  C   UNL     1     -11.524  13.318  66.930  1.00  0.00    -0.376 C  
BRANCH  11  12
HETATM   12  C   UNL     1     -11.211  14.719  67.191  1.00  0.00    -0.346 C  
HETATM   13  C   UNL     1     -10.643  15.438  66.201  1.00  0.00    -0.321 C  
HETATM   14  C   UNL     1     -10.214  16.874  66.333  1.00  0.00    -0.326 C  
HETATM   15  C   UNL     1     -10.483  17.536  67.692  1.00  0.00    -0.370 C  
HETATM   16  C   UNL     1     -11.056  16.631  68.738  1.00  0.00    -0.270 C  
HETATM   17  C   UNL     1     -11.375  15.353  68.496  1.00  0.00    -0.342 C  
ENDBRANCH  11  12
ENDBRANCH   8  10
ENDBRANCH   2   3
TORSDOF 3
ENDMDL
MODEL      109
REMARK 921   NORMALIZED FREE ENERGY PREDICTED BY IDOCK:   -3.63 KCAL/MOL
REMARK 922        TOTAL FREE ENERGY PREDICTED BY IDOCK:   -4.60 KCAL/MOL
REMARK 923 INTER-LIGAND FREE ENERGY PREDICTED BY IDOCK:   -4.16 KCAL/MOL
REMARK 924 INTRA-LIGAND FREE ENERGY PREDICTED BY IDOCK:   -0.43 KCAL/MOL
REMARK 927      BINDING AFFINITY PREDICTED BY RF-SCORE:    0.00 PKD
ROOT
HETATM    1  C   UNL     1     -10.115  11.379  63.377  1.00  0.00    -0.405 C  
HETATM    2  O   UNL     1      -9.479  11.880  64.549  1.00  0.00    -0.072 OA 
ENDROOT
BRANCH   2   3
HETATM    3  C   UNL     1      -9.060  10.931  65.466  1.00  0.00    -0.201 C  
HETATM    4  C   UNL     1      -7.844  11.055  66.000  1.00  0.00    -0.077 C  
HETATM    5  C   UNL     1      -7.246  10.039  66.866  1.00  0.00    -0.091 C  
HETATM    6  O   UNL     1      -7.948   8.910  67.081  1.00  0.00    -0.095 OA 
HETATM    7  O   UNL     1      -6.124  10.204  67.327  1.00  0.00    -0.056 OA 
HETATM    8  C   UNL     1      -9.349   8.770  66.787  1.00  0.00    -0.179 C  
HETATM    9  C   UNL     1      -9.916   9.738  65.736  1.00  0.00    -0.349 C  
BRANCH   8  10
HETATM   10  C   UNL     1     -10.170   8.764  68.057  1.00  0.00    -0.264 C  
HETATM   11  C   UNL     1     -10.884   9.782  68.565  1.00  0.00    -0.227 C  
BRANCH  11  12
HETATM   12  C   UNL     1     -11.593   9.728  69.840  1.00  0.00    -0.132 C  
HETATM   13  C   UNL     1     -12.225  10.842  70.262  1.00  0.00    -0.432 C  
HETATM   14  C   UNL     1     -12.951  10.960  71.574  1.00  0.00    -0.556 C  
HETATM   15  C   UNL     1     -12.974   9.699  72.449  1.00  0.00    -0.358 C  
HETATM   16  C   UNL     1     -12.186   8.541  71.916  1.00  0.00    -0.411 C  
HETATM   17  C   UNL     1     -11.560   8.574  70.732  1.00  0.00    -0.257 C  
ENDBRANCH  11  12
ENDBRANCH   8  10
ENDBRANCH   2   3
TORSDOF 3
ENDMDL
MODEL      110
REMARK 921   NORMALIZED FREE ENERGY PREDICTED BY IDOCK:   -3.62 KCAL/MOL
REMARK 922        TOTAL FREE ENERGY PREDICTED BY IDOCK:   -4.59 KCAL/MOL
REMARK 923 INTER-LIGAND FREE ENERGY PREDICTED BY IDOCK:   -4.22 KCAL/MOL
REMARK 924 INTRA-LIGAND FREE ENERGY PREDICTED BY IDOCK:   -0.37 KCAL/MOL
REMARK 927      BINDING AFFINITY PREDICTED BY RF-SCORE:    0.00 PKD
ROOT
HETATM    1  C   UNL     1     -11.882  15.196  68.210  1.00  0.00    -0.250 C  
HETATM    2  O   UNL     1     -12.011  13.780  68.136  1.00  0.00    -0.362 OA 
ENDROOT
BRANCH   2   3
HETATM    3  C   UNL     1     -10.909  13.094  67.651  1.00  0.00    -0.254 C  
HETATM    4  C   UNL     1      -9.693  13.569  67.924  1.00  0.00    -0.225 C  
HETATM    5  C   UNL     1      -8.471  13.009  67.347  1.00  0.00    -0.200 C  
HETATM    6  O   UNL     1      -8.602  12.003  66.462  1.00  0.00    -0.177 OA 
HETATM    7  O   UNL     1      -7.381  13.487  67.631  1.00  0.00    -0.146 OA 
HETATM    8  C   UNL     1      -9.810  11.242  66.289  1.00  0.00    -0.214 C  
HETATM    9  C   UNL     1     -11.109  11.928  66.740  1.00  0.00    -0.359 C  
BRANCH   8  10
HETATM   10  C   UNL     1      -9.664   9.856  66.875  1.00  0.00    -0.236 C  
HETATM   11  C   UNL     1     -10.648   9.059  67.326  1.00  0.00    -0.301 C  
BRANCH  11  12
HETATM   12  C   UNL     1     -10.427   7.760  67.951  1.00  0.00    -0.263 C  
HETATM   13  C   UNL     1     -10.596   6.655  67.197  1.00  0.00    -0.401 C  
HETATM   14  C   UNL     1     -10.459   5.247  67.711  1.00  0.00    -0.164 C  
HETATM   15  C   UNL     1     -10.072   5.103  69.190  1.00  0.00    -0.274 C  
HETATM   16  C   UNL     1      -9.974   6.390  69.949  1.00  0.00    -0.198 C  
HETATM   17  C   UNL     1     -10.144   7.587  69.373  1.00  0.00    -0.190 C  
ENDBRANCH  11  12
ENDBRANCH   8  10
ENDBRANCH   2   3
TORSDOF 3
ENDMDL
MODEL      111
REMARK 921   NORMALIZED FREE ENERGY PREDICTED BY IDOCK:   -3.59 KCAL/MOL
REMARK 922        TOTAL FREE ENERGY PREDICTED BY IDOCK:   -4.56 KCAL/MOL
REMARK 923 INTER-LIGAND FREE ENERGY PREDICTED BY IDOCK:   -4.11 KCAL/MOL
REMARK 924 INTRA-LIGAND FREE ENERGY PREDICTED BY IDOCK:   -0.44 KCAL/MOL
REMARK 927      BINDING AFFINITY PREDICTED BY RF-SCORE:    0.00 PKD
ROOT
HETATM    1  C   UNL     1     -11.982  15.337  70.391  1.00  0.00    -0.335 C  
HETATM    2  O   UNL     1     -12.412  14.292  69.526  1.00  0.00    -0.292 OA 
ENDROOT
BRANCH   2   3
HETATM    3  C   UNL     1     -11.502  13.888  68.561  1.00  0.00    -0.311 C  
HETATM    4  C   UNL     1     -11.961  13.559  67.353  1.00  0.00    -0.398 C  
HETATM    5  C   UNL     1     -11.112  12.987  66.308  1.00  0.00    -0.289 C  
HETATM    6  O   UNL     1      -9.824  12.738  66.615  1.00  0.00    -0.238 OA 
HETATM    7  O   UNL     1     -11.586  12.701  65.217  1.00  0.00    -0.321 OA 
HETATM    8  C   UNL     1      -9.158  13.280  67.769  1.00  0.00    -0.202 C  
HETATM    9  C   UNL     1     -10.066  13.711  68.931  1.00  0.00    -0.049 C  
BRANCH   8  10
HETATM   10  C   UNL     1      -8.187  14.369  67.370  1.00  0.00    -0.215 C  
HETATM   11  C   UNL     1      -8.435  15.688  67.297  1.00  0.00    -0.214 C  
BRANCH  11  12
HETATM   12  C   UNL     1      -7.469  16.677  66.829  1.00  0.00    -0.289 C  
HETATM   13  C   UNL     1      -7.933  17.746  66.151  1.00  0.00    -0.237 C  
HETATM   14  C   UNL     1      -7.060  18.820  65.560  1.00  0.00    -0.148 C  
HETATM   15  C   UNL     1      -5.550  18.666  65.791  1.00  0.00    -0.209 C  
HETATM   16  C   UNL     1      -5.140  17.412  66.499  1.00  0.00    -0.209 C  
HETATM   17  C   UNL     1      -6.024  16.516  66.959  1.00  0.00    -0.157 C  
ENDBRANCH  11  12
ENDBRANCH   8  10
ENDBRANCH   2   3
TORSDOF 3
ENDMDL
MODEL      112
REMARK 921   NORMALIZED FREE ENERGY PREDICTED BY IDOCK:   -3.59 KCAL/MOL
REMARK 922        TOTAL FREE ENERGY PREDICTED BY IDOCK:   -4.55 KCAL/MOL
REMARK 923 INTER-LIGAND FREE ENERGY PREDICTED BY IDOCK:   -4.17 KCAL/MOL
REMARK 924 INTRA-LIGAND FREE ENERGY PREDICTED BY IDOCK:   -0.38 KCAL/MOL
REMARK 927      BINDING AFFINITY PREDICTED BY RF-SCORE:    0.00 PKD
ROOT
HETATM    1  C   UNL     1      -9.451   5.267  73.905  1.00  0.00    -0.134 C  
HETATM    2  O   UNL     1      -9.338   6.534  73.265  1.00  0.00    -0.131 OA 
ENDROOT
BRANCH   2   3
HETATM    3  C   UNL     1     -10.177   6.743  72.181  1.00  0.00    -0.193 C  
HETATM    4  C   UNL     1     -11.490   6.831  72.401  1.00  0.00    -0.302 C  
HETATM    5  C   UNL     1     -12.474   6.909  71.321  1.00  0.00    -0.361 C  
HETATM    6  O   UNL     1     -12.020   6.833  70.055  1.00  0.00    -0.291 OA 
HETATM    7  O   UNL     1     -13.667   6.985  71.580  1.00  0.00    -0.351 OA 
HETATM    8  C   UNL     1     -10.640   7.001  69.689  1.00  0.00    -0.234 C  
HETATM    9  C   UNL     1      -9.611   6.738  70.799  1.00  0.00    -0.173 C  
BRANCH   8  10
HETATM   10  C   UNL     1     -10.419   8.335  69.011  1.00  0.00    -0.212 C  
HETATM   11  C   UNL     1     -11.008   9.504  69.313  1.00  0.00    -0.167 C  
BRANCH  11  12
HETATM   12  C   UNL     1     -10.803  10.740  68.566  1.00  0.00    -0.270 C  
HETATM   13  C   UNL     1      -9.540  11.186  68.408  1.00  0.00    -0.192 C  
HETATM   14  C   UNL     1      -9.173  12.468  67.711  1.00  0.00    -0.198 C  
HETATM   15  C   UNL     1     -10.340  13.279  67.131  1.00  0.00    -0.248 C  
HETATM   16  C   UNL     1     -11.703  12.728  67.420  1.00  0.00    -0.425 C  
HETATM   17  C   UNL     1     -11.895  11.577  68.078  1.00  0.00    -0.287 C  
ENDBRANCH  11  12
ENDBRANCH   8  10
ENDBRANCH   2   3
TORSDOF 3
ENDMDL
MODEL      113
REMARK 921   NORMALIZED FREE ENERGY PREDICTED BY IDOCK:   -3.59 KCAL/MOL
REMARK 922        TOTAL FREE ENERGY PREDICTED BY IDOCK:   -4.55 KCAL/MOL
REMARK 923 INTER-LIGAND FREE ENERGY PREDICTED BY IDOCK:   -4.26 KCAL/MOL
REMARK 924 INTRA-LIGAND FREE ENERGY PREDICTED BY IDOCK:   -0.29 KCAL/MOL
REMARK 927      BINDING AFFINITY PREDICTED BY RF-SCORE:    0.00 PKD
ROOT
HETATM    1  C   UNL     1     -11.909  10.975  68.622  1.00  0.00    -0.247 C  
HETATM    2  O   UNL     1     -11.021  11.282  67.553  1.00  0.00    -0.230 OA 
ENDROOT
BRANCH   2   3
HETATM    3  C   UNL     1     -10.007  12.180  67.843  1.00  0.00    -0.200 C  
HETATM    4  C   UNL     1      -8.772  11.905  67.420  1.00  0.00    -0.166 C  
HETATM    5  C   UNL     1      -7.606  12.707  67.790  1.00  0.00    -0.141 C  
HETATM    6  O   UNL     1      -7.798  13.734  68.640  1.00  0.00    -0.136 OA 
HETATM    7  O   UNL     1      -6.495  12.406  67.374  1.00  0.00    -0.132 OA 
HETATM    8  C   UNL     1      -9.090  14.284  68.950  1.00  0.00    -0.031 C  
HETATM    9  C   UNL     1     -10.292  13.355  68.720  1.00  0.00    -0.164 C  
BRANCH   8  10
HETATM   10  C   UNL     1      -9.277  15.631  68.288  1.00  0.00    -0.188 C  
HETATM   11  C   UNL     1      -8.957  16.834  68.794  1.00  0.00    -0.254 C  
BRANCH  11  12
HETATM   12  C   UNL     1      -9.237  18.102  68.129  1.00  0.00    -0.298 C  
HETATM   13  C   UNL     1      -8.290  19.061  68.165  1.00  0.00    -0.347 C  
HETATM   14  C   UNL     1      -8.451  20.436  67.575  1.00  0.00    -0.349 C  
HETATM   15  C   UNL     1      -9.785  20.716  66.869  1.00  0.00    -0.424 C  
HETATM   16  C   UNL     1     -10.789  19.607  66.944  1.00  0.00    -0.505 C  
HETATM   17  C   UNL     1     -10.526  18.428  67.525  1.00  0.00    -0.445 C  
ENDBRANCH  11  12
ENDBRANCH   8  10
ENDBRANCH   2   3
TORSDOF 3
ENDMDL
MODEL      114
REMARK 921   NORMALIZED FREE ENERGY PREDICTED BY IDOCK:   -3.57 KCAL/MOL
REMARK 922        TOTAL FREE ENERGY PREDICTED BY IDOCK:   -4.53 KCAL/MOL
REMARK 923 INTER-LIGAND FREE ENERGY PREDICTED BY IDOCK:   -4.20 KCAL/MOL
REMARK 924 INTRA-LIGAND FREE ENERGY PREDICTED BY IDOCK:   -0.34 KCAL/MOL
REMARK 927      BINDING AFFINITY PREDICTED BY RF-SCORE:    0.00 PKD
ROOT
HETATM    1  C   UNL     1     -13.511  13.244  72.344  1.00  0.00    -0.569 C  
HETATM    2  O   UNL     1     -12.797  12.176  71.731  1.00  0.00    -0.339 OA 
ENDROOT
BRANCH   2   3
HETATM    3  C   UNL     1     -12.390  12.388  70.423  1.00  0.00    -0.227 C  
HETATM    4  C   UNL     1     -12.241  13.644  70.000  1.00  0.00    -0.395 C  
HETATM    5  C   UNL     1     -11.955  13.986  68.606  1.00  0.00    -0.354 C  
HETATM    6  O   UNL     1     -11.894  12.978  67.715  1.00  0.00    -0.349 OA 
HETATM    7  O   UNL     1     -11.831  15.157  68.272  1.00  0.00    -0.331 OA 
HETATM    8  C   UNL     1     -11.776  11.593  68.082  1.00  0.00    -0.295 C  
HETATM    9  C   UNL     1     -12.252  11.226  69.496  1.00  0.00    -0.325 C  
BRANCH   8  10
HETATM   10  C   UNL     1     -10.382  11.076  67.799  1.00  0.00    -0.218 C  
HETATM   11  C   UNL     1      -9.551  11.480  66.824  1.00  0.00    -0.203 C  
BRANCH  11  12
HETATM   12  C   UNL     1      -8.246  10.882  66.561  1.00  0.00    -0.157 C  
HETATM   13  C   UNL     1      -8.044  10.302  65.361  1.00  0.00    -0.147 C  
HETATM   14  C   UNL     1      -6.776   9.598  64.961  1.00  0.00    -0.096 C  
HETATM   15  C   UNL     1      -5.652   9.586  66.007  1.00  0.00    -0.048 C  
HETATM   16  C   UNL     1      -6.005  10.200  67.327  1.00  0.00    -0.054 C  
HETATM   17  C   UNL     1      -7.190  10.779  67.563  1.00  0.00    -0.090 C  
ENDBRANCH  11  12
ENDBRANCH   8  10
ENDBRANCH   2   3
TORSDOF 3
ENDMDL
MODEL      115
REMARK 921   NORMALIZED FREE ENERGY PREDICTED BY IDOCK:   -3.57 KCAL/MOL
REMARK 922        TOTAL FREE ENERGY PREDICTED BY IDOCK:   -4.53 KCAL/MOL
REMARK 923 INTER-LIGAND FREE ENERGY PREDICTED BY IDOCK:   -4.12 KCAL/MOL
REMARK 924 INTRA-LIGAND FREE ENERGY PREDICTED BY IDOCK:   -0.40 KCAL/MOL
REMARK 927      BINDING AFFINITY PREDICTED BY RF-SCORE:    0.00 PKD
ROOT
HETATM    1  C   UNL     1      -8.320   9.976  63.398  1.00  0.00    -0.170 C  
HETATM    2  O   UNL     1      -9.499  10.700  63.735  1.00  0.00    -0.237 OA 
ENDROOT
BRANCH   2   3
HETATM    3  C   UNL     1      -9.547  11.220  65.018  1.00  0.00    -0.233 C  
HETATM    4  C   UNL     1      -8.515  10.997  65.834  1.00  0.00    -0.140 C  
HETATM    5  C   UNL     1      -8.520  11.375  67.247  1.00  0.00    -0.148 C  
HETATM    6  O   UNL     1      -9.646  11.924  67.742  1.00  0.00    -0.181 OA 
HETATM    7  O   UNL     1      -7.546  11.144  67.950  1.00  0.00    -0.094 OA 
HETATM    8  C   UNL     1     -10.707  12.448  66.926  1.00  0.00    -0.240 C  
HETATM    9  C   UNL     1     -10.789  11.899  65.493  1.00  0.00    -0.343 C  
BRANCH   8  10
HETATM   10  C   UNL     1     -10.718  13.960  66.957  1.00  0.00    -0.283 C  
HETATM   11  C   UNL     1      -9.654  14.779  66.902  1.00  0.00    -0.251 C  
BRANCH  11  12
HETATM   12  C   UNL     1      -9.733  16.231  67.015  1.00  0.00    -0.244 C  
HETATM   13  C   UNL     1     -10.456  16.902  66.096  1.00  0.00    -0.276 C  
HETATM   14  C   UNL     1     -10.588  18.400  66.046  1.00  0.00    -0.339 C  
HETATM   15  C   UNL     1      -9.858  19.178  67.150  1.00  0.00    -0.411 C  
HETATM   16  C   UNL     1      -9.032  18.342  68.078  1.00  0.00    -0.301 C  
HETATM   17  C   UNL     1      -8.982  17.005  67.999  1.00  0.00    -0.230 C  
ENDBRANCH  11  12
ENDBRANCH   8  10
ENDBRANCH   2   3
TORSDOF 3
ENDMDL
MODEL      116
REMARK 921   NORMALIZED FREE ENERGY PREDICTED BY IDOCK:   -3.52 KCAL/MOL
REMARK 922        TOTAL FREE ENERGY PREDICTED BY IDOCK:   -4.47 KCAL/MOL
REMARK 923 INTER-LIGAND FREE ENERGY PREDICTED BY IDOCK:   -4.08 KCAL/MOL
REMARK 924 INTRA-LIGAND FREE ENERGY PREDICTED BY IDOCK:   -0.40 KCAL/MOL
REMARK 927      BINDING AFFINITY PREDICTED BY RF-SCORE:    0.00 PKD
ROOT
HETATM    1  C   UNL     1      -7.399   8.358  72.385  1.00  0.00    -0.090 C  
HETATM    2  O   UNL     1      -8.679   8.789  72.836  1.00  0.00    -0.379 OA 
ENDROOT
BRANCH   2   3
HETATM    3  C   UNL     1      -9.761   8.045  72.393  1.00  0.00    -0.240 C  
HETATM    4  C   UNL     1     -10.941   8.654  72.265  1.00  0.00    -0.392 C  
HETATM    5  C   UNL     1     -12.176   7.938  71.945  1.00  0.00    -0.314 C  
HETATM    6  O   UNL     1     -12.109   6.597  71.829  1.00  0.00    -0.331 OA 
HETATM    7  O   UNL     1     -13.232   8.547  71.842  1.00  0.00    -0.338 OA 
HETATM    8  C   UNL     1     -10.878   5.868  71.685  1.00  0.00    -0.263 C  
HETATM    9  C   UNL     1      -9.612   6.573  72.196  1.00  0.00    -0.151 C  
BRANCH   8  10
HETATM   10  C   UNL     1     -10.715   5.358  70.270  1.00  0.00    -0.286 C  
HETATM   11  C   UNL     1      -9.598   5.384  69.524  1.00  0.00    -0.205 C  
BRANCH  11  12
HETATM   12  C   UNL     1      -9.531   4.944  68.134  1.00  0.00    -0.178 C  
HETATM   13  C   UNL     1      -8.436   4.267  67.734  1.00  0.00    -0.102 C  
HETATM   14  C   UNL     1      -8.197   3.796  66.326  1.00  0.00    -0.101 C  
HETATM   15  C   UNL     1      -9.310   4.100  65.313  1.00  0.00    -0.164 C  
HETATM   16  C   UNL     1     -10.450   4.912  65.847  1.00  0.00    -0.282 C  
HETATM   17  C   UNL     1     -10.532   5.292  67.130  1.00  0.00    -0.261 C  
ENDBRANCH  11  12
ENDBRANCH   8  10
ENDBRANCH   2   3
TORSDOF 3
ENDMDL
MODEL      117
REMARK 921   NORMALIZED FREE ENERGY PREDICTED BY IDOCK:   -3.52 KCAL/MOL
REMARK 922        TOTAL FREE ENERGY PREDICTED BY IDOCK:   -4.47 KCAL/MOL
REMARK 923 INTER-LIGAND FREE ENERGY PREDICTED BY IDOCK:   -4.11 KCAL/MOL
REMARK 924 INTRA-LIGAND FREE ENERGY PREDICTED BY IDOCK:   -0.36 KCAL/MOL
REMARK 927      BINDING AFFINITY PREDICTED BY RF-SCORE:    0.00 PKD
ROOT
HETATM    1  C   UNL     1      -7.508   4.042  69.425  1.00  0.00    -0.053 C  
HETATM    2  O   UNL     1      -7.888   3.727  70.761  1.00  0.00    -0.050 OA 
ENDROOT
BRANCH   2   3
HETATM    3  C   UNL     1      -8.835   4.560  71.335  1.00  0.00    -0.122 C  
HETATM    4  C   UNL     1      -8.687   4.903  72.616  1.00  0.00    -0.119 C  
HETATM    5  C   UNL     1      -9.697   5.656  73.360  1.00  0.00    -0.148 C  
HETATM    6  O   UNL     1     -10.843   5.963  72.723  1.00  0.00    -0.223 OA 
HETATM    7  O   UNL     1      -9.510   5.942  74.535  1.00  0.00    -0.142 OA 
HETATM    8  C   UNL     1     -11.012   5.884  71.297  1.00  0.00    -0.259 C  
HETATM    9  C   UNL     1     -10.049   4.943  70.555  1.00  0.00    -0.312 C  
BRANCH   8  10
HETATM   10  C   UNL     1     -11.047   7.264  70.680  1.00  0.00    -0.287 C  
HETATM   11  C   UNL     1     -11.290   8.427  71.308  1.00  0.00    -0.314 C  
BRANCH  11  12
HETATM   12  C   UNL     1     -11.385   9.717  70.634  1.00  0.00    -0.401 C  
HETATM   13  C   UNL     1     -10.475  10.004  69.681  1.00  0.00    -0.275 C  
HETATM   14  C   UNL     1     -10.409  11.311  68.937  1.00  0.00    -0.214 C  
HETATM   15  C   UNL     1     -11.483  12.348  69.296  1.00  0.00    -0.349 C  
HETATM   16  C   UNL     1     -12.401  11.952  70.411  1.00  0.00    -0.334 C  
HETATM   17  C   UNL     1     -12.339  10.756  71.011  1.00  0.00    -0.509 C  
ENDBRANCH  11  12
ENDBRANCH   8  10
ENDBRANCH   2   3
TORSDOF 3
ENDMDL
MODEL      118
REMARK 921   NORMALIZED FREE ENERGY PREDICTED BY IDOCK:   -3.49 KCAL/MOL
REMARK 922        TOTAL FREE ENERGY PREDICTED BY IDOCK:   -4.44 KCAL/MOL
REMARK 923 INTER-LIGAND FREE ENERGY PREDICTED BY IDOCK:   -4.03 KCAL/MOL
REMARK 924 INTRA-LIGAND FREE ENERGY PREDICTED BY IDOCK:   -0.41 KCAL/MOL
REMARK 927      BINDING AFFINITY PREDICTED BY RF-SCORE:    0.00 PKD
ROOT
HETATM    1  C   UNL     1      -8.712   9.245  64.805  1.00  0.00    -0.188 C  
HETATM    2  O   UNL     1      -8.115   8.193  65.556  1.00  0.00    -0.114 OA 
ENDROOT
BRANCH   2   3
HETATM    3  C   UNL     1      -8.988   7.272  66.113  1.00  0.00    -0.149 C  
HETATM    4  C   UNL     1      -8.737   5.974  65.944  1.00  0.00    -0.157 C  
HETATM    5  C   UNL     1      -9.662   4.922  66.364  1.00  0.00    -0.189 C  
HETATM    6  O   UNL     1     -10.840   5.301  66.896  1.00  0.00    -0.206 OA 
HETATM    7  O   UNL     1      -9.381   3.745  66.181  1.00  0.00    -0.159 OA 
HETATM    8  C   UNL     1     -11.113   6.633  67.365  1.00  0.00    -0.320 C  
HETATM    9  C   UNL     1     -10.241   7.749  66.771  1.00  0.00    -0.346 C  
BRANCH   8  10
HETATM   10  C   UNL     1     -11.144   6.678  68.877  1.00  0.00    -0.312 C  
HETATM   11  C   UNL     1     -10.163   6.310  69.718  1.00  0.00    -0.234 C  
BRANCH  11  12
HETATM   12  C   UNL     1     -10.289   6.308  71.172  1.00  0.00    -0.255 C  
HETATM   13  C   UNL     1      -9.975   7.437  71.838  1.00  0.00    -0.196 C  
HETATM   14  C   UNL     1     -10.003   7.574  73.337  1.00  0.00    -0.378 C  
HETATM   15  C   UNL     1     -10.450   6.332  74.120  1.00  0.00    -0.250 C  
HETATM   16  C   UNL     1     -10.712   5.115  73.286  1.00  0.00    -0.318 C  
HETATM   17  C   UNL     1     -10.628   5.120  71.949  1.00  0.00    -0.256 C  
ENDBRANCH  11  12
ENDBRANCH   8  10
ENDBRANCH   2   3
TORSDOF 3
ENDMDL
MODEL      119
REMARK 921   NORMALIZED FREE ENERGY PREDICTED BY IDOCK:   -3.45 KCAL/MOL
REMARK 922        TOTAL FREE ENERGY PREDICTED BY IDOCK:   -4.38 KCAL/MOL
REMARK 923 INTER-LIGAND FREE ENERGY PREDICTED BY IDOCK:   -4.02 KCAL/MOL
REMARK 924 INTRA-LIGAND FREE ENERGY PREDICTED BY IDOCK:   -0.36 KCAL/MOL
REMARK 927      BINDING AFFINITY PREDICTED BY RF-SCORE:    0.00 PKD
ROOT
HETATM    1  C   UNL     1      -7.944  15.988  66.704  1.00  0.00    -0.256 C  
HETATM    2  O   UNL     1      -9.189  15.751  66.055  1.00  0.00    -0.331 OA 
ENDROOT
BRANCH   2   3
HETATM    3  C   UNL     1      -9.835  14.572  66.390  1.00  0.00    -0.290 C  
HETATM    4  C   UNL     1     -10.999  14.295  65.802  1.00  0.00    -0.305 C  
HETATM    5  C   UNL     1     -11.833  13.155  66.183  1.00  0.00    -0.401 C  
HETATM    6  O   UNL     1     -11.416  12.392  67.212  1.00  0.00    -0.310 OA 
HETATM    7  O   UNL     1     -12.894  12.949  65.610  1.00  0.00    -0.468 OA 
HETATM    8  C   UNL     1     -10.080  12.427  67.743  1.00  0.00    -0.203 C  
HETATM    9  C   UNL     1      -9.283  13.714  67.481  1.00  0.00    -0.218 C  
BRANCH   8  10
HETATM   10  C   UNL     1      -9.307  11.189  67.345  1.00  0.00    -0.172 C  
HETATM   11  C   UNL     1      -9.748  10.164  66.596  1.00  0.00    -0.242 C  
BRANCH  11  12
HETATM   12  C   UNL     1      -8.971   8.962  66.314  1.00  0.00    -0.207 C  
HETATM   13  C   UNL     1      -9.583   7.767  66.440  1.00  0.00    -0.235 C  
HETATM   14  C   UNL     1      -8.903   6.440  66.238  1.00  0.00    -0.152 C  
HETATM   15  C   UNL     1      -7.422   6.494  65.836  1.00  0.00    -0.081 C  
HETATM   16  C   UNL     1      -6.827   7.868  65.788  1.00  0.00    -0.056 C  
HETATM   17  C   UNL     1      -7.543   8.977  66.014  1.00  0.00    -0.094 C  
ENDBRANCH  11  12
ENDBRANCH   8  10
ENDBRANCH   2   3
TORSDOF 3
ENDMDL
MODEL      120
REMARK 921   NORMALIZED FREE ENERGY PREDICTED BY IDOCK:   -3.44 KCAL/MOL
REMARK 922        TOTAL FREE ENERGY PREDICTED BY IDOCK:   -4.38 KCAL/MOL
REMARK 923 INTER-LIGAND FREE ENERGY PREDICTED BY IDOCK:   -4.06 KCAL/MOL
REMARK 924 INTRA-LIGAND FREE ENERGY PREDICTED BY IDOCK:   -0.31 KCAL/MOL
REMARK 927      BINDING AFFINITY PREDICTED BY RF-SCORE:    0.00 PKD
ROOT
HETATM    1  C   UNL     1      -8.165   5.595  72.985  1.00  0.00    -0.118 C  
HETATM    2  O   UNL     1      -9.211   6.417  73.495  1.00  0.00    -0.130 OA 
ENDROOT
BRANCH   2   3
HETATM    3  C   UNL     1     -10.152   6.846  72.572  1.00  0.00    -0.172 C  
HETATM    4  C   UNL     1     -11.106   7.683  72.979  1.00  0.00    -0.437 C  
HETATM    5  C   UNL     1     -12.227   8.086  72.131  1.00  0.00    -0.331 C  
HETATM    6  O   UNL     1     -12.313   7.535  70.905  1.00  0.00    -0.266 OA 
HETATM    7  O   UNL     1     -13.077   8.857  72.558  1.00  0.00    -0.422 OA 
HETATM    8  C   UNL     1     -11.230   6.840  70.263  1.00  0.00    -0.334 C  
HETATM    9  C   UNL     1     -10.150   6.268  71.195  1.00  0.00    -0.218 C  
BRANCH   8  10
HETATM   10  C   UNL     1     -10.637   7.673  69.149  1.00  0.00    -0.195 C  
HETATM   11  C   UNL     1     -10.173   7.233  67.967  1.00  0.00    -0.225 C  
BRANCH  11  12
HETATM   12  C   UNL     1      -9.542   8.087  66.967  1.00  0.00    -0.252 C  
HETATM   13  C   UNL     1      -8.314   7.747  66.525  1.00  0.00    -0.128 C  
HETATM   14  C   UNL     1      -7.513   8.553  65.538  1.00  0.00    -0.085 C  
HETATM   15  C   UNL     1      -8.186   9.825  65.002  1.00  0.00    -0.142 C  
HETATM   16  C   UNL     1      -9.518  10.142  65.607  1.00  0.00    -0.275 C  
HETATM   17  C   UNL     1     -10.117   9.345  66.502  1.00  0.00    -0.332 C  
ENDBRANCH  11  12
ENDBRANCH   8  10
ENDBRANCH   2   3
TORSDOF 3
ENDMDL
MODEL      121
REMARK 921   NORMALIZED FREE ENERGY PREDICTED BY IDOCK:   -3.40 KCAL/MOL
REMARK 922        TOTAL FREE ENERGY PREDICTED BY IDOCK:   -4.33 KCAL/MOL
REMARK 923 INTER-LIGAND FREE ENERGY PREDICTED BY IDOCK:   -3.95 KCAL/MOL
REMARK 924 INTRA-LIGAND FREE ENERGY PREDICTED BY IDOCK:   -0.38 KCAL/MOL
REMARK 927      BINDING AFFINITY PREDICTED BY RF-SCORE:    0.00 PKD
ROOT
HETATM    1  C   UNL     1      -7.175  15.302  68.094  1.00  0.00    -0.120 C  
HETATM    2  O   UNL     1      -8.320  14.532  67.745  1.00  0.00    -0.148 OA 
ENDROOT
BRANCH   2   3
HETATM    3  C   UNL     1      -8.245  13.175  68.018  1.00  0.00    -0.158 C  
HETATM    4  C   UNL     1      -7.256  12.736  68.797  1.00  0.00    -0.077 C  
HETATM    5  C   UNL     1      -6.999  11.316  69.034  1.00  0.00    -0.104 C  
HETATM    6  O   UNL     1      -7.773  10.424  68.387  1.00  0.00    -0.093 OA 
HETATM    7  O   UNL     1      -6.074  10.969  69.757  1.00  0.00    -0.069 OA 
HETATM    8  C   UNL     1      -9.014  10.761  67.743  1.00  0.00    -0.137 C  
HETATM    9  C   UNL     1      -9.186  12.234  67.340  1.00  0.00    -0.182 C  
BRANCH   8  10
HETATM   10  C   UNL     1     -10.193  10.247  68.538  1.00  0.00    -0.192 C  
HETATM   11  C   UNL     1     -10.264  10.089  69.871  1.00  0.00    -0.304 C  
BRANCH  11  12
HETATM   12  C   UNL     1     -11.410   9.513  70.566  1.00  0.00    -0.343 C  
HETATM   13  C   UNL     1     -12.267  10.353  71.182  1.00  0.00    -0.498 C  
HETATM   14  C   UNL     1     -13.461   9.910  71.983  1.00  0.00    -0.478 C  
HETATM   15  C   UNL     1     -13.701   8.395  72.057  1.00  0.00    -0.415 C  
HETATM   16  C   UNL     1     -12.655   7.553  71.394  1.00  0.00    -0.382 C  
HETATM   17  C   UNL     1     -11.618   8.077  70.726  1.00  0.00    -0.251 C  
ENDBRANCH  11  12
ENDBRANCH   8  10
ENDBRANCH   2   3
TORSDOF 3
ENDMDL
MODEL      122
REMARK 921   NORMALIZED FREE ENERGY PREDICTED BY IDOCK:   -3.40 KCAL/MOL
REMARK 922        TOTAL FREE ENERGY PREDICTED BY IDOCK:   -4.33 KCAL/MOL
REMARK 923 INTER-LIGAND FREE ENERGY PREDICTED BY IDOCK:   -3.88 KCAL/MOL
REMARK 924 INTRA-LIGAND FREE ENERGY PREDICTED BY IDOCK:   -0.45 KCAL/MOL
REMARK 927      BINDING AFFINITY PREDICTED BY RF-SCORE:    0.00 PKD
ROOT
HETATM    1  C   UNL     1      -9.159  11.819  68.099  1.00  0.00    -0.185 C  
HETATM    2  O   UNL     1      -8.552  10.699  68.736  1.00  0.00    -0.135 OA 
ENDROOT
BRANCH   2   3
HETATM    3  C   UNL     1      -9.299  10.087  69.730  1.00  0.00    -0.202 C  
HETATM    4  C   UNL     1     -10.615  10.301  69.759  1.00  0.00    -0.312 C  
HETATM    5  C   UNL     1     -11.475   9.823  70.842  1.00  0.00    -0.369 C  
HETATM    6  O   UNL     1     -10.888   9.186  71.872  1.00  0.00    -0.359 OA 
HETATM    7  O   UNL     1     -12.678  10.051  70.819  1.00  0.00    -0.315 OA 
HETATM    8  C   UNL     1      -9.546   8.670  71.833  1.00  0.00    -0.307 C  
HETATM    9  C   UNL     1      -8.605   9.316  70.804  1.00  0.00    -0.254 C  
BRANCH   8  10
HETATM   10  C   UNL     1      -9.549   7.161  71.734  1.00  0.00    -0.161 C  
HETATM   11  C   UNL     1      -9.268   6.420  70.648  1.00  0.00    -0.162 C  
BRANCH  11  12
HETATM   12  C   UNL     1      -9.366   4.965  70.603  1.00  0.00    -0.222 C  
HETATM   13  C   UNL     1      -9.124   4.349  69.429  1.00  0.00    -0.171 C  
HETATM   14  C   UNL     1      -9.237   2.864  69.210  1.00  0.00    -0.212 C  
HETATM   15  C   UNL     1      -9.630   2.029  70.437  1.00  0.00    -0.108 C  
HETATM   16  C   UNL     1      -9.939   2.819  71.671  1.00  0.00    -0.156 C  
HETATM   17  C   UNL     1      -9.820   4.153  71.728  1.00  0.00    -0.252 C  
ENDBRANCH  11  12
ENDBRANCH   8  10
ENDBRANCH   2   3
TORSDOF 3
ENDMDL
MODEL      123
REMARK 921   NORMALIZED FREE ENERGY PREDICTED BY IDOCK:   -3.40 KCAL/MOL
REMARK 922        TOTAL FREE ENERGY PREDICTED BY IDOCK:   -4.33 KCAL/MOL
REMARK 923 INTER-LIGAND FREE ENERGY PREDICTED BY IDOCK:   -3.93 KCAL/MOL
REMARK 924 INTRA-LIGAND FREE ENERGY PREDICTED BY IDOCK:   -0.40 KCAL/MOL
REMARK 927      BINDING AFFINITY PREDICTED BY RF-SCORE:    0.00 PKD
ROOT
HETATM    1  C   UNL     1     -10.496  17.375  65.533  1.00  0.00    -0.101 C  
HETATM    2  O   UNL     1     -10.623  15.961  65.427  1.00  0.00    -0.378 OA 
ENDROOT
BRANCH   2   3
HETATM    3  C   UNL     1     -10.433  15.245  66.598  1.00  0.00    -0.290 C  
HETATM    4  C   UNL     1     -11.322  15.386  67.582  1.00  0.00    -0.292 C  
HETATM    5  C   UNL     1     -11.145  14.792  68.907  1.00  0.00    -0.252 C  
HETATM    6  O   UNL     1     -10.003  14.119  69.142  1.00  0.00    -0.121 OA 
HETATM    7  O   UNL     1     -11.993  14.957  69.774  1.00  0.00    -0.291 OA 
HETATM    8  C   UNL     1      -9.106  13.679  68.108  1.00  0.00    -0.195 C  
HETATM    9  C   UNL     1      -9.187  14.441  66.776  1.00  0.00    -0.287 C  
BRANCH   8  10
HETATM   10  C   UNL     1      -9.198  12.181  67.913  1.00  0.00    -0.188 C  
HETATM   11  C   UNL     1      -9.252  11.518  66.746  1.00  0.00    -0.187 C  
BRANCH  11  12
HETATM   12  C   UNL     1      -9.418  10.073  66.633  1.00  0.00    -0.215 C  
HETATM   13  C   UNL     1     -10.224   9.455  67.520  1.00  0.00    -0.288 C  
HETATM   14  C   UNL     1     -10.453   7.968  67.567  1.00  0.00    -0.331 C  
HETATM   15  C   UNL     1      -9.725   7.139  66.500  1.00  0.00    -0.199 C  
HETATM   16  C   UNL     1      -8.806   7.917  65.609  1.00  0.00    -0.121 C  
HETATM   17  C   UNL     1      -8.674   9.248  65.687  1.00  0.00    -0.193 C  
ENDBRANCH  11  12
ENDBRANCH   8  10
ENDBRANCH   2   3
TORSDOF 3
ENDMDL
MODEL      124
REMARK 921   NORMALIZED FREE ENERGY PREDICTED BY IDOCK:   -3.37 KCAL/MOL
REMARK 922        TOTAL FREE ENERGY PREDICTED BY IDOCK:   -4.30 KCAL/MOL
REMARK 923 INTER-LIGAND FREE ENERGY PREDICTED BY IDOCK:   -3.92 KCAL/MOL
REMARK 924 INTRA-LIGAND FREE ENERGY PREDICTED BY IDOCK:   -0.37 KCAL/MOL
REMARK 927      BINDING AFFINITY PREDICTED BY RF-SCORE:    0.00 PKD
ROOT
HETATM    1  C   UNL     1      -7.245   4.916  65.395  1.00  0.00    -0.068 C  
HETATM    2  O   UNL     1      -7.434   4.819  66.803  1.00  0.00    -0.084 OA 
ENDROOT
BRANCH   2   3
HETATM    3  C   UNL     1      -8.548   5.468  67.313  1.00  0.00    -0.108 C  
HETATM    4  C   UNL     1      -8.783   5.393  68.623  1.00  0.00    -0.097 C  
HETATM    5  C   UNL     1      -9.999   5.916  69.246  1.00  0.00    -0.174 C  
HETATM    6  O   UNL     1     -10.937   6.447  68.437  1.00  0.00    -0.287 OA 
HETATM    7  O   UNL     1     -10.164   5.818  70.454  1.00  0.00    -0.194 OA 
HETATM    8  C   UNL     1     -10.695   6.818  67.069  1.00  0.00    -0.365 C  
HETATM    9  C   UNL     1      -9.514   6.118  66.378  1.00  0.00    -0.172 C  
BRANCH   8  10
HETATM   10  C   UNL     1     -10.630   8.322  66.920  1.00  0.00    -0.302 C  
HETATM   11  C   UNL     1     -10.898   9.242  67.863  1.00  0.00    -0.181 C  
BRANCH  11  12
HETATM   12  C   UNL     1     -10.889  10.682  67.628  1.00  0.00    -0.346 C  
HETATM   13  C   UNL     1     -10.043  11.168  66.698  1.00  0.00    -0.256 C  
HETATM   14  C   UNL     1      -9.880  12.630  66.381  1.00  0.00    -0.263 C  
HETATM   15  C   UNL     1     -10.775  13.596  67.170  1.00  0.00    -0.279 C  
HETATM   16  C   UNL     1     -11.628  12.957  68.221  1.00  0.00    -0.374 C  
HETATM   17  C   UNL     1     -11.664  11.632  68.420  1.00  0.00    -0.374 C  
ENDBRANCH  11  12
ENDBRANCH   8  10
ENDBRANCH   2   3
TORSDOF 3
ENDMDL
MODEL      125
REMARK 921   NORMALIZED FREE ENERGY PREDICTED BY IDOCK:   -3.31 KCAL/MOL
REMARK 922        TOTAL FREE ENERGY PREDICTED BY IDOCK:   -4.22 KCAL/MOL
REMARK 923 INTER-LIGAND FREE ENERGY PREDICTED BY IDOCK:   -3.84 KCAL/MOL
REMARK 924 INTRA-LIGAND FREE ENERGY PREDICTED BY IDOCK:   -0.38 KCAL/MOL
REMARK 927      BINDING AFFINITY PREDICTED BY RF-SCORE:    0.00 PKD
ROOT
HETATM    1  C   UNL     1     -11.980  11.032  68.780  1.00  0.00    -0.225 C  
HETATM    2  O   UNL     1     -11.552  10.593  67.495  1.00  0.00    -0.482 OA 
ENDROOT
BRANCH   2   3
HETATM    3  C   UNL     1     -10.259  10.938  67.134  1.00  0.00    -0.210 C  
HETATM    4  C   UNL     1      -9.798  10.526  65.952  1.00  0.00    -0.291 C  
HETATM    5  C   UNL     1      -8.409  10.710  65.532  1.00  0.00    -0.158 C  
HETATM    6  O   UNL     1      -7.559  11.276  66.411  1.00  0.00    -0.137 OA 
HETATM    7  O   UNL     1      -8.038  10.309  64.436  1.00  0.00    -0.163 OA 
HETATM    8  C   UNL     1      -7.982  11.988  67.586  1.00  0.00    -0.150 C  
HETATM    9  C   UNL     1      -9.383  11.644  68.115  1.00  0.00    -0.188 C  
BRANCH   8  10
HETATM   10  C   UNL     1      -7.788  13.478  67.415  1.00  0.00    -0.157 C  
HETATM   11  C   UNL     1      -8.455  14.460  68.045  1.00  0.00    -0.164 C  
BRANCH  11  12
HETATM   12  C   UNL     1      -8.268  15.881  67.773  1.00  0.00    -0.157 C  
HETATM   13  C   UNL     1      -8.033  16.259  66.500  1.00  0.00    -0.326 C  
HETATM   14  C   UNL     1      -7.768  17.676  66.070  1.00  0.00    -0.228 C  
HETATM   15  C   UNL     1      -7.802  18.736  67.181  1.00  0.00    -0.245 C  
HETATM   16  C   UNL     1      -8.006  18.200  68.565  1.00  0.00    -0.312 C  
HETATM   17  C   UNL     1      -8.210  16.900  68.817  1.00  0.00    -0.244 C  
ENDBRANCH  11  12
ENDBRANCH   8  10
ENDBRANCH   2   3
TORSDOF 3
ENDMDL
MODEL      126
REMARK 921   NORMALIZED FREE ENERGY PREDICTED BY IDOCK:   -3.29 KCAL/MOL
REMARK 922        TOTAL FREE ENERGY PREDICTED BY IDOCK:   -4.19 KCAL/MOL
REMARK 923 INTER-LIGAND FREE ENERGY PREDICTED BY IDOCK:   -3.87 KCAL/MOL
REMARK 924 INTRA-LIGAND FREE ENERGY PREDICTED BY IDOCK:   -0.33 KCAL/MOL
REMARK 927      BINDING AFFINITY PREDICTED BY RF-SCORE:    0.00 PKD
ROOT
HETATM    1  C   UNL     1      -7.703  11.254  65.947  1.00  0.00     0.143 C  
HETATM    2  O   UNL     1      -8.125  11.732  67.220  1.00  0.00    -0.148 OA 
ENDROOT
BRANCH   2   3
HETATM    3  C   UNL     1      -8.686  12.999  67.239  1.00  0.00    -0.209 C  
HETATM    4  C   UNL     1      -9.165  13.499  66.098  1.00  0.00     0.006 C  
HETATM    5  C   UNL     1      -9.647  14.874  65.972  1.00  0.00    -0.313 C  
HETATM    6  O   UNL     1      -9.547  15.673  67.052  1.00  0.00    -0.217 OA 
HETATM    7  O   UNL     1     -10.074  15.282  64.900  1.00  0.00    -0.286 OA 
HETATM    8  C   UNL     1      -9.303  15.190  68.384  1.00  0.00    -0.197 C  
HETATM    9  C   UNL     1      -8.628  13.813  68.489  1.00  0.00    -0.122 C  
BRANCH   8  10
HETATM   10  C   UNL     1     -10.554  15.276  69.230  1.00  0.00    -0.256 C  
HETATM   11  C   UNL     1     -10.633  15.213  70.569  1.00  0.00    -0.127 C  
BRANCH  11  12
HETATM   12  C   UNL     1     -11.885  15.226  71.317  1.00  0.00    -0.416 C  
HETATM   13  C   UNL     1     -11.851  15.618  72.607  1.00  0.00    -0.590 C  
HETATM   14  C   UNL     1     -13.045  15.633  73.522  1.00  0.00    -0.638 C  
HETATM   15  C   UNL     1     -14.378  15.194  72.899  1.00  0.00     0.483 C  
HETATM   16  C   UNL     1     -14.291  14.718  71.482  1.00  0.00    -0.592 C  
HETATM   17  C   UNL     1     -13.150  14.734  70.780  1.00  0.00    -0.389 C  
ENDBRANCH  11  12
ENDBRANCH   8  10
ENDBRANCH   2   3
TORSDOF 3
ENDMDL
MODEL      127
REMARK 921   NORMALIZED FREE ENERGY PREDICTED BY IDOCK:   -3.21 KCAL/MOL
REMARK 922        TOTAL FREE ENERGY PREDICTED BY IDOCK:   -4.10 KCAL/MOL
REMARK 923 INTER-LIGAND FREE ENERGY PREDICTED BY IDOCK:   -3.80 KCAL/MOL
REMARK 924 INTRA-LIGAND FREE ENERGY PREDICTED BY IDOCK:   -0.30 KCAL/MOL
REMARK 927      BINDING AFFINITY PREDICTED BY RF-SCORE:    0.00 PKD
ROOT
HETATM    1  C   UNL     1      -9.951   3.554  63.189  1.00  0.00    -0.146 C  
HETATM    2  O   UNL     1     -10.526   3.811  64.466  1.00  0.00    -0.225 OA 
ENDROOT
BRANCH   2   3
HETATM    3  C   UNL     1      -9.698   4.423  65.393  1.00  0.00    -0.197 C  
HETATM    4  C   UNL     1      -8.655   5.125  64.949  1.00  0.00    -0.151 C  
HETATM    5  C   UNL     1      -7.639   5.691  65.836  1.00  0.00    -0.086 C  
HETATM    6  O   UNL     1      -7.749   5.437  67.154  1.00  0.00    -0.094 OA 
HETATM    7  O   UNL     1      -6.700   6.325  65.373  1.00  0.00    -0.045 OA 
HETATM    8  C   UNL     1      -8.944   4.930  67.774  1.00  0.00    -0.109 C  
HETATM    9  C   UNL     1      -9.916   4.179  66.850  1.00  0.00    -0.127 C  
BRANCH   8  10
HETATM   10  C   UNL     1      -9.638   6.009  68.574  1.00  0.00    -0.134 C  
HETATM   11  C   UNL     1     -10.199   5.883  69.788  1.00  0.00    -0.281 C  
BRANCH  11  12
HETATM   12  C   UNL     1     -10.922   6.951  70.471  1.00  0.00    -0.313 C  
HETATM   13  C   UNL     1     -10.265   8.102  70.723  1.00  0.00    -0.215 C  
HETATM   14  C   UNL     1     -10.855   9.271  71.464  1.00  0.00    -0.442 C  
HETATM   15  C   UNL     1     -12.312   9.114  71.922  1.00  0.00    -0.455 C  
HETATM   16  C   UNL     1     -12.924   7.775  71.649  1.00  0.00    -0.374 C  
HETATM   17  C   UNL     1     -12.276   6.802  70.994  1.00  0.00    -0.405 C  
ENDBRANCH  11  12
ENDBRANCH   8  10
ENDBRANCH   2   3
TORSDOF 3
ENDMDL
MODEL      128
REMARK 921   NORMALIZED FREE ENERGY PREDICTED BY IDOCK:   -3.15 KCAL/MOL
REMARK 922        TOTAL FREE ENERGY PREDICTED BY IDOCK:   -4.03 KCAL/MOL
REMARK 923 INTER-LIGAND FREE ENERGY PREDICTED BY IDOCK:   -3.58 KCAL/MOL
REMARK 924 INTRA-LIGAND FREE ENERGY PREDICTED BY IDOCK:   -0.46 KCAL/MOL
REMARK 927      BINDING AFFINITY PREDICTED BY RF-SCORE:    0.00 PKD
ROOT
HETATM    1  C   UNL     1     -10.901  11.589  66.598  1.00  0.00    -0.287 C  
HETATM    2  O   UNL     1     -11.146  12.690  67.467  1.00  0.00    -0.249 OA 
ENDROOT
BRANCH   2   3
HETATM    3  C   UNL     1     -10.025  13.288  68.020  1.00  0.00    -0.233 C  
HETATM    4  C   UNL     1      -8.874  12.614  68.010  1.00  0.00    -0.195 C  
HETATM    5  C   UNL     1      -7.668  13.087  68.689  1.00  0.00    -0.069 C  
HETATM    6  O   UNL     1      -7.756  14.230  69.396  1.00  0.00    -0.020 OA 
HETATM    7  O   UNL     1      -6.639  12.426  68.649  1.00  0.00    -0.067 OA 
HETATM    8  C   UNL     1      -8.840  15.166  69.271  1.00  0.00    -0.207 C  
HETATM    9  C   UNL     1     -10.158  14.601  68.719  1.00  0.00    -0.235 C  
BRANCH   8  10
HETATM   10  C   UNL     1      -8.399  16.408  68.529  1.00  0.00    -0.202 C  
HETATM   11  C   UNL     1      -8.129  16.516  67.218  1.00  0.00    -0.193 C  
BRANCH  11  12
HETATM   12  C   UNL     1      -7.633  17.731  66.581  1.00  0.00    -0.271 C  
HETATM   13  C   UNL     1      -8.343  18.867  66.740  1.00  0.00    -0.289 C  
HETATM   14  C   UNL     1      -7.990  20.184  66.103  1.00  0.00    -0.256 C  
HETATM   15  C   UNL     1      -6.715  20.201  65.248  1.00  0.00    -0.337 C  
HETATM   16  C   UNL     1      -6.041  18.874  65.086  1.00  0.00    -0.317 C  
HETATM   17  C   UNL     1      -6.474  17.761  65.694  1.00  0.00    -0.147 C  
ENDBRANCH  11  12
ENDBRANCH   8  10
ENDBRANCH   2   3
TORSDOF 3
ENDMDL
MODEL      129
REMARK 921   NORMALIZED FREE ENERGY PREDICTED BY IDOCK:   -3.06 KCAL/MOL
REMARK 922        TOTAL FREE ENERGY PREDICTED BY IDOCK:   -3.93 KCAL/MOL
REMARK 923 INTER-LIGAND FREE ENERGY PREDICTED BY IDOCK:   -3.62 KCAL/MOL
REMARK 924 INTRA-LIGAND FREE ENERGY PREDICTED BY IDOCK:   -0.30 KCAL/MOL
REMARK 927      BINDING AFFINITY PREDICTED BY RF-SCORE:    0.00 PKD
ROOT
HETATM    1  C   UNL     1      -5.978  20.518  67.382  1.00  0.00    -0.207 C  
HETATM    2  O   UNL     1      -7.086  19.640  67.554  1.00  0.00    -0.215 OA 
ENDROOT
BRANCH   2   3
HETATM    3  C   UNL     1      -6.795  18.390  68.077  1.00  0.00    -0.217 C  
HETATM    4  C   UNL     1      -6.210  18.321  69.273  1.00  0.00    -0.255 C  
HETATM    5  C   UNL     1      -5.732  17.067  69.855  1.00  0.00    -0.222 C  
HETATM    6  O   UNL     1      -5.848  15.949  69.112  1.00  0.00    -0.112 OA 
HETATM    7  O   UNL     1      -5.199  17.062  70.957  1.00  0.00    -0.231 OA 
HETATM    8  C   UNL     1      -6.681  15.848  67.945  1.00  0.00    -0.146 C  
HETATM    9  C   UNL     1      -7.024  17.172  67.244  1.00  0.00    -0.196 C  
BRANCH   8  10
HETATM   10  C   UNL     1      -7.913  15.019  68.231  1.00  0.00    -0.128 C  
HETATM   11  C   UNL     1      -8.266  13.862  67.644  1.00  0.00    -0.181 C  
BRANCH  11  12
HETATM   12  C   UNL     1      -9.512  13.153  67.915  1.00  0.00    -0.218 C  
HETATM   13  C   UNL     1     -10.329  13.648  68.867  1.00  0.00    -0.127 C  
HETATM   14  C   UNL     1     -11.619  13.002  69.297  1.00  0.00    -0.367 C  
HETATM   15  C   UNL     1     -12.007  11.712  68.561  1.00  0.00    -0.284 C  
HETATM   16  C   UNL     1     -10.998  11.217  67.571  1.00  0.00    -0.319 C  
HETATM   17  C   UNL     1      -9.867  11.881  67.294  1.00  0.00    -0.197 C  
ENDBRANCH  11  12
ENDBRANCH   8  10
ENDBRANCH   2   3
TORSDOF 3
ENDMDL
MODEL      130
REMARK 921   NORMALIZED FREE ENERGY PREDICTED BY IDOCK:   -3.05 KCAL/MOL
REMARK 922        TOTAL FREE ENERGY PREDICTED BY IDOCK:   -3.92 KCAL/MOL
REMARK 923 INTER-LIGAND FREE ENERGY PREDICTED BY IDOCK:   -3.48 KCAL/MOL
REMARK 924 INTRA-LIGAND FREE ENERGY PREDICTED BY IDOCK:   -0.44 KCAL/MOL
REMARK 927      BINDING AFFINITY PREDICTED BY RF-SCORE:    0.00 PKD
ROOT
HETATM    1  C   UNL     1      -6.535  12.457  67.250  1.00  0.00    -0.140 C  
HETATM    2  O   UNL     1      -6.774  11.416  68.192  1.00  0.00    -0.057 OA 
ENDROOT
BRANCH   2   3
HETATM    3  C   UNL     1      -7.931  10.677  68.000  1.00  0.00    -0.107 C  
HETATM    4  C   UNL     1      -7.969   9.807  66.989  1.00  0.00    -0.105 C  
HETATM    5  C   UNL     1      -9.181   9.081  66.609  1.00  0.00    -0.167 C  
HETATM    6  O   UNL     1     -10.312   9.355  67.287  1.00  0.00    -0.228 OA 
HETATM    7  O   UNL     1      -9.159   8.296  65.671  1.00  0.00    -0.156 OA 
HETATM    8  C   UNL     1     -10.342  10.058  68.541  1.00  0.00    -0.193 C  
HETATM    9  C   UNL     1      -9.133  10.959  68.838  1.00  0.00    -0.151 C  
BRANCH   8  10
HETATM   10  C   UNL     1     -10.644   9.114  69.684  1.00  0.00    -0.237 C  
HETATM   11  C   UNL     1      -9.792   8.257  70.272  1.00  0.00    -0.186 C  
BRANCH  11  12
HETATM   12  C   UNL     1     -10.172   7.317  71.322  1.00  0.00    -0.198 C  
HETATM   13  C   UNL     1     -10.157   7.751  72.598  1.00  0.00    -0.320 C  
HETATM   14  C   UNL     1     -10.470   6.890  73.792  1.00  0.00    -0.390 C  
HETATM   15  C   UNL     1     -10.854   5.434  73.491  1.00  0.00    -0.342 C  
HETATM   16  C   UNL     1     -10.775   5.041  72.048  1.00  0.00    -0.205 C  
HETATM   17  C   UNL     1     -10.458   5.907  71.076  1.00  0.00    -0.296 C  
ENDBRANCH  11  12
ENDBRANCH   8  10
ENDBRANCH   2   3
TORSDOF 3
ENDMDL
MODEL      131
REMARK 921   NORMALIZED FREE ENERGY PREDICTED BY IDOCK:   -3.03 KCAL/MOL
REMARK 922        TOTAL FREE ENERGY PREDICTED BY IDOCK:   -3.90 KCAL/MOL
REMARK 923 INTER-LIGAND FREE ENERGY PREDICTED BY IDOCK:   -3.45 KCAL/MOL
REMARK 924 INTRA-LIGAND FREE ENERGY PREDICTED BY IDOCK:   -0.45 KCAL/MOL
REMARK 927      BINDING AFFINITY PREDICTED BY RF-SCORE:    0.00 PKD
ROOT
HETATM    1  C   UNL     1     -10.314  13.394  67.528  1.00  0.00    -0.226 C  
HETATM    2  O   UNL     1     -10.403  12.676  66.302  1.00  0.00    -0.245 OA 
ENDROOT
BRANCH   2   3
HETATM    3  C   UNL     1      -9.628  11.531  66.210  1.00  0.00    -0.218 C  
HETATM    4  C   UNL     1      -8.301  11.656  66.249  1.00  0.00    -0.027 C  
HETATM    5  C   UNL     1      -7.388  10.537  66.019  1.00  0.00    -0.137 C  
HETATM    6  O   UNL     1      -7.928   9.344  65.703  1.00  0.00    -0.101 OA 
HETATM    7  O   UNL     1      -6.177  10.710  66.064  1.00  0.00    -0.111 OA 
HETATM    8  C   UNL     1      -9.318   9.022  65.886  1.00  0.00    -0.242 C  
HETATM    9  C   UNL     1     -10.284  10.216  65.945  1.00  0.00    -0.281 C  
BRANCH   8  10
HETATM   10  C   UNL     1      -9.505   8.079  67.053  1.00  0.00    -0.223 C  
HETATM   11  C   UNL     1      -9.962   8.388  68.279  1.00  0.00    -0.214 C  
BRANCH  11  12
HETATM   12  C   UNL     1     -10.045   7.439  69.384  1.00  0.00    -0.185 C  
HETATM   13  C   UNL     1      -9.952   6.124  69.100  1.00  0.00    -0.190 C  
HETATM   14  C   UNL     1     -10.073   5.025  70.121  1.00  0.00    -0.338 C  
HETATM   15  C   UNL     1     -10.288   5.473  71.574  1.00  0.00    -0.282 C  
HETATM   16  C   UNL     1     -10.441   6.950  71.767  1.00  0.00    -0.224 C  
HETATM   17  C   UNL     1     -10.334   7.829  70.761  1.00  0.00    -0.206 C  
ENDBRANCH  11  12
ENDBRANCH   8  10
ENDBRANCH   2   3
TORSDOF 3
ENDMDL
MODEL      132
REMARK 921   NORMALIZED FREE ENERGY PREDICTED BY IDOCK:   -3.02 KCAL/MOL
REMARK 922        TOTAL FREE ENERGY PREDICTED BY IDOCK:   -3.88 KCAL/MOL
REMARK 923 INTER-LIGAND FREE ENERGY PREDICTED BY IDOCK:   -3.45 KCAL/MOL
REMARK 924 INTRA-LIGAND FREE ENERGY PREDICTED BY IDOCK:   -0.43 KCAL/MOL
REMARK 927      BINDING AFFINITY PREDICTED BY RF-SCORE:    0.00 PKD
ROOT
HETATM    1  C   UNL     1      -6.633   4.595  73.113  1.00  0.00    -0.052 C  
HETATM    2  O   UNL     1      -7.042   5.797  72.470  1.00  0.00    -0.081 OA 
ENDROOT
BRANCH   2   3
HETATM    3  C   UNL     1      -8.284   5.767  71.857  1.00  0.00    -0.119 C  
HETATM    4  C   UNL     1      -9.373   5.880  72.619  1.00  0.00    -0.146 C  
HETATM    5  C   UNL     1     -10.730   5.718  72.099  1.00  0.00    -0.231 C  
HETATM    6  O   UNL     1     -10.866   5.389  70.800  1.00  0.00    -0.222 OA 
HETATM    7  O   UNL     1     -11.694   5.830  72.845  1.00  0.00    -0.220 OA 
HETATM    8  C   UNL     1      -9.808   5.497  69.832  1.00  0.00    -0.194 C  
HETATM    9  C   UNL     1      -8.377   5.484  70.394  1.00  0.00    -0.111 C  
BRANCH   8  10
HETATM   10  C   UNL     1     -10.043   6.665  68.901  1.00  0.00    -0.178 C  
HETATM   11  C   UNL     1      -9.715   7.950  69.114  1.00  0.00    -0.162 C  
BRANCH  11  12
HETATM   12  C   UNL     1     -10.042   9.041  68.202  1.00  0.00    -0.229 C  
HETATM   13  C   UNL     1     -10.689  10.114  68.701  1.00  0.00    -0.253 C  
HETATM   14  C   UNL     1     -11.141  11.290  67.879  1.00  0.00    -0.325 C  
HETATM   15  C   UNL     1     -10.801  11.239  66.383  1.00  0.00    -0.306 C  
HETATM   16  C   UNL     1     -10.141   9.976  65.924  1.00  0.00    -0.319 C  
HETATM   17  C   UNL     1      -9.809   8.985  66.762  1.00  0.00    -0.300 C  
ENDBRANCH  11  12
ENDBRANCH   8  10
ENDBRANCH   2   3
TORSDOF 3
ENDMDL
MODEL      133
REMARK 921   NORMALIZED FREE ENERGY PREDICTED BY IDOCK:   -3.02 KCAL/MOL
REMARK 922        TOTAL FREE ENERGY PREDICTED BY IDOCK:   -3.88 KCAL/MOL
REMARK 923 INTER-LIGAND FREE ENERGY PREDICTED BY IDOCK:   -3.45 KCAL/MOL
REMARK 924 INTRA-LIGAND FREE ENERGY PREDICTED BY IDOCK:   -0.43 KCAL/MOL
REMARK 927      BINDING AFFINITY PREDICTED BY RF-SCORE:    0.00 PKD
ROOT
HETATM    1  C   UNL     1     -10.910  12.522  65.485  1.00  0.00    -0.278 C  
HETATM    2  O   UNL     1     -10.107  11.362  65.675  1.00  0.00    -0.227 OA 
ENDROOT
BRANCH   2   3
HETATM    3  C   UNL     1     -10.044  10.870  66.969  1.00  0.00    -0.205 C  
HETATM    4  C   UNL     1     -11.043  11.155  67.807  1.00  0.00    -0.344 C  
HETATM    5  C   UNL     1     -11.012  10.811  69.228  1.00  0.00    -0.241 C  
HETATM    6  O   UNL     1      -9.896  10.228  69.706  1.00  0.00    -0.224 OA 
HETATM    7  O   UNL     1     -11.957  11.098  69.952  1.00  0.00    -0.302 OA 
HETATM    8  C   UNL     1      -8.881   9.641  68.874  1.00  0.00    -0.136 C  
HETATM    9  C   UNL     1      -8.818  10.152  67.426  1.00  0.00    -0.135 C  
BRANCH   8  10
HETATM   10  C   UNL     1      -8.931   8.131  68.943  1.00  0.00    -0.141 C  
HETATM   11  C   UNL     1      -9.082   7.278  67.916  1.00  0.00    -0.132 C  
BRANCH  11  12
HETATM   12  C   UNL     1      -9.199   5.831  68.064  1.00  0.00    -0.109 C  
HETATM   13  C   UNL     1      -9.110   5.070  66.955  1.00  0.00    -0.117 C  
HETATM   14  C   UNL     1      -9.265   3.573  66.938  1.00  0.00    -0.208 C  
HETATM   15  C   UNL     1      -9.511   2.904  68.298  1.00  0.00    -0.217 C  
HETATM   16  C   UNL     1      -9.656   3.847  69.453  1.00  0.00    -0.239 C  
HETATM   17  C   UNL     1      -9.517   5.174  69.328  1.00  0.00    -0.196 C  
ENDBRANCH  11  12
ENDBRANCH   8  10
ENDBRANCH   2   3
TORSDOF 3
ENDMDL
MODEL      134
REMARK 921   NORMALIZED FREE ENERGY PREDICTED BY IDOCK:   -3.02 KCAL/MOL
REMARK 922        TOTAL FREE ENERGY PREDICTED BY IDOCK:   -3.88 KCAL/MOL
REMARK 923 INTER-LIGAND FREE ENERGY PREDICTED BY IDOCK:   -3.45 KCAL/MOL
REMARK 924 INTRA-LIGAND FREE ENERGY PREDICTED BY IDOCK:   -0.42 KCAL/MOL
REMARK 927      BINDING AFFINITY PREDICTED BY RF-SCORE:    0.00 PKD
ROOT
HETATM    1  C   UNL     1      -8.407   4.675  72.958  1.00  0.00    -0.100 C  
HETATM    2  O   UNL     1      -9.320   5.744  73.182  1.00  0.00    -0.140 OA 
ENDROOT
BRANCH   2   3
HETATM    3  C   UNL     1      -9.748   6.425  72.053  1.00  0.00    -0.150 C  
HETATM    4  C   UNL     1      -9.259   7.644  71.822  1.00  0.00    -0.167 C  
HETATM    5  C   UNL     1      -9.745   8.506  70.744  1.00  0.00    -0.183 C  
HETATM    6  O   UNL     1     -10.768   8.053  69.995  1.00  0.00    -0.240 OA 
HETATM    7  O   UNL     1      -9.261   9.618  70.579  1.00  0.00    -0.249 OA 
HETATM    8  C   UNL     1     -11.197   6.680  69.973  1.00  0.00    -0.369 C  
HETATM    9  C   UNL     1     -10.827   5.838  71.204  1.00  0.00    -0.316 C  
BRANCH   8  10
HETATM   10  C   UNL     1     -10.790   6.008  68.680  1.00  0.00    -0.379 C  
HETATM   11  C   UNL     1      -9.995   4.934  68.541  1.00  0.00    -0.185 C  
BRANCH  11  12
HETATM   12  C   UNL     1      -9.582   4.383  67.255  1.00  0.00    -0.220 C  
HETATM   13  C   UNL     1      -8.474   3.615  67.219  1.00  0.00    -0.105 C  
HETATM   14  C   UNL     1      -7.892   3.022  65.965  1.00  0.00    -0.081 C  
HETATM   15  C   UNL     1      -8.656   3.311  64.664  1.00  0.00    -0.098 C  
HETATM   16  C   UNL     1      -9.832   4.226  64.808  1.00  0.00    -0.167 C  
HETATM   17  C   UNL     1     -10.235   4.709  65.991  1.00  0.00    -0.306 C  
ENDBRANCH  11  12
ENDBRANCH   8  10
ENDBRANCH   2   3
TORSDOF 3
ENDMDL
MODEL      135
REMARK 921   NORMALIZED FREE ENERGY PREDICTED BY IDOCK:   -3.01 KCAL/MOL
REMARK 922        TOTAL FREE ENERGY PREDICTED BY IDOCK:   -3.86 KCAL/MOL
REMARK 923 INTER-LIGAND FREE ENERGY PREDICTED BY IDOCK:   -3.54 KCAL/MOL
REMARK 924 INTRA-LIGAND FREE ENERGY PREDICTED BY IDOCK:   -0.32 KCAL/MOL
REMARK 927      BINDING AFFINITY PREDICTED BY RF-SCORE:    0.00 PKD
ROOT
HETATM    1  C   UNL     1     -10.337  18.039  68.648  1.00  0.00    -0.319 C  
HETATM    2  O   UNL     1     -10.824  16.811  68.117  1.00  0.00    -0.350 OA 
ENDROOT
BRANCH   2   3
HETATM    3  C   UNL     1      -9.906  15.775  68.041  1.00  0.00    -0.217 C  
HETATM    4  C   UNL     1      -8.672  15.984  68.501  1.00  0.00    -0.195 C  
HETATM    5  C   UNL     1      -7.588  15.015  68.342  1.00  0.00    -0.115 C  
HETATM    6  O   UNL     1      -7.853  13.889  67.651  1.00  0.00    -0.150 OA 
HETATM    7  O   UNL     1      -6.473  15.260  68.783  1.00  0.00    -0.094 OA 
HETATM    8  C   UNL     1      -9.181  13.435  67.341  1.00  0.00    -0.213 C  
HETATM    9  C   UNL     1     -10.278  14.511  67.339  1.00  0.00    -0.240 C  
BRANCH   8  10
HETATM   10  C   UNL     1      -9.557  12.241  68.190  1.00  0.00    -0.213 C  
HETATM   11  C   UNL     1      -8.800  11.161  68.449  1.00  0.00    -0.157 C  
BRANCH  11  12
HETATM   12  C   UNL     1      -9.257  10.007  69.216  1.00  0.00    -0.212 C  
HETATM   13  C   UNL     1      -8.562   9.662  70.319  1.00  0.00    -0.234 C  
HETATM   14  C   UNL     1      -8.874   8.470  71.181  1.00  0.00    -0.223 C  
HETATM   15  C   UNL     1     -10.089   7.631  70.759  1.00  0.00    -0.189 C  
HETATM   16  C   UNL     1     -10.747   8.063  69.485  1.00  0.00    -0.185 C  
HETATM   17  C   UNL     1     -10.353   9.141  68.793  1.00  0.00    -0.235 C  
ENDBRANCH  11  12
ENDBRANCH   8  10
ENDBRANCH   2   3
TORSDOF 3
ENDMDL
MODEL      136
REMARK 921   NORMALIZED FREE ENERGY PREDICTED BY IDOCK:   -2.97 KCAL/MOL
REMARK 922        TOTAL FREE ENERGY PREDICTED BY IDOCK:   -3.82 KCAL/MOL
REMARK 923 INTER-LIGAND FREE ENERGY PREDICTED BY IDOCK:   -3.52 KCAL/MOL
REMARK 924 INTRA-LIGAND FREE ENERGY PREDICTED BY IDOCK:   -0.30 KCAL/MOL
REMARK 927      BINDING AFFINITY PREDICTED BY RF-SCORE:    0.00 PKD
ROOT
HETATM    1  C   UNL     1      -5.354   3.492  68.169  1.00  0.00    -0.013 C  
HETATM    2  O   UNL     1      -6.738   3.588  68.492  1.00  0.00    -0.043 OA 
ENDROOT
BRANCH   2   3
HETATM    3  C   UNL     1      -7.390   4.725  68.044  1.00  0.00    -0.070 C  
HETATM    4  C   UNL     1      -7.860   4.739  66.796  1.00  0.00    -0.099 C  
HETATM    5  C   UNL     1      -8.435   5.932  66.175  1.00  0.00    -0.132 C  
HETATM    6  O   UNL     1      -8.435   7.072  66.892  1.00  0.00    -0.115 OA 
HETATM    7  O   UNL     1      -8.849   5.888  65.024  1.00  0.00    -0.075 OA 
HETATM    8  C   UNL     1      -8.206   7.124  68.310  1.00  0.00    -0.124 C  
HETATM    9  C   UNL     1      -7.438   5.938  68.914  1.00  0.00    -0.085 C  
BRANCH   8  10
HETATM   10  C   UNL     1      -9.492   7.408  69.055  1.00  0.00    -0.148 C  
HETATM   11  C   UNL     1      -9.797   8.517  69.751  1.00  0.00    -0.186 C  
BRANCH  11  12
HETATM   12  C   UNL     1     -11.030   8.692  70.511  1.00  0.00    -0.266 C  
HETATM   13  C   UNL     1     -11.694   7.587  70.908  1.00  0.00    -0.307 C  
HETATM   14  C   UNL     1     -13.003   7.604  71.649  1.00  0.00    -0.385 C  
HETATM   15  C   UNL     1     -13.573   8.991  71.982  1.00  0.00    -0.500 C  
HETATM   16  C   UNL     1     -12.790  10.146  71.439  1.00  0.00    -0.530 C  
HETATM   17  C   UNL     1     -11.640   9.993  70.768  1.00  0.00    -0.444 C  
ENDBRANCH  11  12
ENDBRANCH   8  10
ENDBRANCH   2   3
TORSDOF 3
ENDMDL
MODEL      137
REMARK 921   NORMALIZED FREE ENERGY PREDICTED BY IDOCK:   -2.95 KCAL/MOL
REMARK 922        TOTAL FREE ENERGY PREDICTED BY IDOCK:   -3.80 KCAL/MOL
REMARK 923 INTER-LIGAND FREE ENERGY PREDICTED BY IDOCK:   -3.43 KCAL/MOL
REMARK 924 INTRA-LIGAND FREE ENERGY PREDICTED BY IDOCK:   -0.37 KCAL/MOL
REMARK 927      BINDING AFFINITY PREDICTED BY RF-SCORE:    0.00 PKD
ROOT
HETATM    1  C   UNL     1      -9.741  10.113  63.228  1.00  0.00    -0.052 C  
HETATM    2  O   UNL     1      -8.888  10.676  64.219  1.00  0.00    -0.184 OA 
ENDROOT
BRANCH   2   3
HETATM    3  C   UNL     1      -9.514  11.412  65.212  1.00  0.00    -0.209 C  
HETATM    4  C   UNL     1      -9.888  10.785  66.329  1.00  0.00    -0.262 C  
HETATM    5  C   UNL     1     -10.679  11.429  67.377  1.00  0.00    -0.232 C  
HETATM    6  O   UNL     1     -11.085  12.696  67.165  1.00  0.00    -0.258 OA 
HETATM    7  O   UNL     1     -10.997  10.805  68.381  1.00  0.00    -0.210 OA 
HETATM    8  C   UNL     1     -10.538  13.551  66.147  1.00  0.00    -0.290 C  
HETATM    9  C   UNL     1      -9.865  12.842  64.961  1.00  0.00    -0.077 C  
BRANCH   8  10
HETATM   10  C   UNL     1      -9.648  14.614  66.753  1.00  0.00    -0.266 C  
HETATM   11  C   UNL     1      -8.699  15.329  66.127  1.00  0.00    -0.060 C  
BRANCH  11  12
HETATM   12  C   UNL     1      -7.823  16.287  66.794  1.00  0.00    -0.300 C  
HETATM   13  C   UNL     1      -7.299  15.944  67.988  1.00  0.00    -0.140 C  
HETATM   14  C   UNL     1      -6.425  16.842  68.821  1.00  0.00    -0.170 C  
HETATM   15  C   UNL     1      -6.110  18.221  68.224  1.00  0.00    -0.180 C  
HETATM   16  C   UNL     1      -6.795  18.523  66.926  1.00  0.00    -0.210 C  
HETATM   17  C   UNL     1      -7.574  17.635  66.293  1.00  0.00    -0.334 C  
ENDBRANCH  11  12
ENDBRANCH   8  10
ENDBRANCH   2   3
TORSDOF 3
ENDMDL
MODEL      138
REMARK 921   NORMALIZED FREE ENERGY PREDICTED BY IDOCK:   -2.92 KCAL/MOL
REMARK 922        TOTAL FREE ENERGY PREDICTED BY IDOCK:   -3.77 KCAL/MOL
REMARK 923 INTER-LIGAND FREE ENERGY PREDICTED BY IDOCK:   -3.37 KCAL/MOL
REMARK 924 INTRA-LIGAND FREE ENERGY PREDICTED BY IDOCK:   -0.39 KCAL/MOL
REMARK 927      BINDING AFFINITY PREDICTED BY RF-SCORE:    0.00 PKD
ROOT
HETATM    1  C   UNL     1     -11.733  14.668  64.692  1.00  0.00    -0.426 C  
HETATM    2  O   UNL     1     -11.233  15.933  65.112  1.00  0.00    -0.308 OA 
ENDROOT
BRANCH   2   3
HETATM    3  C   UNL     1     -10.419  15.923  66.234  1.00  0.00    -0.318 C  
HETATM    4  C   UNL     1     -10.992  16.008  67.435  1.00  0.00    -0.237 C  
HETATM    5  C   UNL     1     -10.227  16.149  68.674  1.00  0.00    -0.244 C  
HETATM    6  O   UNL     1      -8.887  16.248  68.573  1.00  0.00    -0.200 OA 
HETATM    7  O   UNL     1     -10.805  16.225  69.750  1.00  0.00    -0.318 OA 
HETATM    8  C   UNL     1      -8.147  15.911  67.387  1.00  0.00    -0.163 C  
HETATM    9  C   UNL     1      -8.936  15.945  66.069  1.00  0.00    -0.337 C  
BRANCH   8  10
HETATM   10  C   UNL     1      -7.397  14.611  67.569  1.00  0.00    -0.220 C  
HETATM   11  C   UNL     1      -7.867  13.473  68.108  1.00  0.00    -0.144 C  
BRANCH  11  12
HETATM   12  C   UNL     1      -7.062  12.276  68.323  1.00  0.00    -0.093 C  
HETATM   13  C   UNL     1      -6.787  11.496  67.258  1.00  0.00    -0.118 C  
HETATM   14  C   UNL     1      -6.017  10.205  67.327  1.00  0.00    -0.054 C  
HETATM   15  C   UNL     1      -5.505   9.798  68.716  1.00  0.00    -0.036 C  
HETATM   16  C   UNL     1      -5.922  10.700  69.837  1.00  0.00    -0.076 C  
HETATM   17  C   UNL     1      -6.634  11.818  69.641  1.00  0.00    -0.081 C  
ENDBRANCH  11  12
ENDBRANCH   8  10
ENDBRANCH   2   3
TORSDOF 3
ENDMDL
MODEL      139
REMARK 921   NORMALIZED FREE ENERGY PREDICTED BY IDOCK:   -2.84 KCAL/MOL
REMARK 922        TOTAL FREE ENERGY PREDICTED BY IDOCK:   -3.66 KCAL/MOL
REMARK 923 INTER-LIGAND FREE ENERGY PREDICTED BY IDOCK:   -3.26 KCAL/MOL
REMARK 924 INTRA-LIGAND FREE ENERGY PREDICTED BY IDOCK:   -0.40 KCAL/MOL
REMARK 927      BINDING AFFINITY PREDICTED BY RF-SCORE:    0.00 PKD
ROOT
HETATM    1  C   UNL     1      -5.303   4.798  66.798  1.00  0.00    -0.012 C  
HETATM    2  O   UNL     1      -6.498   4.043  66.626  1.00  0.00    -0.039 OA 
ENDROOT
BRANCH   2   3
HETATM    3  C   UNL     1      -7.667   4.775  66.497  1.00  0.00    -0.091 C  
HETATM    4  C   UNL     1      -8.751   4.164  66.018  1.00  0.00    -0.115 C  
HETATM    5  C   UNL     1      -9.993   4.871  65.707  1.00  0.00    -0.170 C  
HETATM    6  O   UNL     1     -10.008   6.208  65.868  1.00  0.00     0.101 OA 
HETATM    7  O   UNL     1     -10.957   4.259  65.267  1.00  0.00    -0.202 OA 
HETATM    8  C   UNL     1      -9.014   6.935  66.612  1.00  0.00    -0.145 C  
HETATM    9  C   UNL     1      -7.652   6.243  66.772  1.00  0.00    -0.099 C  
BRANCH   8  10
HETATM   10  C   UNL     1      -9.571   7.411  67.936  1.00  0.00    -0.157 C  
HETATM   11  C   UNL     1     -10.473   6.782  68.708  1.00  0.00    -0.231 C  
BRANCH  11  12
HETATM   12  C   UNL     1     -11.024   7.337  69.940  1.00  0.00    -0.262 C  
HETATM   13  C   UNL     1     -10.540   8.518  70.376  1.00  0.00    -0.242 C  
HETATM   14  C   UNL     1     -10.968   9.190  71.653  1.00  0.00    -0.445 C  
HETATM   15  C   UNL     1     -12.047   8.465  72.469  1.00  0.00    -0.403 C  
HETATM   16  C   UNL     1     -12.465   7.133  71.928  1.00  0.00    -0.341 C  
HETATM   17  C   UNL     1     -11.986   6.633  70.781  1.00  0.00    -0.412 C  
ENDBRANCH  11  12
ENDBRANCH   8  10
ENDBRANCH   2   3
TORSDOF 3
ENDMDL
MODEL      140
REMARK 921   NORMALIZED FREE ENERGY PREDICTED BY IDOCK:   -2.83 KCAL/MOL
REMARK 922        TOTAL FREE ENERGY PREDICTED BY IDOCK:   -3.66 KCAL/MOL
REMARK 923 INTER-LIGAND FREE ENERGY PREDICTED BY IDOCK:   -3.29 KCAL/MOL
REMARK 924 INTRA-LIGAND FREE ENERGY PREDICTED BY IDOCK:   -0.38 KCAL/MOL
REMARK 927      BINDING AFFINITY PREDICTED BY RF-SCORE:    0.00 PKD
ROOT
HETATM    1  C   UNL     1      -8.059   4.261  62.778  1.00  0.00    -0.077 C  
HETATM    2  O   UNL     1      -7.368   4.075  64.009  1.00  0.00    -0.053 OA 
ENDROOT
BRANCH   2   3
HETATM    3  C   UNL     1      -8.135   4.178  65.159  1.00  0.00    -0.101 C  
HETATM    4  C   UNL     1      -7.665   3.643  66.287  1.00  0.00    -0.088 C  
HETATM    5  C   UNL     1      -8.449   3.569  67.519  1.00  0.00    -0.096 C  
HETATM    6  O   UNL     1      -9.719   4.017  67.481  1.00  0.00    -0.184 OA 
HETATM    7  O   UNL     1      -7.969   3.065  68.526  1.00  0.00    -0.057 OA 
HETATM    8  C   UNL     1     -10.244   4.841  66.425  1.00  0.00    -0.275 C  
HETATM    9  C   UNL     1      -9.506   4.765  65.080  1.00  0.00    -0.087 C  
BRANCH   8  10
HETATM   10  C   UNL     1     -10.430   6.267  66.893  1.00  0.00    -0.337 C  
HETATM   11  C   UNL     1     -10.180   6.756  68.120  1.00  0.00    -0.198 C  
BRANCH  11  12
HETATM   12  C   UNL     1     -10.455   8.130  68.524  1.00  0.00    -0.199 C  
HETATM   13  C   UNL     1     -10.621   9.056  67.558  1.00  0.00    -0.306 C  
HETATM   14  C   UNL     1     -10.857  10.520  67.815  1.00  0.00    -0.347 C  
HETATM   15  C   UNL     1     -10.934  10.942  69.290  1.00  0.00    -0.295 C  
HETATM   16  C   UNL     1     -10.671   9.848  70.278  1.00  0.00    -0.367 C  
HETATM   17  C   UNL     1     -10.450   8.578  69.914  1.00  0.00    -0.219 C  
ENDBRANCH  11  12
ENDBRANCH   8  10
ENDBRANCH   2   3
TORSDOF 3
ENDMDL
MODEL      141
REMARK 921   NORMALIZED FREE ENERGY PREDICTED BY IDOCK:   -2.82 KCAL/MOL
REMARK 922        TOTAL FREE ENERGY PREDICTED BY IDOCK:   -3.64 KCAL/MOL
REMARK 923 INTER-LIGAND FREE ENERGY PREDICTED BY IDOCK:   -3.33 KCAL/MOL
REMARK 924 INTRA-LIGAND FREE ENERGY PREDICTED BY IDOCK:   -0.31 KCAL/MOL
REMARK 927      BINDING AFFINITY PREDICTED BY RF-SCORE:    0.00 PKD
ROOT
HETATM    1  C   UNL     1      -7.824   9.652  70.313  1.00  0.00    -0.178 C  
HETATM    2  O   UNL     1      -8.755   9.338  69.283  1.00  0.00    -0.132 OA 
ENDROOT
BRANCH   2   3
HETATM    3  C   UNL     1      -9.391   8.111  69.392  1.00  0.00    -0.155 C  
HETATM    4  C   UNL     1     -10.613   8.073  69.925  1.00  0.00    -0.242 C  
HETATM    5  C   UNL     1     -11.315   6.824  70.218  1.00  0.00    -0.352 C  
HETATM    6  O   UNL     1     -10.663   5.669  69.982  1.00  0.00    -0.304 OA 
HETATM    7  O   UNL     1     -12.436   6.848  70.710  1.00  0.00    -0.356 OA 
HETATM    8  C   UNL     1      -9.473   5.573  69.180  1.00  0.00    -0.129 C  
HETATM    9  C   UNL     1      -8.652   6.864  69.034  1.00  0.00    -0.128 C  
BRANCH   8  10
HETATM   10  C   UNL     1      -9.774   4.935  67.842  1.00  0.00    -0.202 C  
HETATM   11  C   UNL     1      -9.089   3.945  67.244  1.00  0.00    -0.177 C  
BRANCH  11  12
HETATM   12  C   UNL     1      -9.390   3.429  65.914  1.00  0.00    -0.145 C  
HETATM   13  C   UNL     1     -10.292   4.094  65.164  1.00  0.00    -0.198 C  
HETATM   14  C   UNL     1     -10.747   3.657  63.797  1.00  0.00    -0.271 C  
HETATM   15  C   UNL     1     -10.098   2.380  63.246  1.00  0.00    -0.125 C  
HETATM   16  C   UNL     1      -9.161   1.686  64.186  1.00  0.00    -0.118 C  
HETATM   17  C   UNL     1      -8.856   2.173  65.396  1.00  0.00    -0.123 C  
ENDBRANCH  11  12
ENDBRANCH   8  10
ENDBRANCH   2   3
TORSDOF 3
ENDMDL
MODEL      142
REMARK 921   NORMALIZED FREE ENERGY PREDICTED BY IDOCK:   -2.75 KCAL/MOL
REMARK 922        TOTAL FREE ENERGY PREDICTED BY IDOCK:   -3.56 KCAL/MOL
REMARK 923 INTER-LIGAND FREE ENERGY PREDICTED BY IDOCK:   -3.20 KCAL/MOL
REMARK 924 INTRA-LIGAND FREE ENERGY PREDICTED BY IDOCK:   -0.36 KCAL/MOL
REMARK 927      BINDING AFFINITY PREDICTED BY RF-SCORE:    0.00 PKD
ROOT
HETATM    1  C   UNL     1      -9.564   3.651  64.138  1.00  0.00    -0.160 C  
HETATM    2  O   UNL     1      -9.741   4.134  65.466  1.00  0.00    -0.174 OA 
ENDROOT
BRANCH   2   3
HETATM    3  C   UNL     1      -9.035   5.280  65.796  1.00  0.00    -0.154 C  
HETATM    4  C   UNL     1      -8.061   5.684  64.978  1.00  0.00    -0.122 C  
HETATM    5  C   UNL     1      -7.162   6.792  65.297  1.00  0.00    -0.073 C  
HETATM    6  O   UNL     1      -7.303   7.386  66.498  1.00  0.00    -0.080 OA 
HETATM    7  O   UNL     1      -6.283   7.119  64.510  1.00  0.00    -0.036 OA 
HETATM    8  C   UNL     1      -8.458   7.223  67.340  1.00  0.00    -0.119 C  
HETATM    9  C   UNL     1      -9.290   5.953  67.103  1.00  0.00    -0.118 C  
BRANCH   8  10
HETATM   10  C   UNL     1      -9.310   8.472  67.336  1.00  0.00    -0.178 C  
HETATM   11  C   UNL     1      -8.940   9.705  66.950  1.00  0.00    -0.151 C  
BRANCH  11  12
HETATM   12  C   UNL     1      -9.794  10.883  67.045  1.00  0.00    -0.214 C  
HETATM   13  C   UNL     1      -9.409  12.001  66.397  1.00  0.00    -0.232 C  
HETATM   14  C   UNL     1     -10.152  13.308  66.443  1.00  0.00    -0.290 C  
HETATM   15  C   UNL     1     -11.445  13.321  67.272  1.00  0.00    -0.378 C  
HETATM   16  C   UNL     1     -11.744  12.048  68.002  1.00  0.00    -0.398 C  
HETATM   17  C   UNL     1     -10.981  10.952  67.893  1.00  0.00    -0.325 C  
ENDBRANCH  11  12
ENDBRANCH   8  10
ENDBRANCH   2   3
TORSDOF 3
ENDMDL
MODEL      143
REMARK 921   NORMALIZED FREE ENERGY PREDICTED BY IDOCK:   -2.73 KCAL/MOL
REMARK 922        TOTAL FREE ENERGY PREDICTED BY IDOCK:   -3.54 KCAL/MOL
REMARK 923 INTER-LIGAND FREE ENERGY PREDICTED BY IDOCK:   -3.12 KCAL/MOL
REMARK 924 INTRA-LIGAND FREE ENERGY PREDICTED BY IDOCK:   -0.42 KCAL/MOL
REMARK 927      BINDING AFFINITY PREDICTED BY RF-SCORE:    0.00 PKD
ROOT
HETATM    1  C   UNL     1      -7.899  13.732  67.149  1.00  0.00    -0.008 C  
HETATM    2  O   UNL     1      -7.590  12.351  66.994  1.00  0.00    -0.132 OA 
ENDROOT
BRANCH   2   3
HETATM    3  C   UNL     1      -7.118  11.703  68.124  1.00  0.00    -0.078 C  
HETATM    4  C   UNL     1      -6.668  12.442  69.139  1.00  0.00    -0.090 C  
HETATM    5  C   UNL     1      -6.019  11.866  70.317  1.00  0.00    -0.150 C  
HETATM    6  O   UNL     1      -5.827  10.533  70.336  1.00  0.00    -0.076 OA 
HETATM    7  O   UNL     1      -5.623  12.593  71.219  1.00  0.00    -0.353 OA 
HETATM    8  C   UNL     1      -6.488   9.618  69.446  1.00  0.00    -0.044 C  
HETATM    9  C   UNL     1      -7.006  10.214  68.128  1.00  0.00    -0.075 C  
BRANCH   8  10
HETATM   10  C   UNL     1      -7.556   8.832  70.174  1.00  0.00    -0.072 C  
HETATM   11  C   UNL     1      -8.871   8.806  69.900  1.00  0.00    -0.143 C  
BRANCH  11  12
HETATM   12  C   UNL     1      -9.858   8.083  70.695  1.00  0.00    -0.192 C  
HETATM   13  C   UNL     1     -10.787   7.354  70.043  1.00  0.00    -0.266 C  
HETATM   14  C   UNL     1     -11.900   6.598  70.717  1.00  0.00    -0.441 C  
HETATM   15  C   UNL     1     -11.929   6.666  72.251  1.00  0.00    -0.259 C  
HETATM   16  C   UNL     1     -10.894   7.555  72.868  1.00  0.00    -0.425 C  
HETATM   17  C   UNL     1      -9.965   8.196  72.146  1.00  0.00    -0.315 C  
ENDBRANCH  11  12
ENDBRANCH   8  10
ENDBRANCH   2   3
TORSDOF 3
ENDMDL
MODEL      144
REMARK 921   NORMALIZED FREE ENERGY PREDICTED BY IDOCK:   -2.63 KCAL/MOL
REMARK 922        TOTAL FREE ENERGY PREDICTED BY IDOCK:   -3.43 KCAL/MOL
REMARK 923 INTER-LIGAND FREE ENERGY PREDICTED BY IDOCK:   -2.99 KCAL/MOL
REMARK 924 INTRA-LIGAND FREE ENERGY PREDICTED BY IDOCK:   -0.44 KCAL/MOL
REMARK 927      BINDING AFFINITY PREDICTED BY RF-SCORE:    0.00 PKD
ROOT
HETATM    1  C   UNL     1      -5.660  10.150  67.049  1.00  0.00    -0.045 C  
HETATM    2  O   UNL     1      -6.194   9.491  65.906  1.00  0.00    -0.065 OA 
ENDROOT
BRANCH   2   3
HETATM    3  C   UNL     1      -7.328   8.724  66.121  1.00  0.00    -0.086 C  
HETATM    4  C   UNL     1      -7.263   7.413  65.883  1.00  0.00    -0.066 C  
HETATM    5  C   UNL     1      -8.431   6.534  65.939  1.00  0.00    -0.147 C  
HETATM    6  O   UNL     1      -9.627   7.100  66.191  1.00  0.00    -0.088 OA 
HETATM    7  O   UNL     1      -8.314   5.338  65.710  1.00  0.00    -0.115 OA 
HETATM    8  C   UNL     1      -9.788   8.430  66.715  1.00  0.00    -0.259 C  
HETATM    9  C   UNL     1      -8.612   9.392  66.485  1.00  0.00    -0.142 C  
BRANCH   8  10
HETATM   10  C   UNL     1     -10.218   8.392  68.165  1.00  0.00    -0.253 C  
HETATM   11  C   UNL     1      -9.560   7.823  69.189  1.00  0.00    -0.155 C  
BRANCH  11  12
HETATM   12  C   UNL     1     -10.072   7.757  70.554  1.00  0.00    -0.192 C  
HETATM   13  C   UNL     1     -11.400   7.897  70.742  1.00  0.00    -0.283 C  
HETATM   14  C   UNL     1     -12.071   7.907  72.089  1.00  0.00    -0.371 C  
HETATM   15  C   UNL     1     -11.151   7.713  73.302  1.00  0.00    -0.254 C  
HETATM   16  C   UNL     1      -9.689   7.632  72.985  1.00  0.00    -0.301 C  
HETATM   17  C   UNL     1      -9.216   7.660  71.732  1.00  0.00    -0.167 C  
ENDBRANCH  11  12
ENDBRANCH   8  10
ENDBRANCH   2   3
TORSDOF 3
ENDMDL
MODEL      145
REMARK 921   NORMALIZED FREE ENERGY PREDICTED BY IDOCK:   -2.60 KCAL/MOL
REMARK 922        TOTAL FREE ENERGY PREDICTED BY IDOCK:   -3.39 KCAL/MOL
REMARK 923 INTER-LIGAND FREE ENERGY PREDICTED BY IDOCK:   -3.06 KCAL/MOL
REMARK 924 INTRA-LIGAND FREE ENERGY PREDICTED BY IDOCK:   -0.33 KCAL/MOL
REMARK 927      BINDING AFFINITY PREDICTED BY RF-SCORE:    0.00 PKD
ROOT
HETATM    1  C   UNL     1      -5.953  16.502  69.035  1.00  0.00    -0.150 C  
HETATM    2  O   UNL     1      -6.783  15.410  68.652  1.00  0.00    -0.099 OA 
ENDROOT
BRANCH   2   3
HETATM    3  C   UNL     1      -6.554  14.212  69.310  1.00  0.00    -0.120 C  
HETATM    4  C   UNL     1      -6.057  14.251  70.547  1.00  0.00    -0.180 C  
HETATM    5  C   UNL     1      -5.645  13.053  71.278  1.00  0.00    -0.071 C  
HETATM    6  O   UNL     1      -5.729  11.871  70.638  1.00  0.00    -0.180 OA 
HETATM    7  O   UNL     1      -5.193  13.148  72.411  1.00  0.00    -0.352 OA 
HETATM    8  C   UNL     1      -6.479  11.668  69.428  1.00  0.00    -0.113 C  
HETATM    9  C   UNL     1      -6.747  12.923  68.583  1.00  0.00    -0.095 C  
BRANCH   8  10
HETATM   10  C   UNL     1      -7.745  10.885  69.701  1.00  0.00     0.053 C  
HETATM   11  C   UNL     1      -7.856   9.744  70.401  1.00  0.00    -0.144 C  
BRANCH  11  12
HETATM   12  C   UNL     1      -9.101   8.999  70.560  1.00  0.00    -0.259 C  
HETATM   13  C   UNL     1     -10.260   9.687  70.528  1.00  0.00    -0.351 C  
HETATM   14  C   UNL     1     -11.618   9.071  70.731  1.00  0.00    -0.313 C  
HETATM   15  C   UNL     1     -11.643   7.553  70.958  1.00  0.00    -0.305 C  
HETATM   16  C   UNL     1     -10.298   6.900  71.040  1.00  0.00    -0.224 C  
HETATM   17  C   UNL     1      -9.153   7.572  70.863  1.00  0.00    -0.153 C  
ENDBRANCH  11  12
ENDBRANCH   8  10
ENDBRANCH   2   3
TORSDOF 3
ENDMDL
MODEL      146
REMARK 921   NORMALIZED FREE ENERGY PREDICTED BY IDOCK:   -2.55 KCAL/MOL
REMARK 922        TOTAL FREE ENERGY PREDICTED BY IDOCK:   -3.33 KCAL/MOL
REMARK 923 INTER-LIGAND FREE ENERGY PREDICTED BY IDOCK:   -2.97 KCAL/MOL
REMARK 924 INTRA-LIGAND FREE ENERGY PREDICTED BY IDOCK:   -0.36 KCAL/MOL
REMARK 927      BINDING AFFINITY PREDICTED BY RF-SCORE:    0.00 PKD
ROOT
HETATM    1  C   UNL     1      -7.691  10.299  65.224  1.00  0.00    -0.144 C  
HETATM    2  O   UNL     1      -7.566   8.964  65.702  1.00  0.00    -0.085 OA 
ENDROOT
BRANCH   2   3
HETATM    3  C   UNL     1      -8.661   8.458  66.384  1.00  0.00    -0.127 C  
HETATM    4  C   UNL     1      -9.201   7.314  65.962  1.00  0.00    -0.079 C  
HETATM    5  C   UNL     1     -10.438   6.765  66.517  1.00  0.00    -0.031 C  
HETATM    6  O   UNL     1     -11.076   7.487  67.458  1.00  0.00    -0.114 OA 
HETATM    7  O   UNL     1     -10.890   5.711  66.089  1.00  0.00    -0.130 OA 
HETATM    8  C   UNL     1     -10.473   8.581  68.171  1.00  0.00    -0.182 C  
HETATM    9  C   UNL     1      -9.280   9.260  67.482  1.00  0.00    -0.140 C  
BRANCH   8  10
HETATM   10  C   UNL     1     -10.158   8.187  69.598  1.00  0.00    -0.199 C  
HETATM   11  C   UNL     1      -9.444   8.890  70.493  1.00  0.00    -0.243 C  
BRANCH  11  12
HETATM   12  C   UNL     1      -9.113   8.413  71.831  1.00  0.00    -0.288 C  
HETATM   13  C   UNL     1      -7.826   8.478  72.229  1.00  0.00    -0.122 C  
HETATM   14  C   UNL     1      -7.321   7.978  73.555  1.00  0.00    -0.181 C  
HETATM   15  C   UNL     1      -8.377   7.387  74.500  1.00  0.00    -0.240 C  
HETATM   16  C   UNL     1      -9.761   7.303  73.934  1.00  0.00    -0.323 C  
HETATM   17  C   UNL     1     -10.077   7.769  72.718  1.00  0.00    -0.344 C  
ENDBRANCH  11  12
ENDBRANCH   8  10
ENDBRANCH   2   3
TORSDOF 3
ENDMDL
MODEL      147
REMARK 921   NORMALIZED FREE ENERGY PREDICTED BY IDOCK:   -2.51 KCAL/MOL
REMARK 922        TOTAL FREE ENERGY PREDICTED BY IDOCK:   -3.28 KCAL/MOL
REMARK 923 INTER-LIGAND FREE ENERGY PREDICTED BY IDOCK:   -2.95 KCAL/MOL
REMARK 924 INTRA-LIGAND FREE ENERGY PREDICTED BY IDOCK:   -0.33 KCAL/MOL
REMARK 927      BINDING AFFINITY PREDICTED BY RF-SCORE:    0.00 PKD
ROOT
HETATM    1  C   UNL     1      -6.597   3.362  74.477  1.00  0.00    -0.038 C  
HETATM    2  O   UNL     1      -6.832   4.681  73.995  1.00  0.00    -0.066 OA 
ENDROOT
BRANCH   2   3
HETATM    3  C   UNL     1      -8.064   4.901  73.400  1.00  0.00    -0.104 C  
HETATM    4  C   UNL     1      -8.770   5.969  73.774  1.00  0.00    -0.124 C  
HETATM    5  C   UNL     1     -10.137   6.219  73.318  1.00  0.00    -0.195 C  
HETATM    6  O   UNL     1     -10.712   5.292  72.528  1.00  0.00    -0.217 OA 
HETATM    7  O   UNL     1     -10.739   7.216  73.695  1.00  0.00    -0.375 OA 
HETATM    8  C   UNL     1      -9.983   4.252  71.854  1.00  0.00    -0.185 C  
HETATM    9  C   UNL     1      -8.621   3.882  72.461  1.00  0.00    -0.104 C  
BRANCH   8  10
HETATM   10  C   UNL     1      -9.888   4.532  70.371  1.00  0.00    -0.302 C  
HETATM   11  C   UNL     1      -9.521   3.673  69.406  1.00  0.00    -0.249 C  
BRANCH  11  12
HETATM   12  C   UNL     1      -9.377   4.034  67.999  1.00  0.00    -0.220 C  
HETATM   13  C   UNL     1      -9.210   3.041  67.103  1.00  0.00    -0.204 C  
HETATM   14  C   UNL     1      -8.995   3.255  65.629  1.00  0.00    -0.144 C  
HETATM   15  C   UNL     1      -9.000   4.714  65.151  1.00  0.00    -0.150 C  
HETATM   16  C   UNL     1      -9.128   5.738  66.237  1.00  0.00    -0.154 C  
HETATM   17  C   UNL     1      -9.292   5.412  67.526  1.00  0.00    -0.119 C  
ENDBRANCH  11  12
ENDBRANCH   8  10
ENDBRANCH   2   3
TORSDOF 3
ENDMDL
MODEL      148
REMARK 921   NORMALIZED FREE ENERGY PREDICTED BY IDOCK:   -2.49 KCAL/MOL
REMARK 922        TOTAL FREE ENERGY PREDICTED BY IDOCK:   -3.26 KCAL/MOL
REMARK 923 INTER-LIGAND FREE ENERGY PREDICTED BY IDOCK:   -2.84 KCAL/MOL
REMARK 924 INTRA-LIGAND FREE ENERGY PREDICTED BY IDOCK:   -0.42 KCAL/MOL
REMARK 927      BINDING AFFINITY PREDICTED BY RF-SCORE:    0.00 PKD
ROOT
HETATM    1  C   UNL     1      -5.937  12.187  67.148  1.00  0.00    -0.143 C  
HETATM    2  O   UNL     1      -6.226  11.072  67.985  1.00  0.00    -0.053 OA 
ENDROOT
BRANCH   2   3
HETATM    3  C   UNL     1      -7.538  10.628  67.974  1.00  0.00    -0.091 C  
HETATM    4  C   UNL     1      -8.202  10.632  66.817  1.00  0.00    -0.130 C  
HETATM    5  C   UNL     1      -9.627  10.321  66.715  1.00  0.00    -0.172 C  
HETATM    6  O   UNL     1     -10.296  10.073  67.858  1.00  0.00    -0.180 OA 
HETATM    7  O   UNL     1     -10.186  10.342  65.627  1.00  0.00    -0.273 OA 
HETATM    8  C   UNL     1      -9.656   9.784  69.113  1.00  0.00    -0.188 C  
HETATM    9  C   UNL     1      -8.210  10.281  69.262  1.00  0.00    -0.164 C  
BRANCH   8  10
HETATM   10  C   UNL     1      -9.794   8.319  69.465  1.00  0.00    -0.181 C  
HETATM   11  C   UNL     1      -8.835   7.380  69.412  1.00  0.00    -0.137 C  
BRANCH  11  12
HETATM   12  C   UNL     1      -9.059   5.966  69.694  1.00  0.00    -0.145 C  
HETATM   13  C   UNL     1      -9.183   5.587  70.982  1.00  0.00    -0.174 C  
HETATM   14  C   UNL     1      -9.362   4.163  71.435  1.00  0.00    -0.211 C  
HETATM   15  C   UNL     1      -9.431   3.105  70.324  1.00  0.00    -0.224 C  
HETATM   16  C   UNL     1      -9.217   3.626  68.936  1.00  0.00    -0.223 C  
HETATM   17  C   UNL     1      -9.043   4.927  68.668  1.00  0.00    -0.145 C  
ENDBRANCH  11  12
ENDBRANCH   8  10
ENDBRANCH   2   3
TORSDOF 3
ENDMDL
MODEL      149
REMARK 921   NORMALIZED FREE ENERGY PREDICTED BY IDOCK:   -2.48 KCAL/MOL
REMARK 922        TOTAL FREE ENERGY PREDICTED BY IDOCK:   -3.25 KCAL/MOL
REMARK 923 INTER-LIGAND FREE ENERGY PREDICTED BY IDOCK:   -2.82 KCAL/MOL
REMARK 924 INTRA-LIGAND FREE ENERGY PREDICTED BY IDOCK:   -0.42 KCAL/MOL
REMARK 927      BINDING AFFINITY PREDICTED BY RF-SCORE:    0.00 PKD
ROOT
HETATM    1  C   UNL     1     -11.146  11.687  67.932  1.00  0.00    -0.247 C  
HETATM    2  O   UNL     1     -10.636  10.805  66.936  1.00  0.00    -0.241 OA 
ENDROOT
BRANCH   2   3
HETATM    3  C   UNL     1      -9.566  10.012  67.317  1.00  0.00    -0.156 C  
HETATM    4  C   UNL     1      -8.409  10.605  67.617  1.00  0.00    -0.114 C  
HETATM    5  C   UNL     1      -7.181   9.860  67.892  1.00  0.00    -0.087 C  
HETATM    6  O   UNL     1      -7.225   8.519  67.782  1.00  0.00    -0.082 OA 
HETATM    7  O   UNL     1      -6.146  10.457  68.160  1.00  0.00    -0.044 OA 
HETATM    8  C   UNL     1      -8.445   7.760  67.727  1.00  0.00    -0.121 C  
HETATM    9  C   UNL     1      -9.694   8.525  67.261  1.00  0.00    -0.239 C  
BRANCH   8  10
HETATM   10  C   UNL     1      -8.682   7.022  69.026  1.00  0.00    -0.128 C  
HETATM   11  C   UNL     1      -9.600   7.308  69.965  1.00  0.00    -0.167 C  
BRANCH  11  12
HETATM   12  C   UNL     1      -9.721   6.598  71.234  1.00  0.00    -0.183 C  
HETATM   13  C   UNL     1      -9.103   7.117  72.314  1.00  0.00    -0.148 C  
HETATM   14  C   UNL     1      -9.090   6.475  73.675  1.00  0.00    -0.146 C  
HETATM   15  C   UNL     1      -9.868   5.158  73.807  1.00  0.00    -0.173 C  
HETATM   16  C   UNL     1     -10.461   4.639  72.533  1.00  0.00    -0.257 C  
HETATM   17  C   UNL     1     -10.380   5.303  71.372  1.00  0.00    -0.290 C  
ENDBRANCH  11  12
ENDBRANCH   8  10
ENDBRANCH   2   3
TORSDOF 3
ENDMDL
MODEL      150
REMARK 921   NORMALIZED FREE ENERGY PREDICTED BY IDOCK:   -2.43 KCAL/MOL
REMARK 922        TOTAL FREE ENERGY PREDICTED BY IDOCK:   -3.19 KCAL/MOL
REMARK 923 INTER-LIGAND FREE ENERGY PREDICTED BY IDOCK:   -2.84 KCAL/MOL
REMARK 924 INTRA-LIGAND FREE ENERGY PREDICTED BY IDOCK:   -0.35 KCAL/MOL
REMARK 927      BINDING AFFINITY PREDICTED BY RF-SCORE:    0.00 PKD
ROOT
HETATM    1  C   UNL     1      -5.474   4.000  74.256  1.00  0.00    -0.004 C  
HETATM    2  O   UNL     1      -5.451   4.891  73.146  1.00  0.00    -0.012 OA 
ENDROOT
BRANCH   2   3
HETATM    3  C   UNL     1      -6.563   5.705  72.998  1.00  0.00    -0.072 C  
HETATM    4  C   UNL     1      -6.609   6.849  73.682  1.00  0.00    -0.067 C  
HETATM    5  C   UNL     1      -7.790   7.712  73.712  1.00  0.00    -0.145 C  
HETATM    6  O   UNL     1      -8.888   7.291  73.055  1.00  0.00    -0.123 OA 
HETATM    7  O   UNL     1      -7.779   8.750  74.360  1.00  0.00    -0.411 OA 
HETATM    8  C   UNL     1      -8.881   6.232  72.082  1.00  0.00    -0.137 C  
HETATM    9  C   UNL     1      -7.721   5.230  72.185  1.00  0.00    -0.100 C  
BRANCH   8  10
HETATM   10  C   UNL     1      -9.036   6.783  70.682  1.00  0.00    -0.151 C  
HETATM   11  C   UNL     1      -9.670   7.910  70.320  1.00  0.00    -0.183 C  
BRANCH  11  12
HETATM   12  C   UNL     1      -9.847   8.343  68.938  1.00  0.00    -0.184 C  
HETATM   13  C   UNL     1      -9.285   7.599  67.963  1.00  0.00    -0.138 C  
HETATM   14  C   UNL     1      -9.332   7.943  66.499  1.00  0.00    -0.255 C  
HETATM   15  C   UNL     1     -10.105   9.218  66.130  1.00  0.00    -0.304 C  
HETATM   16  C   UNL     1     -10.632  10.001  67.292  1.00  0.00    -0.319 C  
HETATM   17  C   UNL     1     -10.501   9.592  68.562  1.00  0.00    -0.241 C  
ENDBRANCH  11  12
ENDBRANCH   8  10
ENDBRANCH   2   3
TORSDOF 3
ENDMDL
MODEL      151
REMARK 921   NORMALIZED FREE ENERGY PREDICTED BY IDOCK:   -2.42 KCAL/MOL
REMARK 922        TOTAL FREE ENERGY PREDICTED BY IDOCK:   -3.18 KCAL/MOL
REMARK 923 INTER-LIGAND FREE ENERGY PREDICTED BY IDOCK:   -2.75 KCAL/MOL
REMARK 924 INTRA-LIGAND FREE ENERGY PREDICTED BY IDOCK:   -0.43 KCAL/MOL
REMARK 927      BINDING AFFINITY PREDICTED BY RF-SCORE:    0.00 PKD
ROOT
HETATM    1  C   UNL     1      -6.232  16.512  69.127  1.00  0.00    -0.174 C  
HETATM    2  O   UNL     1      -6.875  15.391  68.529  1.00  0.00    -0.108 OA 
ENDROOT
BRANCH   2   3
HETATM    3  C   UNL     1      -6.403  14.145  68.909  1.00  0.00    -0.091 C  
HETATM    4  C   UNL     1      -6.137  13.932  70.198  1.00  0.00    -0.147 C  
HETATM    5  C   UNL     1      -5.504  12.708  70.689  1.00  0.00    -0.172 C  
HETATM    6  O   UNL     1      -5.131  11.789  69.778  1.00  0.00    -0.064 OA 
HETATM    7  O   UNL     1      -5.281  12.567  71.884  1.00  0.00    -0.355 OA 
HETATM    8  C   UNL     1      -5.590  11.781  68.416  1.00  0.00    -0.045 C  
HETATM    9  C   UNL     1      -6.086  13.127  67.864  1.00  0.00    -0.139 C  
BRANCH   8  10
HETATM   10  C   UNL     1      -6.589  10.669  68.188  1.00  0.00    -0.063 C  
HETATM   11  C   UNL     1      -7.914  10.795  68.007  1.00  0.00    -0.108 C  
BRANCH  11  12
HETATM   12  C   UNL     1      -8.832   9.670  67.869  1.00  0.00    -0.119 C  
HETATM   13  C   UNL     1      -9.198   9.007  68.985  1.00  0.00    -0.140 C  
HETATM   14  C   UNL     1     -10.091   7.797  69.000  1.00  0.00    -0.198 C  
HETATM   15  C   UNL     1     -10.623   7.334  67.636  1.00  0.00    -0.316 C  
HETATM   16  C   UNL     1     -10.104   8.099  66.458  1.00  0.00    -0.286 C  
HETATM   17  C   UNL     1      -9.286   9.153  66.581  1.00  0.00    -0.228 C  
ENDBRANCH  11  12
ENDBRANCH   8  10
ENDBRANCH   2   3
TORSDOF 3
ENDMDL
MODEL      152
REMARK 921   NORMALIZED FREE ENERGY PREDICTED BY IDOCK:   -2.30 KCAL/MOL
REMARK 922        TOTAL FREE ENERGY PREDICTED BY IDOCK:   -3.04 KCAL/MOL
REMARK 923 INTER-LIGAND FREE ENERGY PREDICTED BY IDOCK:   -2.69 KCAL/MOL
REMARK 924 INTRA-LIGAND FREE ENERGY PREDICTED BY IDOCK:   -0.35 KCAL/MOL
REMARK 927      BINDING AFFINITY PREDICTED BY RF-SCORE:    0.00 PKD
ROOT
HETATM    1  C   UNL     1      -9.962  10.944  66.107  1.00  0.00    -0.233 C  
HETATM    2  O   UNL     1      -9.447  11.354  67.369  1.00  0.00    -0.165 OA 
ENDROOT
BRANCH   2   3
HETATM    3  C   UNL     1      -9.061  10.337  68.228  1.00  0.00    -0.139 C  
HETATM    4  C   UNL     1      -9.575  10.313  69.458  1.00  0.00    -0.225 C  
HETATM    5  C   UNL     1      -9.132   9.374  70.488  1.00  0.00    -0.256 C  
HETATM    6  O   UNL     1      -8.123   8.537  70.179  1.00  0.00    -0.103 OA 
HETATM    7  O   UNL     1      -9.638   9.399  71.603  1.00  0.00    -0.260 OA 
HETATM    8  C   UNL     1      -7.675   8.287  68.836  1.00  0.00    -0.102 C  
HETATM    9  C   UNL     1      -7.997   9.378  67.804  1.00  0.00    -0.096 C  
BRANCH   8  10
HETATM   10  C   UNL     1      -8.106   6.915  68.368  1.00  0.00    -0.120 C  
HETATM   11  C   UNL     1      -8.470   5.874  69.137  1.00  0.00    -0.112 C  
BRANCH  11  12
HETATM   12  C   UNL     1      -8.802   4.552  68.619  1.00  0.00    -0.130 C  
HETATM   13  C   UNL     1      -8.786   3.511  69.477  1.00  0.00    -0.148 C  
HETATM   14  C   UNL     1      -9.052   2.083  69.084  1.00  0.00    -0.177 C  
HETATM   15  C   UNL     1      -9.386   1.840  67.606  1.00  0.00    -0.146 C  
HETATM   16  C   UNL     1      -9.312   3.053  66.730  1.00  0.00    -0.120 C  
HETATM   17  C   UNL     1      -9.039   4.276  67.205  1.00  0.00    -0.153 C  
ENDBRANCH  11  12
ENDBRANCH   8  10
ENDBRANCH   2   3
TORSDOF 3
ENDMDL
MODEL      153
REMARK 921   NORMALIZED FREE ENERGY PREDICTED BY IDOCK:   -2.18 KCAL/MOL
REMARK 922        TOTAL FREE ENERGY PREDICTED BY IDOCK:   -2.89 KCAL/MOL
REMARK 923 INTER-LIGAND FREE ENERGY PREDICTED BY IDOCK:   -2.60 KCAL/MOL
REMARK 924 INTRA-LIGAND FREE ENERGY PREDICTED BY IDOCK:   -0.29 KCAL/MOL
REMARK 927      BINDING AFFINITY PREDICTED BY RF-SCORE:    0.00 PKD
ROOT
HETATM    1  C   UNL     1      -8.482   9.221  64.733  1.00  0.00    -0.175 C  
HETATM    2  O   UNL     1      -7.366   8.347  64.866  1.00  0.00    -0.082 OA 
ENDROOT
BRANCH   2   3
HETATM    3  C   UNL     1      -7.621   7.121  65.460  1.00  0.00    -0.098 C  
HETATM    4  C   UNL     1      -6.746   6.131  65.278  1.00  0.00    -0.047 C  
HETATM    5  C   UNL     1      -6.984   4.763  65.738  1.00  0.00    -0.063 C  
HETATM    6  O   UNL     1      -8.168   4.497  66.323  1.00  0.00    -0.106 OA 
HETATM    7  O   UNL     1      -6.147   3.893  65.541  1.00  0.00    -0.023 OA 
HETATM    8  C   UNL     1      -9.067   5.511  66.806  1.00  0.00    -0.118 C  
HETATM    9  C   UNL     1      -8.914   6.903  66.174  1.00  0.00    -0.157 C  
BRANCH   8  10
HETATM   10  C   UNL     1      -9.056   5.566  68.317  1.00  0.00    -0.113 C  
HETATM   11  C   UNL     1     -10.123   5.586  69.134  1.00  0.00    -0.286 C  
BRANCH  11  12
HETATM   12  C   UNL     1     -10.040   5.718  70.585  1.00  0.00    -0.263 C  
HETATM   13  C   UNL     1     -10.013   4.591  71.325  1.00  0.00    -0.258 C  
HETATM   14  C   UNL     1      -9.983   4.564  72.829  1.00  0.00    -0.209 C  
HETATM   15  C   UNL     1      -9.955   5.930  73.529  1.00  0.00    -0.187 C  
HETATM   16  C   UNL     1     -10.054   7.114  72.616  1.00  0.00    -0.217 C  
HETATM   17  C   UNL     1     -10.098   7.000  71.282  1.00  0.00    -0.199 C  
ENDBRANCH  11  12
ENDBRANCH   8  10
ENDBRANCH   2   3
TORSDOF 3
ENDMDL
MODEL      154
REMARK 921   NORMALIZED FREE ENERGY PREDICTED BY IDOCK:   -2.14 KCAL/MOL
REMARK 922        TOTAL FREE ENERGY PREDICTED BY IDOCK:   -2.85 KCAL/MOL
REMARK 923 INTER-LIGAND FREE ENERGY PREDICTED BY IDOCK:   -2.49 KCAL/MOL
REMARK 924 INTRA-LIGAND FREE ENERGY PREDICTED BY IDOCK:   -0.36 KCAL/MOL
REMARK 927      BINDING AFFINITY PREDICTED BY RF-SCORE:    0.00 PKD
ROOT
HETATM    1  C   UNL     1      -8.637  13.944  67.421  1.00  0.00    -0.200 C  
HETATM    2  O   UNL     1      -8.820  12.711  66.732  1.00  0.00    -0.211 OA 
ENDROOT
BRANCH   2   3
HETATM    3  C   UNL     1      -8.147  11.618  67.254  1.00  0.00    -0.160 C  
HETATM    4  C   UNL     1      -8.140  11.447  68.577  1.00  0.00    -0.149 C  
HETATM    5  C   UNL     1      -7.347  10.414  69.242  1.00  0.00    -0.106 C  
HETATM    6  O   UNL     1      -6.553   9.643  68.473  1.00  0.00    -0.052 OA 
HETATM    7  O   UNL     1      -7.376  10.304  70.461  1.00  0.00    -0.281 OA 
HETATM    8  C   UNL     1      -6.670   9.552  67.043  1.00  0.00    -0.072 C  
HETATM    9  C   UNL     1      -7.351  10.740  66.345  1.00  0.00    -0.142 C  
BRANCH   8  10
HETATM   10  C   UNL     1      -7.274   8.228  66.632  1.00  0.00    -0.081 C  
HETATM   11  C   UNL     1      -8.040   7.419  67.384  1.00  0.00    -0.113 C  
BRANCH  11  12
HETATM   12  C   UNL     1      -8.527   6.115  66.947  1.00  0.00    -0.105 C  
HETATM   13  C   UNL     1      -9.819   6.011  66.576  1.00  0.00    -0.186 C  
HETATM   14  C   UNL     1     -10.481   4.727  66.155  1.00  0.00    -0.332 C  
HETATM   15  C   UNL     1      -9.584   3.481  66.133  1.00  0.00    -0.106 C  
HETATM   16  C   UNL     1      -8.186   3.696  66.625  1.00  0.00    -0.099 C  
HETATM   17  C   UNL     1      -7.724   4.897  66.996  1.00  0.00    -0.092 C  
ENDBRANCH  11  12
ENDBRANCH   8  10
ENDBRANCH   2   3
TORSDOF 3
ENDMDL
MODEL      155
REMARK 921   NORMALIZED FREE ENERGY PREDICTED BY IDOCK:   -2.07 KCAL/MOL
REMARK 922        TOTAL FREE ENERGY PREDICTED BY IDOCK:   -2.77 KCAL/MOL
REMARK 923 INTER-LIGAND FREE ENERGY PREDICTED BY IDOCK:   -2.33 KCAL/MOL
REMARK 924 INTRA-LIGAND FREE ENERGY PREDICTED BY IDOCK:   -0.44 KCAL/MOL
REMARK 927      BINDING AFFINITY PREDICTED BY RF-SCORE:    0.00 PKD
ROOT
HETATM    1  C   UNL     1      -5.503  11.295  71.106  1.00  0.00    -0.018 C  
HETATM    2  O   UNL     1      -5.199  10.540  72.274  1.00  0.00    -0.292 OA 
ENDROOT
BRANCH   2   3
HETATM    3  C   UNL     1      -5.606   9.215  72.264  1.00  0.00    -0.071 C  
HETATM    4  C   UNL     1      -6.159   8.712  73.369  1.00  0.00    -0.106 C  
HETATM    5  C   UNL     1      -6.493   7.296  73.518  1.00  0.00    -0.065 C  
HETATM    6  O   UNL     1      -6.173   6.468  72.504  1.00  0.00    -0.048 OA 
HETATM    7  O   UNL     1      -6.998   6.887  74.555  1.00  0.00    -0.094 OA 
HETATM    8  C   UNL     1      -5.825   6.918  71.184  1.00  0.00    -0.035 C  
HETATM    9  C   UNL     1      -5.304   8.360  71.078  1.00  0.00    -0.028 C  
BRANCH   8  10
HETATM   10  C   UNL     1      -6.946   6.645  70.206  1.00  0.00    -0.066 C  
HETATM   11  C   UNL     1      -7.730   7.551  69.599  1.00  0.00    -0.100 C  
BRANCH  11  12
HETATM   12  C   UNL     1      -8.847   7.212  68.723  1.00  0.00    -0.130 C  
HETATM   13  C   UNL     1      -9.224   5.920  68.646  1.00  0.00    -0.120 C  
HETATM   14  C   UNL     1     -10.318   5.406  67.751  1.00  0.00    -0.226 C  
HETATM   15  C   UNL     1     -11.048   6.460  66.905  1.00  0.00    -0.346 C  
HETATM   16  C   UNL     1     -10.507   7.852  67.017  1.00  0.00    -0.419 C  
HETATM   17  C   UNL     1      -9.503   8.175  67.844  1.00  0.00    -0.162 C  
ENDBRANCH  11  12
ENDBRANCH   8  10
ENDBRANCH   2   3
TORSDOF 3
ENDMDL
MODEL      156
REMARK 921   NORMALIZED FREE ENERGY PREDICTED BY IDOCK:   -2.07 KCAL/MOL
REMARK 922        TOTAL FREE ENERGY PREDICTED BY IDOCK:   -2.76 KCAL/MOL
REMARK 923 INTER-LIGAND FREE ENERGY PREDICTED BY IDOCK:   -2.34 KCAL/MOL
REMARK 924 INTRA-LIGAND FREE ENERGY PREDICTED BY IDOCK:   -0.42 KCAL/MOL
REMARK 927      BINDING AFFINITY PREDICTED BY RF-SCORE:    0.00 PKD
ROOT
HETATM    1  C   UNL     1      -5.559   9.700  70.544  1.00  0.00    -0.048 C  
HETATM    2  O   UNL     1      -6.320   9.536  71.736  1.00  0.00    -0.283 OA 
ENDROOT
BRANCH   2   3
HETATM    3  C   UNL     1      -7.133   8.415  71.788  1.00  0.00    -0.091 C  
HETATM    4  C   UNL     1      -8.398   8.565  72.184  1.00  0.00    -0.197 C  
HETATM    5  C   UNL     1      -9.300   7.436  72.412  1.00  0.00    -0.144 C  
HETATM    6  O   UNL     1      -8.799   6.195  72.262  1.00  0.00    -0.137 OA 
HETATM    7  O   UNL     1     -10.452   7.632  72.777  1.00  0.00    -0.252 OA 
HETATM    8  C   UNL     1      -7.556   5.909  71.597  1.00  0.00    -0.100 C  
HETATM    9  C   UNL     1      -6.547   7.066  71.527  1.00  0.00    -0.048 C  
BRANCH   8  10
HETATM   10  C   UNL     1      -7.800   5.284  70.241  1.00  0.00    -0.083 C  
HETATM   11  C   UNL     1      -8.576   5.765  69.255  1.00  0.00    -0.111 C  
BRANCH  11  12
HETATM   12  C   UNL     1      -8.827   5.068  67.998  1.00  0.00    -0.109 C  
HETATM   13  C   UNL     1      -9.004   3.732  68.037  1.00  0.00    -0.161 C  
HETATM   14  C   UNL     1      -9.217   2.868  66.823  1.00  0.00    -0.147 C  
HETATM   15  C   UNL     1      -9.256   3.599  65.473  1.00  0.00    -0.155 C  
HETATM   16  C   UNL     1      -8.983   5.070  65.538  1.00  0.00    -0.151 C  
HETATM   17  C   UNL     1      -8.784   5.720  66.693  1.00  0.00    -0.119 C  
ENDBRANCH  11  12
ENDBRANCH   8  10
ENDBRANCH   2   3
TORSDOF 3
ENDMDL
MODEL      157
REMARK 921   NORMALIZED FREE ENERGY PREDICTED BY IDOCK:   -2.06 KCAL/MOL
REMARK 922        TOTAL FREE ENERGY PREDICTED BY IDOCK:   -2.75 KCAL/MOL
REMARK 923 INTER-LIGAND FREE ENERGY PREDICTED BY IDOCK:   -2.42 KCAL/MOL
REMARK 924 INTRA-LIGAND FREE ENERGY PREDICTED BY IDOCK:   -0.33 KCAL/MOL
REMARK 927      BINDING AFFINITY PREDICTED BY RF-SCORE:    0.00 PKD
ROOT
HETATM    1  C   UNL     1      -6.533   3.517  69.247  1.00  0.00    -0.033 C  
HETATM    2  O   UNL     1      -7.593   3.722  70.174  1.00  0.00    -0.047 OA 
ENDROOT
BRANCH   2   3
HETATM    3  C   UNL     1      -8.561   4.640  69.797  1.00  0.00    -0.073 C  
HETATM    4  C   UNL     1      -9.633   4.791  70.577  1.00  0.00    -0.258 C  
HETATM    5  C   UNL     1     -10.777   5.623  70.205  1.00  0.00    -0.294 C  
HETATM    6  O   UNL     1     -10.754   6.213  68.995  1.00  0.00    -0.243 OA 
HETATM    7  O   UNL     1     -11.736   5.723  70.959  1.00  0.00     0.011 OA 
HETATM    8  C   UNL     1      -9.569   6.342  68.191  1.00  0.00    -0.115 C  
HETATM    9  C   UNL     1      -8.444   5.336  68.481  1.00  0.00    -0.092 C  
BRANCH   8  10
HETATM   10  C   UNL     1      -9.069   7.770  68.189  1.00  0.00    -0.129 C  
HETATM   11  C   UNL     1      -9.699   8.848  67.692  1.00  0.00    -0.202 C  
BRANCH  11  12
HETATM   12  C   UNL     1      -9.123  10.188  67.655  1.00  0.00    -0.144 C  
HETATM   13  C   UNL     1      -8.030  10.430  68.407  1.00  0.00    -0.110 C  
HETATM   14  C   UNL     1      -7.355  11.770  68.517  1.00  0.00    -0.103 C  
HETATM   15  C   UNL     1      -7.965  12.904  67.680  1.00  0.00    -0.167 C  
HETATM   16  C   UNL     1      -9.212  12.543  66.935  1.00  0.00    -0.211 C  
HETATM   17  C   UNL     1      -9.728  11.306  66.939  1.00  0.00    -0.215 C  
ENDBRANCH  11  12
ENDBRANCH   8  10
ENDBRANCH   2   3
TORSDOF 3
ENDMDL
MODEL      158
REMARK 921   NORMALIZED FREE ENERGY PREDICTED BY IDOCK:   -1.96 KCAL/MOL
REMARK 922        TOTAL FREE ENERGY PREDICTED BY IDOCK:   -2.63 KCAL/MOL
REMARK 923 INTER-LIGAND FREE ENERGY PREDICTED BY IDOCK:   -2.18 KCAL/MOL
REMARK 924 INTRA-LIGAND FREE ENERGY PREDICTED BY IDOCK:   -0.45 KCAL/MOL
REMARK 927      BINDING AFFINITY PREDICTED BY RF-SCORE:    0.00 PKD
ROOT
HETATM    1  C   UNL     1      -8.541  12.894  67.450  1.00  0.00    -0.195 C  
HETATM    2  O   UNL     1      -8.604  11.481  67.288  1.00  0.00    -0.141 OA 
ENDROOT
BRANCH   2   3
HETATM    3  C   UNL     1      -7.690  10.744  68.025  1.00  0.00    -0.101 C  
HETATM    4  C   UNL     1      -7.188  11.281  69.137  1.00  0.00    -0.115 C  
HETATM    5  C   UNL     1      -6.116  10.656  69.911  1.00  0.00    -0.086 C  
HETATM    6  O   UNL     1      -5.587   9.512  69.435  1.00  0.00    -0.035 OA 
HETATM    7  O   UNL     1      -5.692  11.195  70.925  1.00  0.00    -0.259 OA 
HETATM    8  C   UNL     1      -6.205   8.710  68.413  1.00  0.00    -0.054 C  
HETATM    9  C   UNL     1      -7.199   9.437  67.495  1.00  0.00    -0.079 C  
BRANCH   8  10
HETATM   10  C   UNL     1      -6.791   7.445  69.000  1.00  0.00    -0.068 C  
HETATM   11  C   UNL     1      -7.971   7.315  69.628  1.00  0.00    -0.127 C  
BRANCH  11  12
HETATM   12  C   UNL     1      -8.442   6.076  70.239  1.00  0.00    -0.124 C  
HETATM   13  C   UNL     1      -9.656   6.078  70.824  1.00  0.00    -0.197 C  
HETATM   14  C   UNL     1     -10.255   4.898  71.541  1.00  0.00    -0.264 C  
HETATM   15  C   UNL     1      -9.406   3.618  71.560  1.00  0.00    -0.207 C  
HETATM   16  C   UNL     1      -8.050   3.746  70.938  1.00  0.00    -0.069 C  
HETATM   17  C   UNL     1      -7.625   4.871  70.348  1.00  0.00    -0.059 C  
ENDBRANCH  11  12
ENDBRANCH   8  10
ENDBRANCH   2   3
TORSDOF 3
ENDMDL
MODEL      159
REMARK 921   NORMALIZED FREE ENERGY PREDICTED BY IDOCK:   -1.32 KCAL/MOL
REMARK 922        TOTAL FREE ENERGY PREDICTED BY IDOCK:   -1.88 KCAL/MOL
REMARK 923 INTER-LIGAND FREE ENERGY PREDICTED BY IDOCK:   -1.45 KCAL/MOL
REMARK 924 INTRA-LIGAND FREE ENERGY PREDICTED BY IDOCK:   -0.43 KCAL/MOL
REMARK 927      BINDING AFFINITY PREDICTED BY RF-SCORE:    0.00 PKD
ROOT
HETATM    1  C   UNL     1     -10.269  14.152  66.466  1.00  0.00    -0.278 C  
HETATM    2  O   UNL     1     -10.367  14.444  67.856  1.00  0.00    -0.228 OA 
ENDROOT
BRANCH   2   3
HETATM    3  C   UNL     1      -9.374  15.258  68.378  1.00  0.00    -0.194 C  
HETATM    4  C   UNL     1      -8.220  14.697  68.742  1.00  0.00    -0.156 C  
HETATM    5  C   UNL     1      -7.160  15.433  69.432  1.00  0.00    -0.193 C  
HETATM    6  O   UNL     1      -7.400  16.719  69.754  1.00  0.00     0.103 OA 
HETATM    7  O   UNL     1      -6.121  14.867  69.745  1.00  0.00    -0.115 OA 
HETATM    8  C   UNL     1      -8.473  17.496  69.196  1.00  0.00     0.091 C  
HETATM    9  C   UNL     1      -9.662  16.700  68.635  1.00  0.00    -0.248 C  
BRANCH   8  10
HETATM   10  C   UNL     1      -7.947  18.509  68.203  1.00  0.00    -0.308 C  
HETATM   11  C   UNL     1      -7.361  18.256  67.021  1.00  0.00    -0.225 C  
BRANCH  11  12
HETATM   12  C   UNL     1      -6.807  19.283  66.146  1.00  0.00    -0.249 C  
HETATM   13  C   UNL     1      -7.212  19.309  64.860  1.00  0.00     0.732 C  
HETATM   14  C   UNL     1      -6.693  20.270  63.825  1.00  0.00     0.440 C  
HETATM   15  C   UNL     1      -5.655  21.291  64.312  1.00  0.00    -0.193 C  
HETATM   16  C   UNL     1      -5.228  21.131  65.738  1.00  0.00    -0.244 C  
HETATM   17  C   UNL     1      -5.757  20.211  66.556  1.00  0.00    -0.186 C  
ENDBRANCH  11  12
ENDBRANCH   8  10
ENDBRANCH   2   3
TORSDOF 3
ENDMDL
