MODEL        1
REMARK 921   NORMALIZED FREE ENERGY PREDICTED BY IDOCK:   -7.56 KCAL/MOL
REMARK 922        TOTAL FREE ENERGY PREDICTED BY IDOCK:   -8.33 KCAL/MOL
REMARK 923 INTER-LIGAND FREE ENERGY PREDICTED BY IDOCK:   -8.01 KCAL/MOL
REMARK 924 INTRA-LIGAND FREE ENERGY PREDICTED BY IDOCK:   -0.32 KCAL/MOL
REMARK 927      BINDING AFFINITY PREDICTED BY RF-SCORE:    0.00 PKD
ROOT
HETATM    1  C   UNL     1     -10.802  10.594  67.709  1.00  0.00    -0.286 C  
HETATM    2  N   UNL     1     -10.321  11.944  67.927  1.00  0.00    -0.193 N  
HETATM    3  C   UNL     1     -11.084  12.810  68.746  1.00  0.00    -0.260 A  
HETATM    4  C   UNL     1     -11.307  14.131  68.340  1.00  0.00    -0.315 A  
HETATM    5  C   UNL     1     -10.656  14.697  67.049  1.00  0.00    -0.280 C  
HETATM    6  C   UNL     1     -12.221  14.902  69.106  1.00  0.00    -0.194 A  
HETATM    7  C   UNL     1     -12.776  14.424  70.289  1.00  0.00    -0.263 A  
HETATM    8  O   UNL     1     -11.128  16.083  66.955  1.00  0.00    -0.222 OA 
HETATM    9  O   UNL     1      -8.169  11.181  68.116  1.00  0.00    -0.119 OA 
HETATM   10  C   UNL     1     -12.501  13.135  70.708  1.00  0.00    -0.389 A  
HETATM   11  C   UNL     1      -8.947  12.115  67.892  1.00  0.00    -0.184 C  
HETATM   12  C   UNL     1     -10.148  16.991  67.380  1.00  0.00    -0.291 C  
HETATM   13 CL   UNL     1     -13.786  15.447  71.234  1.00  0.00    -0.583 Cl 
HETATM   14  C   UNL     1      -8.426  13.397  67.255  1.00  0.00    -0.200 C  
HETATM   15  C   UNL     1      -9.982  17.152  68.878  1.00  0.00    -0.304 C  
HETATM   16  C   UNL     1     -11.686  12.319  69.920  1.00  0.00    -0.346 A  
HETATM   17  C   UNL     1      -9.088  17.034  66.572  1.00  0.00    -0.291 C  
HETATM   18  N   UNL     1      -9.154  14.660  67.176  1.00  0.00    -0.212 N  
HETATM   19  C   UNL     1      -8.371  15.744  66.800  1.00  0.00    -0.274 C  
HETATM   20  O   UNL     1      -7.161  15.708  66.607  1.00  0.00    -0.144 OA 
ENDROOT
BRANCH   5  21
HETATM   21  C   UNL     1     -11.161  13.950  65.776  1.00  0.00    -0.303 A  
HETATM   22  C   UNL     1     -10.683  12.658  63.752  1.00  0.00    -0.454 A  
HETATM   23  C   UNL     1     -10.291  13.576  64.734  1.00  0.00    -0.405 A  
HETATM   24  C   UNL     1     -12.895  12.601  64.686  1.00  0.00    -0.361 A  
HETATM   25  C   UNL     1     -12.499  13.508  65.675  1.00  0.00    -0.528 A  
HETATM   26  C   UNL     1     -11.976  12.147  63.747  1.00  0.00    -0.607 A  
ENDBRANCH   5  21
TORSDOF 1
ENDMDL
MODEL        2
REMARK 921   NORMALIZED FREE ENERGY PREDICTED BY IDOCK:   -7.43 KCAL/MOL
REMARK 922        TOTAL FREE ENERGY PREDICTED BY IDOCK:   -8.18 KCAL/MOL
REMARK 923 INTER-LIGAND FREE ENERGY PREDICTED BY IDOCK:   -7.88 KCAL/MOL
REMARK 924 INTRA-LIGAND FREE ENERGY PREDICTED BY IDOCK:   -0.30 KCAL/MOL
REMARK 927      BINDING AFFINITY PREDICTED BY RF-SCORE:    0.00 PKD
ROOT
HETATM    1  C   UNL     1      -9.011  10.630  66.753  1.00  0.00    -0.138 C  
HETATM    2  N   UNL     1      -9.187  11.721  67.690  1.00  0.00    -0.176 N  
HETATM    3  C   UNL     1     -10.115  11.562  68.746  1.00  0.00    -0.179 A  
HETATM    4  C   UNL     1     -10.994  12.606  69.060  1.00  0.00    -0.240 A  
HETATM    5  C   UNL     1     -10.913  13.973  68.330  1.00  0.00    -0.255 C  
HETATM    6  C   UNL     1     -12.019  12.332  70.005  1.00  0.00    -0.379 A  
HETATM    7  C   UNL     1     -12.076  11.127  70.699  1.00  0.00    -0.379 A  
HETATM    8  O   UNL     1     -11.986  14.786  68.914  1.00  0.00    -0.303 OA 
HETATM    9  O   UNL     1      -6.932  12.121  67.699  1.00  0.00    -0.097 OA 
HETATM   10  C   UNL     1     -11.164  10.125  70.419  1.00  0.00    -0.402 A  
HETATM   11  C   UNL     1      -8.080  12.526  67.903  1.00  0.00    -0.163 C  
HETATM   12  C   UNL     1     -11.488  15.698  69.855  1.00  0.00    -0.338 C  
HETATM   13 CL   UNL     1     -13.270  10.898  71.916  1.00  0.00    -0.565 Cl 
HETATM   14  C   UNL     1      -8.335  14.018  68.084  1.00  0.00    -0.164 C  
HETATM   15  C   UNL     1     -11.166  15.144  71.227  1.00  0.00    -0.326 C  
HETATM   16  C   UNL     1     -10.209  10.330  69.421  1.00  0.00    -0.255 A  
HETATM   17  C   UNL     1     -10.725  16.648  69.311  1.00  0.00    -0.337 C  
HETATM   18  N   UNL     1      -9.571  14.611  68.588  1.00  0.00    -0.216 N  
HETATM   19  C   UNL     1      -9.462  15.955  68.918  1.00  0.00    -0.234 C  
HETATM   20  O   UNL     1      -8.428  16.612  68.872  1.00  0.00    -0.244 OA 
ENDROOT
BRANCH   5  21
HETATM   21  C   UNL     1     -11.218  13.832  66.807  1.00  0.00    -0.327 A  
HETATM   22  C   UNL     1     -12.536  12.840  64.997  1.00  0.00    -0.572 A  
HETATM   23  C   UNL     1     -12.023  12.793  66.299  1.00  0.00    -0.460 A  
HETATM   24  C   UNL     1     -11.301  14.857  64.581  1.00  0.00    -0.362 A  
HETATM   25  C   UNL     1     -10.799  14.818  65.887  1.00  0.00    -0.331 A  
HETATM   26  C   UNL     1     -12.199  13.889  64.149  1.00  0.00    -0.436 A  
ENDBRANCH   5  21
TORSDOF 1
ENDMDL
MODEL        3
REMARK 921   NORMALIZED FREE ENERGY PREDICTED BY IDOCK:   -7.31 KCAL/MOL
REMARK 922        TOTAL FREE ENERGY PREDICTED BY IDOCK:   -8.06 KCAL/MOL
REMARK 923 INTER-LIGAND FREE ENERGY PREDICTED BY IDOCK:   -7.73 KCAL/MOL
REMARK 924 INTRA-LIGAND FREE ENERGY PREDICTED BY IDOCK:   -0.33 KCAL/MOL
REMARK 927      BINDING AFFINITY PREDICTED BY RF-SCORE:    0.00 PKD
ROOT
HETATM    1  C   UNL     1     -10.913  10.139  68.133  1.00  0.00    -0.259 C  
HETATM    2  N   UNL     1     -10.400  11.485  68.291  1.00  0.00    -0.190 N  
HETATM    3  C   UNL     1     -11.169  12.421  69.022  1.00  0.00    -0.266 A  
HETATM    4  C   UNL     1     -11.332  13.721  68.528  1.00  0.00    -0.318 A  
HETATM    5  C   UNL     1     -10.610  14.187  67.236  1.00  0.00    -0.277 C  
HETATM    6  C   UNL     1     -12.254  14.563  69.205  1.00  0.00    -0.264 A  
HETATM    7  C   UNL     1     -12.873  14.174  70.389  1.00  0.00    -0.197 A  
HETATM    8  O   UNL     1     -11.034  15.578  67.039  1.00  0.00    -0.321 OA 
HETATM    9  O   UNL     1      -8.283  10.673  68.621  1.00  0.00    -0.119 OA 
HETATM   10  C   UNL     1     -12.657  12.905  70.896  1.00  0.00    -0.355 A  
HETATM   11  C   UNL     1      -9.020  11.613  68.307  1.00  0.00    -0.185 C  
HETATM   12  C   UNL     1     -10.044  16.482  67.452  1.00  0.00    -0.279 C  
HETATM   13 CL   UNL     1     -13.889  15.282  71.225  1.00  0.00    -0.569 Cl 
HETATM   14  C   UNL     1      -8.432  12.838  67.618  1.00  0.00    -0.178 C  
HETATM   15  C   UNL     1      -9.938  16.730  68.943  1.00  0.00    -0.271 C  
HETATM   16  C   UNL     1     -11.836  12.020  70.196  1.00  0.00    -0.383 A  
HETATM   17  C   UNL     1      -8.950  16.445  66.690  1.00  0.00    -0.289 C  
HETATM   18  N   UNL     1      -9.116  14.116  67.431  1.00  0.00    -0.189 N  
HETATM   19  C   UNL     1      -8.285  15.151  67.026  1.00  0.00    -0.228 C  
HETATM   20  O   UNL     1      -7.069  15.068  66.890  1.00  0.00    -0.115 OA 
ENDROOT
BRANCH   5  21
HETATM   21  C   UNL     1     -11.084  13.380  65.989  1.00  0.00    -0.294 A  
HETATM   22  C   UNL     1     -12.882  12.674  64.485  1.00  0.00    -0.356 A  
HETATM   23  C   UNL     1     -12.446  13.126  65.736  1.00  0.00    -0.441 A  
HETATM   24  C   UNL     1     -10.602  12.510  63.746  1.00  0.00    -0.471 A  
HETATM   25  C   UNL     1     -10.167  12.976  64.993  1.00  0.00    -0.287 A  
HETATM   26  C   UNL     1     -11.961  12.395  63.480  1.00  0.00    -0.627 A  
ENDBRANCH   5  21
TORSDOF 1
ENDMDL
MODEL        4
REMARK 921   NORMALIZED FREE ENERGY PREDICTED BY IDOCK:   -7.16 KCAL/MOL
REMARK 922        TOTAL FREE ENERGY PREDICTED BY IDOCK:   -7.91 KCAL/MOL
REMARK 923 INTER-LIGAND FREE ENERGY PREDICTED BY IDOCK:   -7.57 KCAL/MOL
REMARK 924 INTRA-LIGAND FREE ENERGY PREDICTED BY IDOCK:   -0.33 KCAL/MOL
REMARK 927      BINDING AFFINITY PREDICTED BY RF-SCORE:    0.00 PKD
ROOT
HETATM    1  C   UNL     1      -7.690  14.108  69.435  1.00  0.00     0.188 C  
HETATM    2  N   UNL     1      -8.441  14.038  68.197  1.00  0.00    -0.164 N  
HETATM    3  C   UNL     1      -8.953  15.238  67.648  1.00  0.00    -0.179 A  
HETATM    4  C   UNL     1     -10.264  15.273  67.159  1.00  0.00    -0.252 A  
HETATM    5  C   UNL     1     -11.144  13.995  67.124  1.00  0.00    -0.303 C  
HETATM    6  C   UNL     1     -10.785  16.540  66.784  1.00  0.00    -0.155 A  
HETATM    7  C   UNL     1      -9.994  17.685  66.768  1.00  0.00    -0.320 A  
HETATM    8  O   UNL     1     -12.432  14.429  66.570  1.00  0.00    -0.376 OA 
HETATM    9  O   UNL     1      -6.979  12.488  67.358  1.00  0.00    -0.139 OA 
HETATM   10  C   UNL     1      -8.681  17.623  67.200  1.00  0.00    -0.252 A  
HETATM   11  C   UNL     1      -8.096  13.014  67.331  1.00  0.00    -0.180 C  
HETATM   12  C   UNL     1     -12.554  14.080  65.217  1.00  0.00    -0.470 C  
HETATM   13 CL   UNL     1     -10.649  19.168  66.192  1.00  0.00    -0.531 Cl 
HETATM   14  C   UNL     1      -9.231  12.340  66.570  1.00  0.00    -0.219 C  
HETATM   15  C   UNL     1     -11.831  14.967  64.224  1.00  0.00    -0.312 C  
HETATM   16  C   UNL     1      -8.174  16.411  67.672  1.00  0.00    -0.166 A  
HETATM   17  C   UNL     1     -12.631  12.763  65.021  1.00  0.00    -0.538 C  
HETATM   18  N   UNL     1     -10.508  12.962  66.229  1.00  0.00    -0.266 N  
HETATM   19  C   UNL     1     -11.259  12.247  65.305  1.00  0.00    -0.328 C  
HETATM   20  O   UNL     1     -10.896  11.218  64.746  1.00  0.00    -0.302 OA 
ENDROOT
BRANCH   5  21
HETATM   21  C   UNL     1     -11.421  13.447  68.558  1.00  0.00    -0.345 A  
HETATM   22  C   UNL     1     -12.344  13.769  70.803  1.00  0.00    -0.451 A  
HETATM   23  C   UNL     1     -11.812  14.290  69.617  1.00  0.00    -0.370 A  
HETATM   24  C   UNL     1     -11.931  11.539  70.012  1.00  0.00    -0.435 A  
HETATM   25  C   UNL     1     -11.412  12.060  68.821  1.00  0.00    -0.355 A  
HETATM   26  C   UNL     1     -12.431  12.393  70.987  1.00  0.00    -0.353 A  
ENDBRANCH   5  21
TORSDOF 1
ENDMDL
MODEL        5
REMARK 921   NORMALIZED FREE ENERGY PREDICTED BY IDOCK:   -7.09 KCAL/MOL
REMARK 922        TOTAL FREE ENERGY PREDICTED BY IDOCK:   -7.82 KCAL/MOL
REMARK 923 INTER-LIGAND FREE ENERGY PREDICTED BY IDOCK:   -7.78 KCAL/MOL
REMARK 924 INTRA-LIGAND FREE ENERGY PREDICTED BY IDOCK:   -0.05 KCAL/MOL
REMARK 927      BINDING AFFINITY PREDICTED BY RF-SCORE:    0.00 PKD
ROOT
HETATM    1  C   UNL     1      -9.196  18.518  69.326  1.00  0.00     0.161 C  
HETATM    2  N   UNL     1     -10.024  17.709  68.453  1.00  0.00    -0.334 N  
HETATM    3  C   UNL     1     -10.640  16.553  68.987  1.00  0.00    -0.324 A  
HETATM    4  C   UNL     1     -10.622  15.358  68.258  1.00  0.00    -0.253 A  
HETATM    5  C   UNL     1     -10.016  15.296  66.830  1.00  0.00    -0.242 C  
HETATM    6  C   UNL     1     -11.097  14.189  68.911  1.00  0.00    -0.288 A  
HETATM    7  C   UNL     1     -11.684  14.239  70.172  1.00  0.00    -0.288 A  
HETATM    8  O   UNL     1     -10.167  13.898  66.408  1.00  0.00    -0.278 OA 
HETATM    9  O   UNL     1     -10.904  19.592  67.489  1.00  0.00    -0.468 OA 
HETATM   10  C   UNL     1     -11.746  15.439  70.857  1.00  0.00    -0.395 A  
HETATM   11  C   UNL     1     -10.665  18.381  67.426  1.00  0.00    -0.361 C  
HETATM   12  C   UNL     1     -11.251  13.739  65.533  1.00  0.00    -0.299 C  
HETATM   13 CL   UNL     1     -12.345  12.809  70.862  1.00  0.00    -0.434 Cl 
HETATM   14  C   UNL     1     -10.775  17.658  66.089  1.00  0.00    -0.105 C  
HETATM   15  C   UNL     1     -12.627  13.693  66.165  1.00  0.00    -0.391 C  
HETATM   16  C   UNL     1     -11.195  16.585  70.280  1.00  0.00    -0.140 A  
HETATM   17  C   UNL     1     -11.065  14.335  64.355  1.00  0.00    -0.235 C  
HETATM   18  N   UNL     1     -10.784  16.209  65.908  1.00  0.00    -0.292 N  
HETATM   19  C   UNL     1     -11.166  15.798  64.638  1.00  0.00    -0.363 C  
HETATM   20  O   UNL     1     -11.537  16.542  63.737  1.00  0.00    -1.109 OA 
ENDROOT
BRANCH   5  21
HETATM   21  C   UNL     1      -8.489  15.612  66.839  1.00  0.00    -0.286 A  
HETATM   22  C   UNL     1      -6.645  17.153  66.370  1.00  0.00    -0.251 A  
HETATM   23  C   UNL     1      -7.945  16.697  66.124  1.00  0.00    -0.237 A  
HETATM   24  C   UNL     1      -6.298  15.340  67.907  1.00  0.00    -0.173 A  
HETATM   25  C   UNL     1      -7.602  14.892  67.671  1.00  0.00    -0.201 A  
HETATM   26  C   UNL     1      -5.832  16.493  67.285  1.00  0.00    -0.191 A  
ENDBRANCH   5  21
TORSDOF 1
ENDMDL
MODEL        6
REMARK 921   NORMALIZED FREE ENERGY PREDICTED BY IDOCK:   -6.69 KCAL/MOL
REMARK 922        TOTAL FREE ENERGY PREDICTED BY IDOCK:   -7.40 KCAL/MOL
REMARK 923 INTER-LIGAND FREE ENERGY PREDICTED BY IDOCK:   -7.09 KCAL/MOL
REMARK 924 INTRA-LIGAND FREE ENERGY PREDICTED BY IDOCK:   -0.31 KCAL/MOL
REMARK 927      BINDING AFFINITY PREDICTED BY RF-SCORE:    0.00 PKD
ROOT
HETATM    1  C   UNL     1     -12.616  14.214  65.364  1.00  0.00    -0.466 C  
HETATM    2  N   UNL     1     -11.200  14.125  65.662  1.00  0.00    -0.303 N  
HETATM    3  C   UNL     1     -10.565  12.865  65.561  1.00  0.00    -0.279 A  
HETATM    4  C   UNL     1      -9.680  12.452  66.564  1.00  0.00    -0.245 A  
HETATM    5  C   UNL     1      -9.309  13.388  67.746  1.00  0.00    -0.211 C  
HETATM    6  C   UNL     1      -9.208  11.113  66.505  1.00  0.00    -0.194 A  
HETATM    7  C   UNL     1      -9.496  10.279  65.430  1.00  0.00    -0.232 A  
HETATM    8  O   UNL     1      -8.387  12.609  68.580  1.00  0.00    -0.141 OA 
HETATM    9  O   UNL     1     -10.816  16.109  64.583  1.00  0.00    -0.650 OA 
HETATM   10  C   UNL     1     -10.326  10.722  64.416  1.00  0.00    -0.405 A  
HETATM   11  C   UNL     1     -10.450  15.262  65.404  1.00  0.00    -0.398 C  
HETATM   12  C   UNL     1      -7.054  12.991  68.369  1.00  0.00    -0.103 C  
HETATM   13 CL   UNL     1      -8.801   8.707  65.358  1.00  0.00    -0.214 Cl 
HETATM   14  C   UNL     1      -9.336  15.593  66.388  1.00  0.00    -0.300 C  
HETATM   15  C   UNL     1      -6.385  12.445  67.124  1.00  0.00    -0.093 C  
HETATM   16  C   UNL     1     -10.886  11.998  64.500  1.00  0.00    -0.363 A  
HETATM   17  C   UNL     1      -6.790  14.227  68.794  1.00  0.00    -0.099 C  
HETATM   18  N   UNL     1      -8.627  14.626  67.222  1.00  0.00    -0.201 N  
HETATM   19  C   UNL     1      -7.481  15.129  67.825  1.00  0.00    -0.162 C  
HETATM   20  O   UNL     1      -7.027  16.254  67.650  1.00  0.00    -0.122 OA 
ENDROOT
BRANCH   5  21
HETATM   21  C   UNL     1     -10.553  13.724  68.625  1.00  0.00    -0.263 A  
HETATM   22  C   UNL     1     -12.367  12.985  70.094  1.00  0.00    -0.270 A  
HETATM   23  C   UNL     1     -11.442  12.728  69.074  1.00  0.00    -0.360 A  
HETATM   24  C   UNL     1     -11.702  15.292  70.121  1.00  0.00    -0.342 A  
HETATM   25  C   UNL     1     -10.767  15.033  69.112  1.00  0.00    -0.249 A  
HETATM   26  C   UNL     1     -12.475  14.260  70.638  1.00  0.00    -0.428 A  
ENDBRANCH   5  21
TORSDOF 1
ENDMDL
MODEL        7
REMARK 921   NORMALIZED FREE ENERGY PREDICTED BY IDOCK:   -6.66 KCAL/MOL
REMARK 922        TOTAL FREE ENERGY PREDICTED BY IDOCK:   -7.37 KCAL/MOL
REMARK 923 INTER-LIGAND FREE ENERGY PREDICTED BY IDOCK:   -7.19 KCAL/MOL
REMARK 924 INTRA-LIGAND FREE ENERGY PREDICTED BY IDOCK:   -0.18 KCAL/MOL
REMARK 927      BINDING AFFINITY PREDICTED BY RF-SCORE:    0.00 PKD
ROOT
HETATM    1  C   UNL     1      -7.738  12.289  68.929  1.00  0.00     0.059 C  
HETATM    2  N   UNL     1      -8.503  12.629  67.746  1.00  0.00    -0.160 N  
HETATM    3  C   UNL     1      -9.011  13.944  67.624  1.00  0.00    -0.192 A  
HETATM    4  C   UNL     1     -10.327  14.142  67.189  1.00  0.00    -0.265 A  
HETATM    5  C   UNL     1     -11.217  12.948  66.751  1.00  0.00    -0.298 C  
HETATM    6  C   UNL     1     -10.842  15.464  67.253  1.00  0.00    -0.316 A  
HETATM    7  C   UNL     1     -10.042  16.549  67.601  1.00  0.00    -0.266 A  
HETATM    8  O   UNL     1     -12.507  13.544  66.384  1.00  0.00    -0.380 OA 
HETATM    9  O   UNL     1      -7.061  11.430  66.429  1.00  0.00    -0.101 OA 
HETATM   10  C   UNL     1      -8.726  16.344  67.973  1.00  0.00    -0.183 A  
HETATM   11  C   UNL     1      -8.175  11.941  66.589  1.00  0.00    -0.088 C  
HETATM   12  C   UNL     1     -12.646  13.655  64.993  1.00  0.00    -0.390 C  
HETATM   13 CL   UNL     1     -10.692  18.140  67.548  1.00  0.00    -0.413 Cl 
HETATM   14  C   UNL     1      -9.323  11.557  65.664  1.00  0.00    -0.204 C  
HETATM   15  C   UNL     1     -11.927  14.814  64.333  1.00  0.00    -0.433 C  
HETATM   16  C   UNL     1      -8.223  15.042  68.018  1.00  0.00    -0.138 A  
HETATM   17  C   UNL     1     -12.735  12.474  64.380  1.00  0.00    -0.447 C  
HETATM   18  N   UNL     1     -10.599  12.260  65.560  1.00  0.00    -0.260 N  
HETATM   19  C   UNL     1     -11.365  11.888  64.463  1.00  0.00    -0.316 C  
HETATM   20  O   UNL     1     -11.016  11.096  63.595  1.00  0.00    -0.349 OA 
ENDROOT
BRANCH   5  21
HETATM   21  C   UNL     1     -11.484  11.964  67.931  1.00  0.00    -0.385 A  
HETATM   22  C   UNL     1     -11.155   9.774  68.974  1.00  0.00    -0.143 A  
HETATM   23  C   UNL     1     -11.199  10.588  67.836  1.00  0.00    -0.358 A  
HETATM   24  C   UNL     1     -11.874  11.622  70.328  1.00  0.00    -0.414 A  
HETATM   25  C   UNL     1     -11.906  12.440  69.193  1.00  0.00    -0.352 A  
HETATM   26  C   UNL     1     -11.462  10.299  70.225  1.00  0.00    -0.395 A  
ENDBRANCH   5  21
TORSDOF 1
ENDMDL
MODEL        8
REMARK 921   NORMALIZED FREE ENERGY PREDICTED BY IDOCK:   -6.43 KCAL/MOL
REMARK 922        TOTAL FREE ENERGY PREDICTED BY IDOCK:   -7.12 KCAL/MOL
REMARK 923 INTER-LIGAND FREE ENERGY PREDICTED BY IDOCK:   -6.91 KCAL/MOL
REMARK 924 INTRA-LIGAND FREE ENERGY PREDICTED BY IDOCK:   -0.21 KCAL/MOL
REMARK 927      BINDING AFFINITY PREDICTED BY RF-SCORE:    0.00 PKD
ROOT
HETATM    1  C   UNL     1     -12.365  14.109  65.806  1.00  0.00    -0.461 C  
HETATM    2  N   UNL     1     -10.996  14.476  66.110  1.00  0.00    -0.315 N  
HETATM    3  C   UNL     1     -10.036  13.447  66.253  1.00  0.00    -0.296 A  
HETATM    4  C   UNL     1      -9.123  13.492  67.313  1.00  0.00    -0.225 A  
HETATM    5  C   UNL     1      -9.083  14.699  68.289  1.00  0.00    -0.189 C  
HETATM    6  C   UNL     1      -8.300  12.352  67.514  1.00  0.00    -0.173 A  
HETATM    7  C   UNL     1      -8.294  11.284  66.622  1.00  0.00    -0.163 A  
HETATM    8  O   UNL     1      -8.025  14.379  69.254  1.00  0.00    -0.063 OA 
HETATM    9  O   UNL     1     -11.117  16.249  64.664  1.00  0.00    -0.634 OA 
HETATM   10  C   UNL     1      -9.163  11.279  65.545  1.00  0.00    -0.220 A  
HETATM   11  C   UNL     1     -10.575  15.706  65.632  1.00  0.00    -0.378 C  
HETATM   12  C   UNL     1      -6.839  15.070  68.967  1.00  0.00    -0.118 C  
HETATM   13 CL   UNL     1      -7.192   9.983  66.855  1.00  0.00    -0.090 Cl 
HETATM   14  C   UNL     1      -9.645  16.514  66.529  1.00  0.00    -0.271 C  
HETATM   15  C   UNL     1      -5.984  14.508  67.849  1.00  0.00    -0.150 C  
HETATM   16  C   UNL     1     -10.054  12.341  65.382  1.00  0.00    -0.292 A  
HETATM   17  C   UNL     1      -6.945  16.388  69.143  1.00  0.00    -0.218 C  
HETATM   18  N   UNL     1      -8.740  15.957  67.532  1.00  0.00    -0.175 N  
HETATM   19  C   UNL     1      -7.807  16.863  68.020  1.00  0.00    -0.179 C  
HETATM   20  O   UNL     1      -7.671  18.016  67.628  1.00  0.00    -0.211 OA 
ENDROOT
BRANCH   5  21
HETATM   21  C   UNL     1     -10.413  14.835  69.091  1.00  0.00    -0.243 A  
HETATM   22  C   UNL     1     -12.331  13.791  70.199  1.00  0.00    -0.390 A  
HETATM   23  C   UNL     1     -11.307  13.757  69.245  1.00  0.00    -0.325 A  
HETATM   24  C   UNL     1     -11.747  16.055  70.749  1.00  0.00    -0.410 A  
HETATM   25  C   UNL     1     -10.714  16.016  69.805  1.00  0.00    -0.331 A  
HETATM   26  C   UNL     1     -12.531  14.929  70.972  1.00  0.00    -0.396 A  
ENDBRANCH   5  21
TORSDOF 1
ENDMDL
MODEL        9
REMARK 921   NORMALIZED FREE ENERGY PREDICTED BY IDOCK:   -6.40 KCAL/MOL
REMARK 922        TOTAL FREE ENERGY PREDICTED BY IDOCK:   -7.10 KCAL/MOL
REMARK 923 INTER-LIGAND FREE ENERGY PREDICTED BY IDOCK:   -6.82 KCAL/MOL
REMARK 924 INTRA-LIGAND FREE ENERGY PREDICTED BY IDOCK:   -0.28 KCAL/MOL
REMARK 927      BINDING AFFINITY PREDICTED BY RF-SCORE:    0.00 PKD
ROOT
HETATM    1  C   UNL     1     -10.542  14.459  69.083  1.00  0.00    -0.218 C  
HETATM    2  N   UNL     1      -9.929  13.463  68.226  1.00  0.00    -0.237 N  
HETATM    3  C   UNL     1     -10.573  13.127  67.012  1.00  0.00    -0.258 A  
HETATM    4  C   UNL     1     -10.690  11.783  66.638  1.00  0.00    -0.300 A  
HETATM    5  C   UNL     1     -10.046  10.653  67.486  1.00  0.00    -0.184 C  
HETATM    6  C   UNL     1     -11.495  11.490  65.505  1.00  0.00    -0.074 A  
HETATM    7  C   UNL     1     -12.040  12.495  64.711  1.00  0.00    -0.434 A  
HETATM    8  O   UNL     1     -10.392   9.407  66.792  1.00  0.00    -0.251 OA 
HETATM    9  O   UNL     1      -7.851  14.326  68.654  1.00  0.00    -0.133 OA 
HETATM   10  C   UNL     1     -11.868  13.821  65.062  1.00  0.00    -0.381 A  
HETATM   11  C   UNL     1      -8.548  13.376  68.284  1.00  0.00    -0.169 C  
HETATM   12  C   UNL     1      -9.314   8.921  66.037  1.00  0.00    -0.242 C  
HETATM   13 CL   UNL     1     -12.909  12.079  63.286  1.00  0.00    -0.533 Cl 
HETATM   14  C   UNL     1      -7.939  11.983  68.190  1.00  0.00    -0.152 C  
HETATM   15  C   UNL     1      -9.070   9.593  64.701  1.00  0.00    -0.286 C  
HETATM   16  C   UNL     1     -11.167  14.134  66.228  1.00  0.00    -0.329 A  
HETATM   17  C   UNL     1      -8.291   8.512  66.788  1.00  0.00    -0.109 C  
HETATM   18  N   UNL     1      -8.550  10.834  67.526  1.00  0.00    -0.125 N  
HETATM   19  C   UNL     1      -7.688   9.762  67.338  1.00  0.00    -0.095 C  
HETATM   20  O   UNL     1      -6.495   9.756  67.624  1.00  0.00    -0.066 OA 
ENDROOT
BRANCH   5  21
HETATM   21  C   UNL     1     -10.673  10.576  68.912  1.00  0.00    -0.253 A  
HETATM   22  C   UNL     1     -12.635  10.711  70.370  1.00  0.00    -0.395 A  
HETATM   23  C   UNL     1     -11.971  11.049  69.185  1.00  0.00    -0.394 A  
HETATM   24  C   UNL     1     -10.665   9.584  71.155  1.00  0.00    -0.408 A  
HETATM   25  C   UNL     1     -10.006   9.910  69.964  1.00  0.00    -0.302 A  
HETATM   26  C   UNL     1     -11.992   9.952  71.342  1.00  0.00    -0.489 A  
ENDBRANCH   5  21
TORSDOF 1
ENDMDL
MODEL       10
REMARK 921   NORMALIZED FREE ENERGY PREDICTED BY IDOCK:   -6.34 KCAL/MOL
REMARK 922        TOTAL FREE ENERGY PREDICTED BY IDOCK:   -7.03 KCAL/MOL
REMARK 923 INTER-LIGAND FREE ENERGY PREDICTED BY IDOCK:   -6.75 KCAL/MOL
REMARK 924 INTRA-LIGAND FREE ENERGY PREDICTED BY IDOCK:   -0.28 KCAL/MOL
REMARK 927      BINDING AFFINITY PREDICTED BY RF-SCORE:    0.00 PKD
ROOT
HETATM    1  C   UNL     1     -10.963  16.740  68.267  1.00  0.00    -0.327 C  
HETATM    2  N   UNL     1     -10.771  15.357  68.659  1.00  0.00    -0.238 N  
HETATM    3  C   UNL     1      -9.451  14.857  68.749  1.00  0.00    -0.214 A  
HETATM    4  C   UNL     1      -9.149  13.598  68.215  1.00  0.00    -0.193 A  
HETATM    5  C   UNL     1     -10.255  12.697  67.604  1.00  0.00    -0.217 C  
HETATM    6  C   UNL     1      -7.780  13.221  68.174  1.00  0.00    -0.143 A  
HETATM    7  C   UNL     1      -6.785  13.998  68.758  1.00  0.00    -0.100 A  
HETATM    8  O   UNL     1      -9.558  11.489  67.147  1.00  0.00    -0.175 OA 
HETATM    9  O   UNL     1     -12.436  15.536  70.223  1.00  0.00    -0.399 OA 
HETATM   10  C   UNL     1      -7.107  15.214  69.333  1.00  0.00    -0.189 A  
HETATM   11  C   UNL     1     -11.736  14.822  69.498  1.00  0.00    -0.321 C  
HETATM   12  C   UNL     1      -9.730  10.424  68.044  1.00  0.00    -0.150 C  
HETATM   13 CL   UNL     1      -5.160  13.432  68.777  1.00  0.00    -0.070 Cl 
HETATM   14  C   UNL     1     -12.126  13.369  69.263  1.00  0.00    -0.264 C  
HETATM   15  C   UNL     1      -8.868  10.446  69.289  1.00  0.00    -0.166 C  
HETATM   16  C   UNL     1      -8.431  15.657  69.297  1.00  0.00    -0.265 A  
HETATM   17  C   UNL     1     -10.987   9.981  68.096  1.00  0.00    -0.289 C  
HETATM   18  N   UNL     1     -11.272  12.348  68.661  1.00  0.00    -0.250 N  
HETATM   19  C   UNL     1     -11.748  11.052  68.806  1.00  0.00    -0.314 C  
HETATM   20  O   UNL     1     -12.753  10.734  69.432  1.00  0.00    -0.261 OA 
ENDROOT
BRANCH   5  21
HETATM   21  C   UNL     1     -10.907  13.356  66.350  1.00  0.00    -0.294 A  
HETATM   22  C   UNL     1     -12.911  13.984  65.091  1.00  0.00    -0.368 A  
HETATM   23  C   UNL     1     -12.264  13.167  66.027  1.00  0.00    -0.478 A  
HETATM   24  C   UNL     1     -10.829  15.082  64.609  1.00  0.00    -0.290 A  
HETATM   25  C   UNL     1     -10.186  14.274  65.554  1.00  0.00    -0.379 A  
HETATM   26  C   UNL     1     -12.199  14.962  64.405  1.00  0.00    -0.399 A  
ENDBRANCH   5  21
TORSDOF 1
ENDMDL
MODEL       11
REMARK 921   NORMALIZED FREE ENERGY PREDICTED BY IDOCK:   -6.21 KCAL/MOL
REMARK 922        TOTAL FREE ENERGY PREDICTED BY IDOCK:   -6.89 KCAL/MOL
REMARK 923 INTER-LIGAND FREE ENERGY PREDICTED BY IDOCK:   -6.55 KCAL/MOL
REMARK 924 INTRA-LIGAND FREE ENERGY PREDICTED BY IDOCK:   -0.34 KCAL/MOL
REMARK 927      BINDING AFFINITY PREDICTED BY RF-SCORE:    0.00 PKD
ROOT
HETATM    1  C   UNL     1      -8.439  15.851  66.507  1.00  0.00    -0.313 C  
HETATM    2  N   UNL     1      -8.859  14.821  67.437  1.00  0.00    -0.182 N  
HETATM    3  C   UNL     1      -8.063  13.658  67.563  1.00  0.00    -0.184 A  
HETATM    4  C   UNL     1      -8.675  12.400  67.601  1.00  0.00    -0.178 A  
HETATM    5  C   UNL     1     -10.221  12.256  67.598  1.00  0.00    -0.203 C  
HETATM    6  C   UNL     1      -7.827  11.262  67.550  1.00  0.00    -0.123 A  
HETATM    7  C   UNL     1      -6.440  11.375  67.598  1.00  0.00    -0.063 A  
HETATM    8  O   UNL     1     -10.473  10.811  67.629  1.00  0.00    -0.190 OA 
HETATM    9  O   UNL     1      -9.479  16.410  68.967  1.00  0.00    -0.248 OA 
HETATM   10  C   UNL     1      -5.851  12.626  67.618  1.00  0.00    -0.140 A  
HETATM   11  C   UNL     1      -9.572  15.253  68.544  1.00  0.00    -0.211 C  
HETATM   12  C   UNL     1     -10.825  10.377  68.916  1.00  0.00    -0.236 C  
HETATM   13 CL   UNL     1      -5.469   9.957  67.651  1.00  0.00    -0.036 Cl 
HETATM   14  C   UNL     1     -10.711  14.362  69.023  1.00  0.00    -0.250 C  
HETATM   15  C   UNL     1      -9.688  10.197  69.901  1.00  0.00    -0.195 C  
HETATM   16  C   UNL     1      -6.659  13.764  67.566  1.00  0.00    -0.113 A  
HETATM   17  C   UNL     1     -12.006  10.845  69.321  1.00  0.00    -0.382 C  
HETATM   18  N   UNL     1     -10.798  12.917  68.824  1.00  0.00    -0.253 N  
HETATM   19  C   UNL     1     -11.781  12.298  69.583  1.00  0.00    -0.316 C  
HETATM   20  O   UNL     1     -12.492  12.857  70.410  1.00  0.00    -0.267 OA 
ENDROOT
BRANCH   5  21
HETATM   21  C   UNL     1     -10.847  12.805  66.279  1.00  0.00    -0.299 A  
HETATM   22  C   UNL     1     -11.029  12.740  63.838  1.00  0.00    -0.458 A  
HETATM   23  C   UNL     1     -10.306  12.504  65.013  1.00  0.00    -0.323 A  
HETATM   24  C   UNL     1     -12.778  13.775  65.119  1.00  0.00    -0.439 A  
HETATM   25  C   UNL     1     -12.061  13.526  66.295  1.00  0.00    -0.476 A  
HETATM   26  C   UNL     1     -12.279  13.349  63.894  1.00  0.00    -0.478 A  
ENDBRANCH   5  21
TORSDOF 1
ENDMDL
MODEL       12
REMARK 921   NORMALIZED FREE ENERGY PREDICTED BY IDOCK:   -6.07 KCAL/MOL
REMARK 922        TOTAL FREE ENERGY PREDICTED BY IDOCK:   -6.75 KCAL/MOL
REMARK 923 INTER-LIGAND FREE ENERGY PREDICTED BY IDOCK:   -6.43 KCAL/MOL
REMARK 924 INTRA-LIGAND FREE ENERGY PREDICTED BY IDOCK:   -0.32 KCAL/MOL
REMARK 927      BINDING AFFINITY PREDICTED BY RF-SCORE:    0.00 PKD
ROOT
HETATM    1  C   UNL     1      -7.531   7.909  69.826  1.00  0.00    -0.088 C  
HETATM    2  N   UNL     1      -8.234   9.173  69.716  1.00  0.00    -0.118 N  
HETATM    3  C   UNL     1      -9.488   9.307  70.357  1.00  0.00    -0.246 A  
HETATM    4  C   UNL     1     -10.552   9.913  69.679  1.00  0.00    -0.273 A  
HETATM    5  C   UNL     1     -10.361  10.526  68.266  1.00  0.00    -0.168 C  
HETATM    6  C   UNL     1     -11.830   9.864  70.297  1.00  0.00    -0.255 A  
HETATM    7  C   UNL     1     -12.007   9.359  71.582  1.00  0.00    -0.393 A  
HETATM    8  O   UNL     1     -11.681  11.044  67.889  1.00  0.00    -0.551 OA 
HETATM    9  O   UNL     1      -6.269  10.324  69.968  1.00  0.00    -0.062 OA 
HETATM   10  C   UNL     1     -10.933   8.814  72.263  1.00  0.00    -0.336 A  
HETATM   11  C   UNL     1      -7.441  10.301  69.579  1.00  0.00    -0.142 C  
HETATM   12  C   UNL     1     -11.755  12.434  68.055  1.00  0.00    -0.356 C  
HETATM   13 CL   UNL     1     -13.558   9.433  72.322  1.00  0.00    -0.526 Cl 
HETATM   14  C   UNL     1      -7.952  11.395  68.649  1.00  0.00    -0.141 C  
HETATM   15  C   UNL     1     -11.967  12.934  69.470  1.00  0.00    -0.346 C  
HETATM   16  C   UNL     1      -9.686   8.757  71.638  1.00  0.00    -0.366 A  
HETATM   17  C   UNL     1     -10.973  13.106  67.208  1.00  0.00    -0.288 C  
HETATM   18  N   UNL     1      -9.354  11.646  68.326  1.00  0.00    -0.187 N  
HETATM   19  C   UNL     1      -9.580  12.856  67.683  1.00  0.00    -0.196 C  
HETATM   20  O   UNL     1      -8.724  13.701  67.446  1.00  0.00    -0.190 OA 
ENDROOT
BRANCH   5  21
HETATM   21  C   UNL     1      -9.975   9.439  67.215  1.00  0.00    -0.252 A  
HETATM   22  C   UNL     1      -8.463   8.628  65.468  1.00  0.00    -0.181 A  
HETATM   23  C   UNL     1      -9.020   9.679  66.208  1.00  0.00    -0.184 A  
HETATM   24  C   UNL     1      -9.934   7.076  66.561  1.00  0.00    -0.163 A  
HETATM   25  C   UNL     1     -10.481   8.124  67.311  1.00  0.00    -0.379 A  
HETATM   26  C   UNL     1      -8.899   7.323  65.667  1.00  0.00    -0.044 A  
ENDBRANCH   5  21
TORSDOF 1
ENDMDL
MODEL       13
REMARK 921   NORMALIZED FREE ENERGY PREDICTED BY IDOCK:   -6.05 KCAL/MOL
REMARK 922        TOTAL FREE ENERGY PREDICTED BY IDOCK:   -6.72 KCAL/MOL
REMARK 923 INTER-LIGAND FREE ENERGY PREDICTED BY IDOCK:   -6.40 KCAL/MOL
REMARK 924 INTRA-LIGAND FREE ENERGY PREDICTED BY IDOCK:   -0.32 KCAL/MOL
REMARK 927      BINDING AFFINITY PREDICTED BY RF-SCORE:    0.00 PKD
ROOT
HETATM    1  C   UNL     1     -11.819  15.715  68.866  1.00  0.00    -0.352 C  
HETATM    2  N   UNL     1     -11.029  14.501  68.906  1.00  0.00    -0.247 N  
HETATM    3  C   UNL     1      -9.625  14.603  68.762  1.00  0.00    -0.210 A  
HETATM    4  C   UNL     1      -8.947  13.709  67.924  1.00  0.00    -0.195 A  
HETATM    5  C   UNL     1      -9.693  12.546  67.217  1.00  0.00    -0.202 C  
HETATM    6  C   UNL     1      -7.571  13.964  67.677  1.00  0.00    -0.188 A  
HETATM    7  C   UNL     1      -6.880  14.975  68.339  1.00  0.00    -0.110 A  
HETATM    8  O   UNL     1      -8.666  11.852  66.431  1.00  0.00    -0.186 OA 
HETATM    9  O   UNL     1     -12.324  13.674  70.606  1.00  0.00    -0.342 OA 
HETATM   10  C   UNL     1      -7.553  15.815  69.208  1.00  0.00    -0.224 A  
HETATM   11  C   UNL     1     -11.537  13.467  69.676  1.00  0.00    -0.275 C  
HETATM   12  C   UNL     1      -8.240  10.675  67.065  1.00  0.00    -0.124 C  
HETATM   13 CL   UNL     1      -5.189  15.161  68.086  1.00  0.00    -0.111 Cl 
HETATM   14  C   UNL     1     -11.353  12.052  69.142  1.00  0.00    -0.281 C  
HETATM   15  C   UNL     1      -7.253  10.842  68.202  1.00  0.00    -0.083 C  
HETATM   16  C   UNL     1      -8.927  15.651  69.392  1.00  0.00    -0.265 A  
HETATM   17  C   UNL     1      -9.187   9.738  67.120  1.00  0.00    -0.159 C  
HETATM   18  N   UNL     1     -10.284  11.617  68.246  1.00  0.00    -0.193 N  
HETATM   19  C   UNL     1     -10.172  10.238  68.124  1.00  0.00    -0.164 C  
HETATM   20  O   UNL     1     -10.842   9.418  68.743  1.00  0.00    -0.199 OA 
ENDROOT
BRANCH   5  21
HETATM   21  C   UNL     1     -10.762  13.075  66.212  1.00  0.00    -0.290 A  
HETATM   22  C   UNL     1     -11.424  14.660  64.467  1.00  0.00    -0.340 A  
HETATM   23  C   UNL     1     -10.635  14.325  65.575  1.00  0.00    -0.351 A  
HETATM   24  C   UNL     1     -12.640  12.603  64.707  1.00  0.00    -0.530 A  
HETATM   25  C   UNL     1     -11.843  12.262  65.806  1.00  0.00    -0.417 A  
HETATM   26  C   UNL     1     -12.405  13.785  64.015  1.00  0.00    -0.370 A  
ENDBRANCH   5  21
TORSDOF 1
ENDMDL
MODEL       14
REMARK 921   NORMALIZED FREE ENERGY PREDICTED BY IDOCK:   -6.03 KCAL/MOL
REMARK 922        TOTAL FREE ENERGY PREDICTED BY IDOCK:   -6.71 KCAL/MOL
REMARK 923 INTER-LIGAND FREE ENERGY PREDICTED BY IDOCK:   -6.43 KCAL/MOL
REMARK 924 INTRA-LIGAND FREE ENERGY PREDICTED BY IDOCK:   -0.28 KCAL/MOL
REMARK 927      BINDING AFFINITY PREDICTED BY RF-SCORE:    0.00 PKD
ROOT
HETATM    1  C   UNL     1     -10.619   8.667  68.201  1.00  0.00    -0.133 C  
HETATM    2  N   UNL     1      -9.955   8.091  69.353  1.00  0.00    -0.186 N  
HETATM    3  C   UNL     1      -9.784   6.687  69.402  1.00  0.00    -0.147 A  
HETATM    4  C   UNL     1     -10.052   5.997  70.590  1.00  0.00    -0.246 A  
HETATM    5  C   UNL     1     -10.450   6.752  71.887  1.00  0.00    -0.199 C  
HETATM    6  C   UNL     1     -10.035   4.578  70.537  1.00  0.00    -0.278 A  
HETATM    7  C   UNL     1      -9.637   3.889  69.395  1.00  0.00    -0.169 A  
HETATM    8  O   UNL     1     -10.660   5.705  72.893  1.00  0.00    -0.204 OA 
HETATM    9  O   UNL     1      -8.438   9.807  69.378  1.00  0.00    -0.131 OA 
HETATM   10  C   UNL     1      -9.319   4.588  68.244  1.00  0.00    -0.190 A  
HETATM   11  C   UNL     1      -9.011   8.891  69.976  1.00  0.00    -0.165 C  
HETATM   12  C   UNL     1      -9.562   5.595  73.759  1.00  0.00    -0.143 C  
HETATM   13 CL   UNL     1      -9.525   2.173  69.428  1.00  0.00    -0.161 Cl 
HETATM   14  C   UNL     1      -8.937   8.818  71.496  1.00  0.00    -0.236 C  
HETATM   15  C   UNL     1      -8.360   4.840  73.230  1.00  0.00    -0.103 C  
HETATM   16  C   UNL     1      -9.426   5.980  68.239  1.00  0.00    -0.117 A  
HETATM   17  C   UNL     1      -9.402   6.663  74.541  1.00  0.00    -0.256 C  
HETATM   18  N   UNL     1      -9.330   7.669  72.309  1.00  0.00    -0.144 N  
HETATM   19  C   UNL     1      -8.916   7.742  73.632  1.00  0.00    -0.277 C  
HETATM   20  O   UNL     1      -8.224   8.636  74.107  1.00  0.00    -0.341 OA 
ENDROOT
BRANCH   5  21
HETATM   21  C   UNL     1     -11.804   7.509  71.720  1.00  0.00    -0.327 A  
HETATM   22  C   UNL     1     -14.221   7.459  71.338  1.00  0.00    -0.508 A  
HETATM   23  C   UNL     1     -12.954   6.879  71.207  1.00  0.00    -0.309 A  
HETATM   24  C   UNL     1     -13.228   9.415  72.315  1.00  0.00    -0.528 A  
HETATM   25  C   UNL     1     -11.962   8.829  72.196  1.00  0.00    -0.436 A  
HETATM   26  C   UNL     1     -14.361   8.714  71.919  1.00  0.00    -0.492 A  
ENDBRANCH   5  21
TORSDOF 1
ENDMDL
MODEL       15
REMARK 921   NORMALIZED FREE ENERGY PREDICTED BY IDOCK:   -5.90 KCAL/MOL
REMARK 922        TOTAL FREE ENERGY PREDICTED BY IDOCK:   -6.57 KCAL/MOL
REMARK 923 INTER-LIGAND FREE ENERGY PREDICTED BY IDOCK:   -6.52 KCAL/MOL
REMARK 924 INTRA-LIGAND FREE ENERGY PREDICTED BY IDOCK:   -0.05 KCAL/MOL
REMARK 927      BINDING AFFINITY PREDICTED BY RF-SCORE:    0.00 PKD
ROOT
HETATM    1  C   UNL     1      -7.335  10.018  67.604  1.00  0.00    -0.089 C  
HETATM    2  N   UNL     1      -8.125  11.107  68.146  1.00  0.00    -0.122 N  
HETATM    3  C   UNL     1      -9.191  10.798  69.023  1.00  0.00    -0.146 A  
HETATM    4  C   UNL     1     -10.425  11.440  68.867  1.00  0.00    -0.219 A  
HETATM    5  C   UNL     1     -10.624  12.554  67.804  1.00  0.00    -0.219 C  
HETATM    6  C   UNL     1     -11.509  10.968  69.655  1.00  0.00    -0.375 A  
HETATM    7  C   UNL     1     -11.334  10.002  70.642  1.00  0.00    -0.348 A  
HETATM    8  O   UNL     1     -12.027  12.964  67.934  1.00  0.00    -0.349 OA 
HETATM    9  O   UNL     1      -6.237  12.372  68.438  1.00  0.00    -0.053 OA 
HETATM   10  C   UNL     1     -10.094   9.417  70.823  1.00  0.00    -0.366 A  
HETATM   11  C   UNL     1      -7.465  12.313  68.313  1.00  0.00    -0.119 C  
HETATM   12  C   UNL     1     -12.149  14.164  68.649  1.00  0.00    -0.285 C  
HETATM   13 CL   UNL     1     -12.660   9.555  71.643  1.00  0.00    -0.443 Cl 
HETATM   14  C   UNL     1      -8.256  13.580  68.014  1.00  0.00    -0.163 C  
HETATM   15  C   UNL     1     -12.042  14.065  70.157  1.00  0.00    -0.419 C  
HETATM   16  C   UNL     1      -9.035   9.789  69.992  1.00  0.00    -0.255 A  
HETATM   17  C   UNL     1     -11.642  15.214  68.001  1.00  0.00    -0.345 C  
HETATM   18  N   UNL     1      -9.708  13.714  68.102  1.00  0.00    -0.224 N  
HETATM   19  C   UNL     1     -10.162  15.025  68.050  1.00  0.00    -0.228 C  
HETATM   20  O   UNL     1      -9.446  16.019  68.002  1.00  0.00    -0.205 OA 
ENDROOT
BRANCH   5  21
HETATM   21  C   UNL     1     -10.436  12.008  66.355  1.00  0.00    -0.267 A  
HETATM   22  C   UNL     1      -9.663  12.335  64.055  1.00  0.00    -0.083 A  
HETATM   23  C   UNL     1     -10.122  12.852  65.273  1.00  0.00    -0.254 A  
HETATM   24  C   UNL     1     -10.005  10.102  64.872  1.00  0.00    -0.358 A  
HETATM   25  C   UNL     1     -10.450  10.620  66.094  1.00  0.00    -0.260 A  
HETATM   26  C   UNL     1      -9.576  10.960  63.866  1.00  0.00    -0.326 A  
ENDBRANCH   5  21
TORSDOF 1
ENDMDL
MODEL       16
REMARK 921   NORMALIZED FREE ENERGY PREDICTED BY IDOCK:   -5.90 KCAL/MOL
REMARK 922        TOTAL FREE ENERGY PREDICTED BY IDOCK:   -6.56 KCAL/MOL
REMARK 923 INTER-LIGAND FREE ENERGY PREDICTED BY IDOCK:   -6.20 KCAL/MOL
REMARK 924 INTRA-LIGAND FREE ENERGY PREDICTED BY IDOCK:   -0.36 KCAL/MOL
REMARK 927      BINDING AFFINITY PREDICTED BY RF-SCORE:    0.00 PKD
ROOT
HETATM    1  C   UNL     1      -8.636   7.500  66.922  1.00  0.00    -0.124 C  
HETATM    2  N   UNL     1      -9.761   7.746  67.802  1.00  0.00    -0.148 N  
HETATM    3  C   UNL     1     -10.344   9.035  67.810  1.00  0.00    -0.246 A  
HETATM    4  C   UNL     1     -10.669   9.641  69.030  1.00  0.00    -0.232 A  
HETATM    5  C   UNL     1     -10.488   8.889  70.375  1.00  0.00    -0.210 C  
HETATM    6  C   UNL     1     -11.085  10.999  68.991  1.00  0.00    -0.301 A  
HETATM    7  C   UNL     1     -11.295  11.670  67.791  1.00  0.00    -0.288 A  
HETATM    8  O   UNL     1     -10.915   9.840  71.408  1.00  0.00    -0.342 OA 
HETATM    9  O   UNL     1     -10.638   5.688  67.308  1.00  0.00    -0.241 OA 
HETATM   10  C   UNL     1     -11.023  11.038  66.591  1.00  0.00    -0.253 A  
HETATM   11  C   UNL     1     -10.573   6.656  68.072  1.00  0.00    -0.245 C  
HETATM   12  C   UNL     1     -12.208   9.552  71.870  1.00  0.00    -0.358 C  
HETATM   13 CL   UNL     1     -11.910  13.277  67.807  1.00  0.00    -0.394 Cl 
HETATM   14  C   UNL     1     -11.130   6.543  69.486  1.00  0.00    -0.365 C  
HETATM   15  C   UNL     1     -13.354  10.002  70.987  1.00  0.00    -0.334 C  
HETATM   16  C   UNL     1     -10.516   9.738  66.602  1.00  0.00    -0.233 A  
HETATM   17  C   UNL     1     -12.281   8.404  72.543  1.00  0.00    -0.381 C  
HETATM   18  N   UNL     1     -11.363   7.661  70.397  1.00  0.00    -0.255 N  
HETATM   19  C   UNL     1     -12.124   7.336  71.512  1.00  0.00    -0.331 C  
HETATM   20  O   UNL     1     -12.634   6.242  71.723  1.00  0.00    -0.201 OA 
ENDROOT
BRANCH   5  21
HETATM   21  C   UNL     1      -8.990   8.554  70.650  1.00  0.00    -0.182 A  
HETATM   22  C   UNL     1      -6.667   9.290  70.887  1.00  0.00    -0.094 A  
HETATM   23  C   UNL     1      -7.956   9.469  70.370  1.00  0.00    -0.200 A  
HETATM   24  C   UNL     1      -7.328   7.175  71.813  1.00  0.00    -0.084 A  
HETATM   25  C   UNL     1      -8.620   7.360  71.309  1.00  0.00    -0.118 A  
HETATM   26  C   UNL     1      -6.362   8.158  71.634  1.00  0.00    -0.045 A  
ENDBRANCH   5  21
TORSDOF 1
ENDMDL
MODEL       17
REMARK 921   NORMALIZED FREE ENERGY PREDICTED BY IDOCK:   -5.86 KCAL/MOL
REMARK 922        TOTAL FREE ENERGY PREDICTED BY IDOCK:   -6.52 KCAL/MOL
REMARK 923 INTER-LIGAND FREE ENERGY PREDICTED BY IDOCK:   -6.57 KCAL/MOL
REMARK 924 INTRA-LIGAND FREE ENERGY PREDICTED BY IDOCK:    0.05 KCAL/MOL
REMARK 927      BINDING AFFINITY PREDICTED BY RF-SCORE:    0.00 PKD
ROOT
HETATM    1  C   UNL     1     -10.897  17.376  66.520  1.00  0.00     0.050 C  
HETATM    2  N   UNL     1     -10.140  16.150  66.364  1.00  0.00    -0.291 N  
HETATM    3  C   UNL     1     -10.730  15.076  65.657  1.00  0.00    -0.354 A  
HETATM    4  C   UNL     1     -10.635  13.775  66.165  1.00  0.00    -0.291 A  
HETATM    5  C   UNL     1      -9.815  13.470  67.447  1.00  0.00    -0.227 C  
HETATM    6  C   UNL     1     -11.391  12.764  65.513  1.00  0.00    -0.347 A  
HETATM    7  C   UNL     1     -12.093  13.014  64.337  1.00  0.00    -0.411 A  
HETATM    8  O   UNL     1      -9.963  12.027  67.665  1.00  0.00    -0.186 OA 
HETATM    9  O   UNL     1      -8.222  17.344  65.987  1.00  0.00    -0.494 OA 
HETATM   10  C   UNL     1     -12.130  14.295  63.815  1.00  0.00    -0.114 A  
HETATM   11  C   UNL     1      -8.762  16.285  66.323  1.00  0.00    -0.335 C  
HETATM   12  C   UNL     1      -8.827  11.322  67.241  1.00  0.00    -0.150 C  
HETATM   13 CL   UNL     1     -12.894  11.723  63.531  1.00  0.00    -0.531 Cl 
HETATM   14  C   UNL     1      -7.940  15.203  67.012  1.00  0.00    -0.188 C  
HETATM   15  C   UNL     1      -8.701  11.081  65.751  1.00  0.00    -0.179 C  
HETATM   16  C   UNL     1     -11.480  15.328  64.492  1.00  0.00    -0.318 A  
HETATM   17  C   UNL     1      -7.747  11.575  67.981  1.00  0.00    -0.119 C  
HETATM   18  N   UNL     1      -8.366  13.821  67.223  1.00  0.00    -0.186 N  
HETATM   19  C   UNL     1      -7.346  12.968  67.621  1.00  0.00    -0.147 C  
HETATM   20  O   UNL     1      -6.166  13.281  67.733  1.00  0.00    -0.132 OA 
ENDROOT
BRANCH   5  21
HETATM   21  C   UNL     1     -10.412  14.188  68.696  1.00  0.00    -0.250 A  
HETATM   22  C   UNL     1     -10.337  16.018  70.321  1.00  0.00    -0.006 A  
HETATM   23  C   UNL     1      -9.698  15.175  69.404  1.00  0.00    -0.206 A  
HETATM   24  C   UNL     1     -12.384  14.799  70.020  1.00  0.00    -0.365 A  
HETATM   25  C   UNL     1     -11.749  13.965  69.093  1.00  0.00    -0.382 A  
HETATM   26  C   UNL     1     -11.687  15.849  70.606  1.00  0.00    -0.411 A  
ENDBRANCH   5  21
TORSDOF 1
ENDMDL
MODEL       18
REMARK 921   NORMALIZED FREE ENERGY PREDICTED BY IDOCK:   -5.81 KCAL/MOL
REMARK 922        TOTAL FREE ENERGY PREDICTED BY IDOCK:   -6.47 KCAL/MOL
REMARK 923 INTER-LIGAND FREE ENERGY PREDICTED BY IDOCK:   -6.18 KCAL/MOL
REMARK 924 INTRA-LIGAND FREE ENERGY PREDICTED BY IDOCK:   -0.29 KCAL/MOL
REMARK 927      BINDING AFFINITY PREDICTED BY RF-SCORE:    0.00 PKD
ROOT
HETATM    1  C   UNL     1      -8.154   5.891  70.126  1.00  0.00    -0.110 C  
HETATM    2  N   UNL     1      -9.390   6.646  70.074  1.00  0.00    -0.157 N  
HETATM    3  C   UNL     1      -9.353   7.971  69.582  1.00  0.00    -0.156 A  
HETATM    4  C   UNL     1     -10.049   8.982  70.256  1.00  0.00    -0.232 A  
HETATM    5  C   UNL     1     -10.939   8.661  71.487  1.00  0.00    -0.290 C  
HETATM    6  C   UNL     1      -9.837  10.318  69.825  1.00  0.00    -0.201 A  
HETATM    7  C   UNL     1      -9.079  10.615  68.696  1.00  0.00    -0.170 A  
HETATM    8  O   UNL     1     -11.480   9.956  71.918  1.00  0.00    -0.147 OA 
HETATM    9  O   UNL     1     -10.529   4.791  69.358  1.00  0.00    -0.103 OA 
HETATM   10  C   UNL     1      -8.443   9.599  68.005  1.00  0.00    -0.118 A  
HETATM   11  C   UNL     1     -10.548   5.907  69.888  1.00  0.00    -0.299 C  
HETATM   12  C   UNL     1     -12.806  10.126  71.494  1.00  0.00    -0.443 C  
HETATM   13 CL   UNL     1      -8.953  12.243  68.156  1.00  0.00    -0.189 Cl 
HETATM   14  C   UNL     1     -11.789   6.366  70.642  1.00  0.00    -0.250 C  
HETATM   15  C   UNL     1     -13.004  10.529  70.047  1.00  0.00     0.071 C  
HETATM   16  C   UNL     1      -8.551   8.286  68.468  1.00  0.00    -0.133 A  
HETATM   17  C   UNL     1     -13.658   9.290  72.088  1.00  0.00    -0.536 C  
HETATM   18  N   UNL     1     -12.056   7.733  71.083  1.00  0.00    -0.304 N  
HETATM   19  C   UNL     1     -13.362   7.950  71.501  1.00  0.00    -0.303 C  
HETATM   20  O   UNL     1     -14.264   7.120  71.459  1.00  0.00    -0.400 OA 
ENDROOT
BRANCH   5  21
HETATM   21  C   UNL     1     -10.098   8.096  72.673  1.00  0.00    -0.379 A  
HETATM   22  C   UNL     1      -9.763   6.404  74.411  1.00  0.00    -0.310 A  
HETATM   23  C   UNL     1     -10.606   7.118  73.550  1.00  0.00    -0.416 A  
HETATM   24  C   UNL     1      -7.902   7.751  73.710  1.00  0.00    -0.207 A  
HETATM   25  C   UNL     1      -8.742   8.455  72.839  1.00  0.00    -0.240 A  
HETATM   26  C   UNL     1      -8.406   6.701  74.468  1.00  0.00    -0.157 A  
ENDBRANCH   5  21
TORSDOF 1
ENDMDL
MODEL       19
REMARK 921   NORMALIZED FREE ENERGY PREDICTED BY IDOCK:   -5.80 KCAL/MOL
REMARK 922        TOTAL FREE ENERGY PREDICTED BY IDOCK:   -6.46 KCAL/MOL
REMARK 923 INTER-LIGAND FREE ENERGY PREDICTED BY IDOCK:   -6.55 KCAL/MOL
REMARK 924 INTRA-LIGAND FREE ENERGY PREDICTED BY IDOCK:    0.09 KCAL/MOL
REMARK 927      BINDING AFFINITY PREDICTED BY RF-SCORE:    0.00 PKD
ROOT
HETATM    1  C   UNL     1     -11.178  14.392  69.206  1.00  0.00    -0.275 C  
HETATM    2  N   UNL     1     -11.189  13.148  68.463  1.00  0.00    -0.255 N  
HETATM    3  C   UNL     1     -11.293  11.933  69.180  1.00  0.00    -0.279 A  
HETATM    4  C   UNL     1     -10.470  10.853  68.838  1.00  0.00    -0.228 A  
HETATM    5  C   UNL     1      -9.504  10.930  67.624  1.00  0.00    -0.159 C  
HETATM    6  C   UNL     1     -10.488   9.722  69.697  1.00  0.00    -0.263 A  
HETATM    7  C   UNL     1     -11.380   9.621  70.761  1.00  0.00    -0.340 A  
HETATM    8  O   UNL     1      -8.815   9.635  67.598  1.00  0.00    -0.125 OA 
HETATM    9  O   UNL     1     -12.531  14.082  66.858  1.00  0.00    -0.364 OA 
HETATM   10  C   UNL     1     -12.228  10.674  71.052  1.00  0.00    -0.498 A  
HETATM   11  C   UNL     1     -11.725  13.205  67.186  1.00  0.00    -0.377 C  
HETATM   12  C   UNL     1      -9.352   8.786  66.620  1.00  0.00    -0.189 C  
HETATM   13 CL   UNL     1     -11.434   8.178  71.695  1.00  0.00    -0.304 Cl 
HETATM   14  C   UNL     1     -11.049  12.359  66.115  1.00  0.00    -0.302 C  
HETATM   15  C   UNL     1     -10.648   8.085  66.973  1.00  0.00    -0.364 C  
HETATM   16  C   UNL     1     -12.160  11.839  70.285  1.00  0.00    -0.426 A  
HETATM   17  C   UNL     1      -9.129   9.212  65.376  1.00  0.00    -0.271 C  
HETATM   18  N   UNL     1     -10.293  11.132  66.356  1.00  0.00    -0.244 N  
HETATM   19  C   UNL     1     -10.013  10.403  65.208  1.00  0.00    -0.309 C  
HETATM   20  O   UNL     1     -10.401  10.686  64.080  1.00  0.00    -0.339 OA 
ENDROOT
BRANCH   5  21
HETATM   21  C   UNL     1      -8.415  12.028  67.825  1.00  0.00    -0.157 A  
HETATM   22  C   UNL     1      -7.571  14.280  67.365  1.00  0.00    -0.185 A  
HETATM   23  C   UNL     1      -8.343  13.169  67.003  1.00  0.00    -0.094 A  
HETATM   24  C   UNL     1      -6.748  13.087  69.280  1.00  0.00    -0.062 A  
HETATM   25  C   UNL     1      -7.530  11.981  68.925  1.00  0.00    -0.043 A  
HETATM   26  C   UNL     1      -6.798  14.249  68.520  1.00  0.00    -0.100 A  
ENDBRANCH   5  21
TORSDOF 1
ENDMDL
MODEL       20
REMARK 921   NORMALIZED FREE ENERGY PREDICTED BY IDOCK:   -5.78 KCAL/MOL
REMARK 922        TOTAL FREE ENERGY PREDICTED BY IDOCK:   -6.44 KCAL/MOL
REMARK 923 INTER-LIGAND FREE ENERGY PREDICTED BY IDOCK:   -6.24 KCAL/MOL
REMARK 924 INTRA-LIGAND FREE ENERGY PREDICTED BY IDOCK:   -0.20 KCAL/MOL
REMARK 927      BINDING AFFINITY PREDICTED BY RF-SCORE:    0.00 PKD
ROOT
HETATM    1  C   UNL     1      -9.807  17.521  67.884  1.00  0.00    -0.293 C  
HETATM    2  N   UNL     1     -10.272  16.178  67.598  1.00  0.00    -0.259 N  
HETATM    3  C   UNL     1     -11.038  15.505  68.579  1.00  0.00    -0.307 A  
HETATM    4  C   UNL     1     -10.763  14.165  68.874  1.00  0.00    -0.270 A  
HETATM    5  C   UNL     1      -9.690  13.370  68.082  1.00  0.00    -0.226 C  
HETATM    6  C   UNL     1     -11.438  13.590  69.984  1.00  0.00    -0.141 A  
HETATM    7  C   UNL     1     -12.434  14.275  70.674  1.00  0.00    -0.358 A  
HETATM    8  O   UNL     1      -9.681  12.031  68.682  1.00  0.00    -0.183 OA 
HETATM    9  O   UNL     1     -10.754  16.770  65.438  1.00  0.00    -0.507 OA 
HETATM   10  C   UNL     1     -12.735  15.582  70.333  1.00  0.00    -0.382 A  
HETATM   11  C   UNL     1     -10.508  15.885  66.265  1.00  0.00    -0.318 C  
HETATM   12  C   UNL     1     -10.385  11.109  67.893  1.00  0.00    -0.185 C  
HETATM   13 CL   UNL     1     -13.297  13.486  71.935  1.00  0.00    -0.501 Cl 
HETATM   14  C   UNL     1     -10.137  14.487  65.789  1.00  0.00    -0.342 C  
HETATM   15  C   UNL     1     -11.896  11.144  68.001  1.00  0.00    -0.203 C  
HETATM   16  C   UNL     1     -12.015  16.205  69.312  1.00  0.00    -0.086 A  
HETATM   17  C   UNL     1      -9.794  10.861  66.724  1.00  0.00    -0.231 C  
HETATM   18  N   UNL     1     -10.081  13.292  66.628  1.00  0.00    -0.260 N  
HETATM   19  C   UNL     1      -9.989  12.103  65.918  1.00  0.00    -0.245 C  
HETATM   20  O   UNL     1     -10.016  12.006  64.696  1.00  0.00    -0.257 OA 
ENDROOT
BRANCH   5  21
HETATM   21  C   UNL     1      -8.265  13.973  68.280  1.00  0.00    -0.153 A  
HETATM   22  C   UNL     1      -6.625  15.100  69.707  1.00  0.00    -0.177 A  
HETATM   23  C   UNL     1      -7.952  14.811  69.368  1.00  0.00    -0.065 A  
HETATM   24  C   UNL     1      -5.867  13.898  67.770  1.00  0.00    -0.098 A  
HETATM   25  C   UNL     1      -7.193  13.598  67.440  1.00  0.00    -0.108 A  
HETATM   26  C   UNL     1      -5.581  14.618  68.925  1.00  0.00    -0.087 A  
ENDBRANCH   5  21
TORSDOF 1
ENDMDL
MODEL       21
REMARK 921   NORMALIZED FREE ENERGY PREDICTED BY IDOCK:   -5.77 KCAL/MOL
REMARK 922        TOTAL FREE ENERGY PREDICTED BY IDOCK:   -6.43 KCAL/MOL
REMARK 923 INTER-LIGAND FREE ENERGY PREDICTED BY IDOCK:   -6.10 KCAL/MOL
REMARK 924 INTRA-LIGAND FREE ENERGY PREDICTED BY IDOCK:   -0.33 KCAL/MOL
REMARK 927      BINDING AFFINITY PREDICTED BY RF-SCORE:    0.00 PKD
ROOT
HETATM    1  C   UNL     1      -9.703  10.336  69.670  1.00  0.00    -0.185 C  
HETATM    2  N   UNL     1     -10.358  10.724  68.436  1.00  0.00    -0.171 N  
HETATM    3  C   UNL     1      -9.932  10.123  67.228  1.00  0.00    -0.195 A  
HETATM    4  C   UNL     1      -9.743  10.915  66.088  1.00  0.00    -0.252 A  
HETATM    5  C   UNL     1     -10.078  12.431  66.098  1.00  0.00    -0.248 C  
HETATM    6  C   UNL     1      -9.149  10.296  64.957  1.00  0.00    -0.244 A  
HETATM    7  C   UNL     1      -8.886   8.930  64.919  1.00  0.00    -0.117 A  
HETATM    8  O   UNL     1      -9.739  12.908  64.752  1.00  0.00    -0.061 OA 
HETATM    9  O   UNL     1     -12.394  10.745  69.485  1.00  0.00    -0.305 OA 
HETATM   10  C   UNL     1      -9.132   8.149  66.034  1.00  0.00    -0.218 A  
HETATM   11  C   UNL     1     -11.683  11.114  68.545  1.00  0.00    -0.298 C  
HETATM   12  C   UNL     1     -10.884  13.057  63.955  1.00  0.00    -0.377 C  
HETATM   13 CL   UNL     1      -8.273   8.217  63.478  1.00  0.00    -0.127 Cl 
HETATM   14  C   UNL     1     -12.140  12.263  67.655  1.00  0.00     0.038 C  
HETATM   15  C   UNL     1     -11.459  11.790  63.357  1.00  0.00    -0.424 C  
HETATM   16  C   UNL     1      -9.620   8.751  67.195  1.00  0.00    -0.228 A  
HETATM   17  C   UNL     1     -11.688  14.037  64.371  1.00  0.00    -0.415 C  
HETATM   18  N   UNL     1     -11.548  12.628  66.371  1.00  0.00    -0.363 N  
HETATM   19  C   UNL     1     -12.306  13.525  65.630  1.00  0.00    -0.476 C  
HETATM   20  O   UNL     1     -13.411  13.949  65.951  1.00  0.00    -0.396 OA 
ENDROOT
BRANCH   5  21
HETATM   21  C   UNL     1      -9.179  13.212  67.104  1.00  0.00    -0.227 A  
HETATM   22  C   UNL     1      -6.973  13.642  68.077  1.00  0.00    -0.135 A  
HETATM   23  C   UNL     1      -7.872  12.792  67.421  1.00  0.00    -0.172 A  
HETATM   24  C   UNL     1      -8.702  15.293  68.312  1.00  0.00    -0.165 A  
HETATM   25  C   UNL     1      -9.597  14.448  67.644  1.00  0.00    -0.214 A  
HETATM   26  C   UNL     1      -7.380  14.904  68.495  1.00  0.00    -0.119 A  
ENDBRANCH   5  21
TORSDOF 1
ENDMDL
MODEL       22
REMARK 921   NORMALIZED FREE ENERGY PREDICTED BY IDOCK:   -5.75 KCAL/MOL
REMARK 922        TOTAL FREE ENERGY PREDICTED BY IDOCK:   -6.41 KCAL/MOL
REMARK 923 INTER-LIGAND FREE ENERGY PREDICTED BY IDOCK:   -6.05 KCAL/MOL
REMARK 924 INTRA-LIGAND FREE ENERGY PREDICTED BY IDOCK:   -0.35 KCAL/MOL
REMARK 927      BINDING AFFINITY PREDICTED BY RF-SCORE:    0.00 PKD
ROOT
HETATM    1  C   UNL     1     -10.652   6.893  67.814  1.00  0.00    -0.244 C  
HETATM    2  N   UNL     1      -9.811   6.804  68.992  1.00  0.00    -0.148 N  
HETATM    3  C   UNL     1      -9.689   5.554  69.642  1.00  0.00    -0.172 A  
HETATM    4  C   UNL     1      -9.763   5.487  71.038  1.00  0.00    -0.229 A  
HETATM    5  C   UNL     1      -9.887   6.774  71.899  1.00  0.00    -0.165 C  
HETATM    6  C   UNL     1      -9.812   4.196  71.627  1.00  0.00    -0.254 A  
HETATM    7  C   UNL     1      -9.656   3.037  70.873  1.00  0.00    -0.145 A  
HETATM    8  O   UNL     1      -9.951   6.303  73.287  1.00  0.00    -0.165 OA 
HETATM    9  O   UNL     1      -8.249   8.169  68.019  1.00  0.00    -0.126 OA 
HETATM   10  C   UNL     1      -9.526   3.121  69.498  1.00  0.00    -0.190 A  
HETATM   11  C   UNL     1      -8.738   7.679  69.042  1.00  0.00    -0.136 C  
HETATM   12  C   UNL     1      -8.718   6.454  73.939  1.00  0.00    -0.125 C  
HETATM   13 CL   UNL     1      -9.608   1.507  71.658  1.00  0.00    -0.176 Cl 
HETATM   14  C   UNL     1      -8.392   8.269  70.404  1.00  0.00    -0.120 C  
HETATM   15  C   UNL     1      -7.664   5.409  73.637  1.00  0.00    -0.102 C  
HETATM   16  C   UNL     1      -9.578   4.373  68.882  1.00  0.00    -0.233 A  
HETATM   17  C   UNL     1      -8.376   7.729  74.125  1.00  0.00    -0.297 C  
HETATM   18  N   UNL     1      -8.673   7.644  71.694  1.00  0.00    -0.114 N  
HETATM   19  C   UNL     1      -8.022   8.239  72.767  1.00  0.00    -0.137 C  
HETATM   20  O   UNL     1      -7.221   9.163  72.682  1.00  0.00    -0.267 OA 
ENDROOT
BRANCH   5  21
HETATM   21  C   UNL     1     -11.218   7.534  71.608  1.00  0.00    -0.275 A  
HETATM   22  C   UNL     1     -13.664   7.554  71.510  1.00  0.00    -0.460 A  
HETATM   23  C   UNL     1     -12.447   6.862  71.469  1.00  0.00    -0.420 A  
HETATM   24  C   UNL     1     -12.477   9.639  71.624  1.00  0.00    -0.494 A  
HETATM   25  C   UNL     1     -11.261   8.946  71.597  1.00  0.00    -0.415 A  
HETATM   26  C   UNL     1     -13.678   8.940  71.618  1.00  0.00    -0.444 A  
ENDBRANCH   5  21
TORSDOF 1
ENDMDL
MODEL       23
REMARK 921   NORMALIZED FREE ENERGY PREDICTED BY IDOCK:   -5.72 KCAL/MOL
REMARK 922        TOTAL FREE ENERGY PREDICTED BY IDOCK:   -6.38 KCAL/MOL
REMARK 923 INTER-LIGAND FREE ENERGY PREDICTED BY IDOCK:   -6.24 KCAL/MOL
REMARK 924 INTRA-LIGAND FREE ENERGY PREDICTED BY IDOCK:   -0.14 KCAL/MOL
REMARK 927      BINDING AFFINITY PREDICTED BY RF-SCORE:    0.00 PKD
ROOT
HETATM    1  C   UNL     1     -11.311  13.929  69.530  1.00  0.00    -0.237 C  
HETATM    2  N   UNL     1     -11.277  12.728  68.717  1.00  0.00    -0.267 N  
HETATM    3  C   UNL     1     -11.413  11.474  69.358  1.00  0.00    -0.309 A  
HETATM    4  C   UNL     1     -10.567  10.417  69.000  1.00  0.00    -0.247 A  
HETATM    5  C   UNL     1      -9.539  10.565  67.847  1.00  0.00    -0.150 C  
HETATM    6  C   UNL     1     -10.626   9.240  69.792  1.00  0.00    -0.244 A  
HETATM    7  C   UNL     1     -11.574   9.077  70.798  1.00  0.00    -0.265 A  
HETATM    8  O   UNL     1      -8.843   9.275  67.784  1.00  0.00    -0.121 OA 
HETATM    9  O   UNL     1     -12.535  13.750  67.098  1.00  0.00    -0.280 OA 
HETATM   10  C   UNL     1     -12.441  10.110  71.103  1.00  0.00    -0.490 A  
HETATM   11  C   UNL     1     -11.743  12.857  67.419  1.00  0.00    -0.372 C  
HETATM   12  C   UNL     1      -9.322   8.482  66.732  1.00  0.00    -0.182 C  
HETATM   13 CL   UNL     1     -11.672   7.583  71.645  1.00  0.00    -0.296 Cl 
HETATM   14  C   UNL     1     -11.007  12.074  66.340  1.00  0.00    -0.296 C  
HETATM   15  C   UNL     1     -10.632   7.760  66.975  1.00  0.00    -0.396 C  
HETATM   16  C   UNL     1     -12.337  11.317  70.408  1.00  0.00    -0.415 A  
HETATM   17  C   UNL     1      -9.035   8.978  65.528  1.00  0.00    -0.252 C  
HETATM   18  N   UNL     1     -10.259  10.837  66.551  1.00  0.00    -0.228 N  
HETATM   19  C   UNL     1      -9.914  10.175  65.380  1.00  0.00    -0.307 C  
HETATM   20  O   UNL     1     -10.242  10.521  64.251  1.00  0.00    -0.344 OA 
ENDROOT
BRANCH   5  21
HETATM   21  C   UNL     1      -8.467  11.652  68.168  1.00  0.00    -0.156 A  
HETATM   22  C   UNL     1      -6.514  12.381  69.453  1.00  0.00    -0.103 A  
HETATM   23  C   UNL     1      -7.660  11.588  69.321  1.00  0.00     0.075 A  
HETATM   24  C   UNL     1      -7.037  13.484  67.384  1.00  0.00    -0.098 A  
HETATM   25  C   UNL     1      -8.175  12.681  67.246  1.00  0.00    -0.184 A  
HETATM   26  C   UNL     1      -6.187  13.308  68.469  1.00  0.00    -0.081 A  
ENDBRANCH   5  21
TORSDOF 1
ENDMDL
MODEL       24
REMARK 921   NORMALIZED FREE ENERGY PREDICTED BY IDOCK:   -5.64 KCAL/MOL
REMARK 922        TOTAL FREE ENERGY PREDICTED BY IDOCK:   -6.29 KCAL/MOL
REMARK 923 INTER-LIGAND FREE ENERGY PREDICTED BY IDOCK:   -5.94 KCAL/MOL
REMARK 924 INTRA-LIGAND FREE ENERGY PREDICTED BY IDOCK:   -0.35 KCAL/MOL
REMARK 927      BINDING AFFINITY PREDICTED BY RF-SCORE:    0.00 PKD
ROOT
HETATM    1  C   UNL     1      -8.881  11.484  67.032  1.00  0.00    -0.173 C  
HETATM    2  N   UNL     1      -9.695  10.393  67.530  1.00  0.00    -0.167 N  
HETATM    3  C   UNL     1     -10.585  10.646  68.600  1.00  0.00    -0.203 A  
HETATM    4  C   UNL     1     -10.669   9.738  69.662  1.00  0.00    -0.264 A  
HETATM    5  C   UNL     1      -9.870   8.407  69.647  1.00  0.00    -0.184 C  
HETATM    6  C   UNL     1     -11.441  10.124  70.790  1.00  0.00    -0.442 A  
HETATM    7  C   UNL     1     -12.198  11.292  70.798  1.00  0.00    -0.380 A  
HETATM    8  O   UNL     1     -10.202   7.744  70.913  1.00  0.00    -0.198 OA 
HETATM    9  O   UNL     1     -10.063   9.652  65.393  1.00  0.00    -0.272 OA 
HETATM   10  C   UNL     1     -12.149  12.153  69.716  1.00  0.00    -0.306 A  
HETATM   11  C   UNL     1     -10.039   9.419  66.606  1.00  0.00    -0.262 C  
HETATM   12  C   UNL     1     -11.148   6.725  70.729  1.00  0.00    -0.276 C  
HETATM   13 CL   UNL     1     -13.204  11.648  72.147  1.00  0.00    -0.515 Cl 
HETATM   14  C   UNL     1     -10.068   7.978  67.100  1.00  0.00    -0.263 C  
HETATM   15  C   UNL     1     -12.591   7.164  70.584  1.00  0.00    -0.087 C  
HETATM   16  C   UNL     1     -11.318  11.848  68.637  1.00  0.00    -0.331 A  
HETATM   17  C   UNL     1     -10.678   5.695  70.025  1.00  0.00    -0.390 C  
HETATM   18  N   UNL     1     -10.309   7.560  68.479  1.00  0.00    -0.197 N  
HETATM   19  C   UNL     1     -10.558   6.202  68.625  1.00  0.00    -0.270 C  
HETATM   20  O   UNL     1     -10.645   5.397  67.705  1.00  0.00    -0.192 OA 
ENDROOT
BRANCH   5  21
HETATM   21  C   UNL     1      -8.331   8.660  69.649  1.00  0.00    -0.123 A  
HETATM   22  C   UNL     1      -6.380   9.824  70.563  1.00  0.00    -0.100 A  
HETATM   23  C   UNL     1      -7.756   9.763  70.308  1.00  0.00    -0.187 A  
HETATM   24  C   UNL     1      -6.061   7.785  69.334  1.00  0.00    -0.034 A  
HETATM   25  C   UNL     1      -7.438   7.717  69.092  1.00  0.00    -0.094 A  
HETATM   26  C   UNL     1      -5.538   8.818  70.101  1.00  0.00    -0.027 A  
ENDBRANCH   5  21
TORSDOF 1
ENDMDL
MODEL       25
REMARK 921   NORMALIZED FREE ENERGY PREDICTED BY IDOCK:   -5.59 KCAL/MOL
REMARK 922        TOTAL FREE ENERGY PREDICTED BY IDOCK:   -6.24 KCAL/MOL
REMARK 923 INTER-LIGAND FREE ENERGY PREDICTED BY IDOCK:   -5.92 KCAL/MOL
REMARK 924 INTRA-LIGAND FREE ENERGY PREDICTED BY IDOCK:   -0.32 KCAL/MOL
REMARK 927      BINDING AFFINITY PREDICTED BY RF-SCORE:    0.00 PKD
ROOT
HETATM    1  C   UNL     1      -5.126  19.089  69.288  1.00  0.00    -0.184 C  
HETATM    2  N   UNL     1      -6.451  18.604  68.956  1.00  0.00    -0.251 N  
HETATM    3  C   UNL     1      -6.653  17.209  68.844  1.00  0.00    -0.199 A  
HETATM    4  C   UNL     1      -7.396  16.698  67.773  1.00  0.00    -0.163 A  
HETATM    5  C   UNL     1      -8.084  17.642  66.750  1.00  0.00    -0.236 C  
HETATM    6  C   UNL     1      -7.419  15.288  67.610  1.00  0.00    -0.197 A  
HETATM    7  C   UNL     1      -6.846  14.430  68.544  1.00  0.00    -0.098 A  
HETATM    8  O   UNL     1      -8.742  16.751  65.787  1.00  0.00    -0.496 OA 
HETATM    9  O   UNL     1      -7.403  20.170  70.331  1.00  0.00     0.191 OA 
HETATM   10  C   UNL     1      -6.163  14.949  69.629  1.00  0.00    -0.133 A  
HETATM   11  C   UNL     1      -7.511  19.390  69.379  1.00  0.00    -0.160 C  
HETATM   12  C   UNL     1     -10.119  16.653  66.034  1.00  0.00    -0.340 C  
HETATM   13 CL   UNL     1      -7.007  12.728  68.353  1.00  0.00    -0.087 Cl 
HETATM   14  C   UNL     1      -8.707  19.501  68.441  1.00  0.00    -0.345 C  
HETATM   15  C   UNL     1     -10.538  15.735  67.164  1.00  0.00    -0.313 C  
HETATM   16  C   UNL     1      -6.037  16.333  69.759  1.00  0.00    -0.198 A  
HETATM   17  C   UNL     1     -10.774  17.792  65.807  1.00  0.00    -0.098 C  
HETATM   18  N   UNL     1      -9.104  18.502  67.452  1.00  0.00    -0.273 N  
HETATM   19  C   UNL     1     -10.369  18.703  66.918  1.00  0.00    -0.402 C  
HETATM   20  O   UNL     1     -11.149  19.585  67.262  1.00  0.00    -0.444 OA 
ENDROOT
BRANCH   5  21
HETATM   21  C   UNL     1      -7.041  18.488  65.956  1.00  0.00    -0.306 A  
HETATM   22  C   UNL     1      -5.127  18.599  64.433  1.00  0.00    -0.189 A  
HETATM   23  C   UNL     1      -5.891  17.911  65.384  1.00  0.00    -0.069 A  
HETATM   24  C   UNL     1      -6.504  20.545  64.733  1.00  0.00    -0.337 A  
HETATM   25  C   UNL     1      -7.276  19.851  65.673  1.00  0.00    -0.331 A  
HETATM   26  C   UNL     1      -5.453  19.906  64.086  1.00  0.00    -0.258 A  
ENDBRANCH   5  21
TORSDOF 1
ENDMDL
MODEL       26
REMARK 921   NORMALIZED FREE ENERGY PREDICTED BY IDOCK:   -5.57 KCAL/MOL
REMARK 922        TOTAL FREE ENERGY PREDICTED BY IDOCK:   -6.22 KCAL/MOL
REMARK 923 INTER-LIGAND FREE ENERGY PREDICTED BY IDOCK:   -6.20 KCAL/MOL
REMARK 924 INTRA-LIGAND FREE ENERGY PREDICTED BY IDOCK:   -0.02 KCAL/MOL
REMARK 927      BINDING AFFINITY PREDICTED BY RF-SCORE:    0.00 PKD
ROOT
HETATM    1  C   UNL     1     -12.198  14.837  68.252  1.00  0.00    -0.030 C  
HETATM    2  N   UNL     1     -11.836  13.602  67.584  1.00  0.00    -0.361 N  
HETATM    3  C   UNL     1     -11.569  12.460  68.374  1.00  0.00    -0.324 A  
HETATM    4  C   UNL     1     -10.459  11.657  68.081  1.00  0.00    -0.217 A  
HETATM    5  C   UNL     1      -9.562  11.945  66.847  1.00  0.00    -0.200 C  
HETATM    6  C   UNL     1     -10.136  10.629  69.006  1.00  0.00    -0.226 A  
HETATM    7  C   UNL     1     -10.956  10.332  70.091  1.00  0.00    -0.314 A  
HETATM    8  O   UNL     1      -8.516  10.917  66.884  1.00  0.00    -0.128 OA 
HETATM    9  O   UNL     1     -13.396  13.989  65.952  1.00  0.00    -0.400 OA 
HETATM   10  C   UNL     1     -12.082  11.098  70.335  1.00  0.00    -0.475 A  
HETATM   11  C   UNL     1     -12.364  13.417  66.317  1.00  0.00    -0.349 C  
HETATM   12  C   UNL     1      -8.773   9.887  65.968  1.00  0.00    -0.137 C  
HETATM   13 CL   UNL     1     -10.574   9.000  71.110  1.00  0.00    -0.333 Cl 
HETATM   14  C   UNL     1     -11.466  12.747  65.285  1.00  0.00    -0.325 C  
HETATM   15  C   UNL     1      -9.798   8.853  66.388  1.00  0.00    -0.353 C  
HETATM   16  C   UNL     1     -12.367  12.180  69.499  1.00  0.00    -0.027 A  
HETATM   17  C   UNL     1      -8.688  10.281  64.697  1.00  0.00    -0.203 C  
HETATM   18  N   UNL     1     -10.376  11.821  65.584  1.00  0.00    -0.243 N  
HETATM   19  C   UNL     1      -9.890  11.140  64.476  1.00  0.00    -0.280 C  
HETATM   20  O   UNL     1     -10.346  11.222  63.340  1.00  0.00    -0.360 OA 
ENDROOT
BRANCH   5  21
HETATM   21  C   UNL     1      -8.853  13.329  66.961  1.00  0.00    -0.216 A  
HETATM   22  C   UNL     1      -8.675  15.677  66.288  1.00  0.00    -0.325 A  
HETATM   23  C   UNL     1      -9.067  14.359  66.024  1.00  0.00     0.063 A  
HETATM   24  C   UNL     1      -7.655  14.964  68.343  1.00  0.00    -0.113 A  
HETATM   25  C   UNL     1      -8.060  13.649  68.085  1.00  0.00    -0.156 A  
HETATM   26  C   UNL     1      -7.996  15.984  67.462  1.00  0.00    -0.165 A  
ENDBRANCH   5  21
TORSDOF 1
ENDMDL
MODEL       27
REMARK 921   NORMALIZED FREE ENERGY PREDICTED BY IDOCK:   -5.54 KCAL/MOL
REMARK 922        TOTAL FREE ENERGY PREDICTED BY IDOCK:   -6.18 KCAL/MOL
REMARK 923 INTER-LIGAND FREE ENERGY PREDICTED BY IDOCK:   -5.83 KCAL/MOL
REMARK 924 INTRA-LIGAND FREE ENERGY PREDICTED BY IDOCK:   -0.36 KCAL/MOL
REMARK 927      BINDING AFFINITY PREDICTED BY RF-SCORE:    0.00 PKD
ROOT
HETATM    1  C   UNL     1     -11.435  12.754  69.830  1.00  0.00    -0.129 C  
HETATM    2  N   UNL     1     -11.373  14.014  69.116  1.00  0.00    -0.267 N  
HETATM    3  C   UNL     1     -11.544  14.005  67.712  1.00  0.00    -0.345 A  
HETATM    4  C   UNL     1     -10.691  14.766  66.904  1.00  0.00    -0.308 A  
HETATM    5  C   UNL     1      -9.612  15.695  67.524  1.00  0.00    -0.224 C  
HETATM    6  C   UNL     1     -10.791  14.585  65.499  1.00  0.00    -0.342 A  
HETATM    7  C   UNL     1     -11.782  13.792  64.928  1.00  0.00    -0.363 A  
HETATM    8  O   UNL     1      -8.922  16.301  66.379  1.00  0.00    -0.251 OA 
HETATM    9  O   UNL     1     -12.553  15.053  70.782  1.00  0.00    -0.321 OA 
HETATM   10  C   UNL     1     -12.656  13.090  65.740  1.00  0.00    -0.269 A  
HETATM   11  C   UNL     1     -11.782  15.135  69.821  1.00  0.00    -0.319 C  
HETATM   12  C   UNL     1      -9.361  17.613  66.150  1.00  0.00    -0.136 C  
HETATM   13 CL   UNL     1     -11.926  13.704  63.216  1.00  0.00    -0.252 Cl 
HETATM   14  C   UNL     1     -11.004  16.423  69.582  1.00  0.00    -0.329 C  
HETATM   15  C   UNL     1     -10.684  17.765  65.428  1.00  0.00     0.085 C  
HETATM   16  C   UNL     1     -12.514  13.170  67.126  1.00  0.00     0.154 A  
HETATM   17  C   UNL     1      -9.018  18.458  67.123  1.00  0.00    -0.268 C  
HETATM   18  N   UNL     1     -10.274  16.758  68.362  1.00  0.00    -0.278 N  
HETATM   19  C   UNL     1      -9.882  18.088  68.282  1.00  0.00    -0.355 C  
HETATM   20  O   UNL     1     -10.159  18.956  69.103  1.00  0.00    -0.365 OA 
ENDROOT
BRANCH   5  21
HETATM   21  C   UNL     1      -8.548  14.884  68.327  1.00  0.00    -0.160 A  
HETATM   22  C   UNL     1      -6.998  12.994  68.474  1.00  0.00    -0.102 A  
HETATM   23  C   UNL     1      -8.149  13.589  67.942  1.00  0.00    -0.165 A  
HETATM   24  C   UNL     1      -6.706  14.870  69.946  1.00  0.00    -0.178 A  
HETATM   25  C   UNL     1      -7.849  15.471  69.404  1.00  0.00    -0.231 A  
HETATM   26  C   UNL     1      -6.260  13.649  69.454  1.00  0.00    -0.109 A  
ENDBRANCH   5  21
TORSDOF 1
ENDMDL
MODEL       28
REMARK 921   NORMALIZED FREE ENERGY PREDICTED BY IDOCK:   -5.53 KCAL/MOL
REMARK 922        TOTAL FREE ENERGY PREDICTED BY IDOCK:   -6.18 KCAL/MOL
REMARK 923 INTER-LIGAND FREE ENERGY PREDICTED BY IDOCK:   -5.97 KCAL/MOL
REMARK 924 INTRA-LIGAND FREE ENERGY PREDICTED BY IDOCK:   -0.21 KCAL/MOL
REMARK 927      BINDING AFFINITY PREDICTED BY RF-SCORE:    0.00 PKD
ROOT
HETATM    1  C   UNL     1      -6.562  10.052  65.843  1.00  0.00    -0.098 C  
HETATM    2  N   UNL     1      -7.476  10.489  66.880  1.00  0.00    -0.106 N  
HETATM    3  C   UNL     1      -8.312   9.528  67.494  1.00  0.00    -0.125 A  
HETATM    4  C   UNL     1      -9.664   9.822  67.711  1.00  0.00    -0.167 A  
HETATM    5  C   UNL     1     -10.247  11.220  67.374  1.00  0.00    -0.188 C  
HETATM    6  C   UNL     1     -10.495   8.764  68.166  1.00  0.00    -0.243 A  
HETATM    7  C   UNL     1      -9.978   7.520  68.515  1.00  0.00    -0.168 A  
HETATM    8  O   UNL     1     -11.670  11.137  67.721  1.00  0.00    -0.560 OA 
HETATM    9  O   UNL     1      -5.877  11.884  67.745  1.00  0.00    -0.049 OA 
HETATM   10  C   UNL     1      -8.629   7.262  68.348  1.00  0.00    -0.124 A  
HETATM   11  C   UNL     1      -7.069  11.581  67.630  1.00  0.00    -0.098 C  
HETATM   12  C   UNL     1     -11.937  11.754  68.951  1.00  0.00    -0.271 C  
HETATM   13 CL   UNL     1     -11.017   6.316  69.169  1.00  0.00    -0.404 Cl 
HETATM   14  C   UNL     1      -8.145  12.579  68.037  1.00  0.00    -0.164 C  
HETATM   15  C   UNL     1     -11.592  10.957  70.193  1.00  0.00    -0.425 C  
HETATM   16  C   UNL     1      -7.806   8.252  67.807  1.00  0.00    -0.114 A  
HETATM   17  C   UNL     1     -11.765  13.076  68.924  1.00  0.00    -0.371 C  
HETATM   18  N   UNL     1      -9.563  12.274  68.207  1.00  0.00    -0.215 N  
HETATM   19  C   UNL     1     -10.287  13.274  68.842  1.00  0.00    -0.060 C  
HETATM   20  O   UNL     1      -9.812  14.309  69.298  1.00  0.00    -0.057 OA 
ENDROOT
BRANCH   5  21
HETATM   21  C   UNL     1     -10.162  11.526  65.846  1.00  0.00    -0.286 A  
HETATM   22  C   UNL     1     -10.241  10.747  63.526  1.00  0.00    -0.315 A  
HETATM   23  C   UNL     1     -10.017  10.505  64.887  1.00  0.00    -0.401 A  
HETATM   24  C   UNL     1     -10.564  13.081  63.993  1.00  0.00    -0.371 A  
HETATM   25  C   UNL     1     -10.353  12.836  65.355  1.00  0.00    -0.310 A  
HETATM   26  C   UNL     1     -10.545  12.030  63.084  1.00  0.00    -0.281 A  
ENDBRANCH   5  21
TORSDOF 1
ENDMDL
MODEL       29
REMARK 921   NORMALIZED FREE ENERGY PREDICTED BY IDOCK:   -5.52 KCAL/MOL
REMARK 922        TOTAL FREE ENERGY PREDICTED BY IDOCK:   -6.16 KCAL/MOL
REMARK 923 INTER-LIGAND FREE ENERGY PREDICTED BY IDOCK:   -6.81 KCAL/MOL
REMARK 924 INTRA-LIGAND FREE ENERGY PREDICTED BY IDOCK:    0.64 KCAL/MOL
REMARK 927      BINDING AFFINITY PREDICTED BY RF-SCORE:    0.00 PKD
ROOT
HETATM    1  C   UNL     1      -9.693  16.113  67.524  1.00  0.00    -0.233 C  
HETATM    2  N   UNL     1      -9.578  14.669  67.458  1.00  0.00    -0.204 N  
HETATM    3  C   UNL     1     -10.276  13.981  66.439  1.00  0.00    -0.291 A  
HETATM    4  C   UNL     1     -10.979  12.810  66.748  1.00  0.00    -0.301 A  
HETATM    5  C   UNL     1     -10.935  12.198  68.174  1.00  0.00    -0.230 C  
HETATM    6  C   UNL     1     -11.804  12.258  65.732  1.00  0.00    -0.417 A  
HETATM    7  C   UNL     1     -11.818  12.769  64.437  1.00  0.00    -0.384 A  
HETATM    8  O   UNL     1     -11.791  11.008  68.109  1.00  0.00    -0.573 OA 
HETATM    9  O   UNL     1      -7.344  14.793  67.951  1.00  0.00    -0.120 OA 
HETATM   10  C   UNL     1     -11.072  13.894  64.132  1.00  0.00    -0.128 A  
HETATM   11  C   UNL     1      -8.386  14.131  67.918  1.00  0.00    -0.162 C  
HETATM   12  C   UNL     1     -11.032   9.833  68.004  1.00  0.00    -0.180 C  
HETATM   13 CL   UNL     1     -12.748  11.987  63.220  1.00  0.00    -0.603 Cl 
HETATM   14  C   UNL     1      -8.471  12.814  68.678  1.00  0.00     0.050 C  
HETATM   15  C   UNL     1     -10.480   9.507  66.631  1.00  0.00    -0.241 C  
HETATM   16  C   UNL     1     -10.332  14.517  65.138  1.00  0.00    -0.438 A  
HETATM   17  C   UNL     1     -10.321   9.568  69.101  1.00  0.00    -0.218 C  
HETATM   18  N   UNL     1      -9.520  11.810  68.520  1.00  0.00    -0.190 N  
HETATM   19  C   UNL     1      -9.231  10.588  69.114  1.00  0.00    -0.171 C  
HETATM   20  O   UNL     1      -8.177  10.307  69.673  1.00  0.00    -0.167 OA 
ENDROOT
BRANCH   5  21
HETATM   21  C   UNL     1     -11.561  13.158  69.232  1.00  0.00    -0.370 A  
HETATM   22  C   UNL     1     -12.820  15.191  69.759  1.00  0.00     0.049 A  
HETATM   23  C   UNL     1     -11.998  14.455  68.898  1.00  0.00    -0.337 A  
HETATM   24  C   UNL     1     -12.642  13.458  71.413  1.00  0.00    -0.374 A  
HETATM   25  C   UNL     1     -11.831  12.716  70.546  1.00  0.00    -0.140 A  
HETATM   26  C   UNL     1     -13.167  14.678  71.005  1.00  0.00    -0.431 A  
ENDBRANCH   5  21
TORSDOF 1
ENDMDL
MODEL       30
REMARK 921   NORMALIZED FREE ENERGY PREDICTED BY IDOCK:   -5.50 KCAL/MOL
REMARK 922        TOTAL FREE ENERGY PREDICTED BY IDOCK:   -6.14 KCAL/MOL
REMARK 923 INTER-LIGAND FREE ENERGY PREDICTED BY IDOCK:   -5.82 KCAL/MOL
REMARK 924 INTRA-LIGAND FREE ENERGY PREDICTED BY IDOCK:   -0.32 KCAL/MOL
REMARK 927      BINDING AFFINITY PREDICTED BY RF-SCORE:    0.00 PKD
ROOT
HETATM    1  C   UNL     1      -7.593  12.213  68.687  1.00  0.00    -0.097 C  
HETATM    2  N   UNL     1      -7.921  10.803  68.613  1.00  0.00    -0.124 N  
HETATM    3  C   UNL     1      -7.837  10.154  67.358  1.00  0.00    -0.102 A  
HETATM    4  C   UNL     1      -8.859   9.287  66.955  1.00  0.00    -0.135 A  
HETATM    5  C   UNL     1     -10.046   8.950  67.897  1.00  0.00    -0.206 C  
HETATM    6  C   UNL     1      -8.813   8.801  65.621  1.00  0.00    -0.239 A  
HETATM    7  C   UNL     1      -7.733   9.058  64.782  1.00  0.00    -0.109 A  
HETATM    8  O   UNL     1     -10.901   8.038  67.128  1.00  0.00    -0.278 OA 
HETATM    9  O   UNL     1      -6.846  10.415  70.598  1.00  0.00    -0.328 OA 
HETATM   10  C   UNL     1      -6.701   9.872  65.215  1.00  0.00    -0.106 A  
HETATM   11  C   UNL     1      -7.676  10.059  69.755  1.00  0.00    -0.168 C  
HETATM   12  C   UNL     1     -10.717   6.704  67.523  1.00  0.00    -0.317 C  
HETATM   13 CL   UNL     1      -7.680   8.347  63.217  1.00  0.00    -0.133 Cl 
HETATM   14  C   UNL     1      -8.683   8.969  70.099  1.00  0.00    -0.173 C  
HETATM   15  C   UNL     1      -9.488   6.004  66.980  1.00  0.00    -0.137 C  
HETATM   16  C   UNL     1      -6.770  10.445  66.486  1.00  0.00    -0.099 A  
HETATM   17  C   UNL     1     -11.145   6.461  68.762  1.00  0.00    -0.404 C  
HETATM   18  N   UNL     1      -9.534   8.268  69.141  1.00  0.00    -0.155 N  
HETATM   19  C   UNL     1     -10.160   7.140  69.655  1.00  0.00    -0.192 C  
HETATM   20  O   UNL     1      -9.992   6.693  70.784  1.00  0.00    -0.183 OA 
ENDROOT
BRANCH   5  21
HETATM   21  C   UNL     1     -10.898  10.215  68.224  1.00  0.00    -0.297 A  
HETATM   22  C   UNL     1     -11.863  11.748  69.871  1.00  0.00    -0.423 A  
HETATM   23  C   UNL     1     -11.366  10.485  69.524  1.00  0.00    -0.341 A  
HETATM   24  C   UNL     1     -11.638  12.465  67.590  1.00  0.00    -0.421 A  
HETATM   25  C   UNL     1     -11.129  11.207  67.246  1.00  0.00    -0.366 A  
HETATM   26  C   UNL     1     -11.969  12.747  68.910  1.00  0.00    -0.286 A  
ENDBRANCH   5  21
TORSDOF 1
ENDMDL
MODEL       31
REMARK 921   NORMALIZED FREE ENERGY PREDICTED BY IDOCK:   -5.48 KCAL/MOL
REMARK 922        TOTAL FREE ENERGY PREDICTED BY IDOCK:   -6.12 KCAL/MOL
REMARK 923 INTER-LIGAND FREE ENERGY PREDICTED BY IDOCK:   -5.80 KCAL/MOL
REMARK 924 INTRA-LIGAND FREE ENERGY PREDICTED BY IDOCK:   -0.32 KCAL/MOL
REMARK 927      BINDING AFFINITY PREDICTED BY RF-SCORE:    0.00 PKD
ROOT
HETATM    1  C   UNL     1      -8.679   6.989  66.362  1.00  0.00    -0.142 C  
HETATM    2  N   UNL     1      -9.665   7.439  67.326  1.00  0.00    -0.147 N  
HETATM    3  C   UNL     1      -9.978   8.817  67.380  1.00  0.00    -0.208 A  
HETATM    4  C   UNL     1     -10.085   9.456  68.622  1.00  0.00    -0.208 A  
HETATM    5  C   UNL     1      -9.956   8.660  69.949  1.00  0.00    -0.186 C  
HETATM    6  C   UNL     1     -10.224  10.869  68.617  1.00  0.00    -0.201 A  
HETATM    7  C   UNL     1     -10.387  11.588  67.437  1.00  0.00    -0.207 A  
HETATM    8  O   UNL     1     -10.108   9.660  71.012  1.00  0.00    -0.268 OA 
HETATM    9  O   UNL     1     -10.967   5.602  66.898  1.00  0.00    -0.249 OA 
HETATM   10  C   UNL     1     -10.336  10.935  66.219  1.00  0.00    -0.306 A  
HETATM   11  C   UNL     1     -10.654   6.526  67.656  1.00  0.00    -0.269 C  
HETATM   12  C   UNL     1     -11.394   9.626  71.571  1.00  0.00    -0.350 C  
HETATM   13 CL   UNL     1     -10.668  13.284  67.502  1.00  0.00    -0.254 Cl 
HETATM   14  C   UNL     1     -11.114   6.502  69.108  1.00  0.00    -0.326 C  
HETATM   15  C   UNL     1     -12.491  10.307  70.779  1.00  0.00    -0.439 C  
HETATM   16  C   UNL     1     -10.097   9.559  66.190  1.00  0.00    -0.326 A  
HETATM   17  C   UNL     1     -11.642   8.504  72.247  1.00  0.00    -0.444 C  
HETATM   18  N   UNL     1     -11.052   7.630  70.036  1.00  0.00    -0.231 N  
HETATM   19  C   UNL     1     -11.777   7.443  71.205  1.00  0.00    -0.289 C  
HETATM   20  O   UNL     1     -12.477   6.467  71.454  1.00  0.00    -0.298 OA 
ENDROOT
BRANCH   5  21
HETATM   21  C   UNL     1      -8.537   8.031  70.107  1.00  0.00    -0.130 A  
HETATM   22  C   UNL     1      -7.126   6.077  70.536  1.00  0.00    -0.071 A  
HETATM   23  C   UNL     1      -8.344   6.754  70.669  1.00  0.00    -0.129 A  
HETATM   24  C   UNL     1      -6.173   7.998  69.454  1.00  0.00    -0.034 A  
HETATM   25  C   UNL     1      -7.395   8.670  69.575  1.00  0.00    -0.068 A  
HETATM   26  C   UNL     1      -6.050   6.688  69.901  1.00  0.00    -0.027 A  
ENDBRANCH   5  21
TORSDOF 1
ENDMDL
MODEL       32
REMARK 921   NORMALIZED FREE ENERGY PREDICTED BY IDOCK:   -5.46 KCAL/MOL
REMARK 922        TOTAL FREE ENERGY PREDICTED BY IDOCK:   -6.10 KCAL/MOL
REMARK 923 INTER-LIGAND FREE ENERGY PREDICTED BY IDOCK:   -5.75 KCAL/MOL
REMARK 924 INTRA-LIGAND FREE ENERGY PREDICTED BY IDOCK:   -0.35 KCAL/MOL
REMARK 927      BINDING AFFINITY PREDICTED BY RF-SCORE:    0.00 PKD
ROOT
HETATM    1  C   UNL     1      -9.185  10.279  69.329  1.00  0.00    -0.202 C  
HETATM    2  N   UNL     1      -9.865  11.336  68.607  1.00  0.00    -0.203 N  
HETATM    3  C   UNL     1      -9.868  11.296  67.193  1.00  0.00    -0.190 A  
HETATM    4  C   UNL     1      -9.613  12.464  66.465  1.00  0.00    -0.242 A  
HETATM    5  C   UNL     1      -9.416  13.829  67.178  1.00  0.00    -0.244 C  
HETATM    6  C   UNL     1      -9.453  12.335  65.059  1.00  0.00     0.132 A  
HETATM    7  C   UNL     1      -9.672  11.127  64.403  1.00  0.00    -0.268 A  
HETATM    8  O   UNL     1      -9.162  14.793  66.101  1.00  0.00    -0.276 OA 
HETATM    9  O   UNL     1     -11.577  11.319  70.129  1.00  0.00    -0.310 OA 
HETATM   10  C   UNL     1      -9.979   9.992  65.131  1.00  0.00    -0.350 A  
HETATM   11  C   UNL     1     -10.947  11.916  69.250  1.00  0.00    -0.151 C  
HETATM   12  C   UNL     1     -10.304  15.552  65.808  1.00  0.00    -0.363 C  
HETATM   13 CL   UNL     1      -9.576  11.058  62.687  1.00  0.00    -0.306 Cl 
HETATM   14  C   UNL     1     -11.132  13.417  69.073  1.00  0.00    -0.249 C  
HETATM   15  C   UNL     1     -11.359  14.880  64.953  1.00  0.00    -0.415 C  
HETATM   16  C   UNL     1     -10.042  10.069  66.524  1.00  0.00    -0.296 A  
HETATM   17  C   UNL     1     -10.655  16.373  66.799  1.00  0.00    -0.238 C  
HETATM   18  N   UNL     1     -10.670  14.199  67.929  1.00  0.00    -0.238 N  
HETATM   19  C   UNL     1     -11.195  15.484  67.869  1.00  0.00    -0.325 C  
HETATM   20  O   UNL     1     -12.026  15.943  68.645  1.00  0.00    -0.338 OA 
ENDROOT
BRANCH   5  21
HETATM   21  C   UNL     1      -8.156  13.822  68.096  1.00  0.00    -0.155 A  
HETATM   22  C   UNL     1      -5.790  13.289  68.437  1.00  0.00    -0.087 A  
HETATM   23  C   UNL     1      -7.009  13.065  67.786  1.00  0.00    -0.143 A  
HETATM   24  C   UNL     1      -6.853  14.891  69.877  1.00  0.00    -0.167 A  
HETATM   25  C   UNL     1      -8.068  14.677  69.217  1.00  0.00    -0.030 A  
HETATM   26  C   UNL     1      -5.706  14.225  69.462  1.00  0.00    -0.096 A  
ENDBRANCH   5  21
TORSDOF 1
ENDMDL
MODEL       33
REMARK 921   NORMALIZED FREE ENERGY PREDICTED BY IDOCK:   -5.41 KCAL/MOL
REMARK 922        TOTAL FREE ENERGY PREDICTED BY IDOCK:   -6.05 KCAL/MOL
REMARK 923 INTER-LIGAND FREE ENERGY PREDICTED BY IDOCK:   -5.69 KCAL/MOL
REMARK 924 INTRA-LIGAND FREE ENERGY PREDICTED BY IDOCK:   -0.36 KCAL/MOL
REMARK 927      BINDING AFFINITY PREDICTED BY RF-SCORE:    0.00 PKD
ROOT
HETATM    1  C   UNL     1      -8.455   8.131  73.160  1.00  0.00    -0.216 C  
HETATM    2  N   UNL     1      -8.534   7.781  71.755  1.00  0.00    -0.108 N  
HETATM    3  C   UNL     1      -8.159   8.749  70.795  1.00  0.00    -0.138 A  
HETATM    4  C   UNL     1      -8.955   8.945  69.659  1.00  0.00    -0.147 A  
HETATM    5  C   UNL     1     -10.197   8.055  69.385  1.00  0.00    -0.210 C  
HETATM    6  C   UNL     1      -8.633  10.044  68.820  1.00  0.00    -0.131 A  
HETATM    7  C   UNL     1      -7.497  10.821  69.028  1.00  0.00    -0.118 A  
HETATM    8  O   UNL     1     -10.768   8.566  68.133  1.00  0.00    -0.157 OA 
HETATM    9  O   UNL     1      -7.716   5.687  72.199  1.00  0.00    -0.099 OA 
HETATM   10  C   UNL     1      -6.688  10.579  70.124  1.00  0.00    -0.149 A  
HETATM   11  C   UNL     1      -8.343   6.443  71.449  1.00  0.00    -0.122 C  
HETATM   12  C   UNL     1     -10.429   7.752  67.043  1.00  0.00    -0.349 C  
HETATM   13 CL   UNL     1      -7.097  12.066  67.911  1.00  0.00    -0.088 Cl 
HETATM   14  C   UNL     1      -9.198   5.861  70.331  1.00  0.00    -0.158 C  
HETATM   15  C   UNL     1      -9.036   7.930  66.476  1.00  0.00    -0.192 C  
HETATM   16  C   UNL     1      -7.038   9.569  71.023  1.00  0.00    -0.017 A  
HETATM   17  C   UNL     1     -10.991   6.544  67.097  1.00  0.00    -0.480 C  
HETATM   18  N   UNL     1      -9.771   6.619  69.220  1.00  0.00    -0.146 N  
HETATM   19  C   UNL     1     -10.273   5.830  68.194  1.00  0.00    -0.190 C  
HETATM   20  O   UNL     1     -10.204   4.606  68.146  1.00  0.00    -0.058 OA 
ENDROOT
BRANCH   5  21
HETATM   21  C   UNL     1     -11.284   8.228  70.491  1.00  0.00    -0.247 A  
HETATM   22  C   UNL     1     -12.714   9.686  71.841  1.00  0.00    -0.499 A  
HETATM   23  C   UNL     1     -11.556   9.477  71.083  1.00  0.00    -0.439 A  
HETATM   24  C   UNL     1     -13.278   7.361  71.625  1.00  0.00    -0.416 A  
HETATM   25  C   UNL     1     -12.128   7.155  70.855  1.00  0.00    -0.368 A  
HETATM   26  C   UNL     1     -13.591   8.634  72.086  1.00  0.00    -0.447 A  
ENDBRANCH   5  21
TORSDOF 1
ENDMDL
MODEL       34
REMARK 921   NORMALIZED FREE ENERGY PREDICTED BY IDOCK:   -5.41 KCAL/MOL
REMARK 922        TOTAL FREE ENERGY PREDICTED BY IDOCK:   -6.05 KCAL/MOL
REMARK 923 INTER-LIGAND FREE ENERGY PREDICTED BY IDOCK:   -5.73 KCAL/MOL
REMARK 924 INTRA-LIGAND FREE ENERGY PREDICTED BY IDOCK:   -0.32 KCAL/MOL
REMARK 927      BINDING AFFINITY PREDICTED BY RF-SCORE:    0.00 PKD
ROOT
HETATM    1  C   UNL     1     -11.948   7.621  71.754  1.00  0.00    -0.299 C  
HETATM    2  N   UNL     1     -10.806   8.430  71.374  1.00  0.00    -0.232 N  
HETATM    3  C   UNL     1     -11.039   9.664  70.723  1.00  0.00    -0.334 A  
HETATM    4  C   UNL     1     -10.268  10.017  69.609  1.00  0.00    -0.267 A  
HETATM    5  C   UNL     1      -9.098   9.119  69.124  1.00  0.00    -0.144 C  
HETATM    6  C   UNL     1     -10.657  11.178  68.890  1.00  0.00    -0.239 A  
HETATM    7  C   UNL     1     -11.673  12.016  69.339  1.00  0.00    -0.340 A  
HETATM    8  O   UNL     1      -8.552   9.803  67.945  1.00  0.00    -0.124 OA 
HETATM    9  O   UNL     1      -9.754   7.928  73.346  1.00  0.00    -0.293 OA 
HETATM   10  C   UNL     1     -12.389  11.683  70.475  1.00  0.00    -0.410 A  
HETATM   11  C   UNL     1      -9.681   8.309  72.173  1.00  0.00    -0.274 C  
HETATM   12  C   UNL     1      -7.375  10.499  68.253  1.00  0.00    -0.088 C  
HETATM   13 CL   UNL     1     -12.021  13.469  68.487  1.00  0.00    -0.398 Cl 
HETATM   14  C   UNL     1      -8.329   8.349  71.473  1.00  0.00    -0.154 C  
HETATM   15  C   UNL     1      -7.544  11.836  68.946  1.00  0.00    -0.063 C  
HETATM   16  C   UNL     1     -12.095  10.494  71.145  1.00  0.00    -0.473 A  
HETATM   17  C   UNL     1      -6.358   9.696  68.568  1.00  0.00    -0.047 C  
HETATM   18  N   UNL     1      -8.051   9.016  70.203  1.00  0.00    -0.111 N  
HETATM   19  C   UNL     1      -6.699   9.144  69.913  1.00  0.00    -0.048 C  
HETATM   20  O   UNL     1      -5.783   8.806  70.654  1.00  0.00    -0.027 OA 
ENDROOT
BRANCH   5  21
HETATM   21  C   UNL     1      -9.603   7.721  68.652  1.00  0.00    -0.154 A  
HETATM   22  C   UNL     1     -10.967   6.366  67.136  1.00  0.00    -0.476 A  
HETATM   23  C   UNL     1     -10.706   7.577  67.788  1.00  0.00    -0.233 A  
HETATM   24  C   UNL     1      -9.162   5.329  68.335  1.00  0.00    -0.135 A  
HETATM   25  C   UNL     1      -8.893   6.544  68.976  1.00  0.00    -0.130 A  
HETATM   26  C   UNL     1     -10.176   5.250  67.387  1.00  0.00    -0.240 A  
ENDBRANCH   5  21
TORSDOF 1
ENDMDL
MODEL       35
REMARK 921   NORMALIZED FREE ENERGY PREDICTED BY IDOCK:   -5.37 KCAL/MOL
REMARK 922        TOTAL FREE ENERGY PREDICTED BY IDOCK:   -6.01 KCAL/MOL
REMARK 923 INTER-LIGAND FREE ENERGY PREDICTED BY IDOCK:   -5.71 KCAL/MOL
REMARK 924 INTRA-LIGAND FREE ENERGY PREDICTED BY IDOCK:   -0.30 KCAL/MOL
REMARK 927      BINDING AFFINITY PREDICTED BY RF-SCORE:    0.00 PKD
ROOT
HETATM    1  C   UNL     1      -7.351  11.064  68.270  1.00  0.00    -0.088 C  
HETATM    2  N   UNL     1      -7.902   9.871  68.883  1.00  0.00    -0.086 N  
HETATM    3  C   UNL     1      -8.031   8.704  68.096  1.00  0.00    -0.107 A  
HETATM    4  C   UNL     1      -9.208   7.949  68.161  1.00  0.00    -0.136 A  
HETATM    5  C   UNL     1     -10.346   8.318  69.151  1.00  0.00    -0.217 C  
HETATM    6  C   UNL     1      -9.357   6.892  67.225  1.00  0.00    -0.152 A  
HETATM    7  C   UNL     1      -8.328   6.522  66.364  1.00  0.00    -0.120 A  
HETATM    8  O   UNL     1     -11.398   7.322  68.917  1.00  0.00     0.097 OA 
HETATM    9  O   UNL     1      -6.730  10.282  70.809  1.00  0.00    -0.322 OA 
HETATM   10  C   UNL     1      -7.147   7.242  66.351  1.00  0.00    -0.077 A  
HETATM   11  C   UNL     1      -7.677   9.726  70.243  1.00  0.00    -0.172 C  
HETATM   12  C   UNL     1     -11.392   6.325  69.904  1.00  0.00    -0.434 C  
HETATM   13 CL   UNL     1      -8.526   5.159  65.333  1.00  0.00    -0.135 Cl 
HETATM   14  C   UNL     1      -8.809   9.130  71.070  1.00  0.00    -0.202 C  
HETATM   15  C   UNL     1     -10.341   5.243  69.763  1.00  0.00    -0.369 C  
HETATM   16  C   UNL     1      -7.013   8.350  67.189  1.00  0.00    -0.075 A  
HETATM   17  C   UNL     1     -11.742   6.778  71.108  1.00  0.00    -0.394 C  
HETATM   18  N   UNL     1      -9.840   8.225  70.568  1.00  0.00    -0.182 N  
HETATM   19  C   UNL     1     -10.588   7.609  71.563  1.00  0.00    -0.212 C  
HETATM   20  O   UNL     1     -10.394   7.727  72.767  1.00  0.00    -0.258 OA 
ENDROOT
BRANCH   5  21
HETATM   21  C   UNL     1     -10.957   9.717  68.830  1.00  0.00    -0.183 A  
HETATM   22  C   UNL     1     -11.674  11.934  69.581  1.00  0.00    -0.413 A  
HETATM   23  C   UNL     1     -11.411  10.584  69.843  1.00  0.00    -0.384 A  
HETATM   24  C   UNL     1     -11.238  11.569  67.247  1.00  0.00    -0.365 A  
HETATM   25  C   UNL     1     -10.962  10.223  67.511  1.00  0.00    -0.344 A  
HETATM   26  C   UNL     1     -11.557  12.433  68.288  1.00  0.00    -0.384 A  
ENDBRANCH   5  21
TORSDOF 1
ENDMDL
MODEL       36
REMARK 921   NORMALIZED FREE ENERGY PREDICTED BY IDOCK:   -5.33 KCAL/MOL
REMARK 922        TOTAL FREE ENERGY PREDICTED BY IDOCK:   -5.97 KCAL/MOL
REMARK 923 INTER-LIGAND FREE ENERGY PREDICTED BY IDOCK:   -5.61 KCAL/MOL
REMARK 924 INTRA-LIGAND FREE ENERGY PREDICTED BY IDOCK:   -0.36 KCAL/MOL
REMARK 927      BINDING AFFINITY PREDICTED BY RF-SCORE:    0.00 PKD
ROOT
HETATM    1  C   UNL     1     -10.189  13.432  64.425  1.00  0.00    -0.237 C  
HETATM    2  N   UNL     1     -10.796  13.832  65.679  1.00  0.00    -0.283 N  
HETATM    3  C   UNL     1     -10.754  15.198  66.045  1.00  0.00    -0.329 A  
HETATM    4  C   UNL     1     -10.423  15.555  67.358  1.00  0.00    -0.281 A  
HETATM    5  C   UNL     1     -10.188  14.476  68.449  1.00  0.00    -0.239 C  
HETATM    6  C   UNL     1     -10.223  16.935  67.626  1.00  0.00    -0.306 A  
HETATM    7  C   UNL     1     -10.475  17.914  66.670  1.00  0.00    -0.316 A  
HETATM    8  O   UNL     1      -9.855  15.227  69.666  1.00  0.00    -0.252 OA 
HETATM    9  O   UNL     1     -12.556  12.410  65.318  1.00  0.00    -0.636 OA 
HETATM   10  C   UNL     1     -10.857  17.549  65.392  1.00  0.00     0.058 A  
HETATM   11  C   UNL     1     -11.871  13.069  66.107  1.00  0.00    -0.409 C  
HETATM   12  C   UNL     1     -10.951  15.309  70.536  1.00  0.00    -0.288 C  
HETATM   13 CL   UNL     1     -10.326  19.576  67.090  1.00  0.00    -0.529 Cl 
HETATM   14  C   UNL     1     -11.982  12.811  67.604  1.00  0.00    -0.273 C  
HETATM   15  C   UNL     1     -12.007  16.341  70.194  1.00  0.00     0.110 C  
HETATM   16  C   UNL     1     -10.962  16.194  65.071  1.00  0.00    -0.357 A  
HETATM   17  C   UNL     1     -11.297  14.132  71.057  1.00  0.00     0.384 C  
HETATM   18  N   UNL     1     -11.447  13.674  68.655  1.00  0.00    -0.283 N  
HETATM   19  C   UNL     1     -11.911  13.372  69.928  1.00  0.00    -0.338 C  
HETATM   20  O   UNL     1     -12.746  12.513  70.190  1.00  0.00     0.053 OA 
ENDROOT
BRANCH   5  21
HETATM   21  C   UNL     1      -8.960  13.576  68.113  1.00  0.00    -0.187 A  
HETATM   22  C   UNL     1      -6.582  13.358  67.571  1.00  0.00    -0.143 A  
HETATM   23  C   UNL     1      -7.765  14.106  67.588  1.00  0.00    -0.186 A  
HETATM   24  C   UNL     1      -7.775  11.449  68.410  1.00  0.00    -0.127 A  
HETATM   25  C   UNL     1      -8.954  12.202  68.440  1.00  0.00    -0.146 A  
HETATM   26  C   UNL     1      -6.581  12.039  68.011  1.00  0.00    -0.069 A  
ENDBRANCH   5  21
TORSDOF 1
ENDMDL
MODEL       37
REMARK 921   NORMALIZED FREE ENERGY PREDICTED BY IDOCK:   -5.29 KCAL/MOL
REMARK 922        TOTAL FREE ENERGY PREDICTED BY IDOCK:   -5.92 KCAL/MOL
REMARK 923 INTER-LIGAND FREE ENERGY PREDICTED BY IDOCK:   -5.81 KCAL/MOL
REMARK 924 INTRA-LIGAND FREE ENERGY PREDICTED BY IDOCK:   -0.11 KCAL/MOL
REMARK 927      BINDING AFFINITY PREDICTED BY RF-SCORE:    0.00 PKD
ROOT
HETATM    1  C   UNL     1     -10.058   5.757  73.962  1.00  0.00    -0.241 C  
HETATM    2  N   UNL     1      -9.721   5.945  72.564  1.00  0.00    -0.158 N  
HETATM    3  C   UNL     1      -8.707   6.874  72.232  1.00  0.00    -0.126 A  
HETATM    4  C   UNL     1      -8.901   7.763  71.169  1.00  0.00    -0.143 A  
HETATM    5  C   UNL     1     -10.175   7.692  70.284  1.00  0.00    -0.205 C  
HETATM    6  C   UNL     1      -7.933   8.786  70.990  1.00  0.00    -0.170 A  
HETATM    7  C   UNL     1      -6.766   8.834  71.746  1.00  0.00    -0.071 A  
HETATM    8  O   UNL     1     -10.024   8.774  69.304  1.00  0.00    -0.183 OA 
HETATM    9  O   UNL     1      -9.901   3.693  72.185  1.00  0.00    -0.153 OA 
HETATM   10  C   UNL     1      -6.561   7.913  72.757  1.00  0.00    -0.076 A  
HETATM   11  C   UNL     1      -9.901   4.846  71.741  1.00  0.00    -0.180 C  
HETATM   12  C   UNL     1      -9.604   8.285  68.058  1.00  0.00    -0.153 C  
HETATM   13 CL   UNL     1      -5.576  10.029  71.405  1.00  0.00    -0.065 Cl 
HETATM   14  C   UNL     1     -10.420   5.114  70.334  1.00  0.00    -0.216 C  
HETATM   15  C   UNL     1      -8.130   7.961  67.923  1.00  0.00    -0.129 C  
HETATM   16  C   UNL     1      -7.544   6.958  73.022  1.00  0.00    -0.089 A  
HETATM   17  C   UNL     1     -10.522   7.530  67.455  1.00  0.00    -0.367 C  
HETATM   18  N   UNL     1     -10.239   6.357  69.587  1.00  0.00    -0.180 N  
HETATM   19  C   UNL     1     -10.559   6.260  68.239  1.00  0.00    -0.258 C  
HETATM   20  O   UNL     1     -10.901   5.231  67.666  1.00  0.00    -0.069 OA 
ENDROOT
BRANCH   5  21
HETATM   21  C   UNL     1     -11.465   7.993  71.107  1.00  0.00    -0.302 A  
HETATM   22  C   UNL     1     -12.897   9.592  72.285  1.00  0.00    -0.426 A  
HETATM   23  C   UNL     1     -11.640   9.203  71.806  1.00  0.00    -0.457 A  
HETATM   24  C   UNL     1     -13.821   7.492  71.572  1.00  0.00    -0.487 A  
HETATM   25  C   UNL     1     -12.567   7.110  71.081  1.00  0.00    -0.384 A  
HETATM   26  C   UNL     1     -13.993   8.749  72.140  1.00  0.00    -0.522 A  
ENDBRANCH   5  21
TORSDOF 1
ENDMDL
MODEL       38
REMARK 921   NORMALIZED FREE ENERGY PREDICTED BY IDOCK:   -5.29 KCAL/MOL
REMARK 922        TOTAL FREE ENERGY PREDICTED BY IDOCK:   -5.92 KCAL/MOL
REMARK 923 INTER-LIGAND FREE ENERGY PREDICTED BY IDOCK:   -5.60 KCAL/MOL
REMARK 924 INTRA-LIGAND FREE ENERGY PREDICTED BY IDOCK:   -0.32 KCAL/MOL
REMARK 927      BINDING AFFINITY PREDICTED BY RF-SCORE:    0.00 PKD
ROOT
HETATM    1  C   UNL     1      -6.827  10.520  68.093  1.00  0.00    -0.072 C  
HETATM    2  N   UNL     1      -7.543   9.488  68.816  1.00  0.00    -0.075 N  
HETATM    3  C   UNL     1      -7.493   8.161  68.327  1.00  0.00    -0.097 A  
HETATM    4  C   UNL     1      -8.665   7.397  68.272  1.00  0.00    -0.122 A  
HETATM    5  C   UNL     1     -10.009   7.945  68.823  1.00  0.00    -0.187 C  
HETATM    6  C   UNL     1      -8.593   6.141  67.612  1.00  0.00    -0.106 A  
HETATM    7  C   UNL     1      -7.387   5.618  67.155  1.00  0.00    -0.080 A  
HETATM    8  O   UNL     1     -10.988   6.880  68.577  1.00  0.00    -0.200 OA 
HETATM    9  O   UNL     1      -6.893  10.393  70.817  1.00  0.00    -0.337 OA 
HETATM   10  C   UNL     1      -6.226   6.362  67.268  1.00  0.00    -0.032 A  
HETATM   11  C   UNL     1      -7.676   9.680  70.181  1.00  0.00    -0.170 C  
HETATM   12  C   UNL     1     -11.257   6.149  69.744  1.00  0.00    -0.423 C  
HETATM   13 CL   UNL     1      -7.346   4.042  66.468  1.00  0.00    -0.074 Cl 
HETATM   14  C   UNL     1      -8.995   9.254  70.814  1.00  0.00    -0.232 C  
HETATM   15  C   UNL     1     -10.229   5.108  70.139  1.00  0.00    -0.348 C  
HETATM   16  C   UNL     1      -6.286   7.643  67.820  1.00  0.00    -0.049 A  
HETATM   17  C   UNL     1     -11.893   6.862  70.674  1.00  0.00    -0.418 C  
HETATM   18  N   UNL     1      -9.884   8.214  70.301  1.00  0.00    -0.183 N  
HETATM   19  C   UNL     1     -10.874   7.823  71.192  1.00  0.00    -0.235 C  
HETATM   20  O   UNL     1     -10.992   8.234  72.341  1.00  0.00    -0.323 OA 
ENDROOT
BRANCH   5  21
HETATM   21  C   UNL     1     -10.486   9.201  68.030  1.00  0.00    -0.276 A  
HETATM   22  C   UNL     1     -11.215  11.538  68.010  1.00  0.00    -0.335 A  
HETATM   23  C   UNL     1     -11.068  10.313  68.670  1.00  0.00    -0.290 A  
HETATM   24  C   UNL     1     -10.396  10.546  65.981  1.00  0.00    -0.279 A  
HETATM   25  C   UNL     1     -10.237   9.325  66.645  1.00  0.00    -0.323 A  
HETATM   26  C   UNL     1     -10.850  11.663  66.674  1.00  0.00    -0.327 A  
ENDBRANCH   5  21
TORSDOF 1
ENDMDL
MODEL       39
REMARK 921   NORMALIZED FREE ENERGY PREDICTED BY IDOCK:   -5.28 KCAL/MOL
REMARK 922        TOTAL FREE ENERGY PREDICTED BY IDOCK:   -5.91 KCAL/MOL
REMARK 923 INTER-LIGAND FREE ENERGY PREDICTED BY IDOCK:   -5.59 KCAL/MOL
REMARK 924 INTRA-LIGAND FREE ENERGY PREDICTED BY IDOCK:   -0.32 KCAL/MOL
REMARK 927      BINDING AFFINITY PREDICTED BY RF-SCORE:    0.00 PKD
ROOT
HETATM    1  C   UNL     1     -11.968  16.320  68.584  1.00  0.00     0.186 C  
HETATM    2  N   UNL     1     -10.539  16.292  68.823  1.00  0.00    -0.278 N  
HETATM    3  C   UNL     1      -9.767  17.416  68.447  1.00  0.00    -0.304 A  
HETATM    4  C   UNL     1      -8.549  17.231  67.782  1.00  0.00    -0.225 A  
HETATM    5  C   UNL     1      -7.979  15.809  67.528  1.00  0.00    -0.150 C  
HETATM    6  C   UNL     1      -7.903  18.389  67.272  1.00  0.00    -0.234 A  
HETATM    7  C   UNL     1      -8.378  19.671  67.532  1.00  0.00    -0.302 A  
HETATM    8  O   UNL     1      -6.719  16.023  66.808  1.00  0.00    -0.259 OA 
HETATM    9  O   UNL     1     -10.866  15.287  70.856  1.00  0.00    -0.301 OA 
HETATM   10  C   UNL     1      -9.555  19.840  68.239  1.00  0.00    -0.467 A  
HETATM   11  C   UNL     1     -10.117  15.538  69.906  1.00  0.00    -0.272 C  
HETATM   12  C   UNL     1      -5.611  15.891  67.658  1.00  0.00    -0.132 C  
HETATM   13 CL   UNL     1      -7.489  21.038  66.985  1.00  0.00    -0.296 Cl 
HETATM   14  C   UNL     1      -8.817  14.761  69.743  1.00  0.00     0.347 C  
HETATM   15  C   UNL     1      -5.299  17.077  68.548  1.00  0.00    -0.131 C  
HETATM   16  C   UNL     1     -10.264  18.715  68.665  1.00  0.00    -0.359 A  
HETATM   17  C   UNL     1      -5.436  14.646  68.101  1.00  0.00    -0.123 C  
HETATM   18  N   UNL     1      -7.723  15.119  68.844  1.00  0.00    -0.146 N  
HETATM   19  C   UNL     1      -6.546  14.419  69.074  1.00  0.00    -0.103 C  
HETATM   20  O   UNL     1      -6.370  13.613  69.981  1.00  0.00    -0.130 OA 
ENDROOT
BRANCH   5  21
HETATM   21  C   UNL     1      -8.909  14.976  66.593  1.00  0.00    -0.307 A  
HETATM   22  C   UNL     1     -10.174  12.927  66.149  1.00  0.00    -0.286 A  
HETATM   23  C   UNL     1      -9.125  13.598  66.790  1.00  0.00    -0.230 A  
HETATM   24  C   UNL     1     -10.712  14.927  64.931  1.00  0.00    -0.426 A  
HETATM   25  C   UNL     1      -9.672  15.601  65.582  1.00  0.00    -0.348 A  
HETATM   26  C   UNL     1     -10.986  13.600  65.243  1.00  0.00    -0.314 A  
ENDBRANCH   5  21
TORSDOF 1
ENDMDL
MODEL       40
REMARK 921   NORMALIZED FREE ENERGY PREDICTED BY IDOCK:   -5.19 KCAL/MOL
REMARK 922        TOTAL FREE ENERGY PREDICTED BY IDOCK:   -5.81 KCAL/MOL
REMARK 923 INTER-LIGAND FREE ENERGY PREDICTED BY IDOCK:   -5.46 KCAL/MOL
REMARK 924 INTRA-LIGAND FREE ENERGY PREDICTED BY IDOCK:   -0.36 KCAL/MOL
REMARK 927      BINDING AFFINITY PREDICTED BY RF-SCORE:    0.00 PKD
ROOT
HETATM    1  C   UNL     1      -8.746   9.823  67.225  1.00  0.00    -0.132 C  
HETATM    2  N   UNL     1      -9.501   8.888  68.035  1.00  0.00    -0.142 N  
HETATM    3  C   UNL     1     -10.423   9.400  68.978  1.00  0.00    -0.217 A  
HETATM    4  C   UNL     1     -10.470   8.858  70.268  1.00  0.00    -0.239 A  
HETATM    5  C   UNL     1      -9.591   7.640  70.661  1.00  0.00    -0.163 C  
HETATM    6  C   UNL     1     -11.285   9.521  71.224  1.00  0.00    -0.452 A  
HETATM    7  C   UNL     1     -12.112  10.584  70.874  1.00  0.00    -0.383 A  
HETATM    8  O   UNL     1      -9.904   7.378  72.071  1.00  0.00    -0.161 OA 
HETATM    9  O   UNL     1      -9.784   7.504  66.231  1.00  0.00    -0.142 OA 
HETATM   10  C   UNL     1     -12.097  11.073  69.580  1.00  0.00    -0.400 A  
HETATM   11  C   UNL     1      -9.767   7.657  67.457  1.00  0.00    -0.156 C  
HETATM   12  C   UNL     1     -10.783   6.294  72.210  1.00  0.00    -0.229 C  
HETATM   13 CL   UNL     1     -13.162  11.272  72.050  1.00  0.00    -0.564 Cl 
HETATM   14  C   UNL     1      -9.716   6.439  68.370  1.00  0.00    -0.131 C  
HETATM   15  C   UNL     1     -12.247   6.574  71.940  1.00  0.00    -0.373 C  
HETATM   16  C   UNL     1     -11.229  10.505  68.645  1.00  0.00    -0.328 A  
HETATM   17  C   UNL     1     -10.238   5.129  71.856  1.00  0.00    -0.269 C  
HETATM   18  N   UNL     1      -9.956   6.450  69.812  1.00  0.00    -0.164 N  
HETATM   19  C   UNL     1     -10.123   5.189  70.369  1.00  0.00    -0.262 C  
HETATM   20  O   UNL     1     -10.144   4.136  69.740  1.00  0.00    -0.137 OA 
ENDROOT
BRANCH   5  21
HETATM   21  C   UNL     1      -8.070   7.980  70.583  1.00  0.00    -0.104 A  
HETATM   22  C   UNL     1      -6.181   9.387  71.248  1.00  0.00    -0.066 A  
HETATM   23  C   UNL     1      -7.554   9.206  71.043  1.00  0.00    -0.124 A  
HETATM   24  C   UNL     1      -5.757   7.200  70.351  1.00  0.00    -0.024 A  
HETATM   25  C   UNL     1      -7.131   7.014  70.159  1.00  0.00    -0.067 A  
HETATM   26  C   UNL     1      -5.285   8.371  70.930  1.00  0.00    -0.028 A  
ENDBRANCH   5  21
TORSDOF 1
ENDMDL
MODEL       41
REMARK 921   NORMALIZED FREE ENERGY PREDICTED BY IDOCK:   -5.18 KCAL/MOL
REMARK 922        TOTAL FREE ENERGY PREDICTED BY IDOCK:   -5.81 KCAL/MOL
REMARK 923 INTER-LIGAND FREE ENERGY PREDICTED BY IDOCK:   -5.49 KCAL/MOL
REMARK 924 INTRA-LIGAND FREE ENERGY PREDICTED BY IDOCK:   -0.32 KCAL/MOL
REMARK 927      BINDING AFFINITY PREDICTED BY RF-SCORE:    0.00 PKD
ROOT
HETATM    1  C   UNL     1      -9.670  12.305  67.299  1.00  0.00    -0.195 C  
HETATM    2  N   UNL     1      -9.988  10.900  67.466  1.00  0.00    -0.172 N  
HETATM    3  C   UNL     1     -10.727  10.505  68.606  1.00  0.00    -0.215 A  
HETATM    4  C   UNL     1     -10.335   9.372  69.328  1.00  0.00    -0.217 A  
HETATM    5  C   UNL     1      -9.155   8.482  68.851  1.00  0.00    -0.146 C  
HETATM    6  C   UNL     1     -10.999   9.121  70.558  1.00  0.00    -0.307 A  
HETATM    7  C   UNL     1     -12.087   9.883  70.974  1.00  0.00    -0.358 A  
HETATM    8  O   UNL     1      -9.043   7.420  69.857  1.00  0.00    -0.142 OA 
HETATM    9  O   UNL     1     -10.429  10.701  65.226  1.00  0.00    -0.269 OA 
HETATM   10  C   UNL     1     -12.499  10.967  70.220  1.00  0.00    -0.365 A  
HETATM   11  C   UNL     1     -10.134  10.166  66.300  1.00  0.00    -0.238 C  
HETATM   12  C   UNL     1      -9.617   6.222  69.408  1.00  0.00    -0.141 C  
HETATM   13 CL   UNL     1     -12.924   9.460  72.416  1.00  0.00    -0.457 Cl 
HETATM   14  C   UNL     1      -9.607   8.737  66.313  1.00  0.00    -0.259 C  
HETATM   15  C   UNL     1     -11.127   6.129  69.484  1.00  0.00    -0.490 C  
HETATM   16  C   UNL     1     -11.799  11.297  69.058  1.00  0.00    -0.421 A  
HETATM   17  C   UNL     1      -8.953   5.672  68.391  1.00  0.00    -0.114 C  
HETATM   18  N   UNL     1      -9.473   7.894  67.499  1.00  0.00    -0.142 N  
HETATM   19  C   UNL     1      -9.232   6.555  67.220  1.00  0.00    -0.120 C  
HETATM   20  O   UNL     1      -9.196   6.064  66.098  1.00  0.00    -0.157 OA 
ENDROOT
BRANCH   5  21
HETATM   21  C   UNL     1      -7.806   9.265  68.854  1.00  0.00    -0.087 A  
HETATM   22  C   UNL     1      -5.826  10.071  67.661  1.00  0.00    -0.042 A  
HETATM   23  C   UNL     1      -6.876   9.156  67.802  1.00  0.00    -0.076 A  
HETATM   24  C   UNL     1      -6.462  11.123  69.725  1.00  0.00    -0.137 A  
HETATM   25  C   UNL     1      -7.520  10.216  69.858  1.00  0.00    -0.176 A  
HETATM   26  C   UNL     1      -5.638  11.073  68.607  1.00  0.00    -0.043 A  
ENDBRANCH   5  21
TORSDOF 1
ENDMDL
MODEL       42
REMARK 921   NORMALIZED FREE ENERGY PREDICTED BY IDOCK:   -5.18 KCAL/MOL
REMARK 922        TOTAL FREE ENERGY PREDICTED BY IDOCK:   -5.80 KCAL/MOL
REMARK 923 INTER-LIGAND FREE ENERGY PREDICTED BY IDOCK:   -5.45 KCAL/MOL
REMARK 924 INTRA-LIGAND FREE ENERGY PREDICTED BY IDOCK:   -0.35 KCAL/MOL
REMARK 927      BINDING AFFINITY PREDICTED BY RF-SCORE:    0.00 PKD
ROOT
HETATM    1  C   UNL     1     -10.056  13.887  64.737  1.00  0.00    -0.215 C  
HETATM    2  N   UNL     1     -10.550  12.872  65.647  1.00  0.00    -0.273 N  
HETATM    3  C   UNL     1     -11.002  13.272  66.926  1.00  0.00    -0.283 A  
HETATM    4  C   UNL     1     -10.626  12.537  68.056  1.00  0.00    -0.237 A  
HETATM    5  C   UNL     1      -9.793  11.233  67.927  1.00  0.00    -0.176 C  
HETATM    6  C   UNL     1     -10.958  13.079  69.326  1.00  0.00    -0.122 A  
HETATM    7  C   UNL     1     -11.742  14.221  69.456  1.00  0.00    -0.316 A  
HETATM    8  O   UNL     1      -9.590  10.768  69.304  1.00  0.00    -0.187 OA 
HETATM    9  O   UNL     1     -11.619  11.804  63.925  1.00  0.00    -0.390 OA 
HETATM   10  C   UNL     1     -12.155  14.906  68.327  1.00  0.00    -0.146 A  
HETATM   11  C   UNL     1     -11.136  11.761  65.060  1.00  0.00    -0.284 C  
HETATM   12  C   UNL     1     -10.462   9.717  69.626  1.00  0.00    -0.242 C  
HETATM   13 CL   UNL     1     -12.208  14.765  71.020  1.00  0.00    -0.367 Cl 
HETATM   14  C   UNL     1     -10.877  10.414  65.722  1.00  0.00     0.183 C  
HETATM   15  C   UNL     1     -11.886  10.104  69.971  1.00  0.00    -0.253 C  
HETATM   16  C   UNL     1     -11.756  14.452  67.068  1.00  0.00    -0.420 A  
HETATM   17  C   UNL     1     -10.208   8.598  68.946  1.00  0.00    -0.221 C  
HETATM   18  N   UNL     1     -10.567  10.209  67.135  1.00  0.00    -0.253 N  
HETATM   19  C   UNL     1     -10.645   8.886  67.548  1.00  0.00    -0.237 C  
HETATM   20  O   UNL     1     -11.004   7.947  66.845  1.00  0.00    -0.188 OA 
ENDROOT
BRANCH   5  21
HETATM   21  C   UNL     1      -8.383  11.508  67.321  1.00  0.00    -0.154 A  
HETATM   22  C   UNL     1      -6.236  12.682  67.409  1.00  0.00    -0.149 A  
HETATM   23  C   UNL     1      -7.598  12.606  67.724  1.00  0.00    -0.141 A  
HETATM   24  C   UNL     1      -6.424  10.675  66.104  1.00  0.00    -0.131 A  
HETATM   25  C   UNL     1      -7.782  10.592  66.430  1.00  0.00    -0.135 A  
HETATM   26  C   UNL     1      -5.642  11.699  66.624  1.00  0.00    -0.111 A  
ENDBRANCH   5  21
TORSDOF 1
ENDMDL
MODEL       43
REMARK 921   NORMALIZED FREE ENERGY PREDICTED BY IDOCK:   -5.13 KCAL/MOL
REMARK 922        TOTAL FREE ENERGY PREDICTED BY IDOCK:   -5.75 KCAL/MOL
REMARK 923 INTER-LIGAND FREE ENERGY PREDICTED BY IDOCK:   -5.47 KCAL/MOL
REMARK 924 INTRA-LIGAND FREE ENERGY PREDICTED BY IDOCK:   -0.28 KCAL/MOL
REMARK 927      BINDING AFFINITY PREDICTED BY RF-SCORE:    0.00 PKD
ROOT
HETATM    1  C   UNL     1      -7.051  15.434  67.052  1.00  0.00     0.035 C  
HETATM    2  N   UNL     1      -8.012  14.888  67.990  1.00  0.00    -0.122 N  
HETATM    3  C   UNL     1      -8.536  13.596  67.747  1.00  0.00    -0.182 A  
HETATM    4  C   UNL     1      -9.908  13.364  67.900  1.00  0.00    -0.237 A  
HETATM    5  C   UNL     1     -10.859  14.476  68.419  1.00  0.00    -0.243 C  
HETATM    6  C   UNL     1     -10.406  12.104  67.475  1.00  0.00    -0.219 A  
HETATM    7  C   UNL     1      -9.560  11.083  67.051  1.00  0.00    -0.177 A  
HETATM    8  O   UNL     1     -12.194  13.867  68.428  1.00  0.00    -0.339 OA 
HETATM    9  O   UNL     1      -6.821  15.736  69.753  1.00  0.00    -0.184 OA 
HETATM   10  C   UNL     1      -8.199  11.310  66.960  1.00  0.00    -0.151 A  
HETATM   11  C   UNL     1      -7.890  15.312  69.303  1.00  0.00    -0.221 C  
HETATM   12  C   UNL     1     -12.575  13.480  69.721  1.00  0.00     0.039 C  
HETATM   13 CL   UNL     1     -10.212   9.540  66.660  1.00  0.00    -0.317 Cl 
HETATM   14  C   UNL     1      -9.181  15.542  70.078  1.00  0.00     0.237 C  
HETATM   15  C   UNL     1     -11.984  12.184  70.238  1.00  0.00    -0.389 C  
HETATM   16  C   UNL     1      -7.693  12.573  67.274  1.00  0.00    -0.146 A  
HETATM   17  C   UNL     1     -12.767  14.513  70.542  1.00  0.00    -0.404 C  
HETATM   18  N   UNL     1     -10.457  14.882  69.814  1.00  0.00    -0.179 N  
HETATM   19  C   UNL     1     -11.402  15.051  70.818  1.00  0.00    -0.267 C  
HETATM   20  O   UNL     1     -11.209  15.634  71.878  1.00  0.00    -0.357 OA 
ENDROOT
BRANCH   5  21
HETATM   21  C   UNL     1     -10.913  15.690  67.441  1.00  0.00    -0.293 A  
HETATM   22  C   UNL     1     -10.524  18.066  66.995  1.00  0.00    -0.361 A  
HETATM   23  C   UNL     1     -10.775  17.018  67.890  1.00  0.00    -0.348 A  
HETATM   24  C   UNL     1     -10.741  16.545  65.149  1.00  0.00    -0.261 A  
HETATM   25  C   UNL     1     -10.978  15.495  66.044  1.00  0.00    -0.251 A  
HETATM   26  C   UNL     1     -10.477  17.823  65.627  1.00  0.00    -0.132 A  
ENDBRANCH   5  21
TORSDOF 1
ENDMDL
MODEL       44
REMARK 921   NORMALIZED FREE ENERGY PREDICTED BY IDOCK:   -5.01 KCAL/MOL
REMARK 922        TOTAL FREE ENERGY PREDICTED BY IDOCK:   -5.62 KCAL/MOL
REMARK 923 INTER-LIGAND FREE ENERGY PREDICTED BY IDOCK:   -5.47 KCAL/MOL
REMARK 924 INTRA-LIGAND FREE ENERGY PREDICTED BY IDOCK:   -0.15 KCAL/MOL
REMARK 927      BINDING AFFINITY PREDICTED BY RF-SCORE:    0.00 PKD
ROOT
HETATM    1  C   UNL     1     -11.380   5.970  69.712  1.00  0.00    -0.273 C  
HETATM    2  N   UNL     1     -10.315   6.851  69.277  1.00  0.00    -0.190 N  
HETATM    3  C   UNL     1      -9.042   6.725  69.883  1.00  0.00    -0.144 A  
HETATM    4  C   UNL     1      -8.342   7.872  70.273  1.00  0.00    -0.126 A  
HETATM    5  C   UNL     1      -8.894   9.292  69.972  1.00  0.00    -0.197 C  
HETATM    6  C   UNL     1      -7.156   7.685  71.031  1.00  0.00    -0.054 A  
HETATM    7  C   UNL     1      -6.626   6.420  71.268  1.00  0.00    -0.051 A  
HETATM    8  O   UNL     1      -7.904  10.217  70.537  1.00  0.00    -0.195 OA 
HETATM    9  O   UNL     1     -10.986   6.640  67.097  1.00  0.00    -0.363 OA 
HETATM   10  C   UNL     1      -7.301   5.296  70.827  1.00  0.00    -0.073 A  
HETATM   11  C   UNL     1     -10.377   7.279  67.961  1.00  0.00    -0.197 C  
HETATM   12  C   UNL     1      -7.074  10.754  69.542  1.00  0.00    -0.132 C  
HETATM   13 CL   UNL     1      -5.126   6.264  72.094  1.00  0.00    -0.022 Cl 
HETATM   14  C   UNL     1      -9.950   8.714  67.680  1.00  0.00    -0.194 C  
HETATM   15  C   UNL     1      -5.953   9.863  69.047  1.00  0.00    -0.034 C  
HETATM   16  C   UNL     1      -8.522   5.447  70.167  1.00  0.00    -0.119 A  
HETATM   17  C   UNL     1      -7.719  11.563  68.702  1.00  0.00    -0.139 C  
HETATM   18  N   UNL     1      -9.009   9.491  68.482  1.00  0.00    -0.127 N  
HETATM   19  C   UNL     1      -8.577  10.663  67.875  1.00  0.00    -0.124 C  
HETATM   20  O   UNL     1      -8.876  11.022  66.741  1.00  0.00    -0.148 OA 
ENDROOT
BRANCH   5  21
HETATM   21  C   UNL     1     -10.243   9.553  70.711  1.00  0.00    -0.363 A  
HETATM   22  C   UNL     1     -12.504  10.492  70.715  1.00  0.00    -0.472 A  
HETATM   23  C   UNL     1     -11.190  10.478  70.231  1.00  0.00    -0.391 A  
HETATM   24  C   UNL     1     -11.932   8.799  72.320  1.00  0.00    -0.415 A  
HETATM   25  C   UNL     1     -10.622   8.776  71.827  1.00  0.00    -0.417 A  
HETATM   26  C   UNL     1     -12.882   9.630  71.739  1.00  0.00    -0.514 A  
ENDBRANCH   5  21
TORSDOF 1
ENDMDL
MODEL       45
REMARK 921   NORMALIZED FREE ENERGY PREDICTED BY IDOCK:   -4.96 KCAL/MOL
REMARK 922        TOTAL FREE ENERGY PREDICTED BY IDOCK:   -5.57 KCAL/MOL
REMARK 923 INTER-LIGAND FREE ENERGY PREDICTED BY IDOCK:   -5.22 KCAL/MOL
REMARK 924 INTRA-LIGAND FREE ENERGY PREDICTED BY IDOCK:   -0.35 KCAL/MOL
REMARK 927      BINDING AFFINITY PREDICTED BY RF-SCORE:    0.00 PKD
ROOT
HETATM    1  C   UNL     1     -12.500   7.152  71.330  1.00  0.00    -0.388 C  
HETATM    2  N   UNL     1     -11.204   7.800  71.302  1.00  0.00    -0.251 N  
HETATM    3  C   UNL     1     -11.081   9.038  70.628  1.00  0.00    -0.265 A  
HETATM    4  C   UNL     1      -9.987   9.263  69.785  1.00  0.00    -0.213 A  
HETATM    5  C   UNL     1      -8.852   8.213  69.642  1.00  0.00    -0.143 C  
HETATM    6  C   UNL     1     -10.003  10.446  68.999  1.00  0.00    -0.224 A  
HETATM    7  C   UNL     1     -10.989  11.416  69.149  1.00  0.00    -0.236 A  
HETATM    8  O   UNL     1      -7.910   8.793  68.678  1.00  0.00    -0.099 OA 
HETATM    9  O   UNL     1     -10.830   7.218  73.486  1.00  0.00    -0.375 OA 
HETATM   10  C   UNL     1     -12.035  11.205  70.030  1.00  0.00    -0.447 A  
HETATM   11  C   UNL     1     -10.378   7.559  72.388  1.00  0.00    -0.228 C  
HETATM   12  C   UNL     1      -6.790   9.343  69.318  1.00  0.00    -0.049 C  
HETATM   13 CL   UNL     1     -10.891  12.880  68.252  1.00  0.00    -0.251 Cl 
HETATM   14  C   UNL     1      -8.889   7.410  72.104  1.00  0.00    -0.124 C  
HETATM   15  C   UNL     1      -6.978  10.707  69.950  1.00  0.00    -0.148 C  
HETATM   16  C   UNL     1     -12.099  10.004  70.740  1.00  0.00    -0.418 A  
HETATM   17  C   UNL     1      -6.017   8.426  69.900  1.00  0.00    -0.025 C  
HETATM   18  N   UNL     1      -8.178   8.005  70.975  1.00  0.00    -0.100 N  
HETATM   19  C   UNL     1      -6.795   7.955  71.084  1.00  0.00    -0.045 C  
HETATM   20  O   UNL     1      -6.179   7.522  72.052  1.00  0.00    -0.040 OA 
ENDROOT
BRANCH   5  21
HETATM   21  C   UNL     1      -9.377   6.879  69.029  1.00  0.00    -0.135 A  
HETATM   22  C   UNL     1     -10.490   5.683  67.205  1.00  0.00    -0.334 A  
HETATM   23  C   UNL     1     -10.262   6.857  67.933  1.00  0.00    -0.212 A  
HETATM   24  C   UNL     1      -9.122   4.455  68.751  1.00  0.00    -0.173 A  
HETATM   25  C   UNL     1      -8.883   5.632  69.471  1.00  0.00    -0.116 A  
HETATM   26  C   UNL     1      -9.895   4.489  67.597  1.00  0.00    -0.181 A  
ENDBRANCH   5  21
TORSDOF 1
ENDMDL
MODEL       46
REMARK 921   NORMALIZED FREE ENERGY PREDICTED BY IDOCK:   -4.94 KCAL/MOL
REMARK 922        TOTAL FREE ENERGY PREDICTED BY IDOCK:   -5.55 KCAL/MOL
REMARK 923 INTER-LIGAND FREE ENERGY PREDICTED BY IDOCK:   -5.35 KCAL/MOL
REMARK 924 INTRA-LIGAND FREE ENERGY PREDICTED BY IDOCK:   -0.20 KCAL/MOL
REMARK 927      BINDING AFFINITY PREDICTED BY RF-SCORE:    0.00 PKD
ROOT
HETATM    1  C   UNL     1      -7.309  10.282  66.430  1.00  0.00    -0.114 C  
HETATM    2  N   UNL     1      -7.785   9.441  67.511  1.00  0.00    -0.091 N  
HETATM    3  C   UNL     1      -8.434   8.226  67.187  1.00  0.00    -0.123 A  
HETATM    4  C   UNL     1      -9.608   7.867  67.861  1.00  0.00    -0.169 A  
HETATM    5  C   UNL     1     -10.166   8.732  69.023  1.00  0.00    -0.207 C  
HETATM    6  C   UNL     1     -10.314   6.732  67.379  1.00  0.00    -0.286 A  
HETATM    7  C   UNL     1      -9.803   5.923  66.368  1.00  0.00    -0.121 A  
HETATM    8  O   UNL     1     -11.391   8.050  69.456  1.00  0.00     0.052 OA 
HETATM    9  O   UNL     1      -5.889   9.872  68.723  1.00  0.00    -0.039 OA 
HETATM   10  C   UNL     1      -8.612   6.260  65.751  1.00  0.00    -0.153 A  
HETATM   11  C   UNL     1      -7.069   9.508  68.696  1.00  0.00    -0.069 C  
HETATM   12  C   UNL     1     -11.181   7.308  70.627  1.00  0.00    -0.274 C  
HETATM   13 CL   UNL     1     -10.647   4.497  65.907  1.00  0.00    -0.279 Cl 
HETATM   14  C   UNL     1      -7.869   9.434  69.990  1.00  0.00    -0.132 C  
HETATM   15  C   UNL     1     -10.498   5.966  70.461  1.00  0.00    -0.319 C  
HETATM   16  C   UNL     1      -7.948   7.427  66.135  1.00  0.00    -0.112 A  
HETATM   17  C   UNL     1     -10.931   8.070  71.693  1.00  0.00    -0.288 C  
HETATM   18  N   UNL     1      -9.165   8.780  70.150  1.00  0.00    -0.161 N  
HETATM   19  C   UNL     1      -9.557   8.610  71.471  1.00  0.00    -0.257 C  
HETATM   20  O   UNL     1      -8.881   8.903  72.451  1.00  0.00    -0.396 OA 
ENDROOT
BRANCH   5  21
HETATM   21  C   UNL     1     -10.578  10.154  68.535  1.00  0.00    -0.245 A  
HETATM   22  C   UNL     1     -11.483  11.611  66.788  1.00  0.00    -0.299 A  
HETATM   23  C   UNL     1     -10.832  10.435  67.178  1.00  0.00    -0.301 A  
HETATM   24  C   UNL     1     -11.472  12.376  69.064  1.00  0.00    -0.352 A  
HETATM   25  C   UNL     1     -10.834  11.193  69.457  1.00  0.00    -0.241 A  
HETATM   26  C   UNL     1     -11.830  12.568  67.735  1.00  0.00    -0.375 A  
ENDBRANCH   5  21
TORSDOF 1
ENDMDL
MODEL       47
REMARK 921   NORMALIZED FREE ENERGY PREDICTED BY IDOCK:   -4.91 KCAL/MOL
REMARK 922        TOTAL FREE ENERGY PREDICTED BY IDOCK:   -5.52 KCAL/MOL
REMARK 923 INTER-LIGAND FREE ENERGY PREDICTED BY IDOCK:   -5.16 KCAL/MOL
REMARK 924 INTRA-LIGAND FREE ENERGY PREDICTED BY IDOCK:   -0.36 KCAL/MOL
REMARK 927      BINDING AFFINITY PREDICTED BY RF-SCORE:    0.00 PKD
ROOT
HETATM    1  C   UNL     1      -9.402   7.890  73.168  1.00  0.00    -0.272 C  
HETATM    2  N   UNL     1      -9.920   7.856  71.814  1.00  0.00    -0.171 N  
HETATM    3  C   UNL     1      -9.862   6.637  71.098  1.00  0.00    -0.181 A  
HETATM    4  C   UNL     1      -9.440   6.636  69.763  1.00  0.00    -0.150 A  
HETATM    5  C   UNL     1      -9.119   7.961  69.020  1.00  0.00    -0.144 C  
HETATM    6  C   UNL     1      -9.231   5.374  69.147  1.00  0.00    -0.147 A  
HETATM    7  C   UNL     1      -9.557   4.181  69.785  1.00  0.00    -0.211 A  
HETATM    8  O   UNL     1      -8.705   7.556  67.672  1.00  0.00    -0.122 OA 
HETATM    9  O   UNL     1     -11.691   9.174  72.425  1.00  0.00    -0.229 OA 
HETATM   10  C   UNL     1     -10.028   4.201  71.086  1.00  0.00    -0.211 A  
HETATM   11  C   UNL     1     -10.956   8.733  71.536  1.00  0.00    -0.307 C  
HETATM   12  C   UNL     1      -9.737   7.738  66.740  1.00  0.00    -0.227 C  
HETATM   13 CL   UNL     1      -9.391   2.689  68.945  1.00  0.00    -0.230 Cl 
HETATM   14  C   UNL     1     -10.958   9.385  70.160  1.00  0.00    -0.246 C  
HETATM   15  C   UNL     1     -10.822   6.680  66.721  1.00  0.00    -0.322 C  
HETATM   16  C   UNL     1     -10.146   5.423  71.752  1.00  0.00    -0.251 A  
HETATM   17  C   UNL     1     -10.036   9.021  66.533  1.00  0.00    -0.354 C  
HETATM   18  N   UNL     1     -10.355   8.822  68.954  1.00  0.00    -0.211 N  
HETATM   19  C   UNL     1     -10.724   9.466  67.781  1.00  0.00    -0.229 C  
HETATM   20  O   UNL     1     -11.532  10.386  67.704  1.00  0.00    -0.401 OA 
ENDROOT
BRANCH   5  21
HETATM   21  C   UNL     1      -7.912   8.707  69.669  1.00  0.00    -0.096 A  
HETATM   22  C   UNL     1      -5.573   8.716  70.391  1.00  0.00    -0.027 A  
HETATM   23  C   UNL     1      -6.755   8.026  70.094  1.00  0.00    -0.037 A  
HETATM   24  C   UNL     1      -6.704  10.807  70.050  1.00  0.00    -0.149 A  
HETATM   25  C   UNL     1      -7.882  10.117  69.740  1.00  0.00    -0.175 A  
HETATM   26  C   UNL     1      -5.540  10.105  70.339  1.00  0.00    -0.060 A  
ENDBRANCH   5  21
TORSDOF 1
ENDMDL
MODEL       48
REMARK 921   NORMALIZED FREE ENERGY PREDICTED BY IDOCK:   -4.90 KCAL/MOL
REMARK 922        TOTAL FREE ENERGY PREDICTED BY IDOCK:   -5.51 KCAL/MOL
REMARK 923 INTER-LIGAND FREE ENERGY PREDICTED BY IDOCK:   -5.15 KCAL/MOL
REMARK 924 INTRA-LIGAND FREE ENERGY PREDICTED BY IDOCK:   -0.36 KCAL/MOL
REMARK 927      BINDING AFFINITY PREDICTED BY RF-SCORE:    0.00 PKD
ROOT
HETATM    1  C   UNL     1      -8.188   8.019  65.512  1.00  0.00    -0.138 C  
HETATM    2  N   UNL     1      -9.217   8.267  66.503  1.00  0.00    -0.175 N  
HETATM    3  C   UNL     1      -9.855   9.530  66.513  1.00  0.00    -0.240 A  
HETATM    4  C   UNL     1     -10.069  10.190  67.729  1.00  0.00    -0.216 A  
HETATM    5  C   UNL     1      -9.701   9.522  69.081  1.00  0.00    -0.178 C  
HETATM    6  C   UNL     1     -10.550  11.525  67.670  1.00  0.00    -0.235 A  
HETATM    7  C   UNL     1     -10.926  12.119  66.469  1.00  0.00    -0.284 A  
HETATM    8  O   UNL     1     -10.053  10.511  70.107  1.00  0.00    -0.063 OA 
HETATM    9  O   UNL     1     -10.047   6.151  66.219  1.00  0.00    -0.099 OA 
HETATM   10  C   UNL     1     -10.762  11.433  65.279  1.00  0.00    -0.326 A  
HETATM   11  C   UNL     1      -9.941   7.162  66.920  1.00  0.00    -0.224 C  
HETATM   12  C   UNL     1     -11.271  10.197  70.728  1.00  0.00    -0.336 C  
HETATM   13 CL   UNL     1     -11.610  13.697  66.474  1.00  0.00    -0.369 Cl 
HETATM   14  C   UNL     1     -10.328   7.106  68.393  1.00  0.00    -0.194 C  
HETATM   15  C   UNL     1     -12.529  10.549  69.962  1.00  0.00    -0.243 C  
HETATM   16  C   UNL     1     -10.196  10.156  65.298  1.00  0.00    -0.261 A  
HETATM   17  C   UNL     1     -11.213   9.086  71.464  1.00  0.00    -0.418 C  
HETATM   18  N   UNL     1     -10.509   8.263  69.266  1.00  0.00    -0.219 N  
HETATM   19  C   UNL     1     -11.123   7.970  70.477  1.00  0.00    -0.251 C  
HETATM   20  O   UNL     1     -11.554   6.869  70.801  1.00  0.00    -0.310 OA 
ENDROOT
BRANCH   5  21
HETATM   21  C   UNL     1      -8.167   9.264  69.197  1.00  0.00    -0.111 A  
HETATM   22  C   UNL     1      -5.866  10.077  69.005  1.00  0.00    -0.034 A  
HETATM   23  C   UNL     1      -7.217  10.146  68.646  1.00  0.00    -0.080 A  
HETATM   24  C   UNL     1      -6.313   8.117  70.319  1.00  0.00    -0.036 A  
HETATM   25  C   UNL     1      -7.666   8.195  69.972  1.00  0.00    -0.086 A  
HETATM   26  C   UNL     1      -5.419   9.080  69.866  1.00  0.00    -0.028 A  
ENDBRANCH   5  21
TORSDOF 1
ENDMDL
MODEL       49
REMARK 921   NORMALIZED FREE ENERGY PREDICTED BY IDOCK:   -4.86 KCAL/MOL
REMARK 922        TOTAL FREE ENERGY PREDICTED BY IDOCK:   -5.47 KCAL/MOL
REMARK 923 INTER-LIGAND FREE ENERGY PREDICTED BY IDOCK:   -5.14 KCAL/MOL
REMARK 924 INTRA-LIGAND FREE ENERGY PREDICTED BY IDOCK:   -0.33 KCAL/MOL
REMARK 927      BINDING AFFINITY PREDICTED BY RF-SCORE:    0.00 PKD
ROOT
HETATM    1  C   UNL     1     -12.098   9.201  71.822  1.00  0.00    -0.376 C  
HETATM    2  N   UNL     1     -11.248   8.182  71.238  1.00  0.00    -0.254 N  
HETATM    3  C   UNL     1      -9.933   8.032  71.736  1.00  0.00    -0.187 A  
HETATM    4  C   UNL     1      -8.866   7.874  70.843  1.00  0.00    -0.141 A  
HETATM    5  C   UNL     1      -9.107   7.770  69.313  1.00  0.00    -0.145 C  
HETATM    6  C   UNL     1      -7.553   7.905  71.384  1.00  0.00    -0.083 A  
HETATM    7  C   UNL     1      -7.324   7.952  72.756  1.00  0.00    -0.101 A  
HETATM    8  O   UNL     1      -7.772   7.630  68.722  1.00  0.00    -0.112 OA 
HETATM    9  O   UNL     1     -13.011   6.722  71.142  1.00  0.00    -0.282 OA 
HETATM   10  C   UNL     1      -8.392   8.050  73.631  1.00  0.00    -0.302 A  
HETATM   11  C   UNL     1     -11.894   7.063  70.739  1.00  0.00    -0.355 C  
HETATM   12  C   UNL     1      -7.499   6.298  68.376  1.00  0.00    -0.088 C  
HETATM   13 CL   UNL     1      -5.715   7.870  73.357  1.00  0.00    -0.049 Cl 
HETATM   14  C   UNL     1     -11.334   6.456  69.459  1.00  0.00    -0.393 C  
HETATM   15  C   UNL     1      -7.091   5.377  69.508  1.00  0.00    -0.063 C  
HETATM   16  C   UNL     1      -9.689   8.125  73.120  1.00  0.00    -0.294 A  
HETATM   17  C   UNL     1      -8.262   5.850  67.377  1.00  0.00    -0.105 C  
HETATM   18  N   UNL     1      -9.947   6.556  69.010  1.00  0.00    -0.142 N  
HETATM   19  C   UNL     1      -9.625   5.697  67.967  1.00  0.00    -0.120 C  
HETATM   20  O   UNL     1     -10.381   4.864  67.479  1.00  0.00    -0.136 OA 
ENDROOT
BRANCH   5  21
HETATM   21  C   UNL     1      -9.730   9.080  68.738  1.00  0.00    -0.165 A  
HETATM   22  C   UNL     1      -9.793  11.525  68.640  1.00  0.00    -0.184 A  
HETATM   23  C   UNL     1      -9.488  10.340  69.320  1.00  0.00    -0.230 A  
HETATM   24  C   UNL     1     -10.781  10.253  66.859  1.00  0.00    -0.252 A  
HETATM   25  C   UNL     1     -10.464   9.067  67.532  1.00  0.00    -0.338 A  
HETATM   26  C   UNL     1     -10.412  11.480  67.396  1.00  0.00    -0.240 A  
ENDBRANCH   5  21
TORSDOF 1
ENDMDL
MODEL       50
REMARK 921   NORMALIZED FREE ENERGY PREDICTED BY IDOCK:   -4.81 KCAL/MOL
REMARK 922        TOTAL FREE ENERGY PREDICTED BY IDOCK:   -5.41 KCAL/MOL
REMARK 923 INTER-LIGAND FREE ENERGY PREDICTED BY IDOCK:   -5.11 KCAL/MOL
REMARK 924 INTRA-LIGAND FREE ENERGY PREDICTED BY IDOCK:   -0.29 KCAL/MOL
REMARK 927      BINDING AFFINITY PREDICTED BY RF-SCORE:    0.00 PKD
ROOT
HETATM    1  C   UNL     1      -9.570  14.288  67.363  1.00  0.00    -0.214 C  
HETATM    2  N   UNL     1      -9.756  12.866  67.148  1.00  0.00    -0.216 N  
HETATM    3  C   UNL     1     -10.394  12.108  68.158  1.00  0.00    -0.207 A  
HETATM    4  C   UNL     1      -9.867  10.865  68.530  1.00  0.00    -0.188 A  
HETATM    5  C   UNL     1      -8.644  10.257  67.792  1.00  0.00    -0.118 C  
HETATM    6  C   UNL     1     -10.438  10.229  69.664  1.00  0.00    -0.286 A  
HETATM    7  C   UNL     1     -11.562  10.740  70.306  1.00  0.00    -0.338 A  
HETATM    8  O   UNL     1      -8.385   8.979  68.466  1.00  0.00    -0.121 OA 
HETATM    9  O   UNL     1     -10.303  13.236  64.954  1.00  0.00    -0.340 OA 
HETATM   10  C   UNL     1     -12.107  11.941  69.890  1.00  0.00    -0.344 A  
HETATM   11  C   UNL     1      -9.904  12.462  65.831  1.00  0.00    -0.252 C  
HETATM   12  C   UNL     1      -8.878   7.897  67.724  1.00  0.00    -0.122 C  
HETATM   13 CL   UNL     1     -12.278   9.863  71.602  1.00  0.00    -0.484 Cl 
HETATM   14  C   UNL     1      -9.257  11.141  65.437  1.00  0.00    -0.205 C  
HETATM   15  C   UNL     1     -10.368   7.639  67.816  1.00  0.00    -0.282 C  
HETATM   16  C   UNL     1     -11.504  12.640  68.843  1.00  0.00    -0.354 A  
HETATM   17  C   UNL     1      -8.227   7.709  66.575  1.00  0.00    -0.125 C  
HETATM   18  N   UNL     1      -8.984  10.027  66.342  1.00  0.00    -0.142 N  
HETATM   19  C   UNL     1      -8.646   8.843  65.700  1.00  0.00    -0.166 C  
HETATM   20  O   UNL     1      -8.630   8.679  64.485  1.00  0.00    -0.159 OA 
ENDROOT
BRANCH   5  21
HETATM   21  C   UNL     1      -7.369  11.138  67.969  1.00  0.00    -0.088 A  
HETATM   22  C   UNL     1      -5.440  12.288  66.993  1.00  0.00    -0.020 A  
HETATM   23  C   UNL     1      -6.410  11.278  66.948  1.00  0.00    -0.125 A  
HETATM   24  C   UNL     1      -6.212  12.934  69.174  1.00  0.00    -0.101 A  
HETATM   25  C   UNL     1      -7.190  11.934  69.122  1.00  0.00    -0.020 A  
HETATM   26  C   UNL     1      -5.362  13.135  68.093  1.00  0.00    -0.096 A  
ENDBRANCH   5  21
TORSDOF 1
ENDMDL
MODEL       51
REMARK 921   NORMALIZED FREE ENERGY PREDICTED BY IDOCK:   -4.80 KCAL/MOL
REMARK 922        TOTAL FREE ENERGY PREDICTED BY IDOCK:   -5.41 KCAL/MOL
REMARK 923 INTER-LIGAND FREE ENERGY PREDICTED BY IDOCK:   -5.04 KCAL/MOL
REMARK 924 INTRA-LIGAND FREE ENERGY PREDICTED BY IDOCK:   -0.36 KCAL/MOL
REMARK 927      BINDING AFFINITY PREDICTED BY RF-SCORE:    0.00 PKD
ROOT
HETATM    1  C   UNL     1     -12.271  10.842  68.625  1.00  0.00     0.187 C  
HETATM    2  N   UNL     1     -10.953  11.392  68.874  1.00  0.00    -0.212 N  
HETATM    3  C   UNL     1     -10.825  12.790  69.048  1.00  0.00    -0.148 A  
HETATM    4  C   UNL     1      -9.786  13.477  68.410  1.00  0.00    -0.207 A  
HETATM    5  C   UNL     1      -8.710  12.721  67.584  1.00  0.00    -0.180 C  
HETATM    6  C   UNL     1      -9.807  14.896  68.473  1.00  0.00    -0.217 A  
HETATM    7  C   UNL     1     -10.737  15.584  69.247  1.00  0.00    -0.245 A  
HETATM    8  O   UNL     1      -7.816  13.764  67.069  1.00  0.00    -0.071 OA 
HETATM    9  O   UNL     1     -10.448   9.638  70.259  1.00  0.00    -0.242 OA 
HETATM   10  C   UNL     1     -11.725  14.887  69.919  1.00  0.00    -0.347 A  
HETATM   11  C   UNL     1     -10.062  10.564  69.538  1.00  0.00    -0.178 C  
HETATM   12  C   UNL     1      -6.630  13.840  67.814  1.00  0.00    -0.172 C  
HETATM   13 CL   UNL     1     -10.640  17.296  69.377  1.00  0.00    -0.215 Cl 
HETATM   14  C   UNL     1      -8.605  10.622  69.097  1.00  0.00    -0.128 C  
HETATM   15  C   UNL     1      -6.712  14.569  69.140  1.00  0.00    -0.115 C  
HETATM   16  C   UNL     1     -11.790  13.498  69.791  1.00  0.00    -0.395 A  
HETATM   17  C   UNL     1      -5.857  12.761  67.679  1.00  0.00    -0.141 C  
HETATM   18  N   UNL     1      -7.952  11.773  68.478  1.00  0.00    -0.149 N  
HETATM   19  C   UNL     1      -6.568  11.678  68.421  1.00  0.00    -0.061 C  
HETATM   20  O   UNL     1      -5.903  10.763  68.894  1.00  0.00    -0.041 OA 
ENDROOT
BRANCH   5  21
HETATM   21  C   UNL     1      -9.335  12.000  66.350  1.00  0.00    -0.232 A  
HETATM   22  C   UNL     1     -10.730  12.075  64.339  1.00  0.00    -0.369 A  
HETATM   23  C   UNL     1     -10.382  12.572  65.601  1.00  0.00    -0.294 A  
HETATM   24  C   UNL     1      -9.146  10.289  64.603  1.00  0.00    -0.265 A  
HETATM   25  C   UNL     1      -8.788  10.794  65.858  1.00  0.00    -0.191 A  
HETATM   26  C   UNL     1     -10.090  10.951  63.828  1.00  0.00    -0.413 A  
ENDBRANCH   5  21
TORSDOF 1
ENDMDL
MODEL       52
REMARK 921   NORMALIZED FREE ENERGY PREDICTED BY IDOCK:   -4.77 KCAL/MOL
REMARK 922        TOTAL FREE ENERGY PREDICTED BY IDOCK:   -5.37 KCAL/MOL
REMARK 923 INTER-LIGAND FREE ENERGY PREDICTED BY IDOCK:   -5.05 KCAL/MOL
REMARK 924 INTRA-LIGAND FREE ENERGY PREDICTED BY IDOCK:   -0.32 KCAL/MOL
REMARK 927      BINDING AFFINITY PREDICTED BY RF-SCORE:    0.00 PKD
ROOT
HETATM    1  C   UNL     1      -8.412   9.780  68.086  1.00  0.00    -0.114 C  
HETATM    2  N   UNL     1      -9.047   9.330  69.309  1.00  0.00    -0.147 N  
HETATM    3  C   UNL     1      -8.226   8.885  70.372  1.00  0.00    -0.138 A  
HETATM    4  C   UNL     1      -8.563   7.717  71.067  1.00  0.00    -0.128 A  
HETATM    5  C   UNL     1      -9.871   6.943  70.752  1.00  0.00    -0.182 C  
HETATM    6  C   UNL     1      -7.617   7.221  72.003  1.00  0.00    -0.088 A  
HETATM    7  C   UNL     1      -6.462   7.927  72.326  1.00  0.00    -0.061 A  
HETATM    8  O   UNL     1      -9.863   5.790  71.660  1.00  0.00    -0.163 OA 
HETATM    9  O   UNL     1     -10.576  11.031  69.180  1.00  0.00    -0.211 OA 
HETATM   10  C   UNL     1      -6.172   9.111  71.672  1.00  0.00    -0.056 A  
HETATM   11  C   UNL     1     -10.262   9.920  69.618  1.00  0.00    -0.237 C  
HETATM   12  C   UNL     1     -10.709   5.994  72.760  1.00  0.00    -0.237 C  
HETATM   13 CL   UNL     1      -5.413   7.332  73.553  1.00  0.00    -0.045 Cl 
HETATM   14  C   UNL     1     -11.325   9.025  70.244  1.00  0.00    -0.178 C  
HETATM   15  C   UNL     1     -10.167   6.868  73.873  1.00  0.00    -0.401 C  
HETATM   16  C   UNL     1      -7.033   9.570  70.674  1.00  0.00    -0.121 A  
HETATM   17  C   UNL     1     -11.999   6.040  72.428  1.00  0.00    -0.232 C  
HETATM   18  N   UNL     1     -11.064   7.822  71.031  1.00  0.00    -0.253 N  
HETATM   19  C   UNL     1     -12.172   7.341  71.716  1.00  0.00    -0.334 C  
HETATM   20  O   UNL     1     -13.273   7.880  71.744  1.00  0.00    -0.331 OA 
ENDROOT
BRANCH   5  21
HETATM   21  C   UNL     1      -9.874   6.384  69.296  1.00  0.00    -0.167 A  
HETATM   22  C   UNL     1     -10.959   6.182  67.111  1.00  0.00    -0.420 A  
HETATM   23  C   UNL     1     -11.030   6.400  68.492  1.00  0.00    -0.396 A  
HETATM   24  C   UNL     1      -8.609   5.721  67.303  1.00  0.00    -0.109 A  
HETATM   25  C   UNL     1      -8.678   5.953  68.681  1.00  0.00    -0.109 A  
HETATM   26  C   UNL     1      -9.742   5.873  66.512  1.00  0.00    -0.185 A  
ENDBRANCH   5  21
TORSDOF 1
ENDMDL
MODEL       53
REMARK 921   NORMALIZED FREE ENERGY PREDICTED BY IDOCK:   -4.76 KCAL/MOL
REMARK 922        TOTAL FREE ENERGY PREDICTED BY IDOCK:   -5.36 KCAL/MOL
REMARK 923 INTER-LIGAND FREE ENERGY PREDICTED BY IDOCK:   -5.06 KCAL/MOL
REMARK 924 INTRA-LIGAND FREE ENERGY PREDICTED BY IDOCK:   -0.30 KCAL/MOL
REMARK 927      BINDING AFFINITY PREDICTED BY RF-SCORE:    0.00 PKD
ROOT
HETATM    1  C   UNL     1      -8.254   5.761  69.043  1.00  0.00    -0.101 C  
HETATM    2  N   UNL     1      -9.288   6.777  69.017  1.00  0.00    -0.135 N  
HETATM    3  C   UNL     1      -9.277   7.728  67.970  1.00  0.00    -0.138 A  
HETATM    4  C   UNL     1      -9.492   9.081  68.259  1.00  0.00    -0.156 A  
HETATM    5  C   UNL     1      -9.834   9.551  69.699  1.00  0.00    -0.205 C  
HETATM    6  C   UNL     1      -9.296  10.011  67.205  1.00  0.00    -0.173 A  
HETATM    7  C   UNL     1      -9.034   9.601  65.901  1.00  0.00    -0.167 A  
HETATM    8  O   UNL     1      -9.970  11.009  69.605  1.00  0.00    -0.003 OA 
HETATM    9  O   UNL     1     -10.861   5.236  69.651  1.00  0.00    -0.214 OA 
HETATM   10  C   UNL     1      -8.881   8.255  65.619  1.00  0.00    -0.172 A  
HETATM   11  C   UNL     1     -10.509   6.417  69.565  1.00  0.00    -0.230 C  
HETATM   12  C   UNL     1     -11.317  11.399  69.577  1.00  0.00    -0.289 C  
HETATM   13 CL   UNL     1      -8.922  10.769  64.644  1.00  0.00    -0.206 Cl 
HETATM   14  C   UNL     1     -11.258   7.488  70.348  1.00  0.00    -0.253 C  
HETATM   15  C   UNL     1     -12.034  11.251  68.250  1.00  0.00    -0.215 C  
HETATM   16  C   UNL     1      -8.967   7.325  66.657  1.00  0.00    -0.170 A  
HETATM   17  C   UNL     1     -11.955  11.163  70.723  1.00  0.00    -0.415 C  
HETATM   18  N   UNL     1     -11.132   8.929  70.145  1.00  0.00    -0.231 N  
HETATM   19  C   UNL     1     -12.110   9.679  70.784  1.00  0.00    -0.248 C  
HETATM   20  O   UNL     1     -13.054   9.218  71.417  1.00  0.00    -0.333 OA 
ENDROOT
BRANCH   5  21
HETATM   21  C   UNL     1      -8.666   9.260  70.691  1.00  0.00    -0.282 A  
HETATM   22  C   UNL     1      -7.826   8.138  72.699  1.00  0.00    -0.190 A  
HETATM   23  C   UNL     1      -8.885   8.666  71.950  1.00  0.00    -0.275 A  
HETATM   24  C   UNL     1      -6.262   8.953  71.069  1.00  0.00    -0.052 A  
HETATM   25  C   UNL     1      -7.321   9.469  70.313  1.00  0.00    -0.135 A  
HETATM   26  C   UNL     1      -6.518   8.255  72.243  1.00  0.00    -0.074 A  
ENDBRANCH   5  21
TORSDOF 1
ENDMDL
MODEL       54
REMARK 921   NORMALIZED FREE ENERGY PREDICTED BY IDOCK:   -4.75 KCAL/MOL
REMARK 922        TOTAL FREE ENERGY PREDICTED BY IDOCK:   -5.35 KCAL/MOL
REMARK 923 INTER-LIGAND FREE ENERGY PREDICTED BY IDOCK:   -5.03 KCAL/MOL
REMARK 924 INTRA-LIGAND FREE ENERGY PREDICTED BY IDOCK:   -0.32 KCAL/MOL
REMARK 927      BINDING AFFINITY PREDICTED BY RF-SCORE:    0.00 PKD
ROOT
HETATM    1  C   UNL     1     -12.016   7.897  71.033  1.00  0.00    -0.252 C  
HETATM    2  N   UNL     1     -10.769   8.635  70.988  1.00  0.00    -0.217 N  
HETATM    3  C   UNL     1     -10.735   9.862  70.285  1.00  0.00    -0.310 A  
HETATM    4  C   UNL     1      -9.661  10.146  69.434  1.00  0.00    -0.249 A  
HETATM    5  C   UNL     1      -8.454   9.177  69.313  1.00  0.00    -0.132 C  
HETATM    6  C   UNL     1      -9.761  11.307  68.622  1.00  0.00    -0.200 A  
HETATM    7  C   UNL     1     -10.814  12.207  68.754  1.00  0.00    -0.228 A  
HETATM    8  O   UNL     1      -7.557   9.800  68.333  1.00  0.00    -0.079 OA 
HETATM    9  O   UNL     1     -10.352   8.130  73.183  1.00  0.00    -0.289 OA 
HETATM   10  C   UNL     1     -11.842  11.942  69.641  1.00  0.00    -0.406 A  
HETATM   11  C   UNL     1      -9.927   8.477  72.076  1.00  0.00    -0.313 C  
HETATM   12  C   UNL     1      -6.478  10.443  68.958  1.00  0.00    -0.052 C  
HETATM   13 CL   UNL     1     -10.822  13.654  67.824  1.00  0.00    -0.259 Cl 
HETATM   14  C   UNL     1      -8.431   8.429  71.792  1.00  0.00    -0.165 C  
HETATM   15  C   UNL     1      -6.762  11.804  69.560  1.00  0.00    -0.067 C  
HETATM   16  C   UNL     1     -11.819  10.756  70.378  1.00  0.00    -0.450 A  
HETATM   17  C   UNL     1      -5.641   9.597  69.559  1.00  0.00    -0.034 C  
HETATM   18  N   UNL     1      -7.766   9.047  70.648  1.00  0.00    -0.106 N  
HETATM   19  C   UNL     1      -6.382   9.098  70.755  1.00  0.00    -0.064 C  
HETATM   20  O   UNL     1      -5.736   8.732  71.730  1.00  0.00    -0.044 OA 
ENDROOT
BRANCH   5  21
HETATM   21  C   UNL     1      -8.883   7.795  68.731  1.00  0.00    -0.134 A  
HETATM   22  C   UNL     1      -8.946   5.353  68.907  1.00  0.00    -0.130 A  
HETATM   23  C   UNL     1      -8.351   6.583  69.213  1.00  0.00    -0.123 A  
HETATM   24  C   UNL     1     -10.507   6.467  67.460  1.00  0.00    -0.297 A  
HETATM   25  C   UNL     1      -9.920   7.698  67.777  1.00  0.00    -0.219 A  
HETATM   26  C   UNL     1     -10.043   5.299  68.054  1.00  0.00    -0.208 A  
ENDBRANCH   5  21
TORSDOF 1
ENDMDL
MODEL       55
REMARK 921   NORMALIZED FREE ENERGY PREDICTED BY IDOCK:   -4.72 KCAL/MOL
REMARK 922        TOTAL FREE ENERGY PREDICTED BY IDOCK:   -5.31 KCAL/MOL
REMARK 923 INTER-LIGAND FREE ENERGY PREDICTED BY IDOCK:   -4.97 KCAL/MOL
REMARK 924 INTRA-LIGAND FREE ENERGY PREDICTED BY IDOCK:   -0.34 KCAL/MOL
REMARK 927      BINDING AFFINITY PREDICTED BY RF-SCORE:    0.00 PKD
ROOT
HETATM    1  C   UNL     1     -11.150   6.512  66.832  1.00  0.00    -0.272 C  
HETATM    2  N   UNL     1      -9.985   6.892  67.608  1.00  0.00    -0.136 N  
HETATM    3  C   UNL     1     -10.109   6.980  69.014  1.00  0.00    -0.180 A  
HETATM    4  C   UNL     1      -9.553   8.071  69.692  1.00  0.00    -0.168 A  
HETATM    5  C   UNL     1      -8.721   9.146  68.942  1.00  0.00    -0.132 C  
HETATM    6  C   UNL     1      -9.856   8.202  71.074  1.00  0.00    -0.212 A  
HETATM    7  C   UNL     1     -10.561   7.224  71.768  1.00  0.00    -0.205 A  
HETATM    8  O   UNL     1      -8.328  10.116  69.970  1.00  0.00    -0.160 OA 
HETATM    9  O   UNL     1      -8.639   5.598  66.280  1.00  0.00    -0.120 OA 
HETATM   10  C   UNL     1     -11.056   6.122  71.095  1.00  0.00    -0.360 A  
HETATM   11  C   UNL     1      -8.756   6.535  67.077  1.00  0.00    -0.112 C  
HETATM   12  C   UNL     1      -6.998   9.929  70.373  1.00  0.00    -0.141 C  
HETATM   13 CL   UNL     1     -10.797   7.383  73.465  1.00  0.00    -0.376 Cl 
HETATM   14  C   UNL     1      -7.614   7.528  67.250  1.00  0.00    -0.108 C  
HETATM   15  C   UNL     1      -6.742   8.798  71.348  1.00  0.00    -0.081 C  
HETATM   16  C   UNL     1     -10.860   6.018  69.716  1.00  0.00    -0.433 A  
HETATM   17  C   UNL     1      -6.115  10.212  69.415  1.00  0.00    -0.041 C  
HETATM   18  N   UNL     1      -7.501   8.510  68.326  1.00  0.00    -0.094 N  
HETATM   19  C   UNL     1      -6.250   9.105  68.422  1.00  0.00    -0.053 C  
HETATM   20  O   UNL     1      -5.277   8.817  67.735  1.00  0.00    -0.034 OA 
ENDROOT
BRANCH   5  21
HETATM   21  C   UNL     1      -9.584   9.911  67.892  1.00  0.00    -0.157 A  
HETATM   22  C   UNL     1     -11.525  11.308  67.363  1.00  0.00    -0.300 A  
HETATM   23  C   UNL     1     -10.881  10.376  68.186  1.00  0.00    -0.311 A  
HETATM   24  C   UNL     1      -9.697  11.201  65.809  1.00  0.00    -0.266 A  
HETATM   25  C   UNL     1      -9.047  10.279  66.639  1.00  0.00    -0.163 A  
HETATM   26  C   UNL     1     -10.918  11.743  66.190  1.00  0.00    -0.355 A  
ENDBRANCH   5  21
TORSDOF 1
ENDMDL
MODEL       56
REMARK 921   NORMALIZED FREE ENERGY PREDICTED BY IDOCK:   -4.71 KCAL/MOL
REMARK 922        TOTAL FREE ENERGY PREDICTED BY IDOCK:   -5.31 KCAL/MOL
REMARK 923 INTER-LIGAND FREE ENERGY PREDICTED BY IDOCK:   -5.00 KCAL/MOL
REMARK 924 INTRA-LIGAND FREE ENERGY PREDICTED BY IDOCK:   -0.32 KCAL/MOL
REMARK 927      BINDING AFFINITY PREDICTED BY RF-SCORE:    0.00 PKD
ROOT
HETATM    1  C   UNL     1      -9.568   4.125  72.833  1.00  0.00    -0.129 C  
HETATM    2  N   UNL     1     -10.069   5.170  71.962  1.00  0.00    -0.190 N  
HETATM    3  C   UNL     1      -9.684   5.159  70.601  1.00  0.00    -0.192 A  
HETATM    4  C   UNL     1      -9.291   6.351  69.981  1.00  0.00    -0.162 A  
HETATM    5  C   UNL     1      -9.353   7.707  70.733  1.00  0.00    -0.162 C  
HETATM    6  C   UNL     1      -8.748   6.255  68.672  1.00  0.00    -0.120 A  
HETATM    7  C   UNL     1      -8.728   5.054  67.969  1.00  0.00    -0.102 A  
HETATM    8  O   UNL     1      -8.855   8.702  69.776  1.00  0.00    -0.133 OA 
HETATM    9  O   UNL     1     -12.129   5.058  72.959  1.00  0.00    -0.171 OA 
HETATM   10  C   UNL     1      -9.175   3.894  68.576  1.00  0.00    -0.212 A  
HETATM   11  C   UNL     1     -11.308   5.695  72.291  1.00  0.00    -0.240 C  
HETATM   12  C   UNL     1      -9.905   9.423  69.189  1.00  0.00    -0.174 C  
HETATM   13 CL   UNL     1      -8.166   5.024  66.344  1.00  0.00    -0.108 Cl 
HETATM   14  C   UNL     1     -11.502   7.192  72.084  1.00  0.00    -0.269 C  
HETATM   15  C   UNL     1     -10.658   8.729  68.072  1.00  0.00    -0.218 C  
HETATM   16  C   UNL     1      -9.618   3.940  69.899  1.00  0.00    -0.270 A  
HETATM   17  C   UNL     1     -10.547  10.210  70.053  1.00  0.00    -0.338 C  
HETATM   18  N   UNL     1     -10.778   8.014  71.116  1.00  0.00    -0.217 N  
HETATM   19  C   UNL     1     -11.321   9.279  70.928  1.00  0.00    -0.308 C  
HETATM   20  O   UNL     1     -12.350   9.690  71.451  1.00  0.00    -0.328 OA 
ENDROOT
BRANCH   5  21
HETATM   21  C   UNL     1      -8.392   7.729  71.961  1.00  0.00    -0.142 A  
HETATM   22  C   UNL     1      -8.044   7.992  74.371  1.00  0.00    -0.300 A  
HETATM   23  C   UNL     1      -8.787   8.244  73.211  1.00  0.00    -0.283 A  
HETATM   24  C   UNL     1      -6.371   6.874  73.058  1.00  0.00    -0.061 A  
HETATM   25  C   UNL     1      -7.121   7.115  71.901  1.00  0.00    -0.071 A  
HETATM   26  C   UNL     1      -6.851   7.280  74.297  1.00  0.00    -0.097 A  
ENDBRANCH   5  21
TORSDOF 1
ENDMDL
MODEL       57
REMARK 921   NORMALIZED FREE ENERGY PREDICTED BY IDOCK:   -4.68 KCAL/MOL
REMARK 922        TOTAL FREE ENERGY PREDICTED BY IDOCK:   -5.27 KCAL/MOL
REMARK 923 INTER-LIGAND FREE ENERGY PREDICTED BY IDOCK:   -4.91 KCAL/MOL
REMARK 924 INTRA-LIGAND FREE ENERGY PREDICTED BY IDOCK:   -0.36 KCAL/MOL
REMARK 927      BINDING AFFINITY PREDICTED BY RF-SCORE:    0.00 PKD
ROOT
HETATM    1  C   UNL     1     -11.158   6.259  68.515  1.00  0.00    -0.308 C  
HETATM    2  N   UNL     1      -9.886   6.948  68.613  1.00  0.00    -0.143 N  
HETATM    3  C   UNL     1      -8.995   6.580  69.648  1.00  0.00    -0.141 A  
HETATM    4  C   UNL     1      -8.342   7.574  70.387  1.00  0.00    -0.128 A  
HETATM    5  C   UNL     1      -8.504   9.077  70.033  1.00  0.00    -0.145 C  
HETATM    6  C   UNL     1      -7.599   7.158  71.524  1.00  0.00    -0.088 A  
HETATM    7  C   UNL     1      -7.408   5.813  71.826  1.00  0.00    -0.093 A  
HETATM    8  O   UNL     1      -7.693   9.795  71.023  1.00  0.00    -0.292 OA 
HETATM    9  O   UNL     1      -9.659   6.919  66.333  1.00  0.00    -0.166 OA 
HETATM   10  C   UNL     1      -8.014   4.839  71.052  1.00  0.00    -0.083 A  
HETATM   11  C   UNL     1      -9.353   7.415  67.422  1.00  0.00    -0.132 C  
HETATM   12  C   UNL     1      -6.464  10.202  70.483  1.00  0.00    -0.116 C  
HETATM   13 CL   UNL     1      -6.402   5.369  73.149  1.00  0.00    -0.058 Cl 
HETATM   14  C   UNL     1      -8.636   8.759  67.467  1.00  0.00    -0.127 C  
HETATM   15  C   UNL     1      -5.389   9.140  70.378  1.00  0.00    -0.030 C  
HETATM   16  C   UNL     1      -8.833   5.223  69.988  1.00  0.00    -0.140 A  
HETATM   17  C   UNL     1      -6.590  11.136  69.540  1.00  0.00    -0.126 C  
HETATM   18  N   UNL     1      -7.985   9.334  68.642  1.00  0.00    -0.099 N  
HETATM   19  C   UNL     1      -7.174  10.426  68.364  1.00  0.00    -0.080 C  
HETATM   20  O   UNL     1      -6.939  10.864  67.243  1.00  0.00    -0.080 OA 
ENDROOT
BRANCH   5  21
HETATM   21  C   UNL     1      -9.979   9.553  70.213  1.00  0.00    -0.310 A  
HETATM   22  C   UNL     1     -11.992   9.724  71.596  1.00  0.00    -0.454 A  
HETATM   23  C   UNL     1     -10.794   9.082  71.261  1.00  0.00    -0.385 A  
HETATM   24  C   UNL     1     -11.721  11.209  69.727  1.00  0.00    -0.419 A  
HETATM   25  C   UNL     1     -10.516  10.576  69.401  1.00  0.00    -0.264 A  
HETATM   26  C   UNL     1     -12.440  10.807  70.847  1.00  0.00    -0.500 A  
ENDBRANCH   5  21
TORSDOF 1
ENDMDL
MODEL       58
REMARK 921   NORMALIZED FREE ENERGY PREDICTED BY IDOCK:   -4.67 KCAL/MOL
REMARK 922        TOTAL FREE ENERGY PREDICTED BY IDOCK:   -5.27 KCAL/MOL
REMARK 923 INTER-LIGAND FREE ENERGY PREDICTED BY IDOCK:   -5.32 KCAL/MOL
REMARK 924 INTRA-LIGAND FREE ENERGY PREDICTED BY IDOCK:    0.05 KCAL/MOL
REMARK 927      BINDING AFFINITY PREDICTED BY RF-SCORE:    0.00 PKD
ROOT
HETATM    1  C   UNL     1     -12.108  13.809  68.114  1.00  0.00    -0.281 C  
HETATM    2  N   UNL     1     -10.938  13.001  68.399  1.00  0.00    -0.251 N  
HETATM    3  C   UNL     1      -9.694  13.652  68.574  1.00  0.00    -0.184 A  
HETATM    4  C   UNL     1      -8.547  13.131  67.964  1.00  0.00    -0.182 A  
HETATM    5  C   UNL     1      -8.594  11.798  67.169  1.00  0.00    -0.168 C  
HETATM    6  C   UNL     1      -7.364  13.914  68.024  1.00  0.00    -0.141 A  
HETATM    7  C   UNL     1      -7.296  15.087  68.770  1.00  0.00    -0.125 A  
HETATM    8  O   UNL     1      -7.226  11.595  66.677  1.00  0.00    -0.114 OA 
HETATM    9  O   UNL     1     -12.162  11.665  69.801  1.00  0.00    -0.275 OA 
HETATM   10  C   UNL     1      -8.424  15.560  69.415  1.00  0.00    -0.256 A  
HETATM   11  C   UNL     1     -11.165  11.821  69.089  1.00  0.00    -0.264 C  
HETATM   12  C   UNL     1      -6.534  10.655  67.454  1.00  0.00    -0.059 C  
HETATM   13 CL   UNL     1      -5.803  15.932  68.899  1.00  0.00    -0.110 Cl 
HETATM   14  C   UNL     1     -10.326  10.615  68.688  1.00  0.00    -0.186 C  
HETATM   15  C   UNL     1      -5.982  11.149  68.776  1.00  0.00    -0.043 C  
HETATM   16  C   UNL     1      -9.627  14.863  69.289  1.00  0.00    -0.131 A  
HETATM   17  C   UNL     1      -7.024   9.420  67.343  1.00  0.00    -0.085 C  
HETATM   18  N   UNL     1      -8.996  10.670  68.085  1.00  0.00    -0.136 N  
HETATM   19  C   UNL     1      -8.330   9.452  68.067  1.00  0.00    -0.119 C  
HETATM   20  O   UNL     1      -8.749   8.411  68.560  1.00  0.00    -0.135 OA 
ENDROOT
BRANCH   5  21
HETATM   21  C   UNL     1      -9.522  11.905  65.920  1.00  0.00    -0.227 A  
HETATM   22  C   UNL     1     -10.611  13.273  64.206  1.00  0.00    -0.402 A  
HETATM   23  C   UNL     1     -10.039  13.138  65.476  1.00  0.00    -0.271 A  
HETATM   24  C   UNL     1     -10.364  10.912  63.842  1.00  0.00    -0.397 A  
HETATM   25  C   UNL     1      -9.779  10.780  65.106  1.00  0.00    -0.319 A  
HETATM   26  C   UNL     1     -10.746  12.165  63.377  1.00  0.00    -0.461 A  
ENDBRANCH   5  21
TORSDOF 1
ENDMDL
MODEL       59
REMARK 921   NORMALIZED FREE ENERGY PREDICTED BY IDOCK:   -4.63 KCAL/MOL
REMARK 922        TOTAL FREE ENERGY PREDICTED BY IDOCK:   -5.23 KCAL/MOL
REMARK 923 INTER-LIGAND FREE ENERGY PREDICTED BY IDOCK:   -4.86 KCAL/MOL
REMARK 924 INTRA-LIGAND FREE ENERGY PREDICTED BY IDOCK:   -0.36 KCAL/MOL
REMARK 927      BINDING AFFINITY PREDICTED BY RF-SCORE:    0.00 PKD
ROOT
HETATM    1  C   UNL     1     -11.405   7.781  73.055  1.00  0.00    -0.273 C  
HETATM    2  N   UNL     1     -11.218   6.847  71.961  1.00  0.00    -0.248 N  
HETATM    3  C   UNL     1     -10.617   5.596  72.234  1.00  0.00    -0.221 A  
HETATM    4  C   UNL     1      -9.631   5.098  71.375  1.00  0.00    -0.215 A  
HETATM    5  C   UNL     1      -9.243   5.850  70.073  1.00  0.00    -0.148 C  
HETATM    6  C   UNL     1      -8.937   3.929  71.788  1.00  0.00    -0.153 A  
HETATM    7  C   UNL     1      -9.304   3.221  72.928  1.00  0.00    -0.092 A  
HETATM    8  O   UNL     1      -8.185   5.039  69.461  1.00  0.00    -0.083 OA 
HETATM    9  O   UNL     1     -13.274   7.389  71.106  1.00  0.00    -0.306 OA 
HETATM   10  C   UNL     1     -10.321   3.695  73.738  1.00  0.00    -0.235 A  
HETATM   11  C   UNL     1     -12.144   6.921  70.932  1.00  0.00    -0.373 C  
HETATM   12  C   UNL     1      -8.678   4.262  68.403  1.00  0.00    -0.098 C  
HETATM   13 CL   UNL     1      -8.503   1.748  73.314  1.00  0.00    -0.060 Cl 
HETATM   14  C   UNL     1     -11.621   6.711  69.517  1.00  0.00    -0.195 C  
HETATM   15  C   UNL     1      -9.421   2.998  68.784  1.00  0.00    -0.185 C  
HETATM   16  C   UNL     1     -10.951   4.897  73.410  1.00  0.00    -0.394 A  
HETATM   17  C   UNL     1      -9.070   4.990  67.357  1.00  0.00    -0.120 C  
HETATM   18  N   UNL     1     -10.437   5.934  69.157  1.00  0.00    -0.240 N  
HETATM   19  C   UNL     1     -10.326   5.664  67.800  1.00  0.00    -0.206 C  
HETATM   20  O   UNL     1     -11.155   5.969  66.949  1.00  0.00    -0.303 OA 
ENDROOT
BRANCH   5  21
HETATM   21  C   UNL     1      -8.631   7.252  70.379  1.00  0.00    -0.144 A  
HETATM   22  C   UNL     1      -7.002   8.633  71.577  1.00  0.00    -0.091 A  
HETATM   23  C   UNL     1      -7.778   7.471  71.478  1.00  0.00    -0.085 A  
HETATM   24  C   UNL     1      -8.046   9.501  69.595  1.00  0.00    -0.128 A  
HETATM   25  C   UNL     1      -8.811   8.333  69.489  1.00  0.00    -0.149 A  
HETATM   26  C   UNL     1      -7.114   9.634  70.618  1.00  0.00    -0.117 A  
ENDBRANCH   5  21
TORSDOF 1
ENDMDL
MODEL       60
REMARK 921   NORMALIZED FREE ENERGY PREDICTED BY IDOCK:   -4.58 KCAL/MOL
REMARK 922        TOTAL FREE ENERGY PREDICTED BY IDOCK:   -5.17 KCAL/MOL
REMARK 923 INTER-LIGAND FREE ENERGY PREDICTED BY IDOCK:   -4.82 KCAL/MOL
REMARK 924 INTRA-LIGAND FREE ENERGY PREDICTED BY IDOCK:   -0.35 KCAL/MOL
REMARK 927      BINDING AFFINITY PREDICTED BY RF-SCORE:    0.00 PKD
ROOT
HETATM    1  C   UNL     1     -10.919  10.298  70.532  1.00  0.00    -0.270 C  
HETATM    2  N   UNL     1     -10.619   9.590  69.303  1.00  0.00    -0.216 N  
HETATM    3  C   UNL     1     -10.419   8.191  69.361  1.00  0.00    -0.220 A  
HETATM    4  C   UNL     1      -9.353   7.613  68.662  1.00  0.00    -0.147 A  
HETATM    5  C   UNL     1      -8.433   8.467  67.748  1.00  0.00    -0.131 C  
HETATM    6  C   UNL     1      -9.092   6.236  68.894  1.00  0.00    -0.124 A  
HETATM    7  C   UNL     1      -9.934   5.449  69.674  1.00  0.00    -0.227 A  
HETATM    8  O   UNL     1      -7.444   7.526  67.211  1.00  0.00    -0.095 OA 
HETATM    9  O   UNL     1     -12.146  10.860  68.161  1.00  0.00    -0.563 OA 
HETATM   10  C   UNL     1     -11.018   6.024  70.313  1.00  0.00    -0.412 A  
HETATM   11  C   UNL     1     -11.148  10.131  68.143  1.00  0.00    -0.230 C  
HETATM   12  C   UNL     1      -7.750   7.152  65.894  1.00  0.00    -0.101 C  
HETATM   13 CL   UNL     1      -9.631   3.763  69.824  1.00  0.00    -0.269 Cl 
HETATM   14  C   UNL     1     -10.280  10.068  66.893  1.00  0.00    -0.238 C  
HETATM   15  C   UNL     1      -8.832   6.105  65.725  1.00  0.00    -0.133 C  
HETATM   16  C   UNL     1     -11.239   7.396  70.185  1.00  0.00    -0.239 A  
HETATM   17  C   UNL     1      -7.636   8.156  65.024  1.00  0.00    -0.096 C  
HETATM   18  N   UNL     1      -9.244   9.072  66.630  1.00  0.00    -0.157 N  
HETATM   19  C   UNL     1      -8.788   9.059  65.319  1.00  0.00    -0.193 C  
HETATM   20  O   UNL     1      -9.231   9.754  64.411  1.00  0.00    -0.248 OA 
ENDROOT
BRANCH   5  21
HETATM   21  C   UNL     1      -7.651   9.542  68.563  1.00  0.00    -0.081 A  
HETATM   22  C   UNL     1      -6.311  10.153  70.519  1.00  0.00    -0.117 A  
HETATM   23  C   UNL     1      -7.257   9.328  69.898  1.00  0.00    -0.071 A  
HETATM   24  C   UNL     1      -6.262  11.563  68.575  1.00  0.00    -0.050 A  
HETATM   25  C   UNL     1      -7.197  10.731  67.949  1.00  0.00    -0.087 A  
HETATM   26  C   UNL     1      -5.791  11.253  69.846  1.00  0.00    -0.104 A  
ENDBRANCH   5  21
TORSDOF 1
ENDMDL
MODEL       61
REMARK 921   NORMALIZED FREE ENERGY PREDICTED BY IDOCK:   -4.57 KCAL/MOL
REMARK 922        TOTAL FREE ENERGY PREDICTED BY IDOCK:   -5.16 KCAL/MOL
REMARK 923 INTER-LIGAND FREE ENERGY PREDICTED BY IDOCK:   -4.85 KCAL/MOL
REMARK 924 INTRA-LIGAND FREE ENERGY PREDICTED BY IDOCK:   -0.31 KCAL/MOL
REMARK 927      BINDING AFFINITY PREDICTED BY RF-SCORE:    0.00 PKD
ROOT
HETATM    1  C   UNL     1      -7.068   9.787  70.064  1.00  0.00    -0.118 C  
HETATM    2  N   UNL     1      -7.589   8.599  70.711  1.00  0.00    -0.073 N  
HETATM    3  C   UNL     1      -7.569   7.377  69.998  1.00  0.00    -0.089 A  
HETATM    4  C   UNL     1      -8.694   6.544  70.018  1.00  0.00    -0.140 A  
HETATM    5  C   UNL     1      -9.936   6.890  70.882  1.00  0.00    -0.189 C  
HETATM    6  C   UNL     1      -8.688   5.421  69.148  1.00  0.00    -0.104 A  
HETATM    7  C   UNL     1      -7.565   5.073  68.403  1.00  0.00    -0.078 A  
HETATM    8  O   UNL     1     -10.893   5.807  70.631  1.00  0.00    -0.275 OA 
HETATM    9  O   UNL     1      -6.621   9.215  72.694  1.00  0.00    -0.311 OA 
HETATM   10  C   UNL     1      -6.438   5.876  68.438  1.00  0.00    -0.046 A  
HETATM   11  C   UNL     1      -7.475   8.556  72.091  1.00  0.00    -0.071 C  
HETATM   12  C   UNL     1     -10.907   4.878  71.681  1.00  0.00     0.084 C  
HETATM   13 CL   UNL     1      -7.578   3.637  67.457  1.00  0.00    -0.070 Cl 
HETATM   14  C   UNL     1      -8.632   7.933  72.861  1.00  0.00    -0.180 C  
HETATM   15  C   UNL     1      -9.777   3.869  71.704  1.00  0.00    -0.240 C  
HETATM   16  C   UNL     1      -6.454   7.042  69.206  1.00  0.00    -0.043 A  
HETATM   17  C   UNL     1     -11.391   5.379  72.818  1.00  0.00    -0.358 C  
HETATM   18  N   UNL     1      -9.552   6.925  72.339  1.00  0.00    -0.153 N  
HETATM   19  C   UNL     1     -10.340   6.319  73.308  1.00  0.00    -0.231 C  
HETATM   20  O   UNL     1     -10.261   6.528  74.514  1.00  0.00    -0.358 OA 
ENDROOT
BRANCH   5  21
HETATM   21  C   UNL     1     -10.609   8.217  70.415  1.00  0.00    -0.231 A  
HETATM   22  C   UNL     1     -11.514  10.430  70.944  1.00  0.00    -0.385 A  
HETATM   23  C   UNL     1     -11.186   9.124  71.326  1.00  0.00    -0.407 A  
HETATM   24  C   UNL     1     -10.896   9.925  68.678  1.00  0.00    -0.244 A  
HETATM   25  C   UNL     1     -10.556   8.623  69.063  1.00  0.00    -0.179 A  
HETATM   26  C   UNL     1     -11.340  10.840  69.626  1.00  0.00    -0.362 A  
ENDBRANCH   5  21
TORSDOF 1
ENDMDL
MODEL       62
REMARK 921   NORMALIZED FREE ENERGY PREDICTED BY IDOCK:   -4.55 KCAL/MOL
REMARK 922        TOTAL FREE ENERGY PREDICTED BY IDOCK:   -5.14 KCAL/MOL
REMARK 923 INTER-LIGAND FREE ENERGY PREDICTED BY IDOCK:   -4.77 KCAL/MOL
REMARK 924 INTRA-LIGAND FREE ENERGY PREDICTED BY IDOCK:   -0.36 KCAL/MOL
REMARK 927      BINDING AFFINITY PREDICTED BY RF-SCORE:    0.00 PKD
ROOT
HETATM    1  C   UNL     1      -9.679  10.779  66.619  1.00  0.00    -0.190 C  
HETATM    2  N   UNL     1      -9.904  10.360  67.989  1.00  0.00    -0.149 N  
HETATM    3  C   UNL     1      -8.813  10.377  68.889  1.00  0.00    -0.161 A  
HETATM    4  C   UNL     1      -8.608   9.294  69.751  1.00  0.00    -0.164 A  
HETATM    5  C   UNL     1      -9.608   8.107  69.804  1.00  0.00    -0.171 C  
HETATM    6  C   UNL     1      -7.405   9.281  70.506  1.00  0.00    -0.120 A  
HETATM    7  C   UNL     1      -6.523  10.357  70.503  1.00  0.00    -0.093 A  
HETATM    8  O   UNL     1      -9.054   7.180  70.797  1.00  0.00    -0.152 OA 
HETATM    9  O   UNL     1     -11.920  11.450  68.025  1.00  0.00    -0.613 OA 
HETATM   10  C   UNL     1      -6.769  11.447  69.688  1.00  0.00    -0.105 A  
HETATM   11  C   UNL     1     -11.176  10.581  68.493  1.00  0.00    -0.274 C  
HETATM   12  C   UNL     1      -9.717   7.287  72.028  1.00  0.00    -0.157 C  
HETATM   13 CL   UNL     1      -5.141  10.332  71.527  1.00  0.00    -0.083 Cl 
HETATM   14  C   UNL     1     -11.748   9.514  69.417  1.00  0.00     0.398 C  
HETATM   15  C   UNL     1      -9.325   8.457  72.907  1.00  0.00    -0.283 C  
HETATM   16  C   UNL     1      -7.892  11.442  68.858  1.00  0.00    -0.096 A  
HETATM   17  C   UNL     1     -10.983   6.870  71.979  1.00  0.00    -0.266 C  
HETATM   18  N   UNL     1     -10.963   8.600  70.244  1.00  0.00    -0.242 N  
HETATM   19  C   UNL     1     -11.707   7.915  71.196  1.00  0.00    -0.285 C  
HETATM   20  O   UNL     1     -12.904   8.077  71.407  1.00  0.00    -0.318 OA 
ENDROOT
BRANCH   5  21
HETATM   21  C   UNL     1      -9.668   7.345  68.445  1.00  0.00    -0.158 A  
HETATM   22  C   UNL     1      -8.525   6.162  66.631  1.00  0.00    -0.116 A  
HETATM   23  C   UNL     1      -8.514   7.091  67.678  1.00  0.00    -0.123 A  
HETATM   24  C   UNL     1     -10.887   5.847  66.933  1.00  0.00    -0.376 A  
HETATM   25  C   UNL     1     -10.873   6.766  67.989  1.00  0.00    -0.306 A  
HETATM   26  C   UNL     1      -9.706   5.518  66.279  1.00  0.00    -0.172 A  
ENDBRANCH   5  21
TORSDOF 1
ENDMDL
MODEL       63
REMARK 921   NORMALIZED FREE ENERGY PREDICTED BY IDOCK:   -4.49 KCAL/MOL
REMARK 922        TOTAL FREE ENERGY PREDICTED BY IDOCK:   -5.07 KCAL/MOL
REMARK 923 INTER-LIGAND FREE ENERGY PREDICTED BY IDOCK:   -4.79 KCAL/MOL
REMARK 924 INTRA-LIGAND FREE ENERGY PREDICTED BY IDOCK:   -0.29 KCAL/MOL
REMARK 927      BINDING AFFINITY PREDICTED BY RF-SCORE:    0.00 PKD
ROOT
HETATM    1  C   UNL     1     -11.531  11.976  66.232  1.00  0.00    -0.345 C  
HETATM    2  N   UNL     1     -10.549  11.905  67.297  1.00  0.00    -0.221 N  
HETATM    3  C   UNL     1      -9.538  12.893  67.351  1.00  0.00    -0.203 A  
HETATM    4  C   UNL     1      -8.212  12.515  67.596  1.00  0.00    -0.172 A  
HETATM    5  C   UNL     1      -7.838  11.039  67.898  1.00  0.00    -0.110 C  
HETATM    6  C   UNL     1      -7.215  13.519  67.465  1.00  0.00    -0.165 A  
HETATM    7  C   UNL     1      -7.539  14.853  67.240  1.00  0.00    -0.181 A  
HETATM    8  O   UNL     1      -6.382  11.041  68.081  1.00  0.00    -0.056 OA 
HETATM    9  O   UNL     1     -12.173  11.311  68.799  1.00  0.00    -0.532 OA 
HETATM   10  C   UNL     1      -8.860  15.220  67.057  1.00  0.00    -0.261 A  
HETATM   11  C   UNL     1     -10.979  11.338  68.485  1.00  0.00    -0.220 C  
HETATM   12  C   UNL     1      -6.033  10.999  69.438  1.00  0.00    -0.050 C  
HETATM   13 CL   UNL     1      -6.295  16.041  67.207  1.00  0.00    -0.207 Cl 
HETATM   14  C   UNL     1      -9.980  10.466  69.236  1.00  0.00    -0.228 C  
HETATM   15  C   UNL     1      -6.126  12.306  70.199  1.00  0.00    -0.111 C  
HETATM   16  C   UNL     1      -9.852  14.238  67.078  1.00  0.00    -0.254 A  
HETATM   17  C   UNL     1      -6.357   9.847  70.028  1.00  0.00    -0.071 C  
HETATM   18  N   UNL     1      -8.526  10.587  69.161  1.00  0.00    -0.154 N  
HETATM   19  C   UNL     1      -7.846   9.870  70.137  1.00  0.00    -0.171 C  
HETATM   20  O   UNL     1      -8.374   9.234  71.042  1.00  0.00    -0.255 OA 
ENDROOT
BRANCH   5  21
HETATM   21  C   UNL     1      -8.150  10.107  66.687  1.00  0.00    -0.120 A  
HETATM   22  C   UNL     1      -8.181   9.720  64.270  1.00  0.00    -0.160 A  
HETATM   23  C   UNL     1      -8.202  10.591  65.365  1.00  0.00    -0.152 A  
HETATM   24  C   UNL     1      -8.263   7.839  65.761  1.00  0.00    -0.132 A  
HETATM   25  C   UNL     1      -8.270   8.710  66.857  1.00  0.00    -0.105 A  
HETATM   26  C   UNL     1      -8.181   8.344  64.469  1.00  0.00    -0.149 A  
ENDBRANCH   5  21
TORSDOF 1
ENDMDL
MODEL       64
REMARK 921   NORMALIZED FREE ENERGY PREDICTED BY IDOCK:   -4.46 KCAL/MOL
REMARK 922        TOTAL FREE ENERGY PREDICTED BY IDOCK:   -5.04 KCAL/MOL
REMARK 923 INTER-LIGAND FREE ENERGY PREDICTED BY IDOCK:   -4.68 KCAL/MOL
REMARK 924 INTRA-LIGAND FREE ENERGY PREDICTED BY IDOCK:   -0.36 KCAL/MOL
REMARK 927      BINDING AFFINITY PREDICTED BY RF-SCORE:    0.00 PKD
ROOT
HETATM    1  C   UNL     1     -10.533   8.693  67.206  1.00  0.00    -0.289 C  
HETATM    2  N   UNL     1      -9.827   9.774  67.865  1.00  0.00    -0.145 N  
HETATM    3  C   UNL     1     -10.084  11.102  67.449  1.00  0.00    -0.185 A  
HETATM    4  C   UNL     1      -9.017  11.989  67.261  1.00  0.00    -0.180 A  
HETATM    5  C   UNL     1      -7.558  11.572  67.588  1.00  0.00    -0.115 C  
HETATM    6  C   UNL     1      -9.313  13.248  66.676  1.00  0.00    -0.247 A  
HETATM    7  C   UNL     1     -10.620  13.652  66.420  1.00  0.00    -0.284 A  
HETATM    8  O   UNL     1      -6.739  12.743  67.254  1.00  0.00    -0.158 OA 
HETATM    9  O   UNL     1     -10.080   8.745  69.896  1.00  0.00    -0.183 OA 
HETATM   10  C   UNL     1     -11.669  12.785  66.664  1.00  0.00    -0.459 A  
HETATM   11  C   UNL     1      -9.476   9.557  69.187  1.00  0.00    -0.163 C  
HETATM   12  C   UNL     1      -6.378  13.464  68.401  1.00  0.00    -0.088 C  
HETATM   13 CL   UNL     1     -10.923  15.235  65.818  1.00  0.00    -0.344 Cl 
HETATM   14  C   UNL     1      -8.129  10.103  69.643  1.00  0.00    -0.168 C  
HETATM   15  C   UNL     1      -7.437  14.376  68.986  1.00  0.00    -0.119 C  
HETATM   16  C   UNL     1     -11.399  11.502  67.144  1.00  0.00    -0.354 A  
HETATM   17  C   UNL     1      -5.542  12.796  69.198  1.00  0.00    -0.073 C  
HETATM   18  N   UNL     1      -7.436  11.247  69.055  1.00  0.00    -0.127 N  
HETATM   19  C   UNL     1      -6.370  11.716  69.812  1.00  0.00    -0.134 C  
HETATM   20  O   UNL     1      -6.043  11.286  70.913  1.00  0.00    -0.363 OA 
ENDROOT
BRANCH   5  21
HETATM   21  C   UNL     1      -7.077  10.399  66.680  1.00  0.00    -0.112 A  
HETATM   22  C   UNL     1      -6.808   9.425  64.450  1.00  0.00    -0.091 A  
HETATM   23  C   UNL     1      -7.467  10.290  65.330  1.00  0.00    -0.145 A  
HETATM   24  C   UNL     1      -5.476   8.588  66.265  1.00  0.00    -0.035 A  
HETATM   25  C   UNL     1      -6.126   9.463  67.143  1.00  0.00    -0.063 A  
HETATM   26  C   UNL     1      -5.791   8.596  64.911  1.00  0.00    -0.059 A  
ENDBRANCH   5  21
TORSDOF 1
ENDMDL
MODEL       65
REMARK 921   NORMALIZED FREE ENERGY PREDICTED BY IDOCK:   -4.44 KCAL/MOL
REMARK 922        TOTAL FREE ENERGY PREDICTED BY IDOCK:   -5.02 KCAL/MOL
REMARK 923 INTER-LIGAND FREE ENERGY PREDICTED BY IDOCK:   -4.73 KCAL/MOL
REMARK 924 INTRA-LIGAND FREE ENERGY PREDICTED BY IDOCK:   -0.29 KCAL/MOL
REMARK 927      BINDING AFFINITY PREDICTED BY RF-SCORE:    0.00 PKD
ROOT
HETATM    1  C   UNL     1     -10.691   8.538  67.120  1.00  0.00    -0.139 C  
HETATM    2  N   UNL     1      -9.701   7.876  67.947  1.00  0.00    -0.150 N  
HETATM    3  C   UNL     1      -9.580   6.469  67.861  1.00  0.00    -0.118 A  
HETATM    4  C   UNL     1      -9.461   5.710  69.032  1.00  0.00    -0.159 A  
HETATM    5  C   UNL     1      -9.368   6.389  70.425  1.00  0.00    -0.162 C  
HETATM    6  C   UNL     1      -9.520   4.297  68.901  1.00  0.00    -0.236 A  
HETATM    7  C   UNL     1      -9.557   3.675  67.656  1.00  0.00    -0.140 A  
HETATM    8  O   UNL     1      -9.270   5.285  71.386  1.00  0.00    -0.142 OA 
HETATM    9  O   UNL     1      -8.196   9.557  67.548  1.00  0.00    -0.119 OA 
HETATM   10  C   UNL     1      -9.617   4.439  66.505  1.00  0.00    -0.209 A  
HETATM   11  C   UNL     1      -8.571   8.616  68.255  1.00  0.00    -0.138 C  
HETATM   12  C   UNL     1      -7.950   5.098  71.822  1.00  0.00    -0.111 C  
HETATM   13 CL   UNL     1      -9.510   1.958  67.558  1.00  0.00    -0.111 Cl 
HETATM   14  C   UNL     1      -7.994   8.445  69.655  1.00  0.00    -0.106 C  
HETATM   15  C   UNL     1      -7.027   4.354  70.878  1.00  0.00    -0.037 C  
HETATM   16  C   UNL     1      -9.663   5.831  66.609  1.00  0.00    -0.180 A  
HETATM   17  C   UNL     1      -7.494   6.110  72.559  1.00  0.00    -0.097 C  
HETATM   18  N   UNL     1      -8.136   7.255  70.490  1.00  0.00    -0.108 N  
HETATM   19  C   UNL     1      -7.298   7.236  71.598  1.00  0.00    -0.080 C  
HETATM   20  O   UNL     1      -6.452   8.083  71.857  1.00  0.00    -0.046 OA 
ENDROOT
BRANCH   5  21
HETATM   21  C   UNL     1     -10.668   7.182  70.766  1.00  0.00    -0.251 A  
HETATM   22  C   UNL     1     -13.076   7.207  71.206  1.00  0.00    -0.361 A  
HETATM   23  C   UNL     1     -11.949   6.614  70.624  1.00  0.00    -0.404 A  
HETATM   24  C   UNL     1     -11.733   9.065  71.921  1.00  0.00    -0.445 A  
HETATM   25  C   UNL     1     -10.604   8.466  71.351  1.00  0.00    -0.296 A  
HETATM   26  C   UNL     1     -12.962   8.417  71.880  1.00  0.00    -0.381 A  
ENDBRANCH   5  21
TORSDOF 1
ENDMDL
MODEL       66
REMARK 921   NORMALIZED FREE ENERGY PREDICTED BY IDOCK:   -4.41 KCAL/MOL
REMARK 922        TOTAL FREE ENERGY PREDICTED BY IDOCK:   -4.99 KCAL/MOL
REMARK 923 INTER-LIGAND FREE ENERGY PREDICTED BY IDOCK:   -6.06 KCAL/MOL
REMARK 924 INTRA-LIGAND FREE ENERGY PREDICTED BY IDOCK:    1.07 KCAL/MOL
REMARK 927      BINDING AFFINITY PREDICTED BY RF-SCORE:    0.00 PKD
ROOT
HETATM    1  C   UNL     1     -10.544  15.574  68.913  1.00  0.00    -0.240 C  
HETATM    2  N   UNL     1     -10.133  14.348  68.259  1.00  0.00    -0.232 N  
HETATM    3  C   UNL     1     -10.662  14.053  66.980  1.00  0.00    -0.284 A  
HETATM    4  C   UNL     1     -11.113  12.758  66.697  1.00  0.00    -0.313 A  
HETATM    5  C   UNL     1     -10.961  11.610  67.731  1.00  0.00    -0.233 C  
HETATM    6  C   UNL     1     -11.793  12.560  65.466  1.00  0.00    -0.491 A  
HETATM    7  C   UNL     1     -11.896  13.568  64.512  1.00  0.00    -0.405 A  
HETATM    8  O   UNL     1     -11.553  10.432  67.086  1.00  0.00    -0.166 OA 
HETATM    9  O   UNL     1      -7.979  14.648  68.979  1.00  0.00    -0.143 OA 
HETATM   10  C   UNL     1     -11.394  14.829  64.784  1.00  0.00    -0.399 A  
HETATM   11  C   UNL     1      -8.863  13.889  68.566  1.00  0.00    -0.137 C  
HETATM   12  C   UNL     1     -10.567   9.576  66.574  1.00  0.00    -0.062 C  
HETATM   13 CL   UNL     1     -12.630  13.234  62.993  1.00  0.00    -0.039 Cl 
HETATM   14  C   UNL     1      -8.683  12.381  68.691  1.00  0.00     0.036 C  
HETATM   15  C   UNL     1      -9.943   9.980  65.254  1.00  0.00    -0.368 C  
HETATM   16  C   UNL     1     -10.811  15.079  66.027  1.00  0.00    -0.334 A  
HETATM   17  C   UNL     1      -9.831   8.997  67.523  1.00  0.00    -0.230 C  
HETATM   18  N   UNL     1      -9.501  11.373  68.021  1.00  0.00    -0.174 N  
HETATM   19  C   UNL     1      -8.974  10.089  68.073  1.00  0.00    -0.128 C  
HETATM   20  O   UNL     1      -7.892   9.789  68.564  1.00  0.00    -0.080 OA 
ENDROOT
BRANCH   5  21
HETATM   21  C   UNL     1     -11.785  11.889  69.025  1.00  0.00    -0.391 A  
HETATM   22  C   UNL     1     -12.349  11.317  71.338  1.00  0.00    -0.308 A  
HETATM   23  C   UNL     1     -11.870  10.953  70.074  1.00  0.00    -0.428 A  
HETATM   24  C   UNL     1     -12.871  13.511  70.511  1.00  0.00    -0.131 A  
HETATM   25  C   UNL     1     -12.379  13.151  69.251  1.00  0.00    -0.013 A  
HETATM   26  C   UNL     1     -12.821  12.605  71.565  1.00  0.00    -0.368 A  
ENDBRANCH   5  21
TORSDOF 1
ENDMDL
MODEL       67
REMARK 921   NORMALIZED FREE ENERGY PREDICTED BY IDOCK:   -4.41 KCAL/MOL
REMARK 922        TOTAL FREE ENERGY PREDICTED BY IDOCK:   -4.99 KCAL/MOL
REMARK 923 INTER-LIGAND FREE ENERGY PREDICTED BY IDOCK:   -4.66 KCAL/MOL
REMARK 924 INTRA-LIGAND FREE ENERGY PREDICTED BY IDOCK:   -0.33 KCAL/MOL
REMARK 927      BINDING AFFINITY PREDICTED BY RF-SCORE:    0.00 PKD
ROOT
HETATM    1  C   UNL     1      -6.200  10.691  70.039  1.00  0.00    -0.111 C  
HETATM    2  N   UNL     1      -7.317  10.539  69.128  1.00  0.00    -0.097 N  
HETATM    3  C   UNL     1      -7.051  10.178  67.786  1.00  0.00    -0.086 A  
HETATM    4  C   UNL     1      -7.713  10.840  66.745  1.00  0.00    -0.136 A  
HETATM    5  C   UNL     1      -8.805  11.905  67.035  1.00  0.00    -0.190 C  
HETATM    6  C   UNL     1      -7.282  10.565  65.420  1.00  0.00    -0.077 A  
HETATM    7  C   UNL     1      -6.337   9.581  65.144  1.00  0.00    -0.078 A  
HETATM    8  O   UNL     1      -9.245  12.373  65.716  1.00  0.00    -0.088 OA 
HETATM    9  O   UNL     1      -8.551   9.510  70.760  1.00  0.00    -0.220 OA 
HETATM   10  C   UNL     1      -5.732   8.895  66.181  1.00  0.00    -0.046 A  
HETATM   11  C   UNL     1      -8.514  10.131  69.693  1.00  0.00    -0.157 C  
HETATM   12  C   UNL     1     -10.465  11.790  65.343  1.00  0.00    -0.272 C  
HETATM   13 CL   UNL     1      -5.941   9.212  63.511  1.00  0.00    -0.087 Cl 
HETATM   14  C   UNL     1      -9.789  10.748  69.133  1.00  0.00    -0.175 C  
HETATM   15  C   UNL     1     -10.400  10.371  64.814  1.00  0.00    -0.221 C  
HETATM   16  C   UNL     1      -6.063   9.217  67.499  1.00  0.00    -0.054 A  
HETATM   17  C   UNL     1     -11.488  12.184  66.102  1.00  0.00    -0.429 C  
HETATM   18  N   UNL     1      -9.953  11.270  67.778  1.00  0.00    -0.174 N  
HETATM   19  C   UNL     1     -11.271  11.524  67.423  1.00  0.00    -0.304 C  
HETATM   20  O   UNL     1     -12.249  11.285  68.123  1.00  0.00    -0.622 OA 
ENDROOT
BRANCH   5  21
HETATM   21  C   UNL     1      -8.220  13.138  67.790  1.00  0.00    -0.168 A  
HETATM   22  C   UNL     1      -6.439  14.793  68.075  1.00  0.00    -0.163 A  
HETATM   23  C   UNL     1      -6.876  13.535  67.644  1.00  0.00    -0.178 A  
HETATM   24  C   UNL     1      -8.611  15.235  69.000  1.00  0.00    -0.226 A  
HETATM   25  C   UNL     1      -9.052  13.983  68.557  1.00  0.00    -0.163 A  
HETATM   26  C   UNL     1      -7.315  15.655  68.726  1.00  0.00    -0.144 A  
ENDBRANCH   5  21
TORSDOF 1
ENDMDL
MODEL       68
REMARK 921   NORMALIZED FREE ENERGY PREDICTED BY IDOCK:   -4.38 KCAL/MOL
REMARK 922        TOTAL FREE ENERGY PREDICTED BY IDOCK:   -4.96 KCAL/MOL
REMARK 923 INTER-LIGAND FREE ENERGY PREDICTED BY IDOCK:   -4.66 KCAL/MOL
REMARK 924 INTRA-LIGAND FREE ENERGY PREDICTED BY IDOCK:   -0.30 KCAL/MOL
REMARK 927      BINDING AFFINITY PREDICTED BY RF-SCORE:    0.00 PKD
ROOT
HETATM    1  C   UNL     1     -10.608  15.271  70.448  1.00  0.00    -0.197 C  
HETATM    2  N   UNL     1     -10.933  14.599  69.205  1.00  0.00    -0.253 N  
HETATM    3  C   UNL     1     -10.988  13.185  69.196  1.00  0.00    -0.145 A  
HETATM    4  C   UNL     1     -10.393  12.475  68.146  1.00  0.00    -0.236 A  
HETATM    5  C   UNL     1      -9.749  13.211  66.940  1.00  0.00    -0.243 C  
HETATM    6  C   UNL     1     -10.322  11.062  68.274  1.00  0.00    -0.197 A  
HETATM    7  C   UNL     1     -10.934  10.387  69.326  1.00  0.00    -0.242 A  
HETATM    8  O   UNL     1      -9.230  12.147  66.074  1.00  0.00    -0.209 OA 
HETATM    9  O   UNL     1     -12.517  16.183  68.725  1.00  0.00     0.296 OA 
HETATM   10  C   UNL     1     -11.569  11.101  70.327  1.00  0.00    -0.388 A  
HETATM   11  C   UNL     1     -11.754  15.294  68.332  1.00  0.00    -0.321 C  
HETATM   12  C   UNL     1     -10.076  11.914  64.980  1.00  0.00    -0.264 C  
HETATM   13 CL   UNL     1     -10.913   8.668  69.365  1.00  0.00    -0.108 Cl 
HETATM   14  C   UNL     1     -11.454  15.158  66.845  1.00  0.00    -0.214 C  
HETATM   15  C   UNL     1     -11.314  11.084  65.251  1.00  0.00     0.238 C  
HETATM   16  C   UNL     1     -11.565  12.496  70.280  1.00  0.00    -0.052 A  
HETATM   17  C   UNL     1     -10.118  12.935  64.123  1.00  0.00    -0.212 C  
HETATM   18  N   UNL     1     -10.797  14.016  66.214  1.00  0.00    -0.290 N  
HETATM   19  C   UNL     1     -10.884  14.005  64.829  1.00  0.00    -0.419 C  
HETATM   20  O   UNL     1     -11.503  14.820  64.154  1.00  0.00    -0.181 OA 
ENDROOT
BRANCH   5  21
HETATM   21  C   UNL     1      -8.533  14.082  67.381  1.00  0.00    -0.209 A  
HETATM   22  C   UNL     1      -7.453  16.273  67.556  1.00  0.00    -0.172 A  
HETATM   23  C   UNL     1      -8.362  15.407  66.935  1.00  0.00    -0.290 A  
HETATM   24  C   UNL     1      -6.698  14.476  68.959  1.00  0.00    -0.105 A  
HETATM   25  C   UNL     1      -7.616  13.614  68.348  1.00  0.00    -0.132 A  
HETATM   26  C   UNL     1      -6.643  15.814  68.589  1.00  0.00    -0.116 A  
ENDBRANCH   5  21
TORSDOF 1
ENDMDL
MODEL       69
REMARK 921   NORMALIZED FREE ENERGY PREDICTED BY IDOCK:   -4.38 KCAL/MOL
REMARK 922        TOTAL FREE ENERGY PREDICTED BY IDOCK:   -4.96 KCAL/MOL
REMARK 923 INTER-LIGAND FREE ENERGY PREDICTED BY IDOCK:   -4.85 KCAL/MOL
REMARK 924 INTRA-LIGAND FREE ENERGY PREDICTED BY IDOCK:   -0.11 KCAL/MOL
REMARK 927      BINDING AFFINITY PREDICTED BY RF-SCORE:    0.00 PKD
ROOT
HETATM    1  C   UNL     1     -12.389   6.743  70.613  1.00  0.00    -0.173 C  
HETATM    2  N   UNL     1     -11.038   7.074  70.205  1.00  0.00    -0.273 N  
HETATM    3  C   UNL     1     -10.031   7.146  71.196  1.00  0.00    -0.183 A  
HETATM    4  C   UNL     1      -9.120   8.208  71.184  1.00  0.00    -0.183 A  
HETATM    5  C   UNL     1      -9.134   9.267  70.048  1.00  0.00    -0.210 C  
HETATM    6  C   UNL     1      -8.245   8.329  72.296  1.00  0.00    -0.213 A  
HETATM    7  C   UNL     1      -8.190   7.364  73.297  1.00  0.00    -0.116 A  
HETATM    8  O   UNL     1      -8.061  10.209  70.387  1.00  0.00    -0.146 OA 
HETATM    9  O   UNL     1     -11.244   5.758  68.342  1.00  0.00    -0.099 OA 
HETATM   10  C   UNL     1      -9.059   6.288  73.265  1.00  0.00    -0.131 A  
HETATM   11  C   UNL     1     -10.675   6.686  68.926  1.00  0.00    -0.264 C  
HETATM   12  C   UNL     1      -6.909   9.974  69.622  1.00  0.00    -0.078 C  
HETATM   13 CL   UNL     1      -7.029   7.505  74.558  1.00  0.00    -0.116 Cl 
HETATM   14  C   UNL     1      -9.782   7.639  68.141  1.00  0.00    -0.153 C  
HETATM   15  C   UNL     1      -6.031   8.821  70.064  1.00  0.00    -0.030 C  
HETATM   16  C   UNL     1     -10.000   6.198  72.237  1.00  0.00    -0.186 A  
HETATM   17  C   UNL     1      -7.076  10.243  68.327  1.00  0.00    -0.079 C  
HETATM   18  N   UNL     1      -8.851   8.602  68.725  1.00  0.00    -0.138 N  
HETATM   19  C   UNL     1      -7.961   9.155  67.814  1.00  0.00    -0.101 C  
HETATM   20  O   UNL     1      -7.879   8.846  66.631  1.00  0.00    -0.098 OA 
ENDROOT
BRANCH   5  21
HETATM   21  C   UNL     1     -10.468  10.075  70.032  1.00  0.00    -0.337 A  
HETATM   22  C   UNL     1     -12.381  11.024  71.230  1.00  0.00    -0.426 A  
HETATM   23  C   UNL     1     -11.354  10.078  71.127  1.00  0.00    -0.397 A  
HETATM   24  C   UNL     1     -11.818  11.875  69.056  1.00  0.00    -0.368 A  
HETATM   25  C   UNL     1     -10.782  10.939  68.959  1.00  0.00    -0.262 A  
HETATM   26  C   UNL     1     -12.593  11.942  70.207  1.00  0.00    -0.091 A  
ENDBRANCH   5  21
TORSDOF 1
ENDMDL
MODEL       70
REMARK 921   NORMALIZED FREE ENERGY PREDICTED BY IDOCK:   -4.38 KCAL/MOL
REMARK 922        TOTAL FREE ENERGY PREDICTED BY IDOCK:   -4.95 KCAL/MOL
REMARK 923 INTER-LIGAND FREE ENERGY PREDICTED BY IDOCK:   -4.69 KCAL/MOL
REMARK 924 INTRA-LIGAND FREE ENERGY PREDICTED BY IDOCK:   -0.26 KCAL/MOL
REMARK 927      BINDING AFFINITY PREDICTED BY RF-SCORE:    0.00 PKD
ROOT
HETATM    1  C   UNL     1      -7.541   9.043  70.212  1.00  0.00    -0.087 C  
HETATM    2  N   UNL     1      -8.405   7.937  70.577  1.00  0.00    -0.122 N  
HETATM    3  C   UNL     1      -9.710   8.223  71.041  1.00  0.00    -0.163 A  
HETATM    4  C   UNL     1     -10.212   7.549  72.160  1.00  0.00    -0.238 A  
HETATM    5  C   UNL     1      -9.398   6.423  72.854  1.00  0.00    -0.136 C  
HETATM    6  C   UNL     1     -11.452   7.997  72.689  1.00  0.00    -0.465 A  
HETATM    7  C   UNL     1     -12.213   8.972  72.052  1.00  0.00    -0.375 A  
HETATM    8  O   UNL     1     -10.234   5.978  73.974  1.00  0.00    -0.234 OA 
HETATM    9  O   UNL     1      -7.664   6.723  68.781  1.00  0.00    -0.105 OA 
HETATM   10  C   UNL     1     -11.729   9.590  70.913  1.00  0.00    -0.391 A  
HETATM   11  C   UNL     1      -8.195   6.749  69.896  1.00  0.00    -0.127 C  
HETATM   12  C   UNL     1     -10.897   4.779  73.677  1.00  0.00    -0.308 C  
HETATM   13 CL   UNL     1     -13.761   9.391  72.676  1.00  0.00    -0.427 Cl 
HETATM   14  C   UNL     1      -8.339   5.460  70.696  1.00  0.00    -0.115 C  
HETATM   15  C   UNL     1     -12.132   4.890  72.806  1.00  0.00     0.185 C  
HETATM   16  C   UNL     1     -10.467   9.241  70.430  1.00  0.00    -0.296 A  
HETATM   17  C   UNL     1     -10.072   3.739  73.555  1.00  0.00    -0.195 C  
HETATM   18  N   UNL     1      -9.167   5.290  71.887  1.00  0.00    -0.137 N  
HETATM   19  C   UNL     1      -9.347   3.967  72.269  1.00  0.00    -0.122 C  
HETATM   20  O   UNL     1      -8.926   2.992  71.657  1.00  0.00    -0.080 OA 
ENDROOT
BRANCH   5  21
HETATM   21  C   UNL     1      -8.066   6.966  73.458  1.00  0.00    -0.115 A  
HETATM   22  C   UNL     1      -5.618   6.993  73.500  1.00  0.00    -0.046 A  
HETATM   23  C   UNL     1      -6.826   6.345  73.213  1.00  0.00    -0.074 A  
HETATM   24  C   UNL     1      -6.829   8.822  74.478  1.00  0.00    -0.126 A  
HETATM   25  C   UNL     1      -8.037   8.181  74.178  1.00  0.00    -0.312 A  
HETATM   26  C   UNL     1      -5.621   8.245  74.105  1.00  0.00    -0.084 A  
ENDBRANCH   5  21
TORSDOF 1
ENDMDL
MODEL       71
REMARK 921   NORMALIZED FREE ENERGY PREDICTED BY IDOCK:   -4.27 KCAL/MOL
REMARK 922        TOTAL FREE ENERGY PREDICTED BY IDOCK:   -4.84 KCAL/MOL
REMARK 923 INTER-LIGAND FREE ENERGY PREDICTED BY IDOCK:   -4.52 KCAL/MOL
REMARK 924 INTRA-LIGAND FREE ENERGY PREDICTED BY IDOCK:   -0.32 KCAL/MOL
REMARK 927      BINDING AFFINITY PREDICTED BY RF-SCORE:    0.00 PKD
ROOT
HETATM    1  C   UNL     1      -6.173  12.378  69.113  1.00  0.00    -0.090 C  
HETATM    2  N   UNL     1      -6.958  12.496  67.900  1.00  0.00    -0.091 N  
HETATM    3  C   UNL     1      -7.888  13.557  67.796  1.00  0.00    -0.167 A  
HETATM    4  C   UNL     1      -9.170  13.309  67.293  1.00  0.00    -0.222 A  
HETATM    5  C   UNL     1      -9.568  11.906  66.759  1.00  0.00    -0.204 C  
HETATM    6  C   UNL     1     -10.117  14.365  67.374  1.00  0.00    -0.243 A  
HETATM    7  C   UNL     1      -9.763  15.639  67.808  1.00  0.00    -0.218 A  
HETATM    8  O   UNL     1     -10.968  12.037  66.339  1.00  0.00    -0.269 OA 
HETATM    9  O   UNL     1      -5.134  11.946  66.627  1.00  0.00    -0.266 OA 
HETATM   10  C   UNL     1      -8.475  15.883  68.249  1.00  0.00    -0.170 A  
HETATM   11  C   UNL     1      -6.361  12.029  66.740  1.00  0.00     0.029 C  
HETATM   12  C   UNL     1     -11.078  12.168  64.947  1.00  0.00    -0.319 C  
HETATM   13 CL   UNL     1     -10.925  16.906  67.775  1.00  0.00    -0.273 Cl 
HETATM   14  C   UNL     1      -7.262  11.321  65.735  1.00  0.00     0.305 C  
HETATM   15  C   UNL     1     -10.782  13.539  64.374  1.00  0.00    -0.402 C  
HETATM   16  C   UNL     1      -7.551  14.837  68.276  1.00  0.00    -0.115 A  
HETATM   17  C   UNL     1     -10.722  11.065  64.287  1.00  0.00    -0.348 C  
HETATM   18  N   UNL     1      -8.698  11.542  65.583  1.00  0.00    -0.031 N  
HETATM   19  C   UNL     1      -9.238  10.988  64.430  1.00  0.00    -0.158 C  
HETATM   20  O   UNL     1      -8.598  10.415  63.555  1.00  0.00    -0.173 OA 
ENDROOT
BRANCH   5  21
HETATM   21  C   UNL     1      -9.523  10.828  67.885  1.00  0.00    -0.165 A  
HETATM   22  C   UNL     1     -10.325   9.987  70.040  1.00  0.00    -0.323 A  
HETATM   23  C   UNL     1     -10.104  11.045  69.150  1.00  0.00    -0.167 A  
HETATM   24  C   UNL     1      -9.214   8.483  68.532  1.00  0.00    -0.135 A  
HETATM   25  C   UNL     1      -9.004   9.538  67.637  1.00  0.00    -0.124 A  
HETATM   26  C   UNL     1      -9.907   8.700  69.717  1.00  0.00    -0.183 A  
ENDBRANCH   5  21
TORSDOF 1
ENDMDL
MODEL       72
REMARK 921   NORMALIZED FREE ENERGY PREDICTED BY IDOCK:   -4.23 KCAL/MOL
REMARK 922        TOTAL FREE ENERGY PREDICTED BY IDOCK:   -4.80 KCAL/MOL
REMARK 923 INTER-LIGAND FREE ENERGY PREDICTED BY IDOCK:   -4.51 KCAL/MOL
REMARK 924 INTRA-LIGAND FREE ENERGY PREDICTED BY IDOCK:   -0.29 KCAL/MOL
REMARK 927      BINDING AFFINITY PREDICTED BY RF-SCORE:    0.00 PKD
ROOT
HETATM    1  C   UNL     1      -8.808  13.812  68.780  1.00  0.00     0.044 C  
HETATM    2  N   UNL     1      -8.458  13.110  67.561  1.00  0.00    -0.185 N  
HETATM    3  C   UNL     1      -9.422  13.023  66.529  1.00  0.00    -0.245 A  
HETATM    4  C   UNL     1      -9.624  11.805  65.870  1.00  0.00    -0.249 A  
HETATM    5  C   UNL     1      -8.745  10.564  66.185  1.00  0.00    -0.158 C  
HETATM    6  C   UNL     1     -10.720  11.725  64.970  1.00  0.00    -0.344 A  
HETATM    7  C   UNL     1     -11.487  12.840  64.645  1.00  0.00    -0.324 A  
HETATM    8  O   UNL     1      -9.260   9.498  65.318  1.00  0.00    -0.217 OA 
HETATM    9  O   UNL     1      -6.357  14.025  67.601  1.00  0.00    -0.206 OA 
HETATM   10  C   UNL     1     -11.239  14.052  65.263  1.00  0.00    -0.319 A  
HETATM   11  C   UNL     1      -7.118  13.135  67.207  1.00  0.00    -0.020 C  
HETATM   12  C   UNL     1      -8.442   9.306  64.195  1.00  0.00    -0.192 C  
HETATM   13 CL   UNL     1     -12.728  12.707  63.461  1.00  0.00    -0.379 Cl 
HETATM   14  C   UNL     1      -6.543  11.865  66.592  1.00  0.00     0.078 C  
HETATM   15  C   UNL     1      -8.607  10.300  63.064  1.00  0.00    -0.190 C  
HETATM   16  C   UNL     1     -10.233  14.134  66.228  1.00  0.00    -0.301 A  
HETATM   17  C   UNL     1      -7.239   8.819  64.500  1.00  0.00    -0.096 C  
HETATM   18  N   UNL     1      -7.304  10.861  65.853  1.00  0.00    -0.091 N  
HETATM   19  C   UNL     1      -6.519   9.947  65.163  1.00  0.00    -0.103 C  
HETATM   20  O   UNL     1      -5.295   9.978  65.095  1.00  0.00    -0.049 OA 
ENDROOT
BRANCH   5  21
HETATM   21  C   UNL     1      -8.927  10.089  67.659  1.00  0.00    -0.135 A  
HETATM   22  C   UNL     1     -10.384   9.680  69.584  1.00  0.00    -0.245 A  
HETATM   23  C   UNL     1     -10.102  10.353  68.389  1.00  0.00    -0.181 A  
HETATM   24  C   UNL     1      -8.241   8.600  69.482  1.00  0.00    -0.115 A  
HETATM   25  C   UNL     1      -7.966   9.263  68.281  1.00  0.00    -0.102 A  
HETATM   26  C   UNL     1      -9.466   8.780  70.114  1.00  0.00    -0.182 A  
ENDBRANCH   5  21
TORSDOF 1
ENDMDL
MODEL       73
REMARK 921   NORMALIZED FREE ENERGY PREDICTED BY IDOCK:   -4.21 KCAL/MOL
REMARK 922        TOTAL FREE ENERGY PREDICTED BY IDOCK:   -4.77 KCAL/MOL
REMARK 923 INTER-LIGAND FREE ENERGY PREDICTED BY IDOCK:   -4.45 KCAL/MOL
REMARK 924 INTRA-LIGAND FREE ENERGY PREDICTED BY IDOCK:   -0.32 KCAL/MOL
REMARK 927      BINDING AFFINITY PREDICTED BY RF-SCORE:    0.00 PKD
ROOT
HETATM    1  C   UNL     1      -8.475   5.960  71.296  1.00  0.00    -0.128 C  
HETATM    2  N   UNL     1      -8.584   7.288  70.725  1.00  0.00    -0.143 N  
HETATM    3  C   UNL     1      -9.755   8.040  70.982  1.00  0.00    -0.160 A  
HETATM    4  C   UNL     1     -10.375   8.737  69.938  1.00  0.00    -0.212 A  
HETATM    5  C   UNL     1      -9.753   8.776  68.516  1.00  0.00    -0.162 C  
HETATM    6  C   UNL     1     -11.638   9.328  70.209  1.00  0.00    -0.151 A  
HETATM    7  C   UNL     1     -12.185   9.340  71.489  1.00  0.00    -0.362 A  
HETATM    8  O   UNL     1     -10.682   9.577  67.711  1.00  0.00    -0.261 OA 
HETATM    9  O   UNL     1      -6.380   7.704  71.192  1.00  0.00    -0.035 OA 
HETATM   10  C   UNL     1     -11.532   8.695  72.524  1.00  0.00    -0.287 A  
HETATM   11  C   UNL     1      -7.393   7.970  70.537  1.00  0.00    -0.060 C  
HETATM   12  C   UNL     1     -10.211  10.885  67.530  1.00  0.00    -0.190 C  
HETATM   13 CL   UNL     1     -13.662  10.172  71.778  1.00  0.00    -0.250 Cl 
HETATM   14  C   UNL     1      -7.280   8.828  69.283  1.00  0.00    -0.062 C  
HETATM   15  C   UNL     1     -10.403  11.838  68.692  1.00  0.00    -0.228 C  
HETATM   16  C   UNL     1     -10.339   8.018  72.263  1.00  0.00    -0.336 A  
HETATM   17  C   UNL     1      -9.113  10.947  66.776  1.00  0.00    -0.164 C  
HETATM   18  N   UNL     1      -8.399   9.438  68.569  1.00  0.00    -0.117 N  
HETATM   19  C   UNL     1      -8.023  10.388  67.629  1.00  0.00    -0.106 C  
HETATM   20  O   UNL     1      -6.874  10.766  67.428  1.00  0.00    -0.073 OA 
ENDROOT
BRANCH   5  21
HETATM   21  C   UNL     1      -9.693   7.356  67.875  1.00  0.00    -0.166 A  
HETATM   22  C   UNL     1      -8.405   5.573  66.799  1.00  0.00    -0.108 A  
HETATM   23  C   UNL     1      -8.590   6.925  67.113  1.00  0.00    -0.121 A  
HETATM   24  C   UNL     1     -10.518   5.047  67.813  1.00  0.00    -0.053 A  
HETATM   25  C   UNL     1     -10.695   6.396  68.140  1.00  0.00    -0.359 A  
HETATM   26  C   UNL     1      -9.355   4.630  67.176  1.00  0.00    -0.156 A  
ENDBRANCH   5  21
TORSDOF 1
ENDMDL
MODEL       74
REMARK 921   NORMALIZED FREE ENERGY PREDICTED BY IDOCK:   -4.20 KCAL/MOL
REMARK 922        TOTAL FREE ENERGY PREDICTED BY IDOCK:   -4.77 KCAL/MOL
REMARK 923 INTER-LIGAND FREE ENERGY PREDICTED BY IDOCK:   -4.41 KCAL/MOL
REMARK 924 INTRA-LIGAND FREE ENERGY PREDICTED BY IDOCK:   -0.36 KCAL/MOL
REMARK 927      BINDING AFFINITY PREDICTED BY RF-SCORE:    0.00 PKD
ROOT
HETATM    1  C   UNL     1     -11.359   7.675  70.258  1.00  0.00    -0.181 C  
HETATM    2  N   UNL     1     -10.202   8.350  69.703  1.00  0.00    -0.204 N  
HETATM    3  C   UNL     1     -10.410   9.415  68.796  1.00  0.00    -0.209 A  
HETATM    4  C   UNL     1      -9.642   9.492  67.628  1.00  0.00    -0.163 A  
HETATM    5  C   UNL     1      -8.499   8.480  67.349  1.00  0.00    -0.127 C  
HETATM    6  C   UNL     1     -10.010  10.475  66.670  1.00  0.00    -0.260 A  
HETATM    7  C   UNL     1     -11.002  11.416  66.926  1.00  0.00    -0.299 A  
HETATM    8  O   UNL     1      -7.948   8.871  66.046  1.00  0.00    -0.103 OA 
HETATM    9  O   UNL     1      -9.142   8.271  71.733  1.00  0.00    -0.156 OA 
HETATM   10  C   UNL     1     -11.715  11.362  68.111  1.00  0.00    -0.355 A  
HETATM   11  C   UNL     1      -9.072   8.382  70.505  1.00  0.00    -0.150 C  
HETATM   12  C   UNL     1      -6.751   9.589  66.188  1.00  0.00    -0.082 C  
HETATM   13 CL   UNL     1     -11.324  12.653  65.775  1.00  0.00    -0.353 Cl 
HETATM   14  C   UNL     1      -7.726   8.231  69.808  1.00  0.00    -0.098 C  
HETATM   15  C   UNL     1      -6.882  11.050  66.567  1.00  0.00    -0.132 C  
HETATM   16  C   UNL     1     -11.443  10.344  69.026  1.00  0.00    -0.258 A  
HETATM   17  C   UNL     1      -5.751   8.850  66.669  1.00  0.00    -0.047 C  
HETATM   18  N   UNL     1      -7.444   8.592  68.421  1.00  0.00    -0.093 N  
HETATM   19  C   UNL     1      -6.093   8.619  68.104  1.00  0.00    -0.051 C  
HETATM   20  O   UNL     1      -5.178   8.430  68.898  1.00  0.00    -0.030 OA 
ENDROOT
BRANCH   5  21
HETATM   21  C   UNL     1      -9.041   7.025  67.202  1.00  0.00    -0.137 A  
HETATM   22  C   UNL     1     -10.656   5.458  66.237  1.00  0.00    -0.268 A  
HETATM   23  C   UNL     1     -10.304   6.752  66.639  1.00  0.00    -0.219 A  
HETATM   24  C   UNL     1      -8.589   4.616  67.123  1.00  0.00    -0.104 A  
HETATM   25  C   UNL     1      -8.231   5.912  67.514  1.00  0.00    -0.105 A  
HETATM   26  C   UNL     1      -9.785   4.396  66.451  1.00  0.00    -0.227 A  
ENDBRANCH   5  21
TORSDOF 1
ENDMDL
MODEL       75
REMARK 921   NORMALIZED FREE ENERGY PREDICTED BY IDOCK:   -4.19 KCAL/MOL
REMARK 922        TOTAL FREE ENERGY PREDICTED BY IDOCK:   -4.76 KCAL/MOL
REMARK 923 INTER-LIGAND FREE ENERGY PREDICTED BY IDOCK:   -4.40 KCAL/MOL
REMARK 924 INTRA-LIGAND FREE ENERGY PREDICTED BY IDOCK:   -0.36 KCAL/MOL
REMARK 927      BINDING AFFINITY PREDICTED BY RF-SCORE:    0.00 PKD
ROOT
HETATM    1  C   UNL     1      -8.046   4.846  67.759  1.00  0.00    -0.094 C  
HETATM    2  N   UNL     1      -8.947   5.808  68.363  1.00  0.00    -0.112 N  
HETATM    3  C   UNL     1      -8.476   7.120  68.602  1.00  0.00    -0.125 A  
HETATM    4  C   UNL     1      -8.752   7.746  69.823  1.00  0.00    -0.139 A  
HETATM    5  C   UNL     1      -9.646   7.062  70.893  1.00  0.00    -0.167 C  
HETATM    6  C   UNL     1      -8.110   8.986  70.080  1.00  0.00    -0.124 A  
HETATM    7  C   UNL     1      -7.343   9.631  69.114  1.00  0.00    -0.077 A  
HETATM    8  O   UNL     1      -9.690   8.004  72.017  1.00  0.00    -0.173 OA 
HETATM    9  O   UNL     1     -10.684   5.027  67.090  1.00  0.00    -0.126 OA 
HETATM   10  C   UNL     1      -7.126   9.026  67.889  1.00  0.00    -0.079 A  
HETATM   11  C   UNL     1     -10.295   5.632  68.094  1.00  0.00    -0.197 C  
HETATM   12  C   UNL     1     -10.892   8.726  72.038  1.00  0.00    -0.358 C  
HETATM   13 CL   UNL     1      -6.686  11.186  69.443  1.00  0.00    -0.107 Cl 
HETATM   14  C   UNL     1     -11.270   5.922  69.228  1.00  0.00    -0.185 C  
HETATM   15  C   UNL     1     -10.998   9.885  71.067  1.00  0.00    -0.360 C  
HETATM   16  C   UNL     1      -7.661   7.759  67.647  1.00  0.00    -0.121 A  
HETATM   17  C   UNL     1     -11.954   7.968  72.308  1.00  0.00    -0.412 C  
HETATM   18  N   UNL     1     -11.030   6.842  70.337  1.00  0.00    -0.259 N  
HETATM   19  C   UNL     1     -12.163   7.140  71.083  1.00  0.00    -0.365 C  
HETATM   20  O   UNL     1     -13.297   6.745  70.833  1.00  0.00    -0.053 OA 
ENDROOT
BRANCH   5  21
HETATM   21  C   UNL     1      -9.004   5.743  71.421  1.00  0.00    -0.147 A  
HETATM   22  C   UNL     1      -7.079   4.556  72.360  1.00  0.00    -0.070 A  
HETATM   23  C   UNL     1      -7.615   5.613  71.615  1.00  0.00    -0.099 A  
HETATM   24  C   UNL     1      -9.271   3.599  72.582  1.00  0.00    -0.139 A  
HETATM   25  C   UNL     1      -9.808   4.663  71.848  1.00  0.00    -0.241 A  
HETATM   26  C   UNL     1      -7.911   3.565  72.870  1.00  0.00    -0.070 A  
ENDBRANCH   5  21
TORSDOF 1
ENDMDL
MODEL       76
REMARK 921   NORMALIZED FREE ENERGY PREDICTED BY IDOCK:   -4.18 KCAL/MOL
REMARK 922        TOTAL FREE ENERGY PREDICTED BY IDOCK:   -4.75 KCAL/MOL
REMARK 923 INTER-LIGAND FREE ENERGY PREDICTED BY IDOCK:   -5.19 KCAL/MOL
REMARK 924 INTRA-LIGAND FREE ENERGY PREDICTED BY IDOCK:    0.44 KCAL/MOL
REMARK 927      BINDING AFFINITY PREDICTED BY RF-SCORE:    0.00 PKD
ROOT
HETATM    1  C   UNL     1      -8.294  10.409  68.258  1.00  0.00    -0.119 C  
HETATM    2  N   UNL     1      -8.341   9.159  68.991  1.00  0.00    -0.124 N  
HETATM    3  C   UNL     1      -8.809   8.002  68.326  1.00  0.00    -0.133 A  
HETATM    4  C   UNL     1      -9.707   7.144  68.974  1.00  0.00    -0.150 A  
HETATM    5  C   UNL     1     -10.132   7.389  70.447  1.00  0.00    -0.192 C  
HETATM    6  C   UNL     1     -10.280   6.098  68.202  1.00  0.00    -0.208 A  
HETATM    7  C   UNL     1      -9.874   5.840  66.896  1.00  0.00    -0.157 A  
HETATM    8  O   UNL     1     -11.074   6.308  70.759  1.00  0.00    -0.279 OA 
HETATM    9  O   UNL     1      -6.332   9.630  69.986  1.00  0.00    -0.047 OA 
HETATM   10  C   UNL     1      -8.943   6.663  66.288  1.00  0.00    -0.168 A  
HETATM   11  C   UNL     1      -7.397   9.004  69.993  1.00  0.00    -0.060 C  
HETATM   12  C   UNL     1     -10.464   5.295  71.513  1.00  0.00    -0.210 C  
HETATM   13 CL   UNL     1     -10.520   4.488  66.053  1.00  0.00    -0.290 Cl 
HETATM   14  C   UNL     1      -7.846   8.292  71.263  1.00  0.00    -0.102 C  
HETATM   15  C   UNL     1      -9.599   4.314  70.748  1.00  0.00    -0.256 C  
HETATM   16  C   UNL     1      -8.439   7.760  66.989  1.00  0.00    -0.124 A  
HETATM   17  C   UNL     1     -10.121   5.688  72.740  1.00  0.00    -0.205 C  
HETATM   18  N   UNL     1      -8.925   7.311  71.347  1.00  0.00    -0.138 N  
HETATM   19  C   UNL     1      -8.962   6.608  72.544  1.00  0.00    -0.131 C  
HETATM   20  O   UNL     1      -8.144   6.717  73.451  1.00  0.00    -0.102 OA 
ENDROOT
BRANCH   5  21
HETATM   21  C   UNL     1     -10.904   8.734  70.606  1.00  0.00    -0.273 A  
HETATM   22  C   UNL     1     -12.090  10.625  69.599  1.00  0.00    -0.312 A  
HETATM   23  C   UNL     1     -11.154   9.587  69.514  1.00  0.00    -0.168 A  
HETATM   24  C   UNL     1     -12.421  10.138  71.927  1.00  0.00    -0.374 A  
HETATM   25  C   UNL     1     -11.495   9.091  71.838  1.00  0.00    -0.440 A  
HETATM   26  C   UNL     1     -12.746  10.880  70.798  1.00  0.00    -0.431 A  
ENDBRANCH   5  21
TORSDOF 1
ENDMDL
MODEL       77
REMARK 921   NORMALIZED FREE ENERGY PREDICTED BY IDOCK:   -4.17 KCAL/MOL
REMARK 922        TOTAL FREE ENERGY PREDICTED BY IDOCK:   -4.74 KCAL/MOL
REMARK 923 INTER-LIGAND FREE ENERGY PREDICTED BY IDOCK:   -4.47 KCAL/MOL
REMARK 924 INTRA-LIGAND FREE ENERGY PREDICTED BY IDOCK:   -0.26 KCAL/MOL
REMARK 927      BINDING AFFINITY PREDICTED BY RF-SCORE:    0.00 PKD
ROOT
HETATM    1  C   UNL     1     -11.626  12.640  67.269  1.00  0.00    -0.364 C  
HETATM    2  N   UNL     1     -10.638  13.698  67.191  1.00  0.00    -0.271 N  
HETATM    3  C   UNL     1      -9.314  13.419  67.603  1.00  0.00    -0.217 A  
HETATM    4  C   UNL     1      -8.628  14.339  68.405  1.00  0.00    -0.175 A  
HETATM    5  C   UNL     1      -9.259  15.708  68.779  1.00  0.00    -0.211 C  
HETATM    6  C   UNL     1      -7.374  13.934  68.935  1.00  0.00    -0.088 A  
HETATM    7  C   UNL     1      -6.777  12.730  68.572  1.00  0.00    -0.090 A  
HETATM    8  O   UNL     1      -8.262  16.373  69.624  1.00  0.00     0.052 OA 
HETATM    9  O   UNL     1     -11.487  14.386  65.177  1.00  0.00    -0.334 OA 
HETATM   10  C   UNL     1      -7.443  11.856  67.733  1.00  0.00    -0.121 A  
HETATM   11  C   UNL     1     -10.831  14.640  66.192  1.00  0.00    -0.321 C  
HETATM   12  C   UNL     1      -7.543  17.341  68.908  1.00  0.00    -0.235 C  
HETATM   13 CL   UNL     1      -5.205  12.347  69.157  1.00  0.00    -0.066 Cl 
HETATM   14  C   UNL     1     -10.487  16.085  66.530  1.00  0.00    -0.302 C  
HETATM   15  C   UNL     1      -6.435  16.830  68.010  1.00  0.00    -0.152 C  
HETATM   16  C   UNL     1      -8.721  12.184  67.278  1.00  0.00    -0.182 A  
HETATM   17  C   UNL     1      -8.290  18.382  68.538  1.00  0.00    -0.344 C  
HETATM   18  N   UNL     1      -9.511  16.513  67.529  1.00  0.00    -0.223 N  
HETATM   19  C   UNL     1      -9.180  17.859  67.459  1.00  0.00    -0.249 C  
HETATM   20  O   UNL     1      -9.590  18.644  66.611  1.00  0.00    -0.307 OA 
ENDROOT
BRANCH   5  21
HETATM   21  C   UNL     1     -10.548  15.531  69.639  1.00  0.00    -0.285 A  
HETATM   22  C   UNL     1     -12.967  15.800  69.904  1.00  0.00     0.457 A  
HETATM   23  C   UNL     1     -11.754  16.187  69.323  1.00  0.00    -0.224 A  
HETATM   24  C   UNL     1     -11.802  14.225  71.294  1.00  0.00    -0.219 A  
HETATM   25  C   UNL     1     -10.591  14.602  70.702  1.00  0.00     0.420 A  
HETATM   26  C   UNL     1     -12.995  14.798  70.868  1.00  0.00    -0.422 A  
ENDBRANCH   5  21
TORSDOF 1
ENDMDL
MODEL       78
REMARK 921   NORMALIZED FREE ENERGY PREDICTED BY IDOCK:   -4.11 KCAL/MOL
REMARK 922        TOTAL FREE ENERGY PREDICTED BY IDOCK:   -4.67 KCAL/MOL
REMARK 923 INTER-LIGAND FREE ENERGY PREDICTED BY IDOCK:   -4.40 KCAL/MOL
REMARK 924 INTRA-LIGAND FREE ENERGY PREDICTED BY IDOCK:   -0.28 KCAL/MOL
REMARK 927      BINDING AFFINITY PREDICTED BY RF-SCORE:    0.00 PKD
ROOT
HETATM    1  C   UNL     1      -8.539   9.161  69.861  1.00  0.00    -0.150 C  
HETATM    2  N   UNL     1      -8.246   7.746  69.980  1.00  0.00    -0.119 N  
HETATM    3  C   UNL     1      -8.573   6.895  68.898  1.00  0.00    -0.131 A  
HETATM    4  C   UNL     1      -9.193   5.664  69.147  1.00  0.00    -0.136 A  
HETATM    5  C   UNL     1      -9.450   5.171  70.597  1.00  0.00    -0.170 C  
HETATM    6  C   UNL     1      -9.658   4.930  68.023  1.00  0.00    -0.190 A  
HETATM    7  C   UNL     1      -9.395   5.338  66.719  1.00  0.00    -0.134 A  
HETATM    8  O   UNL     1     -10.117   3.873  70.449  1.00  0.00    -0.084 OA 
HETATM    9  O   UNL     1      -6.245   8.213  70.993  1.00  0.00    -0.033 OA 
HETATM   10  C   UNL     1      -8.730   6.529  66.489  1.00  0.00    -0.135 A  
HETATM   11  C   UNL     1      -7.161   7.413  70.774  1.00  0.00    -0.063 C  
HETATM   12  C   UNL     1      -9.228   2.809  70.660  1.00  0.00    -0.136 C  
HETATM   13 CL   UNL     1      -9.883   4.347  65.400  1.00  0.00    -0.205 Cl 
HETATM   14  C   UNL     1      -7.287   6.156  71.625  1.00  0.00    -0.089 C  
HETATM   15  C   UNL     1      -8.306   2.462  69.509  1.00  0.00    -0.075 C  
HETATM   16  C   UNL     1      -8.352   7.321  67.575  1.00  0.00    -0.116 A  
HETATM   17  C   UNL     1      -8.800   2.727  71.921  1.00  0.00    -0.116 C  
HETATM   18  N   UNL     1      -8.138   5.008  71.321  1.00  0.00    -0.108 N  
HETATM   19  C   UNL     1      -7.874   3.885  72.094  1.00  0.00    -0.072 C  
HETATM   20  O   UNL     1      -6.975   3.794  72.923  1.00  0.00    -0.044 OA 
ENDROOT
BRANCH   5  21
HETATM   21  C   UNL     1     -10.434   6.111  71.358  1.00  0.00    -0.273 A  
HETATM   22  C   UNL     1     -10.880   7.659  73.202  1.00  0.00    -0.440 A  
HETATM   23  C   UNL     1     -10.156   6.595  72.652  1.00  0.00    -0.191 A  
HETATM   24  C   UNL     1     -12.325   7.672  71.283  1.00  0.00    -0.334 A  
HETATM   25  C   UNL     1     -11.592   6.617  70.727  1.00  0.00    -0.432 A  
HETATM   26  C   UNL     1     -11.945   8.217  72.504  1.00  0.00    -0.420 A  
ENDBRANCH   5  21
TORSDOF 1
ENDMDL
MODEL       79
REMARK 921   NORMALIZED FREE ENERGY PREDICTED BY IDOCK:   -4.07 KCAL/MOL
REMARK 922        TOTAL FREE ENERGY PREDICTED BY IDOCK:   -4.62 KCAL/MOL
REMARK 923 INTER-LIGAND FREE ENERGY PREDICTED BY IDOCK:   -4.57 KCAL/MOL
REMARK 924 INTRA-LIGAND FREE ENERGY PREDICTED BY IDOCK:   -0.05 KCAL/MOL
REMARK 927      BINDING AFFINITY PREDICTED BY RF-SCORE:    0.00 PKD
ROOT
HETATM    1  C   UNL     1     -11.220   6.831  68.265  1.00  0.00    -0.058 C  
HETATM    2  N   UNL     1      -9.954   6.963  68.961  1.00  0.00    -0.155 N  
HETATM    3  C   UNL     1      -9.682   6.091  70.041  1.00  0.00    -0.165 A  
HETATM    4  C   UNL     1      -9.129   6.600  71.221  1.00  0.00    -0.151 A  
HETATM    5  C   UNL     1      -8.722   8.093  71.341  1.00  0.00    -0.145 C  
HETATM    6  C   UNL     1      -9.039   5.718  72.332  1.00  0.00    -0.142 A  
HETATM    7  C   UNL     1      -9.357   4.368  72.226  1.00  0.00    -0.128 A  
HETATM    8  O   UNL     1      -8.205   8.244  72.705  1.00  0.00    -0.162 OA 
HETATM    9  O   UNL     1      -8.863   7.310  66.976  1.00  0.00    -0.123 OA 
HETATM   10  C   UNL     1      -9.849   3.866  71.034  1.00  0.00    -0.219 A  
HETATM   11  C   UNL     1      -8.890   7.428  68.206  1.00  0.00    -0.128 C  
HETATM   12  C   UNL     1      -6.803   8.264  72.725  1.00  0.00    -0.096 C  
HETATM   13 CL   UNL     1      -9.118   3.326  73.573  1.00  0.00    -0.091 Cl 
HETATM   14  C   UNL     1      -7.912   8.370  68.897  1.00  0.00    -0.115 C  
HETATM   15  C   UNL     1      -6.107   6.923  72.613  1.00  0.00    -0.045 C  
HETATM   16  C   UNL     1     -10.043   4.732  69.956  1.00  0.00    -0.308 A  
HETATM   17  C   UNL     1      -6.286   9.347  72.143  1.00  0.00     0.187 C  
HETATM   18  N   UNL     1      -7.647   8.413  70.333  1.00  0.00    -0.069 N  
HETATM   19  C   UNL     1      -6.528   9.156  70.682  1.00  0.00    -0.066 C  
HETATM   20  O   UNL     1      -5.760   9.691  69.890  1.00  0.00    -0.038 OA 
ENDROOT
BRANCH   5  21
HETATM   21  C   UNL     1      -9.957   9.038  71.209  1.00  0.00    -0.381 A  
HETATM   22  C   UNL     1     -11.266  10.637  69.897  1.00  0.00    -0.378 A  
HETATM   23  C   UNL     1     -10.051  10.008  70.193  1.00  0.00    -0.266 A  
HETATM   24  C   UNL     1     -12.303   9.509  71.747  1.00  0.00    -0.474 A  
HETATM   25  C   UNL     1     -11.091   8.870  72.034  1.00  0.00    -0.421 A  
HETATM   26  C   UNL     1     -12.399  10.363  70.655  1.00  0.00    -0.438 A  
ENDBRANCH   5  21
TORSDOF 1
ENDMDL
MODEL       80
REMARK 921   NORMALIZED FREE ENERGY PREDICTED BY IDOCK:   -4.02 KCAL/MOL
REMARK 922        TOTAL FREE ENERGY PREDICTED BY IDOCK:   -4.58 KCAL/MOL
REMARK 923 INTER-LIGAND FREE ENERGY PREDICTED BY IDOCK:   -4.29 KCAL/MOL
REMARK 924 INTRA-LIGAND FREE ENERGY PREDICTED BY IDOCK:   -0.28 KCAL/MOL
REMARK 927      BINDING AFFINITY PREDICTED BY RF-SCORE:    0.00 PKD
ROOT
HETATM    1  C   UNL     1      -9.555   4.954  70.724  1.00  0.00    -0.184 C  
HETATM    2  N   UNL     1      -9.921   6.114  69.935  1.00  0.00    -0.167 N  
HETATM    3  C   UNL     1      -9.585   6.132  68.561  1.00  0.00    -0.119 A  
HETATM    4  C   UNL     1      -9.038   7.290  67.996  1.00  0.00    -0.133 A  
HETATM    5  C   UNL     1      -8.875   8.591  68.827  1.00  0.00    -0.139 C  
HETATM    6  C   UNL     1      -8.556   7.198  66.663  1.00  0.00    -0.124 A  
HETATM    7  C   UNL     1      -8.736   6.053  65.893  1.00  0.00    -0.154 A  
HETATM    8  O   UNL     1      -8.265   9.560  67.909  1.00  0.00    -0.112 OA 
HETATM    9  O   UNL     1     -11.944   6.242  71.004  1.00  0.00    -0.267 OA 
HETATM   10  C   UNL     1      -9.330   4.935  66.448  1.00  0.00    -0.145 A  
HETATM   11  C   UNL     1     -11.059   6.793  70.342  1.00  0.00    -0.308 C  
HETATM   12  C   UNL     1      -9.214  10.462  67.407  1.00  0.00    -0.142 C  
HETATM   13 CL   UNL     1      -8.234   6.043  64.247  1.00  0.00    -0.107 Cl 
HETATM   14  C   UNL     1     -11.034   8.312  70.229  1.00  0.00    -0.232 C  
HETATM   15  C   UNL     1     -10.095   9.957  66.282  1.00  0.00    -0.311 C  
HETATM   16  C   UNL     1      -9.721   4.963  67.788  1.00  0.00    -0.199 A  
HETATM   17  C   UNL     1      -9.705  11.279  68.339  1.00  0.00    -0.194 C  
HETATM   18  N   UNL     1     -10.226   9.078  69.283  1.00  0.00    -0.199 N  
HETATM   19  C   UNL     1     -10.581  10.418  69.189  1.00  0.00    -0.228 C  
HETATM   20  O   UNL     1     -11.522  10.942  69.774  1.00  0.00    -0.260 OA 
ENDROOT
BRANCH   5  21
HETATM   21  C   UNL     1      -7.884   8.395  70.015  1.00  0.00    -0.103 A  
HETATM   22  C   UNL     1      -7.448   8.372  72.424  1.00  0.00    -0.129 A  
HETATM   23  C   UNL     1      -8.194   8.812  71.324  1.00  0.00    -0.212 A  
HETATM   24  C   UNL     1      -5.927   7.246  70.946  1.00  0.00    -0.035 A  
HETATM   25  C   UNL     1      -6.681   7.674  69.847  1.00  0.00    -0.046 A  
HETATM   26  C   UNL     1      -6.333   7.564  72.236  1.00  0.00    -0.043 A  
ENDBRANCH   5  21
TORSDOF 1
ENDMDL
MODEL       81
REMARK 921   NORMALIZED FREE ENERGY PREDICTED BY IDOCK:   -4.00 KCAL/MOL
REMARK 922        TOTAL FREE ENERGY PREDICTED BY IDOCK:   -4.55 KCAL/MOL
REMARK 923 INTER-LIGAND FREE ENERGY PREDICTED BY IDOCK:   -4.26 KCAL/MOL
REMARK 924 INTRA-LIGAND FREE ENERGY PREDICTED BY IDOCK:   -0.29 KCAL/MOL
REMARK 927      BINDING AFFINITY PREDICTED BY RF-SCORE:    0.00 PKD
ROOT
HETATM    1  C   UNL     1     -10.539   7.809  71.443  1.00  0.00    -0.213 C  
HETATM    2  N   UNL     1     -10.475   8.451  70.145  1.00  0.00    -0.222 N  
HETATM    3  C   UNL     1     -10.381   7.636  68.992  1.00  0.00    -0.213 A  
HETATM    4  C   UNL     1      -9.475   7.971  67.979  1.00  0.00    -0.157 A  
HETATM    5  C   UNL     1      -8.631   9.273  68.052  1.00  0.00    -0.121 C  
HETATM    6  C   UNL     1      -9.293   7.030  66.931  1.00  0.00    -0.185 A  
HETATM    7  C   UNL     1     -10.074   5.883  66.829  1.00  0.00    -0.192 A  
HETATM    8  O   UNL     1      -7.807   9.265  66.838  1.00  0.00    -0.097 OA 
HETATM    9  O   UNL     1     -12.045   9.989  70.792  1.00  0.00    -0.292 OA 
HETATM   10  C   UNL     1     -11.006   5.594  67.809  1.00  0.00    -0.018 A  
HETATM   11  C   UNL     1     -11.121   9.672  70.036  1.00  0.00    -0.255 C  
HETATM   12  C   UNL     1      -8.327  10.120  65.856  1.00  0.00    -0.136 C  
HETATM   13 CL   UNL     1      -9.887   4.839  65.474  1.00  0.00    -0.181 Cl 
HETATM   14  C   UNL     1     -10.449  10.734  69.176  1.00  0.00    -0.218 C  
HETATM   15  C   UNL     1      -9.502   9.593  65.057  1.00  0.00    -0.312 C  
HETATM   16  C   UNL     1     -11.134   6.450  68.905  1.00  0.00    -0.420 A  
HETATM   17  C   UNL     1      -8.260  11.409  66.194  1.00  0.00    -0.041 C  
HETATM   18  N   UNL     1      -9.543  10.473  68.060  1.00  0.00    -0.146 N  
HETATM   19  C   UNL     1      -9.283  11.583  67.268  1.00  0.00    -0.167 C  
HETATM   20  O   UNL     1      -9.795  12.688  67.410  1.00  0.00    -0.201 OA 
ENDROOT
BRANCH   5  21
HETATM   21  C   UNL     1      -7.658   9.260  69.270  1.00  0.00    -0.080 A  
HETATM   22  C   UNL     1      -6.108   8.046  70.727  1.00  0.00    -0.033 A  
HETATM   23  C   UNL     1      -7.197   8.060  69.846  1.00  0.00    -0.061 A  
HETATM   24  C   UNL     1      -6.020  10.445  70.659  1.00  0.00    -0.105 A  
HETATM   25  C   UNL     1      -7.100  10.458  69.768  1.00  0.00    -0.148 A  
HETATM   26  C   UNL     1      -5.501   9.237  71.109  1.00  0.00    -0.047 A  
ENDBRANCH   5  21
TORSDOF 1
ENDMDL
MODEL       82
REMARK 921   NORMALIZED FREE ENERGY PREDICTED BY IDOCK:   -3.99 KCAL/MOL
REMARK 922        TOTAL FREE ENERGY PREDICTED BY IDOCK:   -4.54 KCAL/MOL
REMARK 923 INTER-LIGAND FREE ENERGY PREDICTED BY IDOCK:   -4.23 KCAL/MOL
REMARK 924 INTRA-LIGAND FREE ENERGY PREDICTED BY IDOCK:   -0.31 KCAL/MOL
REMARK 927      BINDING AFFINITY PREDICTED BY RF-SCORE:    0.00 PKD
ROOT
HETATM    1  C   UNL     1     -10.293  10.291  69.645  1.00  0.00    -0.248 C  
HETATM    2  N   UNL     1     -10.175   8.917  69.197  1.00  0.00    -0.201 N  
HETATM    3  C   UNL     1     -10.521   7.881  70.095  1.00  0.00    -0.231 A  
HETATM    4  C   UNL     1      -9.693   6.758  70.211  1.00  0.00    -0.179 A  
HETATM    5  C   UNL     1      -8.444   6.582  69.305  1.00  0.00    -0.127 C  
HETATM    6  C   UNL     1      -9.989   5.834  71.249  1.00  0.00    -0.241 A  
HETATM    7  C   UNL     1     -11.129   5.955  72.037  1.00  0.00    -0.274 A  
HETATM    8  O   UNL     1      -7.837   5.315  69.728  1.00  0.00    -0.071 OA 
HETATM    9  O   UNL     1     -11.007   9.483  67.139  1.00  0.00    -0.168 OA 
HETATM   10  C   UNL     1     -11.970   7.041  71.872  1.00  0.00    -0.355 A  
HETATM   11  C   UNL     1     -10.359   8.701  67.841  1.00  0.00    -0.229 C  
HETATM   12  C   UNL     1      -8.145   4.275  68.839  1.00  0.00    -0.072 C  
HETATM   13 CL   UNL     1     -11.496   4.742  73.200  1.00  0.00    -0.382 Cl 
HETATM   14  C   UNL     1      -9.473   7.651  67.183  1.00  0.00    -0.155 C  
HETATM   15  C   UNL     1      -9.522   3.657  68.975  1.00  0.00    -0.226 C  
HETATM   16  C   UNL     1     -11.647   8.018  70.929  1.00  0.00    -0.284 A  
HETATM   17  C   UNL     1      -7.587   4.430  67.638  1.00  0.00    -0.077 C  
HETATM   18  N   UNL     1      -8.867   6.507  67.861  1.00  0.00    -0.115 N  
HETATM   19  C   UNL     1      -8.337   5.553  67.002  1.00  0.00    -0.107 C  
HETATM   20  O   UNL     1      -8.406   5.589  65.778  1.00  0.00    -0.118 OA 
ENDROOT
BRANCH   5  21
HETATM   21  C   UNL     1      -7.389   7.704  69.556  1.00  0.00    -0.086 A  
HETATM   22  C   UNL     1      -6.045   9.569  68.715  1.00  0.00    -0.043 A  
HETATM   23  C   UNL     1      -6.751   8.380  68.498  1.00  0.00    -0.063 A  
HETATM   24  C   UNL     1      -6.407   9.356  71.080  1.00  0.00    -0.082 A  
HETATM   25  C   UNL     1      -7.125   8.174  70.861  1.00  0.00    -0.050 A  
HETATM   26  C   UNL     1      -5.900  10.073  70.003  1.00  0.00    -0.049 A  
ENDBRANCH   5  21
TORSDOF 1
ENDMDL
MODEL       83
REMARK 921   NORMALIZED FREE ENERGY PREDICTED BY IDOCK:   -3.98 KCAL/MOL
REMARK 922        TOTAL FREE ENERGY PREDICTED BY IDOCK:   -4.53 KCAL/MOL
REMARK 923 INTER-LIGAND FREE ENERGY PREDICTED BY IDOCK:   -4.44 KCAL/MOL
REMARK 924 INTRA-LIGAND FREE ENERGY PREDICTED BY IDOCK:   -0.09 KCAL/MOL
REMARK 927      BINDING AFFINITY PREDICTED BY RF-SCORE:    0.00 PKD
ROOT
HETATM    1  C   UNL     1     -10.256  13.516  64.584  1.00  0.00    -0.316 C  
HETATM    2  N   UNL     1      -9.981  12.713  65.760  1.00  0.00    -0.265 N  
HETATM    3  C   UNL     1      -8.930  13.111  66.620  1.00  0.00    -0.125 A  
HETATM    4  C   UNL     1      -8.033  12.154  67.108  1.00  0.00    -0.170 A  
HETATM    5  C   UNL     1      -8.219  10.645  66.797  1.00  0.00    -0.130 C  
HETATM    6  C   UNL     1      -6.899  12.628  67.820  1.00  0.00    -0.128 A  
HETATM    7  C   UNL     1      -6.744  13.973  68.145  1.00  0.00    -0.125 A  
HETATM    8  O   UNL     1      -7.092   9.974  67.457  1.00  0.00    -0.085 OA 
HETATM    9  O   UNL     1     -12.224  12.432  66.132  1.00  0.00    -0.635 OA 
HETATM   10  C   UNL     1      -7.670  14.900  67.704  1.00  0.00    -0.197 A  
HETATM   11  C   UNL     1     -11.064  12.047  66.310  1.00  0.00    -0.317 C  
HETATM   12  C   UNL     1      -7.485   9.375  68.662  1.00  0.00    -0.079 C  
HETATM   13 CL   UNL     1      -5.409  14.470  69.109  1.00  0.00    -0.081 Cl 
HETATM   14  C   UNL     1     -10.807  10.651  66.864  1.00  0.00    -0.205 C  
HETATM   15  C   UNL     1      -7.632  10.296  69.856  1.00  0.00    -0.153 C  
HETATM   16  C   UNL     1      -8.741  14.475  66.915  1.00  0.00    -0.237 A  
HETATM   17  C   UNL     1      -8.319   8.349  68.490  1.00  0.00    -0.131 C  
HETATM   18  N   UNL     1      -9.527  10.162  67.370  1.00  0.00    -0.151 N  
HETATM   19  C   UNL     1      -9.612   8.964  68.067  1.00  0.00    -0.148 C  
HETATM   20  O   UNL     1     -10.652   8.367  68.320  1.00  0.00    -0.192 OA 
ENDROOT
BRANCH   5  21
HETATM   21  C   UNL     1      -8.097  10.353  65.269  1.00  0.00    -0.152 A  
HETATM   22  C   UNL     1      -6.714  10.144  63.259  1.00  0.00    -0.131 A  
HETATM   23  C   UNL     1      -6.936  10.671  64.538  1.00  0.00     0.211 A  
HETATM   24  C   UNL     1      -8.890   9.127  63.299  1.00  0.00    -0.095 A  
HETATM   25  C   UNL     1      -9.105   9.642  64.582  1.00  0.00    -0.286 A  
HETATM   26  C   UNL     1      -7.679   9.347  62.653  1.00  0.00    -0.115 A  
ENDBRANCH   5  21
TORSDOF 1
ENDMDL
MODEL       84
REMARK 921   NORMALIZED FREE ENERGY PREDICTED BY IDOCK:   -3.97 KCAL/MOL
REMARK 922        TOTAL FREE ENERGY PREDICTED BY IDOCK:   -4.53 KCAL/MOL
REMARK 923 INTER-LIGAND FREE ENERGY PREDICTED BY IDOCK:   -4.42 KCAL/MOL
REMARK 924 INTRA-LIGAND FREE ENERGY PREDICTED BY IDOCK:   -0.10 KCAL/MOL
REMARK 927      BINDING AFFINITY PREDICTED BY RF-SCORE:    0.00 PKD
ROOT
HETATM    1  C   UNL     1      -8.491   5.907  68.789  1.00  0.00    -0.111 C  
HETATM    2  N   UNL     1      -9.170   6.955  68.054  1.00  0.00    -0.123 N  
HETATM    3  C   UNL     1      -8.818   7.169  66.701  1.00  0.00    -0.132 A  
HETATM    4  C   UNL     1      -8.632   8.474  66.230  1.00  0.00    -0.143 A  
HETATM    5  C   UNL     1      -8.892   9.703  67.143  1.00  0.00    -0.132 C  
HETATM    6  C   UNL     1      -8.109   8.625  64.918  1.00  0.00    -0.146 A  
HETATM    7  C   UNL     1      -7.914   7.536  64.074  1.00  0.00    -0.091 A  
HETATM    8  O   UNL     1      -8.579  10.872  66.313  1.00  0.00    -0.153 OA 
HETATM    9  O   UNL     1     -11.164   6.395  69.033  1.00  0.00    -0.347 OA 
HETATM   10  C   UNL     1      -8.157   6.255  64.535  1.00  0.00    -0.102 A  
HETATM   11  C   UNL     1     -10.470   7.231  68.447  1.00  0.00    -0.195 C  
HETATM   12  C   UNL     1      -9.743  11.481  65.821  1.00  0.00    -0.235 C  
HETATM   13 CL   UNL     1      -7.389   7.792  62.456  1.00  0.00    -0.092 Cl 
HETATM   14  C   UNL     1     -10.903   8.692  68.424  1.00  0.00     0.057 C  
HETATM   15  C   UNL     1     -10.400  10.815  64.629  1.00  0.00    -0.394 C  
HETATM   16  C   UNL     1      -8.574   6.070  65.855  1.00  0.00    -0.150 A  
HETATM   17  C   UNL     1     -10.483  12.045  66.776  1.00  0.00    -0.243 C  
HETATM   18  N   UNL     1     -10.340   9.730  67.563  1.00  0.00    -0.220 N  
HETATM   19  C   UNL     1     -11.080  10.904  67.532  1.00  0.00    -0.310 C  
HETATM   20  O   UNL     1     -12.150  11.080  68.103  1.00  0.00    -0.610 OA 
ENDROOT
BRANCH   5  21
HETATM   21  C   UNL     1      -7.920   9.730  68.362  1.00  0.00    -0.089 A  
HETATM   22  C   UNL     1      -7.534   9.462  70.765  1.00  0.00    -0.132 A  
HETATM   23  C   UNL     1      -8.388   9.739  69.691  1.00  0.00    -0.180 A  
HETATM   24  C   UNL     1      -5.667   9.358  69.257  1.00  0.00    -0.035 A  
HETATM   25  C   UNL     1      -6.524   9.621  68.181  1.00  0.00    -0.057 A  
HETATM   26  C   UNL     1      -6.178   9.242  70.544  1.00  0.00    -0.058 A  
ENDBRANCH   5  21
TORSDOF 1
ENDMDL
MODEL       85
REMARK 921   NORMALIZED FREE ENERGY PREDICTED BY IDOCK:   -3.95 KCAL/MOL
REMARK 922        TOTAL FREE ENERGY PREDICTED BY IDOCK:   -4.50 KCAL/MOL
REMARK 923 INTER-LIGAND FREE ENERGY PREDICTED BY IDOCK:   -4.15 KCAL/MOL
REMARK 924 INTRA-LIGAND FREE ENERGY PREDICTED BY IDOCK:   -0.35 KCAL/MOL
REMARK 927      BINDING AFFINITY PREDICTED BY RF-SCORE:    0.00 PKD
ROOT
HETATM    1  C   UNL     1     -10.376   9.732  68.855  1.00  0.00    -0.210 C  
HETATM    2  N   UNL     1     -10.136   9.586  67.433  1.00  0.00    -0.193 N  
HETATM    3  C   UNL     1      -9.902   8.290  66.916  1.00  0.00    -0.247 A  
HETATM    4  C   UNL     1      -8.867   8.087  65.995  1.00  0.00    -0.196 A  
HETATM    5  C   UNL     1      -8.025   9.274  65.457  1.00  0.00    -0.104 C  
HETATM    6  C   UNL     1      -8.563   6.745  65.644  1.00  0.00    -0.126 A  
HETATM    7  C   UNL     1      -9.338   5.676  66.083  1.00  0.00    -0.153 A  
HETATM    8  O   UNL     1      -7.049   8.670  64.542  1.00  0.00    -0.079 OA 
HETATM    9  O   UNL     1     -11.757  11.136  66.967  1.00  0.00    -0.460 OA 
HETATM   10  C   UNL     1     -10.393   5.899  66.948  1.00  0.00    -0.304 A  
HETATM   11  C   UNL     1     -10.746  10.521  66.612  1.00  0.00    -0.155 C  
HETATM   12  C   UNL     1      -7.427   8.839  63.202  1.00  0.00    -0.103 C  
HETATM   13 CL   UNL     1      -8.989   4.084  65.530  1.00  0.00    -0.126 Cl 
HETATM   14  C   UNL     1      -9.955  10.999  65.402  1.00  0.00    -0.260 C  
HETATM   15  C   UNL     1      -8.494   7.899  62.679  1.00  0.00     0.034 C  
HETATM   16  C   UNL     1     -10.652   7.197  67.391  1.00  0.00    -0.372 A  
HETATM   17  C   UNL     1      -7.388  10.111  62.802  1.00  0.00    -0.141 C  
HETATM   18  N   UNL     1      -8.915  10.238  64.714  1.00  0.00    -0.186 N  
HETATM   19  C   UNL     1      -8.540  10.769  63.488  1.00  0.00    -0.063 C  
HETATM   20  O   UNL     1      -9.052  11.747  62.955  1.00  0.00    -0.228 OA 
ENDROOT
BRANCH   5  21
HETATM   21  C   UNL     1      -7.218   9.970  66.596  1.00  0.00    -0.099 A  
HETATM   22  C   UNL     1      -5.575   9.842  68.406  1.00  0.00    -0.042 A  
HETATM   23  C   UNL     1      -6.528   9.235  67.580  1.00  0.00    -0.063 A  
HETATM   24  C   UNL     1      -6.102  11.981  67.449  1.00  0.00    -0.130 A  
HETATM   25  C   UNL     1      -7.045  11.372  66.613  1.00  0.00    -0.103 A  
HETATM   26  C   UNL     1      -5.341  11.210  68.319  1.00  0.00    -0.039 A  
ENDBRANCH   5  21
TORSDOF 1
ENDMDL
MODEL       86
REMARK 921   NORMALIZED FREE ENERGY PREDICTED BY IDOCK:   -3.93 KCAL/MOL
REMARK 922        TOTAL FREE ENERGY PREDICTED BY IDOCK:   -4.48 KCAL/MOL
REMARK 923 INTER-LIGAND FREE ENERGY PREDICTED BY IDOCK:   -4.15 KCAL/MOL
REMARK 924 INTRA-LIGAND FREE ENERGY PREDICTED BY IDOCK:   -0.32 KCAL/MOL
REMARK 927      BINDING AFFINITY PREDICTED BY RF-SCORE:    0.00 PKD
ROOT
HETATM    1  C   UNL     1     -10.402   8.220  68.644  1.00  0.00    -0.200 C  
HETATM    2  N   UNL     1     -10.286   6.779  68.756  1.00  0.00    -0.185 N  
HETATM    3  C   UNL     1     -10.500   6.180  70.019  1.00  0.00    -0.234 A  
HETATM    4  C   UNL     1      -9.628   5.183  70.470  1.00  0.00    -0.244 A  
HETATM    5  C   UNL     1      -8.478   4.654  69.572  1.00  0.00    -0.078 C  
HETATM    6  C   UNL     1      -9.782   4.741  71.812  1.00  0.00    -0.225 A  
HETATM    7  C   UNL     1     -10.835   5.173  72.612  1.00  0.00    -0.247 A  
HETATM    8  O   UNL     1      -7.788   3.645  70.385  1.00  0.00    -0.047 OA 
HETATM    9  O   UNL     1     -11.352   6.506  66.746  1.00  0.00    -0.272 OA 
HETATM   10  C   UNL     1     -11.724   6.118  72.131  1.00  0.00    -0.361 A  
HETATM   11  C   UNL     1     -10.606   6.052  67.621  1.00  0.00    -0.264 C  
HETATM   12  C   UNL     1      -8.154   2.344  70.011  1.00  0.00    -0.041 C  
HETATM   13 CL   UNL     1     -11.035   4.515  74.189  1.00  0.00    -0.275 Cl 
HETATM   14  C   UNL     1      -9.761   4.819  67.329  1.00  0.00    -0.182 C  
HETATM   15  C   UNL     1      -9.487   1.844  70.529  1.00  0.00    -0.168 C  
HETATM   16  C   UNL     1     -11.536   6.645  70.852  1.00  0.00    -0.416 A  
HETATM   17  C   UNL     1      -7.732   2.011  68.791  1.00  0.00    -0.047 C  
HETATM   18  N   UNL     1      -9.049   4.024  68.327  1.00  0.00    -0.126 N  
HETATM   19  C   UNL     1      -8.582   2.805  67.854  1.00  0.00    -0.093 C  
HETATM   20  O   UNL     1      -8.782   2.361  66.729  1.00  0.00    -0.110 OA 
ENDROOT
BRANCH   5  21
HETATM   21  C   UNL     1      -7.440   5.772  69.248  1.00  0.00    -0.083 A  
HETATM   22  C   UNL     1      -6.193   7.087  67.602  1.00  0.00    -0.041 A  
HETATM   23  C   UNL     1      -6.879   5.922  67.965  1.00  0.00    -0.067 A  
HETATM   24  C   UNL     1      -6.418   7.921  69.843  1.00  0.00    -0.037 A  
HETATM   25  C   UNL     1      -7.116   6.762  70.202  1.00  0.00    -0.071 A  
HETATM   26  C   UNL     1      -5.990   8.100  68.533  1.00  0.00    -0.041 A  
ENDBRANCH   5  21
TORSDOF 1
ENDMDL
MODEL       87
REMARK 921   NORMALIZED FREE ENERGY PREDICTED BY IDOCK:   -3.85 KCAL/MOL
REMARK 922        TOTAL FREE ENERGY PREDICTED BY IDOCK:   -4.40 KCAL/MOL
REMARK 923 INTER-LIGAND FREE ENERGY PREDICTED BY IDOCK:   -4.24 KCAL/MOL
REMARK 924 INTRA-LIGAND FREE ENERGY PREDICTED BY IDOCK:   -0.16 KCAL/MOL
REMARK 927      BINDING AFFINITY PREDICTED BY RF-SCORE:    0.00 PKD
ROOT
HETATM    1  C   UNL     1      -9.876  10.030  69.224  1.00  0.00    -0.214 C  
HETATM    2  N   UNL     1      -9.980   9.983  67.779  1.00  0.00    -0.163 N  
HETATM    3  C   UNL     1      -9.462   8.855  67.101  1.00  0.00    -0.157 A  
HETATM    4  C   UNL     1      -8.698   9.034  65.941  1.00  0.00    -0.193 A  
HETATM    5  C   UNL     1      -8.481  10.444  65.330  1.00  0.00    -0.169 C  
HETATM    6  C   UNL     1      -8.057   7.887  65.401  1.00  0.00    -0.130 A  
HETATM    7  C   UNL     1      -8.279   6.611  65.911  1.00  0.00    -0.132 A  
HETATM    8  O   UNL     1      -7.632  10.227  64.153  1.00  0.00    -0.146 OA 
HETATM    9  O   UNL     1     -12.094  10.862  67.870  1.00  0.00    -0.527 OA 
HETATM   10  C   UNL     1      -9.083   6.444  67.024  1.00  0.00    -0.130 A  
HETATM   11  C   UNL     1     -11.063  10.644  67.224  1.00  0.00    -0.243 C  
HETATM   12  C   UNL     1      -8.379  10.255  62.966  1.00  0.00    -0.170 C  
HETATM   13 CL   UNL     1      -7.565   5.248  65.142  1.00  0.00    -0.080 Cl 
HETATM   14  C   UNL     1     -10.827  11.375  65.908  1.00  0.00    -0.234 C  
HETATM   15  C   UNL     1      -9.159   9.000  62.631  1.00  0.00     0.140 C  
HETATM   16  C   UNL     1      -9.644   7.566  67.637  1.00  0.00    -0.171 A  
HETATM   17  C   UNL     1      -8.882  11.459  62.692  1.00  0.00    -0.163 C  
HETATM   18  N   UNL     1      -9.807  11.033  64.920  1.00  0.00    -0.253 N  
HETATM   19  C   UNL     1      -9.968  11.666  63.695  1.00  0.00    -0.379 C  
HETATM   20  O   UNL     1     -10.903  12.402  63.398  1.00  0.00    -0.451 OA 
ENDROOT
BRANCH   5  21
HETATM   21  C   UNL     1      -7.693  11.377  66.300  1.00  0.00     0.005 A  
HETATM   22  C   UNL     1      -5.603  11.974  67.429  1.00  0.00    -0.120 A  
HETATM   23  C   UNL     1      -6.428  11.025  66.813  1.00  0.00    -0.124 A  
HETATM   24  C   UNL     1      -7.344  13.617  67.234  1.00  0.00    -0.027 A  
HETATM   25  C   UNL     1      -8.164  12.673  66.606  1.00  0.00     0.129 A  
HETATM   26  C   UNL     1      -6.050  13.278  67.612  1.00  0.00    -0.140 A  
ENDBRANCH   5  21
TORSDOF 1
ENDMDL
MODEL       88
REMARK 921   NORMALIZED FREE ENERGY PREDICTED BY IDOCK:   -3.67 KCAL/MOL
REMARK 922        TOTAL FREE ENERGY PREDICTED BY IDOCK:   -4.20 KCAL/MOL
REMARK 923 INTER-LIGAND FREE ENERGY PREDICTED BY IDOCK:   -3.88 KCAL/MOL
REMARK 924 INTRA-LIGAND FREE ENERGY PREDICTED BY IDOCK:   -0.33 KCAL/MOL
REMARK 927      BINDING AFFINITY PREDICTED BY RF-SCORE:    0.00 PKD
ROOT
HETATM    1  C   UNL     1     -11.775  13.023  68.355  1.00  0.00    -0.351 C  
HETATM    2  N   UNL     1     -10.853  12.010  67.879  1.00  0.00    -0.206 N  
HETATM    3  C   UNL     1     -10.418  11.013  68.783  1.00  0.00    -0.198 A  
HETATM    4  C   UNL     1      -9.064  10.657  68.824  1.00  0.00    -0.170 A  
HETATM    5  C   UNL     1      -8.041  11.270  67.831  1.00  0.00    -0.121 C  
HETATM    6  C   UNL     1      -8.652   9.784  69.866  1.00  0.00    -0.236 A  
HETATM    7  C   UNL     1      -9.565   9.191  70.734  1.00  0.00    -0.275 A  
HETATM    8  O   UNL     1      -6.750  10.673  68.191  1.00  0.00    -0.063 OA 
HETATM    9  O   UNL     1     -11.986  11.867  65.893  1.00  0.00    -0.480 OA 
HETATM   10  C   UNL     1     -10.908   9.510  70.644  1.00  0.00    -0.371 A  
HETATM   11  C   UNL     1     -10.948  11.683  66.536  1.00  0.00    -0.299 C  
HETATM   12  C   UNL     1      -6.397   9.640  67.310  1.00  0.00    -0.068 C  
HETATM   13 CL   UNL     1      -9.018   8.052  71.901  1.00  0.00    -0.180 Cl 
HETATM   14  C   UNL     1      -9.644  11.395  65.802  1.00  0.00    -0.233 C  
HETATM   15  C   UNL     1      -7.074   8.303  67.533  1.00  0.00    -0.083 C  
HETATM   16  C   UNL     1     -11.327  10.444  69.695  1.00  0.00    -0.333 A  
HETATM   17  C   UNL     1      -6.136  10.071  66.075  1.00  0.00    -0.077 C  
HETATM   18  N   UNL     1      -8.415  10.902  66.418  1.00  0.00    -0.158 N  
HETATM   19  C   UNL     1      -7.462  10.461  65.510  1.00  0.00    -0.142 C  
HETATM   20  O   UNL     1      -7.616  10.407  64.295  1.00  0.00    -0.120 OA 
ENDROOT
BRANCH   5  21
HETATM   21  C   UNL     1      -7.905  12.812  68.025  1.00  0.00    -0.150 A  
HETATM   22  C   UNL     1      -7.344  14.723  69.449  1.00  0.00    -0.162 A  
HETATM   23  C   UNL     1      -7.763  13.396  69.299  1.00  0.00     0.385 A  
HETATM   24  C   UNL     1      -7.388  15.009  67.064  1.00  0.00     0.048 A  
HETATM   25  C   UNL     1      -7.793  13.677  66.914  1.00  0.00     0.274 A  
HETATM   26  C   UNL     1      -7.127  15.520  68.330  1.00  0.00    -0.111 A  
ENDBRANCH   5  21
TORSDOF 1
ENDMDL
MODEL       89
REMARK 921   NORMALIZED FREE ENERGY PREDICTED BY IDOCK:   -3.66 KCAL/MOL
REMARK 922        TOTAL FREE ENERGY PREDICTED BY IDOCK:   -4.19 KCAL/MOL
REMARK 923 INTER-LIGAND FREE ENERGY PREDICTED BY IDOCK:   -3.87 KCAL/MOL
REMARK 924 INTRA-LIGAND FREE ENERGY PREDICTED BY IDOCK:   -0.32 KCAL/MOL
REMARK 927      BINDING AFFINITY PREDICTED BY RF-SCORE:    0.00 PKD
ROOT
HETATM    1  C   UNL     1     -11.785   6.962  71.162  1.00  0.00    -0.336 C  
HETATM    2  N   UNL     1     -10.643   7.544  70.485  1.00  0.00    -0.221 N  
HETATM    3  C   UNL     1      -9.981   6.780  69.496  1.00  0.00    -0.162 A  
HETATM    4  C   UNL     1      -8.582   6.738  69.474  1.00  0.00    -0.133 A  
HETATM    5  C   UNL     1      -7.736   7.588  70.459  1.00  0.00    -0.094 C  
HETATM    6  C   UNL     1      -7.972   5.820  68.577  1.00  0.00    -0.101 A  
HETATM    7  C   UNL     1      -8.715   5.086  67.658  1.00  0.00    -0.103 A  
HETATM    8  O   UNL     1      -6.339   7.269  70.142  1.00  0.00    -0.030 OA 
HETATM    9  O   UNL     1     -11.702   9.574  70.378  1.00  0.00    -0.247 OA 
HETATM   10  C   UNL     1     -10.095   5.181  67.654  1.00  0.00    -0.204 A  
HETATM   11  C   UNL     1     -10.652   8.924  70.353  1.00  0.00    -0.217 C  
HETATM   12  C   UNL     1      -5.743   8.278  69.371  1.00  0.00    -0.030 C  
HETATM   13 CL   UNL     1      -7.911   4.078  66.520  1.00  0.00    -0.093 Cl 
HETATM   14  C   UNL     1      -9.315   9.640  70.502  1.00  0.00    -0.166 C  
HETATM   15  C   UNL     1      -6.074   8.281  67.892  1.00  0.00    -0.047 C  
HETATM   16  C   UNL     1     -10.727   5.998  68.593  1.00  0.00    -0.363 A  
HETATM   17  C   UNL     1      -5.591   9.424  70.035  1.00  0.00    -0.035 C  
HETATM   18  N   UNL     1      -8.005   9.054  70.231  1.00  0.00    -0.105 N  
HETATM   19  C   UNL     1      -6.970   9.978  70.175  1.00  0.00    -0.148 C  
HETATM   20  O   UNL     1      -7.103  11.193  70.271  1.00  0.00    -0.046 OA 
ENDROOT
BRANCH   5  21
HETATM   21  C   UNL     1      -7.980   7.165  71.940  1.00  0.00    -0.093 A  
HETATM   22  C   UNL     1      -8.636   7.748  74.226  1.00  0.00    -0.268 A  
HETATM   23  C   UNL     1      -8.125   8.111  72.974  1.00  0.00    -0.230 A  
HETATM   24  C   UNL     1      -8.687   5.447  73.541  1.00  0.00    -0.114 A  
HETATM   25  C   UNL     1      -8.190   5.812  72.284  1.00  0.00    -0.108 A  
HETATM   26  C   UNL     1      -8.946   6.420  74.498  1.00  0.00    -0.180 A  
ENDBRANCH   5  21
TORSDOF 1
ENDMDL
MODEL       90
REMARK 921   NORMALIZED FREE ENERGY PREDICTED BY IDOCK:   -3.64 KCAL/MOL
REMARK 922        TOTAL FREE ENERGY PREDICTED BY IDOCK:   -4.18 KCAL/MOL
REMARK 923 INTER-LIGAND FREE ENERGY PREDICTED BY IDOCK:   -3.85 KCAL/MOL
REMARK 924 INTRA-LIGAND FREE ENERGY PREDICTED BY IDOCK:   -0.32 KCAL/MOL
REMARK 927      BINDING AFFINITY PREDICTED BY RF-SCORE:    0.00 PKD
ROOT
HETATM    1  C   UNL     1     -10.183   8.230  72.008  1.00  0.00    -0.269 C  
HETATM    2  N   UNL     1      -9.971   7.204  71.006  1.00  0.00    -0.188 N  
HETATM    3  C   UNL     1      -8.879   6.318  71.166  1.00  0.00    -0.142 A  
HETATM    4  C   UNL     1      -8.069   6.011  70.066  1.00  0.00    -0.114 A  
HETATM    5  C   UNL     1      -8.397   6.553  68.649  1.00  0.00    -0.122 C  
HETATM    6  C   UNL     1      -6.888   5.262  70.316  1.00  0.00    -0.048 A  
HETATM    7  C   UNL     1      -6.606   4.733  71.572  1.00  0.00    -0.034 A  
HETATM    8  O   UNL     1      -7.330   6.036  67.783  1.00  0.00    -0.074 OA 
HETATM    9  O   UNL     1     -12.226   6.824  70.871  1.00  0.00    -0.385 OA 
HETATM   10  C   UNL     1      -7.447   4.997  72.637  1.00  0.00    -0.095 A  
HETATM   11  C   UNL     1     -11.105   6.739  70.360  1.00  0.00    -0.308 C  
HETATM   12  C   UNL     1      -7.764   4.932  67.036  1.00  0.00    -0.092 C  
HETATM   13 CL   UNL     1      -5.220   3.736  71.787  1.00  0.00     0.000 Cl 
HETATM   14  C   UNL     1     -10.973   6.420  68.876  1.00  0.00    -0.346 C  
HETATM   15  C   UNL     1      -7.812   3.603  67.763  1.00  0.00    -0.077 C  
HETATM   16  C   UNL     1      -8.561   5.816  72.442  1.00  0.00    -0.121 A  
HETATM   17  C   UNL     1      -8.691   5.243  66.129  1.00  0.00    -0.129 C  
HETATM   18  N   UNL     1      -9.738   6.031  68.200  1.00  0.00    -0.123 N  
HETATM   19  C   UNL     1      -9.926   5.530  66.918  1.00  0.00    -0.179 C  
HETATM   20  O   UNL     1     -11.014   5.348  66.384  1.00  0.00    -0.243 OA 
ENDROOT
BRANCH   5  21
HETATM   21  C   UNL     1      -8.319   8.110  68.596  1.00  0.00    -0.126 A  
HETATM   22  C   UNL     1      -9.368  10.264  68.090  1.00  0.00    -0.144 A  
HETATM   23  C   UNL     1      -9.263   8.882  67.891  1.00  0.00    -0.148 A  
HETATM   24  C   UNL     1      -7.462  10.201  69.549  1.00  0.00    -0.133 A  
HETATM   25  C   UNL     1      -7.366   8.817  69.361  1.00  0.00    -0.072 A  
HETATM   26  C   UNL     1      -8.486  10.918  68.943  1.00  0.00    -0.142 A  
ENDBRANCH   5  21
TORSDOF 1
ENDMDL
MODEL       91
REMARK 921   NORMALIZED FREE ENERGY PREDICTED BY IDOCK:   -3.63 KCAL/MOL
REMARK 922        TOTAL FREE ENERGY PREDICTED BY IDOCK:   -4.16 KCAL/MOL
REMARK 923 INTER-LIGAND FREE ENERGY PREDICTED BY IDOCK:   -3.84 KCAL/MOL
REMARK 924 INTRA-LIGAND FREE ENERGY PREDICTED BY IDOCK:   -0.32 KCAL/MOL
REMARK 927      BINDING AFFINITY PREDICTED BY RF-SCORE:    0.00 PKD
ROOT
HETATM    1  C   UNL     1     -11.815  10.158  68.641  1.00  0.00     0.368 C  
HETATM    2  N   UNL     1     -10.626  10.062  69.465  1.00  0.00    -0.227 N  
HETATM    3  C   UNL     1      -9.465  10.761  69.061  1.00  0.00    -0.166 A  
HETATM    4  C   UNL     1      -8.218  10.126  69.116  1.00  0.00    -0.145 A  
HETATM    5  C   UNL     1      -8.070   8.695  69.700  1.00  0.00    -0.112 C  
HETATM    6  C   UNL     1      -7.115  10.806  68.536  1.00  0.00    -0.070 A  
HETATM    7  C   UNL     1      -7.224  12.106  68.052  1.00  0.00    -0.099 A  
HETATM    8  O   UNL     1      -6.643   8.375  69.575  1.00  0.00    -0.040 OA 
HETATM    9  O   UNL     1     -11.895  10.199  71.368  1.00  0.00    -0.368 OA 
HETATM   10  C   UNL     1      -8.452  12.743  68.056  1.00  0.00    -0.177 A  
HETATM   11  C   UNL     1     -10.838   9.868  70.821  1.00  0.00    -0.317 C  
HETATM   12  C   UNL     1      -5.974   8.522  70.798  1.00  0.00    -0.033 C  
HETATM   13 CL   UNL     1      -5.826  12.920  67.467  1.00  0.00    -0.139 Cl 
HETATM   14  C   UNL     1      -9.867   8.947  71.547  1.00  0.00    -0.314 C  
HETATM   15  C   UNL     1      -5.616   9.936  71.205  1.00  0.00    -0.069 C  
HETATM   16  C   UNL     1      -9.575  12.059  68.527  1.00  0.00    -0.146 A  
HETATM   17  C   UNL     1      -6.350   7.627  71.712  1.00  0.00    -0.039 C  
HETATM   18  N   UNL     1      -8.485   8.688  71.149  1.00  0.00    -0.155 N  
HETATM   19  C   UNL     1      -7.729   8.037  72.114  1.00  0.00    -0.106 C  
HETATM   20  O   UNL     1      -8.119   7.745  73.239  1.00  0.00    -0.121 OA 
ENDROOT
BRANCH   5  21
HETATM   21  C   UNL     1      -8.854   7.645  68.853  1.00  0.00    -0.135 A  
HETATM   22  C   UNL     1     -10.504   5.841  68.722  1.00  0.00    -0.312 A  
HETATM   23  C   UNL     1      -9.570   6.589  69.450  1.00  0.00    -0.149 A  
HETATM   24  C   UNL     1      -9.902   7.029  66.723  1.00  0.00    -0.250 A  
HETATM   25  C   UNL     1      -8.979   7.786  67.454  1.00  0.00    -0.128 A  
HETATM   26  C   UNL     1     -10.691   6.082  67.365  1.00  0.00    -0.393 A  
ENDBRANCH   5  21
TORSDOF 1
ENDMDL
MODEL       92
REMARK 921   NORMALIZED FREE ENERGY PREDICTED BY IDOCK:   -3.62 KCAL/MOL
REMARK 922        TOTAL FREE ENERGY PREDICTED BY IDOCK:   -4.15 KCAL/MOL
REMARK 923 INTER-LIGAND FREE ENERGY PREDICTED BY IDOCK:   -3.83 KCAL/MOL
REMARK 924 INTRA-LIGAND FREE ENERGY PREDICTED BY IDOCK:   -0.32 KCAL/MOL
REMARK 927      BINDING AFFINITY PREDICTED BY RF-SCORE:    0.00 PKD
ROOT
HETATM    1  C   UNL     1     -10.749  10.361  67.644  1.00  0.00    -0.286 C  
HETATM    2  N   UNL     1      -9.958   9.623  66.679  1.00  0.00    -0.220 N  
HETATM    3  C   UNL     1      -9.853   8.220  66.823  1.00  0.00    -0.263 A  
HETATM    4  C   UNL     1      -8.607   7.599  66.672  1.00  0.00    -0.134 A  
HETATM    5  C   UNL     1      -7.349   8.410  66.260  1.00  0.00    -0.086 C  
HETATM    6  C   UNL     1      -8.523   6.219  66.999  1.00  0.00    -0.108 A  
HETATM    7  C   UNL     1      -9.650   5.471  67.326  1.00  0.00    -0.125 A  
HETATM    8  O   UNL     1      -6.256   7.431  66.221  1.00  0.00    -0.039 OA 
HETATM    9  O   UNL     1     -10.775  10.917  64.973  1.00  0.00    -0.249 OA 
HETATM   10  C   UNL     1     -10.885   6.088  67.415  1.00  0.00    -0.394 A  
HETATM   11  C   UNL     1      -9.898  10.159  65.403  1.00  0.00    -0.307 C  
HETATM   12  C   UNL     1      -5.958   7.043  64.907  1.00  0.00    -0.037 C  
HETATM   13 CL   UNL     1      -9.503   3.779  67.599  1.00  0.00    -0.239 Cl 
HETATM   14  C   UNL     1      -8.568  10.049  64.669  1.00  0.00    -0.181 C  
HETATM   15  C   UNL     1      -6.888   6.026  64.277  1.00  0.00    -0.046 C  
HETATM   16  C   UNL     1     -10.980   7.464  67.198  1.00  0.00    -0.225 A  
HETATM   17  C   UNL     1      -5.436   8.029  64.176  1.00  0.00    -0.045 C  
HETATM   18  N   UNL     1      -7.557   9.019  64.897  1.00  0.00    -0.104 N  
HETATM   19  C   UNL     1      -6.567   8.970  63.925  1.00  0.00    -0.088 C  
HETATM   20  O   UNL     1      -6.537   9.661  62.913  1.00  0.00    -0.100 OA 
ENDROOT
BRANCH   5  21
HETATM   21  C   UNL     1      -6.974   9.476  67.335  1.00  0.00    -0.084 A  
HETATM   22  C   UNL     1      -6.504  11.804  67.930  1.00  0.00    -0.068 A  
HETATM   23  C   UNL     1      -6.548  10.772  66.985  1.00  0.00    -0.085 A  
HETATM   24  C   UNL     1      -7.111  10.249  69.658  1.00  0.00    -0.125 A  
HETATM   25  C   UNL     1      -7.168   9.221  68.710  1.00  0.00    -0.074 A  
HETATM   26  C   UNL     1      -6.815  11.548  69.261  1.00  0.00    -0.114 A  
ENDBRANCH   5  21
TORSDOF 1
ENDMDL
MODEL       93
REMARK 921   NORMALIZED FREE ENERGY PREDICTED BY IDOCK:   -3.60 KCAL/MOL
REMARK 922        TOTAL FREE ENERGY PREDICTED BY IDOCK:   -4.14 KCAL/MOL
REMARK 923 INTER-LIGAND FREE ENERGY PREDICTED BY IDOCK:   -3.78 KCAL/MOL
REMARK 924 INTRA-LIGAND FREE ENERGY PREDICTED BY IDOCK:   -0.36 KCAL/MOL
REMARK 927      BINDING AFFINITY PREDICTED BY RF-SCORE:    0.00 PKD
ROOT
HETATM    1  C   UNL     1     -10.691   8.972  70.878  1.00  0.00    -0.253 C  
HETATM    2  N   UNL     1      -9.640   8.109  70.376  1.00  0.00    -0.170 N  
HETATM    3  C   UNL     1      -9.905   7.312  69.238  1.00  0.00    -0.166 A  
HETATM    4  C   UNL     1      -9.503   5.971  69.221  1.00  0.00    -0.152 A  
HETATM    5  C   UNL     1      -8.689   5.360  70.393  1.00  0.00    -0.129 C  
HETATM    6  C   UNL     1      -9.947   5.172  68.134  1.00  0.00    -0.203 A  
HETATM    7  C   UNL     1     -10.638   5.716  67.055  1.00  0.00    -0.285 A  
HETATM    8  O   UNL     1      -8.473   3.957  70.022  1.00  0.00    -0.062 OA 
HETATM    9  O   UNL     1      -8.076   9.739  70.757  1.00  0.00    -0.271 OA 
HETATM   10  C   UNL     1     -10.979   7.056  67.060  1.00  0.00    -0.357 A  
HETATM   11  C   UNL     1      -8.342   8.545  70.586  1.00  0.00    -0.133 C  
HETATM   12  C   UNL     1      -7.178   3.748  69.527  1.00  0.00    -0.045 C  
HETATM   13 CL   UNL     1     -11.048   4.720  65.714  1.00  0.00    -0.058 Cl 
HETATM   14  C   UNL     1      -7.302   7.483  70.919  1.00  0.00    -0.068 C  
HETATM   15  C   UNL     1      -6.930   4.163  68.091  1.00  0.00    -0.051 C  
HETATM   16  C   UNL     1     -10.644   7.843  68.164  1.00  0.00    -0.179 A  
HETATM   17  C   UNL     1      -6.231   3.909  70.453  1.00  0.00    -0.023 C  
HETATM   18  N   UNL     1      -7.369   6.077  70.527  1.00  0.00    -0.083 N  
HETATM   19  C   UNL     1      -6.183   5.379  70.710  1.00  0.00    -0.026 C  
HETATM   20  O   UNL     1      -5.129   5.869  71.099  1.00  0.00    -0.012 OA 
ENDROOT
BRANCH   5  21
HETATM   21  C   UNL     1      -9.503   5.365  71.723  1.00  0.00    -0.177 A  
HETATM   22  C   UNL     1     -11.513   4.742  72.975  1.00  0.00    -0.297 A  
HETATM   23  C   UNL     1     -10.870   5.026  71.764  1.00  0.00    -0.094 A  
HETATM   24  C   UNL     1      -9.515   5.319  74.175  1.00  0.00    -0.137 A  
HETATM   25  C   UNL     1      -8.868   5.590  72.964  1.00  0.00    -0.120 A  
HETATM   26  C   UNL     1     -10.826   4.859  74.178  1.00  0.00    -0.226 A  
ENDBRANCH   5  21
TORSDOF 1
ENDMDL
MODEL       94
REMARK 921   NORMALIZED FREE ENERGY PREDICTED BY IDOCK:   -3.46 KCAL/MOL
REMARK 922        TOTAL FREE ENERGY PREDICTED BY IDOCK:   -3.98 KCAL/MOL
REMARK 923 INTER-LIGAND FREE ENERGY PREDICTED BY IDOCK:   -3.66 KCAL/MOL
REMARK 924 INTRA-LIGAND FREE ENERGY PREDICTED BY IDOCK:   -0.32 KCAL/MOL
REMARK 927      BINDING AFFINITY PREDICTED BY RF-SCORE:    0.00 PKD
ROOT
HETATM    1  C   UNL     1     -11.158   6.496  67.043  1.00  0.00    -0.339 C  
HETATM    2  N   UNL     1     -10.296   7.099  68.040  1.00  0.00    -0.185 N  
HETATM    3  C   UNL     1      -9.877   8.437  67.852  1.00  0.00    -0.170 A  
HETATM    4  C   UNL     1      -8.539   8.783  68.079  1.00  0.00    -0.134 A  
HETATM    5  C   UNL     1      -7.520   7.745  68.621  1.00  0.00    -0.100 C  
HETATM    6  C   UNL     1      -8.134  10.093  67.708  1.00  0.00    -0.109 A  
HETATM    7  C   UNL     1      -9.045  11.046  67.264  1.00  0.00    -0.138 A  
HETATM    8  O   UNL     1      -6.246   8.467  68.711  1.00  0.00    -0.044 OA 
HETATM    9  O   UNL     1     -11.492   6.105  69.722  1.00  0.00    -0.433 OA 
HETATM   10  C   UNL     1     -10.375  10.705  67.099  1.00  0.00    -0.275 A  
HETATM   11  C   UNL     1     -10.444   6.632  69.337  1.00  0.00    -0.219 C  
HETATM   12  C   UNL     1      -5.964   8.852  70.029  1.00  0.00    -0.030 C  
HETATM   13 CL   UNL     1      -8.513  12.650  66.940  1.00  0.00    -0.159 Cl 
HETATM   14  C   UNL     1      -9.176   6.494  70.170  1.00  0.00    -0.158 C  
HETATM   15  C   UNL     1      -6.691  10.078  70.544  1.00  0.00    -0.118 C  
HETATM   16  C   UNL     1     -10.782   9.395  67.359  1.00  0.00    -0.280 A  
HETATM   17  C   UNL     1      -5.721   7.819  70.837  1.00  0.00    -0.034 C  
HETATM   18  N   UNL     1      -7.952   7.269  69.985  1.00  0.00    -0.115 N  
HETATM   19  C   UNL     1      -7.045   7.157  71.031  1.00  0.00    -0.069 C  
HETATM   20  O   UNL     1      -7.238   6.532  72.068  1.00  0.00    -0.083 OA 
ENDROOT
BRANCH   5  21
HETATM   21  C   UNL     1      -7.312   6.566  67.621  1.00  0.00    -0.095 A  
HETATM   22  C   UNL     1      -7.334   4.164  67.150  1.00  0.00    -0.069 A  
HETATM   23  C   UNL     1      -7.219   5.228  68.052  1.00  0.00    -0.071 A  
HETATM   24  C   UNL     1      -7.437   5.720  65.323  1.00  0.00    -0.078 A  
HETATM   25  C   UNL     1      -7.336   6.784  66.226  1.00  0.00    -0.073 A  
HETATM   26  C   UNL     1      -7.475   4.411  65.789  1.00  0.00    -0.081 A  
ENDBRANCH   5  21
TORSDOF 1
ENDMDL
MODEL       95
REMARK 921   NORMALIZED FREE ENERGY PREDICTED BY IDOCK:   -3.38 KCAL/MOL
REMARK 922        TOTAL FREE ENERGY PREDICTED BY IDOCK:   -3.90 KCAL/MOL
REMARK 923 INTER-LIGAND FREE ENERGY PREDICTED BY IDOCK:   -3.58 KCAL/MOL
REMARK 924 INTRA-LIGAND FREE ENERGY PREDICTED BY IDOCK:   -0.32 KCAL/MOL
REMARK 927      BINDING AFFINITY PREDICTED BY RF-SCORE:    0.00 PKD
ROOT
HETATM    1  C   UNL     1      -8.393   4.549  65.625  1.00  0.00    -0.115 C  
HETATM    2  N   UNL     1      -8.959   5.542  66.516  1.00  0.00    -0.120 N  
HETATM    3  C   UNL     1      -8.342   6.812  66.593  1.00  0.00    -0.118 A  
HETATM    4  C   UNL     1      -8.135   7.409  67.842  1.00  0.00    -0.119 A  
HETATM    5  C   UNL     1      -8.650   6.744  69.147  1.00  0.00    -0.131 C  
HETATM    6  C   UNL     1      -7.357   8.597  67.875  1.00  0.00    -0.092 A  
HETATM    7  C   UNL     1      -6.927   9.228  66.711  1.00  0.00    -0.081 A  
HETATM    8  O   UNL     1      -8.235   7.645  70.228  1.00  0.00    -0.119 OA 
HETATM    9  O   UNL     1     -11.080   4.918  65.916  1.00  0.00    -0.178 OA 
HETATM   10  C   UNL     1      -7.190   8.655  65.480  1.00  0.00    -0.084 A  
HETATM   11  C   UNL     1     -10.326   5.461  66.729  1.00  0.00    -0.272 C  
HETATM   12  C   UNL     1      -9.301   8.440  70.673  1.00  0.00    -0.160 C  
HETATM   13 CL   UNL     1      -6.088  10.726  66.811  1.00  0.00    -0.072 Cl 
HETATM   14  C   UNL     1     -10.826   5.769  68.135  1.00  0.00    -0.162 C  
HETATM   15  C   UNL     1      -9.654   9.638  69.815  1.00  0.00    -0.242 C  
HETATM   16  C   UNL     1      -7.865   7.434  65.423  1.00  0.00    -0.118 A  
HETATM   17  C   UNL     1     -10.257   7.740  71.286  1.00  0.00    -0.218 C  
HETATM   18  N   UNL     1     -10.153   6.632  69.104  1.00  0.00    -0.163 N  
HETATM   19  C   UNL     1     -10.934   6.971  70.200  1.00  0.00    -0.272 C  
HETATM   20  O   UNL     1     -12.109   6.657  70.354  1.00  0.00    -0.374 OA 
ENDROOT
BRANCH   5  21
HETATM   21  C   UNL     1      -7.960   5.369  69.403  1.00  0.00    -0.089 A  
HETATM   22  C   UNL     1      -8.131   2.969  69.857  1.00  0.00    -0.059 A  
HETATM   23  C   UNL     1      -8.666   4.261  69.912  1.00  0.00    -0.110 A  
HETATM   24  C   UNL     1      -6.081   3.853  68.972  1.00  0.00    -0.027 A  
HETATM   25  C   UNL     1      -6.621   5.144  69.014  1.00  0.00    -0.051 A  
HETATM   26  C   UNL     1      -6.850   2.762  69.359  1.00  0.00    -0.034 A  
ENDBRANCH   5  21
TORSDOF 1
ENDMDL
MODEL       96
REMARK 921   NORMALIZED FREE ENERGY PREDICTED BY IDOCK:   -3.38 KCAL/MOL
REMARK 922        TOTAL FREE ENERGY PREDICTED BY IDOCK:   -3.89 KCAL/MOL
REMARK 923 INTER-LIGAND FREE ENERGY PREDICTED BY IDOCK:   -3.66 KCAL/MOL
REMARK 924 INTRA-LIGAND FREE ENERGY PREDICTED BY IDOCK:   -0.23 KCAL/MOL
REMARK 927      BINDING AFFINITY PREDICTED BY RF-SCORE:    0.00 PKD
ROOT
HETATM    1  C   UNL     1      -9.521  12.298  65.596  1.00  0.00    -0.068 C  
HETATM    2  N   UNL     1      -9.465  11.496  66.803  1.00  0.00    -0.185 N  
HETATM    3  C   UNL     1      -8.480  11.802  67.772  1.00  0.00    -0.147 A  
HETATM    4  C   UNL     1      -7.748  10.768  68.367  1.00  0.00    -0.113 A  
HETATM    5  C   UNL     1      -8.056   9.279  68.052  1.00  0.00    -0.104 C  
HETATM    6  C   UNL     1      -6.657  11.137  69.198  1.00  0.00    -0.085 A  
HETATM    7  C   UNL     1      -6.398  12.465  69.525  1.00  0.00    -0.116 A  
HETATM    8  O   UNL     1      -7.087   8.511  68.841  1.00  0.00    -0.061 OA 
HETATM    9  O   UNL     1     -11.752  11.457  66.923  1.00  0.00    -0.507 OA 
HETATM   10  C   UNL     1      -7.167  13.474  68.973  1.00  0.00    -0.031 A  
HETATM   11  C   UNL     1     -10.666  10.957  67.234  1.00  0.00    -0.268 C  
HETATM   12  C   UNL     1      -7.672   7.981  70.001  1.00  0.00    -0.088 C  
HETATM   13 CL   UNL     1      -5.134  12.842  70.629  1.00  0.00    -0.104 Cl 
HETATM   14  C   UNL     1     -10.621   9.555  67.827  1.00  0.00    -0.261 C  
HETATM   15  C   UNL     1      -7.853   8.938  71.162  1.00  0.00    -0.172 C  
HETATM   16  C   UNL     1      -8.182  13.145  68.073  1.00  0.00    -0.158 A  
HETATM   17  C   UNL     1      -8.585   7.043  69.746  1.00  0.00    -0.141 C  
HETATM   18  N   UNL     1      -9.463   8.947  68.478  1.00  0.00    -0.147 N  
HETATM   19  C   UNL     1      -9.751   7.780  69.173  1.00  0.00    -0.161 C  
HETATM   20  O   UNL     1     -10.870   7.299  69.314  1.00  0.00    -0.220 OA 
ENDROOT
BRANCH   5  21
HETATM   21  C   UNL     1      -7.797   8.944  66.551  1.00  0.00    -0.100 A  
HETATM   22  C   UNL     1      -8.503   7.855  64.475  1.00  0.00     0.064 A  
HETATM   23  C   UNL     1      -8.524   7.947  65.872  1.00  0.00    -0.147 A  
HETATM   24  C   UNL     1      -6.873   9.617  64.381  1.00  0.00    -0.111 A  
HETATM   25  C   UNL     1      -6.904   9.718  65.777  1.00  0.00    -0.098 A  
HETATM   26  C   UNL     1      -7.701   8.711  63.728  1.00  0.00    -0.136 A  
ENDBRANCH   5  21
TORSDOF 1
ENDMDL
MODEL       97
REMARK 921   NORMALIZED FREE ENERGY PREDICTED BY IDOCK:   -3.30 KCAL/MOL
REMARK 922        TOTAL FREE ENERGY PREDICTED BY IDOCK:   -3.81 KCAL/MOL
REMARK 923 INTER-LIGAND FREE ENERGY PREDICTED BY IDOCK:   -4.22 KCAL/MOL
REMARK 924 INTRA-LIGAND FREE ENERGY PREDICTED BY IDOCK:    0.40 KCAL/MOL
REMARK 927      BINDING AFFINITY PREDICTED BY RF-SCORE:    0.00 PKD
ROOT
HETATM    1  C   UNL     1      -5.128  16.279  67.911  1.00  0.00    -0.120 C  
HETATM    2  N   UNL     1      -6.512  16.672  68.092  1.00  0.00    -0.132 N  
HETATM    3  C   UNL     1      -7.522  15.888  67.487  1.00  0.00    -0.168 A  
HETATM    4  C   UNL     1      -8.580  16.514  66.817  1.00  0.00    -0.263 A  
HETATM    5  C   UNL     1      -8.717  18.061  66.800  1.00  0.00    -0.255 C  
HETATM    6  C   UNL     1      -9.467  15.685  66.080  1.00  0.00    -0.376 A  
HETATM    7  C   UNL     1      -9.382  14.297  66.124  1.00  0.00    -0.160 A  
HETATM    8  O   UNL     1      -9.918  18.331  66.001  1.00  0.00    -0.497 OA 
HETATM    9  O   UNL     1      -6.109  17.201  70.284  1.00  0.00    -0.138 OA 
HETATM   10  C   UNL     1      -8.364  13.690  66.838  1.00  0.00    -0.017 A  
HETATM   11  C   UNL     1      -6.810  17.329  69.275  1.00  0.00    -0.208 C  
HETATM   12  C   UNL     1     -11.020  18.632  66.815  1.00  0.00     0.026 C  
HETATM   13 CL   UNL     1     -10.556  13.344  65.304  1.00  0.00    -0.313 Cl 
HETATM   14  C   UNL     1      -7.830  18.458  69.201  1.00  0.00    -0.011 C  
HETATM   15  C   UNL     1     -11.721  17.455  67.463  1.00  0.00     1.319 C  
HETATM   16  C   UNL     1      -7.418  14.484  67.488  1.00  0.00    -0.216 A  
HETATM   17  C   UNL     1     -10.890  19.788  67.468  1.00  0.00    -0.406 C  
HETATM   18  N   UNL     1      -8.895  18.574  68.207  1.00  0.00    -0.302 N  
HETATM   19  C   UNL     1      -9.853  19.531  68.511  1.00  0.00    -0.429 C  
HETATM   20  O   UNL     1      -9.885  20.196  69.540  1.00  0.00    -0.101 OA 
ENDROOT
BRANCH   5  21
HETATM   21  C   UNL     1      -7.516  18.737  66.070  1.00  0.00    -0.271 A  
HETATM   22  C   UNL     1      -5.568  18.565  64.597  1.00  0.00    -0.172 A  
HETATM   23  C   UNL     1      -6.471  17.986  65.497  1.00  0.00    -0.187 A  
HETATM   24  C   UNL     1      -6.582  20.712  64.956  1.00  0.00    -0.267 A  
HETATM   25  C   UNL     1      -7.494  20.131  65.845  1.00  0.00    -0.284 A  
HETATM   26  C   UNL     1      -5.644  19.922  64.303  1.00  0.00    -0.267 A  
ENDBRANCH   5  21
TORSDOF 1
ENDMDL
MODEL       98
REMARK 921   NORMALIZED FREE ENERGY PREDICTED BY IDOCK:   -3.26 KCAL/MOL
REMARK 922        TOTAL FREE ENERGY PREDICTED BY IDOCK:   -3.77 KCAL/MOL
REMARK 923 INTER-LIGAND FREE ENERGY PREDICTED BY IDOCK:   -3.48 KCAL/MOL
REMARK 924 INTRA-LIGAND FREE ENERGY PREDICTED BY IDOCK:   -0.29 KCAL/MOL
REMARK 927      BINDING AFFINITY PREDICTED BY RF-SCORE:    0.00 PKD
ROOT
HETATM    1  C   UNL     1      -9.796   9.539  68.841  1.00  0.00    -0.174 C  
HETATM    2  N   UNL     1      -8.699   8.629  69.101  1.00  0.00    -0.135 N  
HETATM    3  C   UNL     1      -8.374   7.663  68.120  1.00  0.00    -0.124 A  
HETATM    4  C   UNL     1      -8.114   6.343  68.505  1.00  0.00    -0.110 A  
HETATM    5  C   UNL     1      -8.085   5.932  70.002  1.00  0.00    -0.109 C  
HETATM    6  C   UNL     1      -7.968   5.379  67.471  1.00  0.00    -0.101 A  
HETATM    7  C   UNL     1      -7.946   5.740  66.127  1.00  0.00    -0.102 A  
HETATM    8  O   UNL     1      -7.799   4.493  70.001  1.00  0.00    -0.056 OA 
HETATM    9  O   UNL     1      -7.468  10.325  70.027  1.00  0.00    -0.163 OA 
HETATM   10  C   UNL     1      -8.148   7.060  65.764  1.00  0.00    -0.123 A  
HETATM   11  C   UNL     1      -7.682   9.115  69.907  1.00  0.00    -0.087 C  
HETATM   12  C   UNL     1      -6.455   4.234  70.307  1.00  0.00    -0.031 C  
HETATM   13 CL   UNL     1      -7.650   4.545  64.927  1.00  0.00    -0.076 Cl 
HETATM   14  C   UNL     1      -7.048   8.135  70.886  1.00  0.00    -0.050 C  
HETATM   15  C   UNL     1      -5.459   4.429  69.182  1.00  0.00    -0.012 C  
HETATM   16  C   UNL     1      -8.396   8.011  66.756  1.00  0.00    -0.116 A  
HETATM   17  C   UNL     1      -6.133   4.551  71.561  1.00  0.00    -0.018 C  
HETATM   18  N   UNL     1      -6.991   6.685  70.717  1.00  0.00    -0.066 N  
HETATM   19  C   UNL     1      -6.131   6.043  71.598  1.00  0.00    -0.036 C  
HETATM   20  O   UNL     1      -5.411   6.605  72.417  1.00  0.00    -0.036 OA 
ENDROOT
BRANCH   5  21
HETATM   21  C   UNL     1      -9.477   6.126  70.678  1.00  0.00    -0.185 A  
HETATM   22  C   UNL     1     -10.825   6.975  72.537  1.00  0.00    -0.285 A  
HETATM   23  C   UNL     1      -9.605   6.517  72.025  1.00  0.00    -0.154 A  
HETATM   24  C   UNL     1     -11.892   6.482  70.442  1.00  0.00    -0.378 A  
HETATM   25  C   UNL     1     -10.669   6.036  69.927  1.00  0.00    -0.393 A  
HETATM   26  C   UNL     1     -11.962   6.986  71.735  1.00  0.00    -0.361 A  
ENDBRANCH   5  21
TORSDOF 1
ENDMDL
MODEL       99
REMARK 921   NORMALIZED FREE ENERGY PREDICTED BY IDOCK:   -3.18 KCAL/MOL
REMARK 922        TOTAL FREE ENERGY PREDICTED BY IDOCK:   -3.68 KCAL/MOL
REMARK 923 INTER-LIGAND FREE ENERGY PREDICTED BY IDOCK:   -3.63 KCAL/MOL
REMARK 924 INTRA-LIGAND FREE ENERGY PREDICTED BY IDOCK:   -0.05 KCAL/MOL
REMARK 927      BINDING AFFINITY PREDICTED BY RF-SCORE:    0.00 PKD
ROOT
HETATM    1  C   UNL     1      -7.340  10.020  69.613  1.00  0.00    -0.127 C  
HETATM    2  N   UNL     1      -7.299   8.630  70.024  1.00  0.00    -0.050 N  
HETATM    3  C   UNL     1      -7.508   7.630  69.046  1.00  0.00    -0.095 A  
HETATM    4  C   UNL     1      -8.347   6.546  69.331  1.00  0.00    -0.123 A  
HETATM    5  C   UNL     1      -8.985   6.371  70.735  1.00  0.00    -0.144 C  
HETATM    6  C   UNL     1      -8.661   5.667  68.260  1.00  0.00    -0.106 A  
HETATM    7  C   UNL     1      -8.061   5.786  67.010  1.00  0.00    -0.102 A  
HETATM    8  O   UNL     1      -9.794   5.150  70.640  1.00  0.00    -0.177 OA 
HETATM    9  O   UNL     1      -5.520   9.058  71.403  1.00  0.00    -0.037 OA 
HETATM   10  C   UNL     1      -7.189   6.830  66.761  1.00  0.00    -0.076 A  
HETATM   11  C   UNL     1      -6.476   8.337  71.099  1.00  0.00    -0.041 C  
HETATM   12  C   UNL     1      -9.145   4.055  71.227  1.00  0.00    -0.118 C  
HETATM   13 CL   UNL     1      -8.395   4.622  65.788  1.00  0.00    -0.114 Cl 
HETATM   14  C   UNL     1      -6.975   7.288  72.085  1.00  0.00    -0.063 C  
HETATM   15  C   UNL     1      -8.058   3.394  70.404  1.00  0.00    -0.057 C  
HETATM   16  C   UNL     1      -6.940   7.768  67.765  1.00  0.00    -0.081 A  
HETATM   17  C   UNL     1      -9.020   4.167  72.550  1.00  0.00    -0.127 C  
HETATM   18  N   UNL     1      -7.903   6.204  71.771  1.00  0.00    -0.101 N  
HETATM   19  C   UNL     1      -7.989   5.228  72.755  1.00  0.00    -0.102 C  
HETATM   20  O   UNL     1      -7.318   5.198  73.780  1.00  0.00    -0.081 OA 
ENDROOT
BRANCH   5  21
HETATM   21  C   UNL     1      -9.957   7.542  71.075  1.00  0.00    -0.189 A  
HETATM   22  C   UNL     1     -11.499   9.294  70.335  1.00  0.00    -0.255 A  
HETATM   23  C   UNL     1     -10.412   8.445  70.094  1.00  0.00    -0.230 A  
HETATM   24  C   UNL     1     -11.598   8.527  72.609  1.00  0.00    -0.284 A  
HETATM   25  C   UNL     1     -10.520   7.668  72.364  1.00  0.00    -0.302 A  
HETATM   26  C   UNL     1     -12.111   9.312  71.583  1.00  0.00    -0.451 A  
ENDBRANCH   5  21
TORSDOF 1
ENDMDL
MODEL      100
REMARK 921   NORMALIZED FREE ENERGY PREDICTED BY IDOCK:   -3.09 KCAL/MOL
REMARK 922        TOTAL FREE ENERGY PREDICTED BY IDOCK:   -3.59 KCAL/MOL
REMARK 923 INTER-LIGAND FREE ENERGY PREDICTED BY IDOCK:   -3.28 KCAL/MOL
REMARK 924 INTRA-LIGAND FREE ENERGY PREDICTED BY IDOCK:   -0.31 KCAL/MOL
REMARK 927      BINDING AFFINITY PREDICTED BY RF-SCORE:    0.00 PKD
ROOT
HETATM    1  C   UNL     1      -7.994  10.829  69.115  1.00  0.00    -0.134 C  
HETATM    2  N   UNL     1      -8.650   9.536  69.122  1.00  0.00    -0.133 N  
HETATM    3  C   UNL     1      -8.297   8.605  70.127  1.00  0.00    -0.126 A  
HETATM    4  C   UNL     1      -8.081   7.264  69.785  1.00  0.00    -0.128 A  
HETATM    5  C   UNL     1      -8.309   6.757  68.336  1.00  0.00    -0.123 C  
HETATM    6  C   UNL     1      -7.559   6.411  70.794  1.00  0.00    -0.096 A  
HETATM    7  C   UNL     1      -7.394   6.841  72.107  1.00  0.00    -0.088 A  
HETATM    8  O   UNL     1      -7.970   5.330  68.370  1.00  0.00    -0.087 OA 
HETATM    9  O   UNL     1     -10.654  10.514  68.595  1.00  0.00    -0.177 OA 
HETATM   10  C   UNL     1      -7.666   8.155  72.443  1.00  0.00    -0.161 A  
HETATM   11  C   UNL     1      -9.941   9.505  68.621  1.00  0.00    -0.167 C  
HETATM   12  C   UNL     1      -9.121   4.529  68.416  1.00  0.00    -0.124 C  
HETATM   13 CL   UNL     1      -6.868   5.729  73.310  1.00  0.00    -0.082 Cl 
HETATM   14  C   UNL     1     -10.339   8.277  67.812  1.00  0.00    -0.234 C  
HETATM   15  C   UNL     1      -9.798   4.397  69.765  1.00  0.00    -0.284 C  
HETATM   16  C   UNL     1      -8.083   9.042  71.448  1.00  0.00    -0.101 A  
HETATM   17  C   UNL     1      -9.844   4.586  67.296  1.00  0.00    -0.216 C  
HETATM   18  N   UNL     1      -9.754   6.946  67.950  1.00  0.00    -0.122 N  
HETATM   19  C   UNL     1     -10.465   5.943  67.303  1.00  0.00    -0.262 C  
HETATM   20  O   UNL     1     -11.529   6.100  66.715  1.00  0.00    -0.044 OA 
ENDROOT
BRANCH   5  21
HETATM   21  C   UNL     1      -7.333   7.438  67.328  1.00  0.00    -0.098 A  
HETATM   22  C   UNL     1      -6.964   8.671  65.245  1.00  0.00    -0.075 A  
HETATM   23  C   UNL     1      -7.735   7.804  66.029  1.00  0.00    -0.093 A  
HETATM   24  C   UNL     1      -5.258   8.685  66.935  1.00  0.00    -0.036 A  
HETATM   25  C   UNL     1      -6.035   7.829  67.724  1.00  0.00    -0.041 A  
HETATM   26  C   UNL     1      -5.739   9.136  65.712  1.00  0.00    -0.050 A  
ENDBRANCH   5  21
TORSDOF 1
ENDMDL
MODEL      101
REMARK 921   NORMALIZED FREE ENERGY PREDICTED BY IDOCK:   -3.03 KCAL/MOL
REMARK 922        TOTAL FREE ENERGY PREDICTED BY IDOCK:   -3.53 KCAL/MOL
REMARK 923 INTER-LIGAND FREE ENERGY PREDICTED BY IDOCK:   -3.21 KCAL/MOL
REMARK 924 INTRA-LIGAND FREE ENERGY PREDICTED BY IDOCK:   -0.32 KCAL/MOL
REMARK 927      BINDING AFFINITY PREDICTED BY RF-SCORE:    0.00 PKD
ROOT
HETATM    1  C   UNL     1     -11.338  10.497  65.629  1.00  0.00     0.918 C  
HETATM    2  N   UNL     1     -10.033  10.480  66.260  1.00  0.00    -0.213 N  
HETATM    3  C   UNL     1      -9.935  10.041  67.601  1.00  0.00    -0.176 A  
HETATM    4  C   UNL     1      -9.148  10.758  68.510  1.00  0.00    -0.170 A  
HETATM    5  C   UNL     1      -8.304  11.979  68.055  1.00  0.00    -0.162 C  
HETATM    6  C   UNL     1      -9.224  10.380  69.877  1.00  0.00     0.097 A  
HETATM    7  C   UNL     1      -9.940   9.261  70.292  1.00  0.00    -0.219 A  
HETATM    8  O   UNL     1      -7.641  12.463  69.271  1.00  0.00     0.143 OA 
HETATM    9  O   UNL     1      -9.076   9.695  64.332  1.00  0.00    -0.237 OA 
HETATM   10  C   UNL     1     -10.668   8.528  69.371  1.00  0.00    -0.166 A  
HETATM   11  C   UNL     1      -8.952  10.269  65.418  1.00  0.00    -0.178 C  
HETATM   12  C   UNL     1      -6.302  12.051  69.327  1.00  0.00    -0.102 C  
HETATM   13 CL   UNL     1      -9.900   8.785  71.944  1.00  0.00    -0.384 Cl 
HETATM   14  C   UNL     1      -7.678  11.046  65.722  1.00  0.00     0.037 C  
HETATM   15  C   UNL     1      -6.053  10.622  69.765  1.00  0.00    -0.074 C  
HETATM   16  C   UNL     1     -10.693   8.937  68.037  1.00  0.00    -0.168 A  
HETATM   17  C   UNL     1      -5.541  12.615  68.388  1.00  0.00    -0.060 C  
HETATM   18  N   UNL     1      -7.281  11.542  67.037  1.00  0.00    -0.138 N  
HETATM   19  C   UNL     1      -5.963  11.974  67.107  1.00  0.00    -0.153 C  
HETATM   20  O   UNL     1      -5.147  11.902  66.195  1.00  0.00    -0.320 OA 
ENDROOT
BRANCH   5  21
HETATM   21  C   UNL     1      -9.206  13.138  67.529  1.00  0.00    -0.206 A  
HETATM   22  C   UNL     1     -11.215  14.519  67.747  1.00  0.00    -0.312 A  
HETATM   23  C   UNL     1     -10.524  13.326  67.988  1.00  0.00    -0.248 A  
HETATM   24  C   UNL     1      -9.385  15.312  66.409  1.00  0.00    -0.328 A  
HETATM   25  C   UNL     1      -8.689  14.124  66.660  1.00  0.00    -0.073 A  
HETATM   26  C   UNL     1     -10.633  15.525  66.983  1.00  0.00    -0.311 A  
ENDBRANCH   5  21
TORSDOF 1
ENDMDL
MODEL      102
REMARK 921   NORMALIZED FREE ENERGY PREDICTED BY IDOCK:   -3.01 KCAL/MOL
REMARK 922        TOTAL FREE ENERGY PREDICTED BY IDOCK:   -3.51 KCAL/MOL
REMARK 923 INTER-LIGAND FREE ENERGY PREDICTED BY IDOCK:   -3.18 KCAL/MOL
REMARK 924 INTRA-LIGAND FREE ENERGY PREDICTED BY IDOCK:   -0.33 KCAL/MOL
REMARK 927      BINDING AFFINITY PREDICTED BY RF-SCORE:    0.00 PKD
ROOT
HETATM    1  C   UNL     1      -8.148   3.777  64.038  1.00  0.00    -0.089 C  
HETATM    2  N   UNL     1      -8.679   4.833  64.878  1.00  0.00    -0.144 N  
HETATM    3  C   UNL     1      -8.164   6.141  64.726  1.00  0.00    -0.112 A  
HETATM    4  C   UNL     1      -7.852   6.900  65.861  1.00  0.00    -0.106 A  
HETATM    5  C   UNL     1      -8.146   6.368  67.290  1.00  0.00    -0.113 C  
HETATM    6  C   UNL     1      -7.176   8.132  65.655  1.00  0.00    -0.071 A  
HETATM    7  C   UNL     1      -6.948   8.642  64.380  1.00  0.00    -0.081 A  
HETATM    8  O   UNL     1      -7.675   7.421  68.196  1.00  0.00    -0.115 OA 
HETATM    9  O   UNL     1     -10.800   3.999  64.639  1.00  0.00    -0.256 OA 
HETATM   10  C   UNL     1      -7.313   7.905  63.268  1.00  0.00    -0.107 A  
HETATM   11  C   UNL     1      -9.997   4.688  65.278  1.00  0.00    -0.111 C  
HETATM   12  C   UNL     1      -8.739   8.192  68.687  1.00  0.00    -0.134 C  
HETATM   13 CL   UNL     1      -6.229  10.193  64.197  1.00  0.00    -0.133 Cl 
HETATM   14  C   UNL     1     -10.342   5.133  66.694  1.00  0.00    -0.281 C  
HETATM   15  C   UNL     1      -9.293   9.249  67.752  1.00  0.00    -0.145 C  
HETATM   16  C   UNL     1      -7.887   6.644  63.440  1.00  0.00    -0.106 A  
HETATM   17  C   UNL     1      -9.550   7.511  69.497  1.00  0.00    -0.156 C  
HETATM   18  N   UNL     1      -9.628   6.151  67.460  1.00  0.00    -0.111 N  
HETATM   19  C   UNL     1     -10.292   6.571  68.604  1.00  0.00    -0.191 C  
HETATM   20  O   UNL     1     -11.409   6.201  68.948  1.00  0.00    -0.367 OA 
ENDROOT
BRANCH   5  21
HETATM   21  C   UNL     1      -7.319   5.084  67.606  1.00  0.00    -0.078 A  
HETATM   22  C   UNL     1      -5.198   3.863  67.533  1.00  0.00    -0.011 A  
HETATM   23  C   UNL     1      -6.057   4.846  67.028  1.00  0.00    -0.031 A  
HETATM   24  C   UNL     1      -6.897   3.173  69.084  1.00  0.00    -0.041 A  
HETATM   25  C   UNL     1      -7.751   4.165  68.588  1.00  0.00    -0.062 A  
HETATM   26  C   UNL     1      -5.607   3.047  68.582  1.00  0.00    -0.021 A  
ENDBRANCH   5  21
TORSDOF 1
ENDMDL
MODEL      103
REMARK 921   NORMALIZED FREE ENERGY PREDICTED BY IDOCK:   -2.99 KCAL/MOL
REMARK 922        TOTAL FREE ENERGY PREDICTED BY IDOCK:   -3.49 KCAL/MOL
REMARK 923 INTER-LIGAND FREE ENERGY PREDICTED BY IDOCK:   -4.49 KCAL/MOL
REMARK 924 INTRA-LIGAND FREE ENERGY PREDICTED BY IDOCK:    1.00 KCAL/MOL
REMARK 927      BINDING AFFINITY PREDICTED BY RF-SCORE:    0.00 PKD
ROOT
HETATM    1  C   UNL     1     -11.398   5.618  71.959  1.00  0.00    -0.176 C  
HETATM    2  N   UNL     1     -11.684   6.821  71.203  1.00  0.00    -0.327 N  
HETATM    3  C   UNL     1     -11.208   6.913  69.874  1.00  0.00    -0.285 A  
HETATM    4  C   UNL     1     -10.608   8.098  69.432  1.00  0.00    -0.206 A  
HETATM    5  C   UNL     1     -10.533   9.351  70.346  1.00  0.00    -0.256 C  
HETATM    6  C   UNL     1      -9.992   8.079  68.153  1.00  0.00    -0.217 A  
HETATM    7  C   UNL     1     -10.090   6.979  67.306  1.00  0.00    -0.204 A  
HETATM    8  O   UNL     1      -9.834  10.367  69.551  1.00  0.00    -0.222 OA 
HETATM    9  O   UNL     1     -13.805   6.897  72.065  1.00  0.00    -0.211 OA 
HETATM   10  C   UNL     1     -10.737   5.834  67.735  1.00  0.00    -0.306 A  
HETATM   11  C   UNL     1     -12.858   7.481  71.528  1.00  0.00    -0.360 C  
HETATM   12  C   UNL     1     -10.728  11.299  69.005  1.00  0.00    -0.217 C  
HETATM   13 CL   UNL     1      -9.423   7.058  65.722  1.00  0.00     0.136 Cl 
HETATM   14  C   UNL     1     -12.824   9.004  71.503  1.00  0.00    -0.336 C  
HETATM   15  C   UNL     1     -11.489  10.861  67.770  1.00  0.00    -0.323 C  
HETATM   16  C   UNL     1     -11.263   5.789  69.027  1.00  0.00    -0.001 A  
HETATM   17  C   UNL     1     -11.314  12.065  69.926  1.00  0.00    -0.144 C  
HETATM   18  N   UNL     1     -11.925   9.818  70.688  1.00  0.00    -0.275 N  
HETATM   19  C   UNL     1     -12.270  11.162  70.633  1.00  0.00    -0.397 C  
HETATM   20  O   UNL     1     -13.267  11.657  71.147  1.00  0.00    -0.167 OA 
ENDROOT
BRANCH   5  21
HETATM   21  C   UNL     1      -9.669   9.085  71.617  1.00  0.00    -0.347 A  
HETATM   22  C   UNL     1      -9.446   8.135  73.863  1.00  0.00     0.373 A  
HETATM   23  C   UNL     1     -10.238   8.655  72.832  1.00  0.00     0.182 A  
HETATM   24  C   UNL     1      -7.466   8.639  72.599  1.00  0.00     0.010 A  
HETATM   25  C   UNL     1      -8.259   9.146  71.562  1.00  0.00     0.071 A  
HETATM   26  C   UNL     1      -8.062   8.099  73.733  1.00  0.00    -0.285 A  
ENDBRANCH   5  21
TORSDOF 1
ENDMDL
MODEL      104
REMARK 921   NORMALIZED FREE ENERGY PREDICTED BY IDOCK:   -2.86 KCAL/MOL
REMARK 922        TOTAL FREE ENERGY PREDICTED BY IDOCK:   -3.35 KCAL/MOL
REMARK 923 INTER-LIGAND FREE ENERGY PREDICTED BY IDOCK:   -3.04 KCAL/MOL
REMARK 924 INTRA-LIGAND FREE ENERGY PREDICTED BY IDOCK:   -0.32 KCAL/MOL
REMARK 927      BINDING AFFINITY PREDICTED BY RF-SCORE:    0.00 PKD
ROOT
HETATM    1  C   UNL     1     -11.087   7.992  68.689  1.00  0.00     0.354 C  
HETATM    2  N   UNL     1     -10.489   7.902  70.006  1.00  0.00    -0.226 N  
HETATM    3  C   UNL     1      -9.285   8.604  70.252  1.00  0.00    -0.166 A  
HETATM    4  C   UNL     1      -8.242   7.973  70.940  1.00  0.00    -0.103 A  
HETATM    5  C   UNL     1      -8.411   6.543  71.522  1.00  0.00    -0.121 C  
HETATM    6  C   UNL     1      -6.998   8.656  71.006  1.00  0.00    -0.069 A  
HETATM    7  C   UNL     1      -6.846   9.954  70.529  1.00  0.00    -0.118 A  
HETATM    8  O   UNL     1      -7.121   6.228  72.147  1.00  0.00    -0.076 OA 
HETATM    9  O   UNL     1     -12.553   8.038  70.989  1.00  0.00    -0.213 OA 
HETATM   10  C   UNL     1      -7.904  10.587  69.901  1.00  0.00     0.033 A  
HETATM   11  C   UNL     1     -11.365   7.710  71.062  1.00  0.00    -0.272 C  
HETATM   12  C   UNL     1      -7.173   6.379  73.540  1.00  0.00    -0.082 C  
HETATM   13 CL   UNL     1      -5.348  10.772  70.741  1.00  0.00    -0.095 Cl 
HETATM   14  C   UNL     1     -10.901   6.793  72.187  1.00  0.00    -0.227 C  
HETATM   15  C   UNL     1      -7.078   7.796  74.068  1.00  0.00    -0.139 C  
HETATM   16  C   UNL     1      -9.108   9.901  69.733  1.00  0.00    -0.249 A  
HETATM   17  C   UNL     1      -7.964   5.485  74.135  1.00  0.00    -0.102 C  
HETATM   18  N   UNL     1      -9.510   6.538  72.553  1.00  0.00    -0.145 N  
HETATM   19  C   UNL     1      -9.354   5.891  73.772  1.00  0.00    -0.131 C  
HETATM   20  O   UNL     1     -10.265   5.600  74.539  1.00  0.00    -0.257 OA 
ENDROOT
BRANCH   5  21
HETATM   21  C   UNL     1      -8.648   5.489  70.397  1.00  0.00    -0.131 A  
HETATM   22  C   UNL     1     -10.034   3.732  69.404  1.00  0.00     0.192 A  
HETATM   23  C   UNL     1      -9.620   4.476  70.515  1.00  0.00    -0.274 A  
HETATM   24  C   UNL     1      -8.384   4.832  68.049  1.00  0.00    -0.102 A  
HETATM   25  C   UNL     1      -7.980   5.586  69.157  1.00  0.00    -0.095 A  
HETATM   26  C   UNL     1      -9.437   3.932  68.164  1.00  0.00    -0.219 A  
ENDBRANCH   5  21
TORSDOF 1
ENDMDL
MODEL      105
REMARK 921   NORMALIZED FREE ENERGY PREDICTED BY IDOCK:   -2.85 KCAL/MOL
REMARK 922        TOTAL FREE ENERGY PREDICTED BY IDOCK:   -3.34 KCAL/MOL
REMARK 923 INTER-LIGAND FREE ENERGY PREDICTED BY IDOCK:   -3.13 KCAL/MOL
REMARK 924 INTRA-LIGAND FREE ENERGY PREDICTED BY IDOCK:   -0.21 KCAL/MOL
REMARK 927      BINDING AFFINITY PREDICTED BY RF-SCORE:    0.00 PKD
ROOT
HETATM    1  C   UNL     1      -7.647  12.270  68.933  1.00  0.00     0.021 C  
HETATM    2  N   UNL     1      -7.161  10.945  69.261  1.00  0.00    -0.118 N  
HETATM    3  C   UNL     1      -7.050   9.989  68.224  1.00  0.00    -0.072 A  
HETATM    4  C   UNL     1      -7.497   8.680  68.437  1.00  0.00    -0.095 A  
HETATM    5  C   UNL     1      -8.033   8.227  69.822  1.00  0.00    -0.106 C  
HETATM    6  C   UNL     1      -7.525   7.811  67.313  1.00  0.00    -0.093 A  
HETATM    7  C   UNL     1      -7.007   8.189  66.078  1.00  0.00    -0.058 A  
HETATM    8  O   UNL     1      -8.411   6.820  69.647  1.00  0.00    -0.129 OA 
HETATM    9  O   UNL     1      -5.598  11.835  70.680  1.00  0.00    -0.144 OA 
HETATM   10  C   UNL     1      -6.515   9.469  65.899  1.00  0.00    -0.077 A  
HETATM   11  C   UNL     1      -6.278  10.866  70.326  1.00  0.00    -0.141 C  
HETATM   12  C   UNL     1      -7.441   5.956  70.175  1.00  0.00    -0.082 C  
HETATM   13 CL   UNL     1      -6.963   7.053  64.787  1.00  0.00    -0.053 Cl 
HETATM   14  C   UNL     1      -6.407   9.657  71.243  1.00  0.00     0.021 C  
HETATM   15  C   UNL     1      -6.208   5.727  69.325  1.00  0.00    -0.032 C  
HETATM   16  C   UNL     1      -6.569  10.377  66.959  1.00  0.00    -0.075 A  
HETATM   17  C   UNL     1      -7.345   6.025  71.504  1.00  0.00    -0.088 C  
HETATM   18  N   UNL     1      -6.944   8.354  70.857  1.00  0.00    -0.048 N  
HETATM   19  C   UNL     1      -6.704   7.345  71.780  1.00  0.00    -0.053 C  
HETATM   20  O   UNL     1      -6.048   7.470  72.808  1.00  0.00    -0.049 OA 
ENDROOT
BRANCH   5  21
HETATM   21  C   UNL     1      -9.324   9.005  70.221  1.00  0.00    -0.227 A  
HETATM   22  C   UNL     1     -11.420  10.096  69.579  1.00  0.00    -0.227 A  
HETATM   23  C   UNL     1     -10.125   9.663  69.268  1.00  0.00    -0.201 A  
HETATM   24  C   UNL     1     -11.099   9.420  71.862  1.00  0.00    -0.194 A  
HETATM   25  C   UNL     1      -9.810   8.975  71.547  1.00  0.00    -0.381 A  
HETATM   26  C   UNL     1     -11.917   9.946  70.869  1.00  0.00    -0.434 A  
ENDBRANCH   5  21
TORSDOF 1
ENDMDL
MODEL      106
REMARK 921   NORMALIZED FREE ENERGY PREDICTED BY IDOCK:   -2.84 KCAL/MOL
REMARK 922        TOTAL FREE ENERGY PREDICTED BY IDOCK:   -3.33 KCAL/MOL
REMARK 923 INTER-LIGAND FREE ENERGY PREDICTED BY IDOCK:   -3.00 KCAL/MOL
REMARK 924 INTRA-LIGAND FREE ENERGY PREDICTED BY IDOCK:   -0.32 KCAL/MOL
REMARK 927      BINDING AFFINITY PREDICTED BY RF-SCORE:    0.00 PKD
ROOT
HETATM    1  C   UNL     1      -9.785   4.011  71.849  1.00  0.00    -0.167 C  
HETATM    2  N   UNL     1      -9.678   4.939  70.740  1.00  0.00    -0.183 N  
HETATM    3  C   UNL     1      -9.217   4.454  69.494  1.00  0.00    -0.130 A  
HETATM    4  C   UNL     1      -8.273   5.191  68.769  1.00  0.00    -0.085 A  
HETATM    5  C   UNL     1      -7.786   6.580  69.263  1.00  0.00    -0.101 C  
HETATM    6  C   UNL     1      -7.713   4.578  67.617  1.00  0.00    -0.085 A  
HETATM    7  C   UNL     1      -8.173   3.355  67.138  1.00  0.00    -0.091 A  
HETATM    8  O   UNL     1      -6.807   7.023  68.263  1.00  0.00    -0.068 OA 
HETATM    9  O   UNL     1     -11.650   5.937  71.345  1.00  0.00    -0.214 OA 
HETATM   10  C   UNL     1      -9.148   2.664  67.835  1.00  0.00    -0.227 A  
HETATM   11  C   UNL     1     -10.573   5.997  70.743  1.00  0.00    -0.255 C  
HETATM   12  C   UNL     1      -7.361   7.963  67.382  1.00  0.00    -0.092 C  
HETATM   13 CL   UNL     1      -7.537   2.718  65.672  1.00  0.00    -0.075 Cl 
HETATM   14  C   UNL     1     -10.050   7.344  70.260  1.00  0.00    -0.197 C  
HETATM   15  C   UNL     1      -8.239   7.416  66.275  1.00  0.00    -0.126 C  
HETATM   16  C   UNL     1      -9.643   3.196  69.027  1.00  0.00    -0.084 A  
HETATM   17  C   UNL     1      -7.655   9.123  67.971  1.00  0.00    -0.085 C  
HETATM   18  N   UNL     1      -8.948   7.538  69.321  1.00  0.00    -0.136 N  
HETATM   19  C   UNL     1      -8.842   8.833  68.829  1.00  0.00    -0.134 C  
HETATM   20  O   UNL     1      -9.619   9.748  69.078  1.00  0.00    -0.163 OA 
ENDROOT
BRANCH   5  21
HETATM   21  C   UNL     1      -7.036   6.476  70.627  1.00  0.00    -0.064 A  
HETATM   22  C   UNL     1      -6.801   7.150  72.969  1.00  0.00    -0.068 A  
HETATM   23  C   UNL     1      -7.235   7.409  71.663  1.00  0.00    -0.071 A  
HETATM   24  C   UNL     1      -5.771   5.112  72.225  1.00  0.00    -0.017 A  
HETATM   25  C   UNL     1      -6.217   5.364  70.922  1.00  0.00    -0.030 A  
HETATM   26  C   UNL     1      -6.096   5.987  73.255  1.00  0.00    -0.057 A  
ENDBRANCH   5  21
TORSDOF 1
ENDMDL
MODEL      107
REMARK 921   NORMALIZED FREE ENERGY PREDICTED BY IDOCK:   -2.75 KCAL/MOL
REMARK 922        TOTAL FREE ENERGY PREDICTED BY IDOCK:   -3.23 KCAL/MOL
REMARK 923 INTER-LIGAND FREE ENERGY PREDICTED BY IDOCK:   -4.53 KCAL/MOL
REMARK 924 INTRA-LIGAND FREE ENERGY PREDICTED BY IDOCK:    1.29 KCAL/MOL
REMARK 927      BINDING AFFINITY PREDICTED BY RF-SCORE:    0.00 PKD
ROOT
HETATM    1  C   UNL     1      -9.312  10.268  69.953  1.00  0.00     0.004 C  
HETATM    2  N   UNL     1      -9.589  10.934  68.696  1.00  0.00    -0.184 N  
HETATM    3  C   UNL     1      -8.729  11.978  68.280  1.00  0.00    -0.178 A  
HETATM    4  C   UNL     1      -9.273  13.160  67.763  1.00  0.00    -0.203 A  
HETATM    5  C   UNL     1     -10.803  13.316  67.551  1.00  0.00    -0.263 C  
HETATM    6  C   UNL     1      -8.380  14.239  67.527  1.00  0.00    -0.198 A  
HETATM    7  C   UNL     1      -7.002  14.098  67.670  1.00  0.00    -0.184 A  
HETATM    8  O   UNL     1     -10.981  14.672  67.017  1.00  0.00    -0.302 OA 
HETATM    9  O   UNL     1     -10.131   8.934  67.718  1.00  0.00    -0.185 OA 
HETATM   10  C   UNL     1      -6.475  12.904  68.128  1.00  0.00    -0.096 A  
HETATM   11  C   UNL     1     -10.209  10.167  67.723  1.00  0.00    -0.191 C  
HETATM   12  C   UNL     1     -11.184  14.656  65.630  1.00  0.00    -0.342 C  
HETATM   13 CL   UNL     1      -5.963  15.405  67.258  1.00  0.00     0.052 Cl 
HETATM   14  C   UNL     1     -11.251  10.862  66.856  1.00  0.00    -0.086 C  
HETATM   15  C   UNL     1      -9.948  14.483  64.770  1.00  0.00     0.048 C  
HETATM   16  C   UNL     1      -7.338  11.860  68.465  1.00  0.00    -0.111 A  
HETATM   17  C   UNL     1     -12.341  14.095  65.275  1.00  0.00    -0.469 C  
HETATM   18  N   UNL     1     -11.288  12.292  66.557  1.00  0.00    -0.331 N  
HETATM   19  C   UNL     1     -12.161  12.636  65.534  1.00  0.00    -0.440 C  
HETATM   20  O   UNL     1     -12.814  11.841  64.866  1.00  0.00    -0.020 OA 
ENDROOT
BRANCH   5  21
HETATM   21  C   UNL     1     -11.581  13.247  68.901  1.00  0.00    -0.357 A  
HETATM   22  C   UNL     1     -12.886  14.358  70.649  1.00  0.00    -0.390 A  
HETATM   23  C   UNL     1     -11.944  14.406  69.615  1.00  0.00    -0.385 A  
HETATM   24  C   UNL     1     -12.996  11.968  70.443  1.00  0.00     0.310 A  
HETATM   25  C   UNL     1     -12.064  12.017  69.400  1.00  0.00    -0.261 A  
HETATM   26  C   UNL     1     -13.435  13.142  71.042  1.00  0.00     0.233 A  
ENDBRANCH   5  21
TORSDOF 1
ENDMDL
MODEL      108
REMARK 921   NORMALIZED FREE ENERGY PREDICTED BY IDOCK:   -2.73 KCAL/MOL
REMARK 922        TOTAL FREE ENERGY PREDICTED BY IDOCK:   -3.21 KCAL/MOL
REMARK 923 INTER-LIGAND FREE ENERGY PREDICTED BY IDOCK:   -2.89 KCAL/MOL
REMARK 924 INTRA-LIGAND FREE ENERGY PREDICTED BY IDOCK:   -0.32 KCAL/MOL
REMARK 927      BINDING AFFINITY PREDICTED BY RF-SCORE:    0.00 PKD
ROOT
HETATM    1  C   UNL     1     -10.478   5.087  70.543  1.00  0.00    -0.160 C  
HETATM    2  N   UNL     1      -9.874   6.169  69.790  1.00  0.00    -0.159 N  
HETATM    3  C   UNL     1      -9.610   5.970  68.414  1.00  0.00    -0.120 A  
HETATM    4  C   UNL     1      -8.384   6.381  67.877  1.00  0.00    -0.118 A  
HETATM    5  C   UNL     1      -7.339   7.135  68.743  1.00  0.00    -0.096 C  
HETATM    6  C   UNL     1      -8.099   6.001  66.539  1.00  0.00    -0.109 A  
HETATM    7  C   UNL     1      -9.044   5.365  65.738  1.00  0.00    -0.154 A  
HETATM    8  O   UNL     1      -6.202   7.378  67.848  1.00  0.00    -0.040 OA 
HETATM    9  O   UNL     1     -11.186   7.700  70.877  1.00  0.00    -0.259 OA 
HETATM   10  C   UNL     1     -10.274   5.016  66.267  1.00  0.00    -0.306 A  
HETATM   11  C   UNL     1     -10.168   7.452  70.224  1.00  0.00    -0.200 C  
HETATM   12  C   UNL     1      -6.190   8.700  67.378  1.00  0.00    -0.056 C  
HETATM   13 CL   UNL     1      -8.682   5.034  64.089  1.00  0.00    -0.129 Cl 
HETATM   14  C   UNL     1      -9.045   8.479  70.153  1.00  0.00    -0.152 C  
HETATM   15  C   UNL     1      -7.145   9.022  66.247  1.00  0.00    -0.086 C  
HETATM   16  C   UNL     1     -10.542   5.287  67.610  1.00  0.00    -0.126 A  
HETATM   17  C   UNL     1      -5.948   9.595  68.337  1.00  0.00    -0.043 C  
HETATM   18  N   UNL     1      -7.919   8.441  69.223  1.00  0.00    -0.111 N  
HETATM   19  C   UNL     1      -7.187   9.619  69.169  1.00  0.00    -0.068 C  
HETATM   20  O   UNL     1      -7.461  10.649  69.776  1.00  0.00    -0.150 OA 
ENDROOT
BRANCH   5  21
HETATM   21  C   UNL     1      -6.819   6.250  69.917  1.00  0.00    -0.058 A  
HETATM   22  C   UNL     1      -6.499   5.899  72.319  1.00  0.00    -0.058 A  
HETATM   23  C   UNL     1      -6.672   6.754  71.225  1.00  0.00    -0.057 A  
HETATM   24  C   UNL     1      -6.405   4.013  70.834  1.00  0.00    -0.019 A  
HETATM   25  C   UNL     1      -6.592   4.867  69.741  1.00  0.00    -0.036 A  
HETATM   26  C   UNL     1      -6.396   4.525  72.126  1.00  0.00    -0.022 A  
ENDBRANCH   5  21
TORSDOF 1
ENDMDL
MODEL      109
REMARK 921   NORMALIZED FREE ENERGY PREDICTED BY IDOCK:   -2.33 KCAL/MOL
REMARK 922        TOTAL FREE ENERGY PREDICTED BY IDOCK:   -2.78 KCAL/MOL
REMARK 923 INTER-LIGAND FREE ENERGY PREDICTED BY IDOCK:   -2.95 KCAL/MOL
REMARK 924 INTRA-LIGAND FREE ENERGY PREDICTED BY IDOCK:    0.16 KCAL/MOL
REMARK 927      BINDING AFFINITY PREDICTED BY RF-SCORE:    0.00 PKD
ROOT
HETATM    1  C   UNL     1      -5.828  12.938  67.336  1.00  0.00    -0.060 C  
HETATM    2  N   UNL     1      -7.181  13.152  67.813  1.00  0.00    -0.130 N  
HETATM    3  C   UNL     1      -8.259  12.822  66.959  1.00  0.00    -0.095 A  
HETATM    4  C   UNL     1      -9.339  13.704  66.832  1.00  0.00    -0.261 A  
HETATM    5  C   UNL     1      -9.422  15.002  67.681  1.00  0.00    -0.195 C  
HETATM    6  C   UNL     1     -10.305  13.411  65.834  1.00  0.00    -0.290 A  
HETATM    7  C   UNL     1     -10.268  12.231  65.098  1.00  0.00    -0.279 A  
HETATM    8  O   UNL     1     -10.666  15.657  67.262  1.00  0.00    -0.299 OA 
HETATM    9  O   UNL     1      -6.603  12.387  69.893  1.00  0.00    -0.039 OA 
HETATM   10  C   UNL     1      -9.224  11.340  65.275  1.00  0.00    -0.191 A  
HETATM   11  C   UNL     1      -7.369  13.044  69.181  1.00  0.00     0.143 C  
HETATM   12  C   UNL     1     -11.696  15.447  68.191  1.00  0.00    -0.261 C  
HETATM   13 CL   UNL     1     -11.531  11.877  63.985  1.00  0.00    -0.464 Cl 
HETATM   14  C   UNL     1      -8.351  14.016  69.823  1.00  0.00     1.096 C  
HETATM   15  C   UNL     1     -12.390  14.102  68.136  1.00  0.00    -0.007 C  
HETATM   16  C   UNL     1      -8.205  11.652  66.177  1.00  0.00     0.085 A  
HETATM   17  C   UNL     1     -11.478  16.051  69.360  1.00  0.00    -0.336 C  
HETATM   18  N   UNL     1      -9.479  14.651  69.146  1.00  0.00    -0.124 N  
HETATM   19  C   UNL     1     -10.379  15.272  70.002  1.00  0.00    -0.221 C  
HETATM   20  O   UNL     1     -10.313  15.258  71.226  1.00  0.00     0.219 OA 
ENDROOT
BRANCH   5  21
HETATM   21  C   UNL     1      -8.253  15.980  67.352  1.00  0.00    -0.189 A  
HETATM   22  C   UNL     1      -7.288  17.718  65.921  1.00  0.00    -0.234 A  
HETATM   23  C   UNL     1      -8.150  16.630  66.106  1.00  0.00    -0.273 A  
HETATM   24  C   UNL     1      -6.444  17.430  68.151  1.00  0.00    -0.168 A  
HETATM   25  C   UNL     1      -7.315  16.352  68.340  1.00  0.00    -0.168 A  
HETATM   26  C   UNL     1      -6.457  18.137  66.954  1.00  0.00    -0.205 A  
ENDBRANCH   5  21
TORSDOF 1
ENDMDL
MODEL      110
REMARK 921   NORMALIZED FREE ENERGY PREDICTED BY IDOCK:   -2.28 KCAL/MOL
REMARK 922        TOTAL FREE ENERGY PREDICTED BY IDOCK:   -2.73 KCAL/MOL
REMARK 923 INTER-LIGAND FREE ENERGY PREDICTED BY IDOCK:   -2.41 KCAL/MOL
REMARK 924 INTRA-LIGAND FREE ENERGY PREDICTED BY IDOCK:   -0.32 KCAL/MOL
REMARK 927      BINDING AFFINITY PREDICTED BY RF-SCORE:    0.00 PKD
ROOT
HETATM    1  C   UNL     1     -11.530   5.805  66.686  1.00  0.00     0.794 C  
HETATM    2  N   UNL     1     -10.369   5.635  67.538  1.00  0.00    -0.206 N  
HETATM    3  C   UNL     1     -10.398   6.190  68.839  1.00  0.00    -0.208 A  
HETATM    4  C   UNL     1      -9.282   6.883  69.322  1.00  0.00    -0.139 A  
HETATM    5  C   UNL     1      -7.974   6.980  68.492  1.00  0.00    -0.123 C  
HETATM    6  C   UNL     1      -9.426   7.569  70.558  1.00  0.00    -0.164 A  
HETATM    7  C   UNL     1     -10.576   7.453  71.333  1.00  0.00    -0.214 A  
HETATM    8  O   UNL     1      -7.058   7.783  69.310  1.00  0.00    -0.071 OA 
HETATM    9  O   UNL     1     -10.115   3.476  66.814  1.00  0.00     0.163 OA 
HETATM   10  C   UNL     1     -11.650   6.716  70.868  1.00  0.00    -0.416 A  
HETATM   11  C   UNL     1      -9.624   4.485  67.330  1.00  0.00    -0.185 C  
HETATM   12  C   UNL     1      -6.118   6.978  69.971  1.00  0.00    -0.024 C  
HETATM   13 CL   UNL     1     -10.647   8.213  72.875  1.00  0.00    -0.397 Cl 
HETATM   14  C   UNL     1      -8.111   4.611  67.456  1.00  0.00    -0.101 C  
HETATM   15  C   UNL     1      -6.600   6.264  71.217  1.00  0.00    -0.051 C  
HETATM   16  C   UNL     1     -11.574   6.116  69.610  1.00  0.00    -0.156 A  
HETATM   17  C   UNL     1      -5.258   6.388  69.140  1.00  0.00    -0.012 C  
HETATM   18  N   UNL     1      -7.408   5.602  68.267  1.00  0.00    -0.075 N  
HETATM   19  C   UNL     1      -6.054   5.341  68.434  1.00  0.00    -0.026 C  
HETATM   20  O   UNL     1      -5.469   4.348  68.016  1.00  0.00    -0.014 OA 
ENDROOT
BRANCH   5  21
HETATM   21  C   UNL     1      -8.197   7.754  67.156  1.00  0.00    -0.118 A  
HETATM   22  C   UNL     1      -8.045   7.845  64.714  1.00  0.00    -0.141 A  
HETATM   23  C   UNL     1      -7.610   7.339  65.945  1.00  0.00    -0.090 A  
HETATM   24  C   UNL     1      -9.526   9.352  65.855  1.00  0.00    -0.315 A  
HETATM   25  C   UNL     1      -9.102   8.836  67.085  1.00  0.00    -0.155 A  
HETATM   26  C   UNL     1      -9.025   8.830  64.669  1.00  0.00     0.032 A  
ENDBRANCH   5  21
TORSDOF 1
ENDMDL
MODEL      111
REMARK 921   NORMALIZED FREE ENERGY PREDICTED BY IDOCK:   -2.27 KCAL/MOL
REMARK 922        TOTAL FREE ENERGY PREDICTED BY IDOCK:   -2.72 KCAL/MOL
REMARK 923 INTER-LIGAND FREE ENERGY PREDICTED BY IDOCK:   -2.40 KCAL/MOL
REMARK 924 INTRA-LIGAND FREE ENERGY PREDICTED BY IDOCK:   -0.32 KCAL/MOL
REMARK 927      BINDING AFFINITY PREDICTED BY RF-SCORE:    0.00 PKD
ROOT
HETATM    1  C   UNL     1      -8.300  13.678  66.291  1.00  0.00     0.926 C  
HETATM    2  N   UNL     1      -9.079  13.417  67.485  1.00  0.00    -0.204 N  
HETATM    3  C   UNL     1      -9.083  12.106  68.018  1.00  0.00    -0.190 A  
HETATM    4  C   UNL     1     -10.288  11.530  68.435  1.00  0.00    -0.214 A  
HETATM    5  C   UNL     1     -11.616  12.335  68.411  1.00  0.00    -0.326 C  
HETATM    6  C   UNL     1     -10.264  10.156  68.795  1.00  0.00    -0.200 A  
HETATM    7  C   UNL     1      -9.075   9.436  68.865  1.00  0.00    -0.140 A  
HETATM    8  O   UNL     1     -12.639  11.404  68.899  1.00  0.00    -0.268 OA 
HETATM    9  O   UNL     1      -8.427  15.419  68.387  1.00  0.00    -0.151 OA 
HETATM   10  C   UNL     1      -7.882  10.036  68.504  1.00  0.00    -0.093 A  
HETATM   11  C   UNL     1      -9.230  14.481  68.359  1.00  0.00    -0.196 C  
HETATM   12  C   UNL     1     -12.966  11.655  70.239  1.00  0.00     0.315 C  
HETATM   13 CL   UNL     1      -9.095   7.807  69.419  1.00  0.00    -0.146 Cl 
HETATM   14  C   UNL     1     -10.580  14.621  69.051  1.00  0.00    -0.247 C  
HETATM   15  C   UNL     1     -11.998  11.129  71.279  1.00  0.00    -0.051 C  
HETATM   16  C   UNL     1      -7.892  11.356  68.048  1.00  0.00    -0.121 A  
HETATM   17  C   UNL     1     -13.586  12.822  70.418  1.00  0.00     1.781 C  
HETATM   18  N   UNL     1     -11.508  13.526  69.328  1.00  0.00    -0.279 N  
HETATM   19  C   UNL     1     -12.533  13.859  70.203  1.00  0.00    -0.292 C  
HETATM   20  O   UNL     1     -12.654  14.939  70.771  1.00  0.00    -0.311 OA 
ENDROOT
BRANCH   5  21
HETATM   21  C   UNL     1     -12.016  12.740  66.959  1.00  0.00    -0.364 A  
HETATM   22  C   UNL     1     -12.600  14.474  65.331  1.00  0.00    -0.239 A  
HETATM   23  C   UNL     1     -12.528  14.016  66.652  1.00  0.00    -0.296 A  
HETATM   24  C   UNL     1     -11.847  12.332  64.546  1.00  0.00    -0.441 A  
HETATM   25  C   UNL     1     -11.761  11.880  65.868  1.00  0.00    -0.208 A  
HETATM   26  C   UNL     1     -12.230  13.641  64.280  1.00  0.00    -0.445 A  
ENDBRANCH   5  21
TORSDOF 1
ENDMDL
MODEL      112
REMARK 921   NORMALIZED FREE ENERGY PREDICTED BY IDOCK:   -2.22 KCAL/MOL
REMARK 922        TOTAL FREE ENERGY PREDICTED BY IDOCK:   -2.67 KCAL/MOL
REMARK 923 INTER-LIGAND FREE ENERGY PREDICTED BY IDOCK:   -2.46 KCAL/MOL
REMARK 924 INTRA-LIGAND FREE ENERGY PREDICTED BY IDOCK:   -0.21 KCAL/MOL
REMARK 927      BINDING AFFINITY PREDICTED BY RF-SCORE:    0.00 PKD
ROOT
HETATM    1  C   UNL     1     -11.492   6.512  69.259  1.00  0.00    -0.238 C  
HETATM    2  N   UNL     1     -10.307   6.500  68.424  1.00  0.00    -0.172 N  
HETATM    3  C   UNL     1      -9.048   6.303  69.038  1.00  0.00    -0.129 A  
HETATM    4  C   UNL     1      -7.962   7.103  68.666  1.00  0.00    -0.123 A  
HETATM    5  C   UNL     1      -8.086   8.147  67.524  1.00  0.00    -0.123 C  
HETATM    6  C   UNL     1      -6.773   6.985  69.434  1.00  0.00    -0.049 A  
HETATM    7  C   UNL     1      -6.633   6.023  70.430  1.00  0.00    -0.044 A  
HETATM    8  O   UNL     1      -6.767   8.785  67.441  1.00  0.00    -0.064 OA 
HETATM    9  O   UNL     1     -11.415   5.302  66.815  1.00  0.00     0.771 OA 
HETATM   10  C   UNL     1      -7.698   5.200  70.748  1.00  0.00    -0.080 A  
HETATM   11  C   UNL     1     -10.482   6.050  67.125  1.00  0.00    -0.264 C  
HETATM   12  C   UNL     1      -6.016   8.280  66.370  1.00  0.00    -0.041 C  
HETATM   13 CL   UNL     1      -5.129   5.852  71.247  1.00  0.00    -0.012 Cl 
HETATM   14  C   UNL     1      -9.688   6.760  66.035  1.00  0.00     0.216 C  
HETATM   15  C   UNL     1      -5.349   6.937  66.589  1.00  0.00    -0.018 C  
HETATM   16  C   UNL     1      -8.912   5.363  70.078  1.00  0.00    -0.152 A  
HETATM   17  C   UNL     1      -6.522   8.599  65.178  1.00  0.00    -0.064 C  
HETATM   18  N   UNL     1      -8.415   7.450  66.228  1.00  0.00    -0.130 N  
HETATM   19  C   UNL     1      -7.761   7.775  65.047  1.00  0.00    -0.107 C  
HETATM   20  O   UNL     1      -8.142   7.472  63.922  1.00  0.00    -0.116 OA 
ENDROOT
BRANCH   5  21
HETATM   21  C   UNL     1      -9.117   9.264  67.874  1.00  0.00    -0.133 A  
HETATM   22  C   UNL     1     -10.967  10.720  67.204  1.00  0.00    -0.324 A  
HETATM   23  C   UNL     1      -9.845   9.948  66.881  1.00  0.00    -0.252 A  
HETATM   24  C   UNL     1     -10.567  10.331  69.540  1.00  0.00    -0.270 A  
HETATM   25  C   UNL     1      -9.453   9.547  69.217  1.00  0.00    -0.171 A  
HETATM   26  C   UNL     1     -11.345  10.886  68.531  1.00  0.00    -0.367 A  
ENDBRANCH   5  21
TORSDOF 1
ENDMDL
MODEL      113
REMARK 921   NORMALIZED FREE ENERGY PREDICTED BY IDOCK:   -2.18 KCAL/MOL
REMARK 922        TOTAL FREE ENERGY PREDICTED BY IDOCK:   -2.62 KCAL/MOL
REMARK 923 INTER-LIGAND FREE ENERGY PREDICTED BY IDOCK:   -2.30 KCAL/MOL
REMARK 924 INTRA-LIGAND FREE ENERGY PREDICTED BY IDOCK:   -0.32 KCAL/MOL
REMARK 927      BINDING AFFINITY PREDICTED BY RF-SCORE:    0.00 PKD
ROOT
HETATM    1  C   UNL     1      -8.502  13.990  70.133  1.00  0.00     2.049 C  
HETATM    2  N   UNL     1      -9.289  14.800  69.224  1.00  0.00    -0.104 N  
HETATM    3  C   UNL     1      -9.559  14.297  67.930  1.00  0.00    -0.221 A  
HETATM    4  C   UNL     1      -9.429  15.138  66.818  1.00  0.00    -0.260 A  
HETATM    5  C   UNL     1      -9.080  16.642  66.983  1.00  0.00    -0.216 C  
HETATM    6  C   UNL     1      -9.538  14.541  65.534  1.00  0.00    -0.117 A  
HETATM    7  C   UNL     1      -9.895  13.206  65.372  1.00  0.00    -0.106 A  
HETATM    8  O   UNL     1      -9.019  17.175  65.618  1.00  0.00    -0.491 OA 
HETATM    9  O   UNL     1     -10.684  15.418  70.934  1.00  0.00    -0.301 OA 
HETATM   10  C   UNL     1     -10.076  12.401  66.482  1.00  0.00    -0.246 A  
HETATM   11  C   UNL     1     -10.222  15.641  69.810  1.00  0.00    -0.300 C  
HETATM   12  C   UNL     1     -10.184  17.882  65.288  1.00  0.00     0.666 C  
HETATM   13 CL   UNL     1     -10.125  12.570  63.790  1.00  0.00    -0.358 Cl 
HETATM   14  C   UNL     1     -10.415  17.011  69.172  1.00  0.00    -0.323 C  
HETATM   15  C   UNL     1     -11.391  17.051  64.905  1.00  0.00     0.436 C  
HETATM   16  C   UNL     1      -9.875  12.937  67.755  1.00  0.00    -0.221 A  
HETATM   17  C   UNL     1     -10.330  19.008  65.987  1.00  0.00    -0.512 C  
HETATM   18  N   UNL     1     -10.164  17.335  67.769  1.00  0.00    -0.317 N  
HETATM   19  C   UNL     1     -10.671  18.564  67.372  1.00  0.00    -0.381 C  
HETATM   20  O   UNL     1     -11.335  19.316  68.077  1.00  0.00     0.193 OA 
ENDROOT
BRANCH   5  21
HETATM   21  C   UNL     1      -7.670  16.839  67.619  1.00  0.00    -0.183 A  
HETATM   22  C   UNL     1      -6.254  17.806  69.367  1.00  0.00    -0.244 A  
HETATM   23  C   UNL     1      -7.419  17.827  68.591  1.00  0.00    -0.274 A  
HETATM   24  C   UNL     1      -5.441  15.935  68.100  1.00  0.00    -0.119 A  
HETATM   25  C   UNL     1      -6.613  15.947  67.333  1.00  0.00    -0.222 A  
HETATM   26  C   UNL     1      -5.279  16.841  69.141  1.00  0.00    -0.130 A  
ENDBRANCH   5  21
TORSDOF 1
ENDMDL
MODEL      114
REMARK 921   NORMALIZED FREE ENERGY PREDICTED BY IDOCK:   -2.15 KCAL/MOL
REMARK 922        TOTAL FREE ENERGY PREDICTED BY IDOCK:   -2.60 KCAL/MOL
REMARK 923 INTER-LIGAND FREE ENERGY PREDICTED BY IDOCK:   -2.24 KCAL/MOL
REMARK 924 INTRA-LIGAND FREE ENERGY PREDICTED BY IDOCK:   -0.36 KCAL/MOL
REMARK 927      BINDING AFFINITY PREDICTED BY RF-SCORE:    0.00 PKD
ROOT
HETATM    1  C   UNL     1      -9.537   9.167  65.491  1.00  0.00    -0.169 C  
HETATM    2  N   UNL     1      -9.127   8.757  66.820  1.00  0.00    -0.139 N  
HETATM    3  C   UNL     1      -8.384   9.667  67.609  1.00  0.00    -0.121 A  
HETATM    4  C   UNL     1      -7.266   9.215  68.321  1.00  0.00    -0.078 A  
HETATM    5  C   UNL     1      -6.875   7.713  68.335  1.00  0.00    -0.070 C  
HETATM    6  C   UNL     1      -6.456  10.197  68.952  1.00  0.00    -0.048 A  
HETATM    7  C   UNL     1      -6.820  11.540  68.985  1.00  0.00    -0.107 A  
HETATM    8  O   UNL     1      -5.664   7.639  69.161  1.00  0.00    -0.028 OA 
HETATM    9  O   UNL     1     -11.155   7.750  67.169  1.00  0.00    -0.135 OA 
HETATM   10  C   UNL     1      -7.959  11.962  68.324  1.00  0.00    -0.148 A  
HETATM   11  C   UNL     1      -9.960   7.857  67.464  1.00  0.00    -0.192 C  
HETATM   12  C   UNL     1      -5.950   7.176  70.453  1.00  0.00    -0.024 C  
HETATM   13 CL   UNL     1      -5.858  12.663  69.864  1.00  0.00    -0.121 Cl 
HETATM   14  C   UNL     1      -9.291   6.783  68.313  1.00  0.00    -0.124 C  
HETATM   15  C   UNL     1      -6.541   8.186  71.416  1.00  0.00    -0.047 C  
HETATM   16  C   UNL     1      -8.719  11.034  67.610  1.00  0.00    -0.128 A  
HETATM   17  C   UNL     1      -6.346   5.903  70.478  1.00  0.00    -0.032 C  
HETATM   18  N   UNL     1      -7.984   6.902  68.955  1.00  0.00    -0.115 N  
HETATM   19  C   UNL     1      -7.718   5.910  69.889  1.00  0.00    -0.088 C  
HETATM   20  O   UNL     1      -8.503   5.033  70.231  1.00  0.00    -0.096 OA 
ENDROOT
BRANCH   5  21
HETATM   21  C   UNL     1      -6.493   7.205  66.911  1.00  0.00    -0.054 A  
HETATM   22  C   UNL     1      -5.128   7.408  64.888  1.00  0.00    -0.029 A  
HETATM   23  C   UNL     1      -5.714   7.976  66.026  1.00  0.00    -0.037 A  
HETATM   24  C   UNL     1      -6.235   5.328  65.354  1.00  0.00    -0.034 A  
HETATM   25  C   UNL     1      -6.810   5.892  66.499  1.00  0.00    -0.059 A  
HETATM   26  C   UNL     1      -5.365   6.075  64.569  1.00  0.00    -0.017 A  
ENDBRANCH   5  21
TORSDOF 1
ENDMDL
MODEL      115
REMARK 921   NORMALIZED FREE ENERGY PREDICTED BY IDOCK:   -2.14 KCAL/MOL
REMARK 922        TOTAL FREE ENERGY PREDICTED BY IDOCK:   -2.59 KCAL/MOL
REMARK 923 INTER-LIGAND FREE ENERGY PREDICTED BY IDOCK:   -2.30 KCAL/MOL
REMARK 924 INTRA-LIGAND FREE ENERGY PREDICTED BY IDOCK:   -0.29 KCAL/MOL
REMARK 927      BINDING AFFINITY PREDICTED BY RF-SCORE:    0.00 PKD
ROOT
HETATM    1  C   UNL     1      -9.179   6.667  64.916  1.00  0.00     0.900 C  
HETATM    2  N   UNL     1      -9.596   6.276  66.248  1.00  0.00    -0.122 N  
HETATM    3  C   UNL     1      -9.951   7.289  67.170  1.00  0.00    -0.215 A  
HETATM    4  C   UNL     1      -9.485   7.223  68.488  1.00  0.00    -0.140 A  
HETATM    5  C   UNL     1      -8.657   6.008  68.988  1.00  0.00    -0.120 C  
HETATM    6  C   UNL     1      -9.722   8.349  69.321  1.00  0.00    -0.177 A  
HETATM    7  C   UNL     1     -10.501   9.423  68.901  1.00  0.00    -0.216 A  
HETATM    8  O   UNL     1      -8.346   6.306  70.391  1.00  0.00    -0.122 OA 
HETATM    9  O   UNL     1     -10.787   4.516  65.395  1.00  0.00    -0.271 OA 
HETATM   10  C   UNL     1     -11.003   9.448  67.612  1.00  0.00    -0.106 A  
HETATM   11  C   UNL     1     -10.218   5.043  66.356  1.00  0.00    -0.273 C  
HETATM   12  C   UNL     1      -9.184   5.598  71.265  1.00  0.00    -0.146 C  
HETATM   13 CL   UNL     1     -10.849  10.704  69.994  1.00  0.00    -0.313 Cl 
HETATM   14  C   UNL     1      -9.901   4.215  67.595  1.00  0.00    -0.065 C  
HETATM   15  C   UNL     1     -10.580   6.155  71.460  1.00  0.00    -0.288 C  
HETATM   16  C   UNL     1     -10.700   8.402  66.739  1.00  0.00    -0.071 A  
HETATM   17  C   UNL     1      -8.977   4.281  71.238  1.00  0.00    -0.168 C  
HETATM   18  N   UNL     1      -9.482   4.751  68.888  1.00  0.00    -0.135 N  
HETATM   19  C   UNL     1      -9.521   3.827  69.924  1.00  0.00    -0.197 C  
HETATM   20  O   UNL     1      -9.927   2.675  69.828  1.00  0.00     0.191 OA 
ENDROOT
BRANCH   5  21
HETATM   21  C   UNL     1      -7.299   5.888  68.231  1.00  0.00    -0.081 A  
HETATM   22  C   UNL     1      -5.667   4.523  67.018  1.00  0.00    -0.022 A  
HETATM   23  C   UNL     1      -6.711   4.640  67.944  1.00  0.00    -0.054 A  
HETATM   24  C   UNL     1      -5.611   6.912  66.776  1.00  0.00    -0.018 A  
HETATM   25  C   UNL     1      -6.664   7.028  67.691  1.00  0.00    -0.068 A  
HETATM   26  C   UNL     1      -5.138   5.657  66.411  1.00  0.00    -0.005 A  
ENDBRANCH   5  21
TORSDOF 1
ENDMDL
MODEL      116
REMARK 921   NORMALIZED FREE ENERGY PREDICTED BY IDOCK:   -1.49 KCAL/MOL
REMARK 922        TOTAL FREE ENERGY PREDICTED BY IDOCK:   -1.90 KCAL/MOL
REMARK 923 INTER-LIGAND FREE ENERGY PREDICTED BY IDOCK:   -1.53 KCAL/MOL
REMARK 924 INTRA-LIGAND FREE ENERGY PREDICTED BY IDOCK:   -0.36 KCAL/MOL
REMARK 927      BINDING AFFINITY PREDICTED BY RF-SCORE:    0.00 PKD
ROOT
HETATM    1  C   UNL     1     -11.075   6.568  66.697  1.00  0.00     0.010 C  
HETATM    2  N   UNL     1     -10.038   7.297  67.399  1.00  0.00    -0.184 N  
HETATM    3  C   UNL     1     -10.418   8.184  68.434  1.00  0.00    -0.161 A  
HETATM    4  C   UNL     1      -9.831   9.453  68.511  1.00  0.00    -0.171 A  
HETATM    5  C   UNL     1      -8.701   9.876  67.534  1.00  0.00    -0.121 C  
HETATM    6  C   UNL     1     -10.372  10.365  69.456  1.00  0.00    -0.264 A  
HETATM    7  C   UNL     1     -11.352   9.984  70.367  1.00  0.00    -0.320 A  
HETATM    8  O   UNL     1      -8.360  11.252  67.914  1.00  0.00    -0.123 OA 
HETATM    9  O   UNL     1      -8.694   5.442  67.408  1.00  0.00    -0.109 OA 
HETATM   10  C   UNL     1     -11.883   8.708  70.316  1.00  0.00     0.171 A  
HETATM   11  C   UNL     1      -8.807   6.669  67.491  1.00  0.00    -0.116 C  
HETATM   12  C   UNL     1      -7.185  11.300  68.677  1.00  0.00    -0.098 C  
HETATM   13 CL   UNL     1     -11.885  11.099  71.563  1.00  0.00     0.234 Cl 
HETATM   14  C   UNL     1      -7.571   7.552  67.372  1.00  0.00    -0.109 C  
HETATM   15  C   UNL     1      -7.317  10.933  70.141  1.00  0.00     0.416 C  
HETATM   16  C   UNL     1     -11.442   7.823  69.330  1.00  0.00     0.426 A  
HETATM   17  C   UNL     1      -6.097  10.956  67.987  1.00  0.00    -0.049 C  
HETATM   18  N   UNL     1      -7.507   8.972  67.710  1.00  0.00    -0.085 N  
HETATM   19  C   UNL     1      -6.218   9.483  67.778  1.00  0.00    -0.053 C  
HETATM   20  O   UNL     1      -5.191   8.827  67.642  1.00  0.00    -0.034 OA 
ENDROOT
BRANCH   5  21
HETATM   21  C   UNL     1      -9.201   9.916  66.058  1.00  0.00    -0.215 A  
HETATM   22  C   UNL     1     -10.835  10.673  64.398  1.00  0.00     0.229 A  
HETATM   23  C   UNL     1     -10.496  10.356  65.719  1.00  0.00    -0.187 A  
HETATM   24  C   UNL     1      -8.671   9.933  63.663  1.00  0.00    -0.225 A  
HETATM   25  C   UNL     1      -8.328   9.629  64.986  1.00  0.00    -0.146 A  
HETATM   26  C   UNL     1      -9.911  10.490  63.375  1.00  0.00    -0.251 A  
ENDBRANCH   5  21
TORSDOF 1
ENDMDL
MODEL      117
REMARK 921   NORMALIZED FREE ENERGY PREDICTED BY IDOCK:   -1.07 KCAL/MOL
REMARK 922        TOTAL FREE ENERGY PREDICTED BY IDOCK:   -1.46 KCAL/MOL
REMARK 923 INTER-LIGAND FREE ENERGY PREDICTED BY IDOCK:   -1.19 KCAL/MOL
REMARK 924 INTRA-LIGAND FREE ENERGY PREDICTED BY IDOCK:   -0.27 KCAL/MOL
REMARK 927      BINDING AFFINITY PREDICTED BY RF-SCORE:    0.00 PKD
ROOT
HETATM    1  C   UNL     1     -11.629   4.967  70.912  1.00  0.00     1.892 C  
HETATM    2  N   UNL     1     -10.418   5.490  71.514  1.00  0.00    -0.228 N  
HETATM    3  C   UNL     1      -9.908   6.723  71.045  1.00  0.00    -0.182 A  
HETATM    4  C   UNL     1      -8.536   6.860  70.805  1.00  0.00    -0.136 A  
HETATM    5  C   UNL     1      -7.544   5.711  71.129  1.00  0.00    -0.102 C  
HETATM    6  C   UNL     1      -8.101   8.054  70.171  1.00  0.00    -0.114 A  
HETATM    7  C   UNL     1      -8.971   9.110  69.916  1.00  0.00    -0.174 A  
HETATM    8  O   UNL     1      -6.225   6.217  70.734  1.00  0.00    -0.036 OA 
HETATM    9  O   UNL     1     -11.128   4.832  73.591  1.00  0.00    -0.303 OA 
HETATM   10  C   UNL     1     -10.317   8.982  70.212  1.00  0.00    -0.243 A  
HETATM   11  C   UNL     1     -10.201   5.150  72.840  1.00  0.00    -0.180 C  
HETATM   12  C   UNL     1      -5.483   6.646  71.844  1.00  0.00    -0.032 C  
HETATM   13 CL   UNL     1      -8.364  10.576  69.252  1.00  0.00    -0.159 Cl 
HETATM   14  C   UNL     1      -8.762   4.866  73.253  1.00  0.00    -0.104 C  
HETATM   15  C   UNL     1      -5.835   8.009  72.404  1.00  0.00    -0.043 C  
HETATM   16  C   UNL     1     -10.788   7.780  70.742  1.00  0.00    -0.245 A  
HETATM   17  C   UNL     1      -5.133   5.648  72.657  1.00  0.00    -0.017 C  
HETATM   18  N   UNL     1      -7.571   5.413  72.607  1.00  0.00    -0.096 N  
HETATM   19  C   UNL     1      -6.399   5.230  73.328  1.00  0.00    -0.056 C  
HETATM   20  O   UNL     1      -6.328   4.722  74.442  1.00  0.00    -0.054 OA 
ENDROOT
BRANCH   5  21
HETATM   21  C   UNL     1      -7.829   4.444  70.265  1.00  0.00    -0.059 A  
HETATM   22  C   UNL     1      -8.135   2.020  70.101  1.00  0.00    -0.056 A  
HETATM   23  C   UNL     1      -7.604   3.141  70.751  1.00  0.00    -0.040 A  
HETATM   24  C   UNL     1      -8.964   3.430  68.342  1.00  0.00    -0.185 A  
HETATM   25  C   UNL     1      -8.446   4.552  68.999  1.00  0.00    -0.090 A  
HETATM   26  C   UNL     1      -8.841   2.168  68.912  1.00  0.00    -0.144 A  
ENDBRANCH   5  21
TORSDOF 1
ENDMDL
MODEL      118
REMARK 921   NORMALIZED FREE ENERGY PREDICTED BY IDOCK:   -0.91 KCAL/MOL
REMARK 922        TOTAL FREE ENERGY PREDICTED BY IDOCK:   -1.28 KCAL/MOL
REMARK 923 INTER-LIGAND FREE ENERGY PREDICTED BY IDOCK:   -2.31 KCAL/MOL
REMARK 924 INTRA-LIGAND FREE ENERGY PREDICTED BY IDOCK:    1.03 KCAL/MOL
REMARK 927      BINDING AFFINITY PREDICTED BY RF-SCORE:    0.00 PKD
ROOT
HETATM    1  C   UNL     1     -11.793  10.797  66.198  1.00  0.00     1.794 C  
HETATM    2  N   UNL     1     -11.325  12.085  66.672  1.00  0.00    -0.327 N  
HETATM    3  C   UNL     1      -9.953  12.234  66.981  1.00  0.00    -0.211 A  
HETATM    4  C   UNL     1      -9.574  12.898  68.154  1.00  0.00    -0.223 A  
HETATM    5  C   UNL     1     -10.630  13.556  69.083  1.00  0.00    -0.024 C  
HETATM    6  C   UNL     1      -8.198  12.866  68.505  1.00  0.00    -0.065 A  
HETATM    7  C   UNL     1      -7.236  12.320  67.660  1.00  0.00    -0.128 A  
HETATM    8  O   UNL     1      -9.861  14.128  70.194  1.00  0.00     0.953 OA 
HETATM    9  O   UNL     1     -12.668  13.165  65.162  1.00  0.00    -0.591 OA 
HETATM   10  C   UNL     1      -7.621  11.717  66.476  1.00  0.00     0.072 A  
HETATM   11  C   UNL     1     -12.020  13.192  66.214  1.00  0.00    -0.415 C  
HETATM   12  C   UNL     1      -9.698  15.513  70.048  1.00  0.00    -0.038 C  
HETATM   13 CL   UNL     1      -5.572  12.415  68.086  1.00  0.00    -0.058 Cl 
HETATM   14  C   UNL     1     -12.228  14.335  67.200  1.00  0.00    -0.277 C  
HETATM   15  C   UNL     1      -8.626  15.967  69.078  1.00  0.00    -0.239 C  
HETATM   16  C   UNL     1      -8.977  11.644  66.155  1.00  0.00    -0.180 A  
HETATM   17  C   UNL     1     -10.841  16.191  70.161  1.00  0.00    -0.328 C  
HETATM   18  N   UNL     1     -11.362  14.641  68.336  1.00  0.00    -0.278 N  
HETATM   19  C   UNL     1     -11.603  15.880  68.915  1.00  0.00    -0.388 C  
HETATM   20  O   UNL     1     -12.411  16.706  68.506  1.00  0.00     0.678 OA 
ENDROOT
BRANCH   5  21
HETATM   21  C   UNL     1     -11.600  12.497  69.691  1.00  0.00    -0.323 A  
HETATM   22  C   UNL     1     -12.305  10.164  69.930  1.00  0.00     0.005 A  
HETATM   23  C   UNL     1     -11.668  11.177  69.203  1.00  0.00    -0.408 A  
HETATM   24  C   UNL     1     -13.012  11.777  71.563  1.00  0.00    -0.446 A  
HETATM   25  C   UNL     1     -12.364  12.787  70.843  1.00  0.00    -0.356 A  
HETATM   26  C   UNL     1     -12.951  10.459  71.125  1.00  0.00    -0.506 A  
ENDBRANCH   5  21
TORSDOF 1
ENDMDL
MODEL      119
REMARK 921   NORMALIZED FREE ENERGY PREDICTED BY IDOCK:   -0.73 KCAL/MOL
REMARK 922        TOTAL FREE ENERGY PREDICTED BY IDOCK:   -1.10 KCAL/MOL
REMARK 923 INTER-LIGAND FREE ENERGY PREDICTED BY IDOCK:   -0.89 KCAL/MOL
REMARK 924 INTRA-LIGAND FREE ENERGY PREDICTED BY IDOCK:   -0.21 KCAL/MOL
REMARK 927      BINDING AFFINITY PREDICTED BY RF-SCORE:    0.00 PKD
ROOT
HETATM    1  C   UNL     1     -10.746   4.169  69.050  1.00  0.00     1.997 C  
HETATM    2  N   UNL     1      -9.569   5.015  69.079  1.00  0.00    -0.137 N  
HETATM    3  C   UNL     1      -8.515   4.679  69.961  1.00  0.00    -0.073 A  
HETATM    4  C   UNL     1      -7.904   5.679  70.726  1.00  0.00    -0.093 A  
HETATM    5  C   UNL     1      -8.299   7.172  70.560  1.00  0.00    -0.131 C  
HETATM    6  C   UNL     1      -6.978   5.265  71.719  1.00  0.00    -0.070 A  
HETATM    7  C   UNL     1      -6.581   3.937  71.847  1.00  0.00    -0.015 A  
HETATM    8  O   UNL     1      -7.466   7.899  71.525  1.00  0.00    -0.066 OA 
HETATM    9  O   UNL     1      -9.630   5.233  66.799  1.00  0.00    -0.130 OA 
HETATM   10  C   UNL     1      -7.153   2.966  71.044  1.00  0.00    -0.033 A  
HETATM   11  C   UNL     1      -9.254   5.662  67.895  1.00  0.00    -0.106 C  
HETATM   12  C   UNL     1      -6.376   8.521  70.899  1.00  0.00    -0.041 C  
HETATM   13 CL   UNL     1      -5.369   3.514  72.992  1.00  0.00     0.000 Cl 
HETATM   14  C   UNL     1      -8.713   7.082  68.006  1.00  0.00    -0.126 C  
HETATM   15  C   UNL     1      -5.198   7.633  70.556  1.00  0.00    -0.023 C  
HETATM   16  C   UNL     1      -8.142   3.332  70.129  1.00  0.00    -0.058 A  
HETATM   17  C   UNL     1      -6.737   9.514  70.084  1.00  0.00    -0.078 C  
HETATM   18  N   UNL     1      -7.996   7.628  69.156  1.00  0.00    -0.118 N  
HETATM   19  C   UNL     1      -7.371   8.843  68.910  1.00  0.00    -0.075 C  
HETATM   20  O   UNL     1      -7.336   9.413  67.825  1.00  0.00    -0.082 OA 
ENDROOT
BRANCH   5  21
HETATM   21  C   UNL     1      -9.787   7.421  70.957  1.00  0.00    -0.179 A  
HETATM   22  C   UNL     1     -11.532   7.512  72.672  1.00  0.00    -0.369 A  
HETATM   23  C   UNL     1     -10.303   7.028  72.207  1.00  0.00    -0.216 A  
HETATM   24  C   UNL     1     -11.881   8.639  70.580  1.00  0.00    -0.031 A  
HETATM   25  C   UNL     1     -10.647   8.166  70.121  1.00  0.00    -0.237 A  
HETATM   26  C   UNL     1     -12.306   8.343  71.869  1.00  0.00    -0.395 A  
ENDBRANCH   5  21
TORSDOF 1
ENDMDL
MODEL      120
REMARK 921   NORMALIZED FREE ENERGY PREDICTED BY IDOCK:   -0.32 KCAL/MOL
REMARK 922        TOTAL FREE ENERGY PREDICTED BY IDOCK:   -0.66 KCAL/MOL
REMARK 923 INTER-LIGAND FREE ENERGY PREDICTED BY IDOCK:   -0.34 KCAL/MOL
REMARK 924 INTRA-LIGAND FREE ENERGY PREDICTED BY IDOCK:   -0.32 KCAL/MOL
REMARK 927      BINDING AFFINITY PREDICTED BY RF-SCORE:    0.00 PKD
ROOT
HETATM    1  C   UNL     1     -11.789   6.773  69.987  1.00  0.00    -0.206 C  
HETATM    2  N   UNL     1     -10.480   6.189  69.772  1.00  0.00    -0.214 N  
HETATM    3  C   UNL     1      -9.591   6.100  70.869  1.00  0.00    -0.173 A  
HETATM    4  C   UNL     1      -8.247   6.454  70.704  1.00  0.00    -0.125 A  
HETATM    5  C   UNL     1      -7.687   6.859  69.314  1.00  0.00    -0.105 C  
HETATM    6  C   UNL     1      -7.441   6.516  71.872  1.00  0.00    -0.092 A  
HETATM    7  C   UNL     1      -7.917   6.112  73.116  1.00  0.00    -0.107 A  
HETATM    8  O   UNL     1      -6.271   7.169  69.544  1.00  0.00    -0.033 OA 
HETATM    9  O   UNL     1     -11.385   4.578  68.417  1.00  0.00     2.666 OA 
HETATM   10  C   UNL     1      -9.233   5.710  73.253  1.00  0.00    -0.132 A  
HETATM   11  C   UNL     1     -10.397   5.226  68.779  1.00  0.00    -0.136 C  
HETATM   12  C   UNL     1      -5.441   6.114  69.138  1.00  0.00    -0.011 C  
HETATM   13 CL   UNL     1      -6.859   6.100  74.472  1.00  0.00    -0.086 Cl 
HETATM   14  C   UNL     1      -9.133   5.217  67.929  1.00  0.00    -0.110 C  
HETATM   15  C   UNL     1      -5.334   4.937  70.086  1.00  0.00    -0.003 C  
HETATM   16  C   UNL     1     -10.076   5.737  72.140  1.00  0.00    -0.219 A  
HETATM   17  C   UNL     1      -5.442   5.925  67.818  1.00  0.00    -0.005 C  
HETATM   18  N   UNL     1      -7.823   5.706  68.352  1.00  0.00    -0.092 N  
HETATM   19  C   UNL     1      -6.782   5.342  67.509  1.00  0.00    -0.055 C  
HETATM   20  O   UNL     1      -6.890   4.620  66.525  1.00  0.00    -0.055 OA 
ENDROOT
BRANCH   5  21
HETATM   21  C   UNL     1      -8.362   8.160  68.779  1.00  0.00    -0.126 A  
HETATM   22  C   UNL     1      -9.550   9.347  66.998  1.00  0.00    -0.209 A  
HETATM   23  C   UNL     1      -8.688   8.328  67.419  1.00  0.00    -0.125 A  
HETATM   24  C   UNL     1      -9.638  10.202  69.240  1.00  0.00    -0.239 A  
HETATM   25  C   UNL     1      -8.787   9.175  69.664  1.00  0.00    -0.152 A  
HETATM   26  C   UNL     1     -10.050  10.266  67.914  1.00  0.00    -0.200 A  
ENDBRANCH   5  21
TORSDOF 1
ENDMDL
MODEL      121
REMARK 921   NORMALIZED FREE ENERGY PREDICTED BY IDOCK:    1.40 KCAL/MOL
REMARK 922        TOTAL FREE ENERGY PREDICTED BY IDOCK:    1.16 KCAL/MOL
REMARK 923 INTER-LIGAND FREE ENERGY PREDICTED BY IDOCK:    1.35 KCAL/MOL
REMARK 924 INTRA-LIGAND FREE ENERGY PREDICTED BY IDOCK:   -0.19 KCAL/MOL
REMARK 927      BINDING AFFINITY PREDICTED BY RF-SCORE:    0.00 PKD
ROOT
HETATM    1  C   UNL     1      -8.918  16.547  65.214  1.00  0.00     1.419 C  
HETATM    2  N   UNL     1      -9.409  16.064  66.490  1.00  0.00    -0.245 N  
HETATM    3  C   UNL     1      -8.592  15.185  67.239  1.00  0.00    -0.198 A  
HETATM    4  C   UNL     1      -9.159  14.054  67.839  1.00  0.00    -0.188 A  
HETATM    5  C   UNL     1     -10.687  13.789  67.774  1.00  0.00    -0.246 C  
HETATM    6  C   UNL     1      -8.270  13.115  68.428  1.00  0.00    -0.130 A  
HETATM    7  C   UNL     1      -6.905  13.361  68.533  1.00  0.00    -0.099 A  
HETATM    8  O   UNL     1     -10.890  12.525  68.491  1.00  0.00    -0.227 OA 
HETATM    9  O   UNL     1     -10.261  18.133  66.980  1.00  0.00    -0.332 OA 
HETATM   10  C   UNL     1      -6.367  14.511  67.985  1.00  0.00    -0.162 A  
HETATM   11  C   UNL     1     -10.263  16.913  67.175  1.00  0.00    -0.297 C  
HETATM   12  C   UNL     1     -11.376  12.741  69.788  1.00  0.00    -0.033 C  
HETATM   13 CL   UNL     1      -5.896  12.239  69.360  1.00  0.00    -0.083 Cl 
HETATM   14  C   UNL     1     -11.418  16.269  67.931  1.00  0.00    -0.056 C  
HETATM   15  C   UNL     1     -10.359  13.163  70.828  1.00  0.00     4.483 C  
HETATM   16  C   UNL     1      -7.203  15.403  67.310  1.00  0.00    -0.229 A  
HETATM   17  C   UNL     1     -12.613  13.239  69.808  1.00  0.00     0.069 C  
HETATM   18  N   UNL     1     -11.429  14.908  68.461  1.00  0.00    -0.301 N  
HETATM   19  C   UNL     1     -12.473  14.649  69.339  1.00  0.00    -0.069 C  
HETATM   20  O   UNL     1     -13.296  15.474  69.720  1.00  0.00     0.287 OA 
ENDROOT
BRANCH   5  21
HETATM   21  C   UNL     1     -11.172  13.571  66.307  1.00  0.00    -0.310 A  
HETATM   22  C   UNL     1     -12.447  14.340  64.365  1.00  0.00    -0.328 A  
HETATM   23  C   UNL     1     -12.220  14.326  65.746  1.00  0.00    -0.415 A  
HETATM   24  C   UNL     1     -10.727  12.691  64.062  1.00  0.00    -0.457 A  
HETATM   25  C   UNL     1     -10.490  12.687  65.441  1.00  0.00    -0.306 A  
HETATM   26  C   UNL     1     -11.680  13.545  63.520  1.00  0.00    -0.202 A  
ENDBRANCH   5  21
TORSDOF 1
ENDMDL
MODEL      122
REMARK 921   NORMALIZED FREE ENERGY PREDICTED BY IDOCK:    2.23 KCAL/MOL
REMARK 922        TOTAL FREE ENERGY PREDICTED BY IDOCK:    2.04 KCAL/MOL
REMARK 923 INTER-LIGAND FREE ENERGY PREDICTED BY IDOCK:    1.47 KCAL/MOL
REMARK 924 INTRA-LIGAND FREE ENERGY PREDICTED BY IDOCK:    0.57 KCAL/MOL
REMARK 927      BINDING AFFINITY PREDICTED BY RF-SCORE:    0.00 PKD
ROOT
HETATM    1  C   UNL     1      -6.684  14.445  70.728  1.00  0.00     0.340 C  
HETATM    2  N   UNL     1      -7.776  14.593  69.787  1.00  0.00     0.041 N  
HETATM    3  C   UNL     1      -7.876  13.672  68.717  1.00  0.00    -0.043 A  
HETATM    4  C   UNL     1      -8.154  14.136  67.426  1.00  0.00    -0.205 A  
HETATM    5  C   UNL     1      -8.446  15.636  67.156  1.00  0.00    -0.207 C  
HETATM    6  C   UNL     1      -8.069  13.196  66.364  1.00  0.00     0.811 A  
HETATM    7  C   UNL     1      -7.853  11.841  66.597  1.00  0.00    -0.043 A  
HETATM    8  O   UNL     1      -8.673  15.730  65.709  1.00  0.00    -0.151 OA 
HETATM    9  O   UNL     1      -9.219  15.101  71.491  1.00  0.00     2.475 OA 
HETATM   10  C   UNL     1      -7.636  11.389  67.886  1.00  0.00    -0.108 A  
HETATM   11  C   UNL     1      -8.943  15.146  70.288  1.00  0.00     0.790 C  
HETATM   12  C   UNL     1     -10.040  15.811  65.406  1.00  0.00    -0.302 C  
HETATM   13 CL   UNL     1      -7.876  10.735  65.280  1.00  0.00    -0.037 Cl 
HETATM   14  C   UNL     1      -9.710  16.089  69.370  1.00  0.00    -0.248 C  
HETATM   15  C   UNL     1     -10.816  14.510  65.440  1.00  0.00    -0.362 C  
HETATM   16  C   UNL     1      -7.613  12.306  68.938  1.00  0.00     0.021 A  
HETATM   17  C   UNL     1     -10.602  16.947  65.820  1.00  0.00    -0.238 C  
HETATM   18  N   UNL     1      -9.681  16.060  67.910  1.00  0.00    -0.220 N  
HETATM   19  C   UNL     1     -10.666  16.831  67.307  1.00  0.00    -0.213 C  
HETATM   20  O   UNL     1     -11.546  17.444  67.902  1.00  0.00     0.353 OA 
ENDROOT
BRANCH   5  21
HETATM   21  C   UNL     1      -7.213  16.531  67.488  1.00  0.00    -0.168 A  
HETATM   22  C   UNL     1      -5.174  17.676  66.762  1.00  0.00    -0.190 A  
HETATM   23  C   UNL     1      -6.122  16.658  66.606  1.00  0.00    -0.007 A  
HETATM   24  C   UNL     1      -6.242  18.361  68.802  1.00  0.00    -0.215 A  
HETATM   25  C   UNL     1      -7.198  17.352  68.638  1.00  0.00    -0.237 A  
HETATM   26  C   UNL     1      -5.252  18.547  67.844  1.00  0.00    -0.166 A  
ENDBRANCH   5  21
TORSDOF 1
ENDMDL
MODEL      123
REMARK 921   NORMALIZED FREE ENERGY PREDICTED BY IDOCK:    6.20 KCAL/MOL
REMARK 922        TOTAL FREE ENERGY PREDICTED BY IDOCK:    6.24 KCAL/MOL
REMARK 923 INTER-LIGAND FREE ENERGY PREDICTED BY IDOCK:    3.71 KCAL/MOL
REMARK 924 INTRA-LIGAND FREE ENERGY PREDICTED BY IDOCK:    2.53 KCAL/MOL
REMARK 927      BINDING AFFINITY PREDICTED BY RF-SCORE:    0.00 PKD
ROOT
HETATM    1  C   UNL     1     -11.675  10.854  65.823  1.00  0.00     1.255 C  
HETATM    2  N   UNL     1     -10.803  11.645  66.669  1.00  0.00    -0.271 N  
HETATM    3  C   UNL     1     -10.482  12.962  66.265  1.00  0.00    -0.270 A  
HETATM    4  C   UNL     1      -9.159  13.413  66.358  1.00  0.00    -0.063 A  
HETATM    5  C   UNL     1      -8.049  12.525  66.981  1.00  0.00    -0.105 C  
HETATM    6  C   UNL     1      -8.859  14.674  65.777  1.00  0.00     0.743 A  
HETATM    7  C   UNL     1      -9.852  15.499  65.257  1.00  0.00    -0.166 A  
HETATM    8  O   UNL     1      -6.821  13.324  66.888  1.00  0.00     0.086 OA 
HETATM    9  O   UNL     1     -11.844  10.844  68.546  1.00  0.00    -0.464 OA 
HETATM   10  C   UNL     1     -11.164  15.063  65.224  1.00  0.00    -0.368 A  
HETATM   11  C   UNL     1     -10.853  11.367  68.025  1.00  0.00    -0.217 C  
HETATM   12  C   UNL     1      -6.496  13.914  68.118  1.00  0.00    -0.125 C  
HETATM   13 CL   UNL     1      -9.443  17.064  64.673  1.00  0.00     3.230 Cl 
HETATM   14  C   UNL     1      -9.538  11.425  68.792  1.00  0.00    -0.129 C  
HETATM   15  C   UNL     1      -7.273  15.160  68.493  1.00  0.00    -0.118 C  
HETATM   16  C   UNL     1     -11.472  13.785  65.694  1.00  0.00    -0.318 A  
HETATM   17  C   UNL     1      -6.146  13.027  69.049  1.00  0.00    -0.089 C  
HETATM   18  N   UNL     1      -8.378  12.233  68.423  1.00  0.00    -0.165 N  
HETATM   19  C   UNL     1      -7.413  12.327  69.417  1.00  0.00     0.375 C  
HETATM   20  O   UNL     1      -7.510  11.852  70.543  1.00  0.00     1.598 OA 
ENDROOT
BRANCH   5  21
HETATM   21  C   UNL     1      -7.817  11.225  66.151  1.00  0.00    -0.016 A  
HETATM   22  C   UNL     1      -6.354   9.385  65.467  1.00  0.00    -0.065 A  
HETATM   23  C   UNL     1      -6.531  10.689  65.945  1.00  0.00    -0.121 A  
HETATM   24  C   UNL     1      -8.729   9.164  65.184  1.00  0.00    -0.228 A  
HETATM   25  C   UNL     1      -8.907  10.463  65.675  1.00  0.00    -0.190 A  
HETATM   26  C   UNL     1      -7.456   8.612  65.115  1.00  0.00    -0.090 A  
ENDBRANCH   5  21
TORSDOF 1
ENDMDL
MODEL      124
REMARK 921   NORMALIZED FREE ENERGY PREDICTED BY IDOCK:    6.81 KCAL/MOL
REMARK 922        TOTAL FREE ENERGY PREDICTED BY IDOCK:    6.89 KCAL/MOL
REMARK 923 INTER-LIGAND FREE ENERGY PREDICTED BY IDOCK:    5.23 KCAL/MOL
REMARK 924 INTRA-LIGAND FREE ENERGY PREDICTED BY IDOCK:    1.66 KCAL/MOL
REMARK 927      BINDING AFFINITY PREDICTED BY RF-SCORE:    0.00 PKD
ROOT
HETATM    1  C   UNL     1      -9.891  11.692  70.031  1.00  0.00     1.932 C  
HETATM    2  N   UNL     1     -10.305  10.689  69.069  1.00  0.00    -0.207 N  
HETATM    3  C   UNL     1     -11.100   9.609  69.517  1.00  0.00    -0.168 A  
HETATM    4  C   UNL     1     -10.804   8.307  69.095  1.00  0.00    -0.036 A  
HETATM    5  C   UNL     1      -9.672   8.032  68.069  1.00  0.00    -0.160 C  
HETATM    6  C   UNL     1     -11.519   7.245  69.711  1.00  0.00    -0.026 A  
HETATM    7  C   UNL     1     -12.566   7.479  70.597  1.00  0.00     0.121 A  
HETATM    8  O   UNL     1      -9.658   6.575  67.893  1.00  0.00    -0.120 OA 
HETATM    9  O   UNL     1     -10.694  12.311  67.498  1.00  0.00    -0.217 OA 
HETATM   10  C   UNL     1     -12.885   8.775  70.961  1.00  0.00    -0.031 A  
HETATM   11  C   UNL     1     -10.465  11.127  67.764  1.00  0.00    -0.193 C  
HETATM   12  C   UNL     1     -10.296   6.194  66.704  1.00  0.00    -0.187 C  
HETATM   13 CL   UNL     1     -13.470   6.155  71.220  1.00  0.00     1.041 Cl 
HETATM   14  C   UNL     1     -10.033  10.173  66.657  1.00  0.00    -0.216 C  
HETATM   15  C   UNL     1     -11.811   6.173  66.729  1.00  0.00     1.687 C  
HETATM   16  C   UNL     1     -12.131   9.834  70.450  1.00  0.00    -0.176 A  
HETATM   17  C   UNL     1      -9.641   6.583  65.610  1.00  0.00     0.407 C  
HETATM   18  N   UNL     1      -9.988   8.716  66.764  1.00  0.00    -0.248 N  
HETATM   19  C   UNL     1      -9.828   8.063  65.549  1.00  0.00     0.949 C  
HETATM   20  O   UNL     1      -9.792   8.610  64.452  1.00  0.00     1.485 OA 
ENDROOT
BRANCH   5  21
HETATM   21  C   UNL     1      -8.276   8.442  68.630  1.00  0.00    -0.123 A  
HETATM   22  C   UNL     1      -6.010   7.824  69.322  1.00  0.00    -0.034 A  
HETATM   23  C   UNL     1      -7.352   7.490  69.105  1.00  0.00    -0.086 A  
HETATM   24  C   UNL     1      -6.492  10.118  68.797  1.00  0.00    -0.052 A  
HETATM   25  C   UNL     1      -7.832   9.781  68.567  1.00  0.00    -0.081 A  
HETATM   26  C   UNL     1      -5.574   9.132  69.138  1.00  0.00    -0.036 A  
ENDBRANCH   5  21
TORSDOF 1
ENDMDL
MODEL      125
REMARK 921   NORMALIZED FREE ENERGY PREDICTED BY IDOCK:    7.05 KCAL/MOL
REMARK 922        TOTAL FREE ENERGY PREDICTED BY IDOCK:    7.14 KCAL/MOL
REMARK 923 INTER-LIGAND FREE ENERGY PREDICTED BY IDOCK:    6.21 KCAL/MOL
REMARK 924 INTRA-LIGAND FREE ENERGY PREDICTED BY IDOCK:    0.94 KCAL/MOL
REMARK 927      BINDING AFFINITY PREDICTED BY RF-SCORE:    0.00 PKD
ROOT
HETATM    1  C   UNL     1      -8.883  13.503  67.297  1.00  0.00    -0.224 C  
HETATM    2  N   UNL     1      -8.857  14.944  67.455  1.00  0.00    -0.180 N  
HETATM    3  C   UNL     1      -9.382  15.503  68.644  1.00  0.00    -0.201 A  
HETATM    4  C   UNL     1     -10.212  16.628  68.573  1.00  0.00    -0.282 A  
HETATM    5  C   UNL     1     -10.497  17.334  67.219  1.00  0.00    -0.319 C  
HETATM    6  C   UNL     1     -10.852  17.042  69.771  1.00  0.00     0.091 A  
HETATM    7  C   UNL     1     -10.572  16.448  70.998  1.00  0.00     0.875 A  
HETATM    8  O   UNL     1     -11.402  18.442  67.546  1.00  0.00     0.074 OA 
HETATM    9  O   UNL     1      -6.764  15.039  66.529  1.00  0.00     0.680 OA 
HETATM   10  C   UNL     1      -9.705  15.372  71.061  1.00  0.00     1.555 A  
HETATM   11  C   UNL     1      -7.821  15.608  66.818  1.00  0.00    -0.176 C  
HETATM   12  C   UNL     1     -10.720  19.666  67.595  1.00  0.00    -0.367 C  
HETATM   13 CL   UNL     1     -11.291  17.068  72.432  1.00  0.00     0.442 Cl 
HETATM   14  C   UNL     1      -8.147  16.960  66.197  1.00  0.00    -0.260 C  
HETATM   15  C   UNL     1      -9.929  19.946  68.857  1.00  0.00    -0.430 C  
HETATM   16  C   UNL     1      -9.140  14.879  69.882  1.00  0.00     0.330 A  
HETATM   17  C   UNL     1     -10.264  20.061  66.406  1.00  0.00    -0.598 C  
HETATM   18  N   UNL     1      -9.210  17.861  66.637  1.00  0.00    -0.271 N  
HETATM   19  C   UNL     1      -9.131  19.138  66.099  1.00  0.00    -0.224 C  
HETATM   20  O   UNL     1      -8.232  19.543  65.370  1.00  0.00    -0.220 OA 
ENDROOT
BRANCH   5  21
HETATM   21  C   UNL     1     -11.254  16.396  66.230  1.00  0.00     0.349 A  
HETATM   22  C   UNL     1     -13.338  15.707  65.145  1.00  0.00     2.224 A  
HETATM   23  C   UNL     1     -12.660  16.306  66.213  1.00  0.00     3.424 A  
HETATM   24  C   UNL     1     -11.239  15.079  64.161  1.00  0.00     0.180 A  
HETATM   25  C   UNL     1     -10.561  15.690  65.222  1.00  0.00    -0.448 A  
HETATM   26  C   UNL     1     -12.627  15.120  64.104  1.00  0.00     0.183 A  
ENDBRANCH   5  21
TORSDOF 1
ENDMDL
MODEL      126
REMARK 921   NORMALIZED FREE ENERGY PREDICTED BY IDOCK:    7.26 KCAL/MOL
REMARK 922        TOTAL FREE ENERGY PREDICTED BY IDOCK:    7.37 KCAL/MOL
REMARK 923 INTER-LIGAND FREE ENERGY PREDICTED BY IDOCK:    6.33 KCAL/MOL
REMARK 924 INTRA-LIGAND FREE ENERGY PREDICTED BY IDOCK:    1.03 KCAL/MOL
REMARK 927      BINDING AFFINITY PREDICTED BY RF-SCORE:    0.00 PKD
ROOT
HETATM    1  C   UNL     1     -10.293  13.785  68.613  1.00  0.00    -0.224 C  
HETATM    2  N   UNL     1      -9.085  12.985  68.579  1.00  0.00    -0.114 N  
HETATM    3  C   UNL     1      -8.698  12.397  67.352  1.00  0.00    -0.183 A  
HETATM    4  C   UNL     1      -8.265  11.066  67.327  1.00  0.00    -0.125 A  
HETATM    5  C   UNL     1      -8.115  10.244  68.635  1.00  0.00    -0.114 C  
HETATM    6  C   UNL     1      -8.058  10.472  66.053  1.00  0.00    -0.148 A  
HETATM    7  C   UNL     1      -8.145  11.209  64.876  1.00  0.00     0.434 A  
HETATM    8  O   UNL     1      -7.663   8.915  68.206  1.00  0.00    -0.094 OA 
HETATM    9  O   UNL     1      -8.018  14.480  69.949  1.00  0.00     0.202 OA 
HETATM   10  C   UNL     1      -8.518  12.540  64.921  1.00  0.00     2.372 A  
HETATM   11  C   UNL     1      -8.093  13.339  69.480  1.00  0.00     1.077 C  
HETATM   12  C   UNL     1      -6.284   8.751  68.405  1.00  0.00    -0.054 C  
HETATM   13 CL   UNL     1      -7.770  10.463  63.372  1.00  0.00    -0.120 Cl 
HETATM   14  C   UNL     1      -7.302  12.205  70.118  1.00  0.00     1.670 C  
HETATM   15  C   UNL     1      -5.374   9.390  67.376  1.00  0.00    -0.037 C  
HETATM   16  C   UNL     1      -8.827  13.122  66.152  1.00  0.00     0.325 A  
HETATM   17  C   UNL     1      -5.940   8.726  69.693  1.00  0.00    -0.032 C  
HETATM   18  N   UNL     1      -7.084  10.887  69.527  1.00  0.00    -0.126 N  
HETATM   19  C   UNL     1      -6.112  10.131  70.169  1.00  0.00    -0.077 C  
HETATM   20  O   UNL     1      -5.424  10.516  71.108  1.00  0.00    -0.102 OA 
ENDROOT
BRANCH   5  21
HETATM   21  C   UNL     1      -9.485  10.053  69.356  1.00  0.00    -0.237 A  
HETATM   22  C   UNL     1     -11.392   8.629  69.931  1.00  0.00     0.043 A  
HETATM   23  C   UNL     1     -10.326   8.956  69.084  1.00  0.00    -0.230 A  
HETATM   24  C   UNL     1     -10.955  10.593  71.243  1.00  0.00     1.131 A  
HETATM   25  C   UNL     1      -9.881  10.912  70.405  1.00  0.00     1.492 A  
HETATM   26  C   UNL     1     -11.687   9.432  71.028  1.00  0.00    -0.395 A  
ENDBRANCH   5  21
TORSDOF 1
ENDMDL
MODEL      127
REMARK 921   NORMALIZED FREE ENERGY PREDICTED BY IDOCK:    7.87 KCAL/MOL
REMARK 922        TOTAL FREE ENERGY PREDICTED BY IDOCK:    8.01 KCAL/MOL
REMARK 923 INTER-LIGAND FREE ENERGY PREDICTED BY IDOCK:    6.75 KCAL/MOL
REMARK 924 INTRA-LIGAND FREE ENERGY PREDICTED BY IDOCK:    1.26 KCAL/MOL
REMARK 927      BINDING AFFINITY PREDICTED BY RF-SCORE:    0.00 PKD
ROOT
HETATM    1  C   UNL     1      -9.155  14.200  66.578  1.00  0.00    -0.173 C  
HETATM    2  N   UNL     1      -9.010  15.170  67.647  1.00  0.00    -0.177 N  
HETATM    3  C   UNL     1     -10.002  15.219  68.654  1.00  0.00    -0.216 A  
HETATM    4  C   UNL     1     -10.493  16.458  69.084  1.00  0.00    -0.303 A  
HETATM    5  C   UNL     1      -9.905  17.788  68.541  1.00  0.00    -0.355 C  
HETATM    6  C   UNL     1     -11.607  16.446  69.964  1.00  0.00     0.002 A  
HETATM    7  C   UNL     1     -12.114  15.264  70.494  1.00  0.00    -0.354 A  
HETATM    8  O   UNL     1     -10.674  18.847  69.204  1.00  0.00     0.385 OA 
HETATM    9  O   UNL     1      -6.757  14.763  67.753  1.00  0.00    -0.147 OA 
HETATM   10  C   UNL     1     -11.580  14.049  70.103  1.00  0.00    -0.273 A  
HETATM   11  C   UNL     1      -7.711  15.513  67.986  1.00  0.00    -0.127 C  
HETATM   12  C   UNL     1      -9.956  19.417  70.266  1.00  0.00     0.935 C  
HETATM   13 CL   UNL     1     -13.390  15.321  71.646  1.00  0.00    -0.501 Cl 
HETATM   14  C   UNL     1      -7.455  16.969  68.354  1.00  0.00    -0.213 C  
HETATM   15  C   UNL     1      -9.931  18.630  71.560  1.00  0.00     4.371 C  
HETATM   16  C   UNL     1     -10.551  14.026  69.160  1.00  0.00    -0.149 A  
HETATM   17  C   UNL     1      -8.884  20.101  69.866  1.00  0.00     1.065 C  
HETATM   18  N   UNL     1      -8.446  17.890  68.907  1.00  0.00    -0.187 N  
HETATM   19  C   UNL     1      -7.909  19.066  69.412  1.00  0.00     0.083 C  
HETATM   20  O   UNL     1      -6.712  19.326  69.473  1.00  0.00    -0.308 OA 
ENDROOT
BRANCH   5  21
HETATM   21  C   UNL     1     -10.143  17.938  67.006  1.00  0.00    -0.340 A  
HETATM   22  C   UNL     1     -10.968  17.016  64.894  1.00  0.00     0.083 A  
HETATM   23  C   UNL     1     -10.467  16.838  66.189  1.00  0.00    -0.282 A  
HETATM   24  C   UNL     1     -10.652  19.388  65.095  1.00  0.00     0.606 A  
HETATM   25  C   UNL     1     -10.164  19.211  66.395  1.00  0.00    -0.515 A  
HETATM   26  C   UNL     1     -11.089  18.294  64.359  1.00  0.00     3.836 A  
ENDBRANCH   5  21
TORSDOF 1
ENDMDL
MODEL      128
REMARK 921   NORMALIZED FREE ENERGY PREDICTED BY IDOCK:   10.48 KCAL/MOL
REMARK 922        TOTAL FREE ENERGY PREDICTED BY IDOCK:   10.77 KCAL/MOL
REMARK 923 INTER-LIGAND FREE ENERGY PREDICTED BY IDOCK:   10.06 KCAL/MOL
REMARK 924 INTRA-LIGAND FREE ENERGY PREDICTED BY IDOCK:    0.71 KCAL/MOL
REMARK 927      BINDING AFFINITY PREDICTED BY RF-SCORE:    0.00 PKD
ROOT
HETATM    1  C   UNL     1     -11.076  12.775  66.762  1.00  0.00    -0.277 C  
HETATM    2  N   UNL     1     -10.531  13.895  67.504  1.00  0.00    -0.247 N  
HETATM    3  C   UNL     1     -11.097  14.213  68.761  1.00  0.00    -0.262 A  
HETATM    4  C   UNL     1     -11.365  15.549  69.083  1.00  0.00    -0.333 A  
HETATM    5  C   UNL     1     -10.970  16.703  68.122  1.00  0.00    -0.327 C  
HETATM    6  C   UNL     1     -12.092  15.797  70.277  1.00  0.00    -0.371 A  
HETATM    7  C   UNL     1     -12.413  14.778  71.169  1.00  0.00    -0.329 A  
HETATM    8  O   UNL     1     -11.420  17.930  68.790  1.00  0.00     0.976 OA 
HETATM    9  O   UNL     1      -8.402  13.296  66.906  1.00  0.00    -0.129 OA 
HETATM   10  C   UNL     1     -12.090  13.468  70.863  1.00  0.00    -0.301 A  
HETATM   11  C   UNL     1      -9.187  14.164  67.301  1.00  0.00    -0.219 C  
HETATM   12  C   UNL     1     -10.354  18.601  69.407  1.00  0.00     0.399 C  
HETATM   13 CL   UNL     1     -13.192  15.156  72.655  1.00  0.00    -0.477 Cl 
HETATM   14  C   UNL     1      -8.773  15.630  67.268  1.00  0.00    -0.194 C  
HETATM   15  C   UNL     1      -9.893  18.049  70.740  1.00  0.00     3.308 C  
HETATM   16  C   UNL     1     -11.466  13.183  69.647  1.00  0.00    -0.261 A  
HETATM   17  C   UNL     1      -9.475  19.099  68.537  1.00  0.00    -0.444 C  
HETATM   18  N   UNL     1      -9.474  16.724  67.937  1.00  0.00    -0.228 N  
HETATM   19  C   UNL     1      -8.757  17.912  67.986  1.00  0.00    -0.256 C  
HETATM   20  O   UNL     1      -7.610  18.061  67.580  1.00  0.00    -0.212 OA 
ENDROOT
BRANCH   5  21
HETATM   21  C   UNL     1     -11.734  16.609  66.766  1.00  0.00     1.286 A  
HETATM   22  C   UNL     1     -11.953  17.251  64.413  1.00  0.00     3.130 A  
HETATM   23  C   UNL     1     -11.498  17.513  65.711  1.00  0.00     1.467 A  
HETATM   24  C   UNL     1     -13.073  15.278  65.201  1.00  0.00     1.104 A  
HETATM   25  C   UNL     1     -12.607  15.533  66.496  1.00  0.00     1.719 A  
HETATM   26  C   UNL     1     -12.715  16.117  64.153  1.00  0.00     1.535 A  
ENDBRANCH   5  21
TORSDOF 1
ENDMDL
MODEL      129
REMARK 921   NORMALIZED FREE ENERGY PREDICTED BY IDOCK:   11.99 KCAL/MOL
REMARK 922        TOTAL FREE ENERGY PREDICTED BY IDOCK:   12.37 KCAL/MOL
REMARK 923 INTER-LIGAND FREE ENERGY PREDICTED BY IDOCK:    9.83 KCAL/MOL
REMARK 924 INTRA-LIGAND FREE ENERGY PREDICTED BY IDOCK:    2.54 KCAL/MOL
REMARK 927      BINDING AFFINITY PREDICTED BY RF-SCORE:    0.00 PKD
ROOT
HETATM    1  C   UNL     1     -12.454   5.366  73.260  1.00  0.00     1.209 C  
HETATM    2  N   UNL     1     -11.398   5.407  72.267  1.00  0.00    -0.186 N  
HETATM    3  C   UNL     1     -10.054   5.357  72.705  1.00  0.00    -0.181 A  
HETATM    4  C   UNL     1      -9.109   6.226  72.147  1.00  0.00    -0.141 A  
HETATM    5  C   UNL     1      -9.486   7.186  70.986  1.00  0.00    -0.159 C  
HETATM    6  C   UNL     1      -7.821   6.258  72.743  1.00  0.00    -0.105 A  
HETATM    7  C   UNL     1      -7.456   5.372  73.753  1.00  0.00    -0.091 A  
HETATM    8  O   UNL     1      -8.258   7.931  70.688  1.00  0.00    -0.110 OA 
HETATM    9  O   UNL     1     -12.597   4.025  70.888  1.00  0.00     9.790 OA 
HETATM   10  C   UNL     1      -8.385   4.479  74.256  1.00  0.00    -0.098 A  
HETATM   11  C   UNL     1     -11.706   4.869  71.028  1.00  0.00     2.523 C  
HETATM   12  C   UNL     1      -7.616   7.430  69.546  1.00  0.00    -0.099 C  
HETATM   13 CL   UNL     1      -5.845   5.380  74.355  1.00  0.00    -0.050 Cl 
HETATM   14  C   UNL     1     -11.139   5.580  69.805  1.00  0.00     0.085 C  
HETATM   15  C   UNL     1      -6.801   6.166  69.730  1.00  0.00    -0.068 C  
HETATM   16  C   UNL     1      -9.689   4.496  73.758  1.00  0.00    -0.155 A  
HETATM   17  C   UNL     1      -8.308   7.634  68.425  1.00  0.00    -0.125 C  
HETATM   18  N   UNL     1      -9.922   6.388  69.784  1.00  0.00    -0.164 N  
HETATM   19  C   UNL     1      -9.469   6.699  68.508  1.00  0.00    -0.123 C  
HETATM   20  O   UNL     1      -9.971   6.298  67.464  1.00  0.00    -0.120 OA 
ENDROOT
BRANCH   5  21
HETATM   21  C   UNL     1     -10.561   8.227  71.427  1.00  0.00    -0.279 A  
HETATM   22  C   UNL     1     -11.488  10.490  71.306  1.00  0.00     0.026 A  
HETATM   23  C   UNL     1     -10.409   9.607  71.185  1.00  0.00    -0.236 A  
HETATM   24  C   UNL     1     -12.868   8.698  72.114  1.00  0.00    -0.442 A  
HETATM   25  C   UNL     1     -11.792   7.812  71.979  1.00  0.00    -0.351 A  
HETATM   26  C   UNL     1     -12.726  10.029  71.741  1.00  0.00    -0.526 A  
ENDBRANCH   5  21
TORSDOF 1
ENDMDL
MODEL      130
REMARK 921   NORMALIZED FREE ENERGY PREDICTED BY IDOCK:   13.01 KCAL/MOL
REMARK 922        TOTAL FREE ENERGY PREDICTED BY IDOCK:   13.44 KCAL/MOL
REMARK 923 INTER-LIGAND FREE ENERGY PREDICTED BY IDOCK:   13.72 KCAL/MOL
REMARK 924 INTRA-LIGAND FREE ENERGY PREDICTED BY IDOCK:   -0.28 KCAL/MOL
REMARK 927      BINDING AFFINITY PREDICTED BY RF-SCORE:    0.00 PKD
ROOT
HETATM    1  C   UNL     1     -10.354  12.374  69.707  1.00  0.00     1.168 C  
HETATM    2  N   UNL     1     -11.054  11.992  68.496  1.00  0.00    -0.226 N  
HETATM    3  C   UNL     1     -10.955  10.653  68.051  1.00  0.00    -0.282 A  
HETATM    4  C   UNL     1     -10.732  10.387  66.695  1.00  0.00    -0.198 A  
HETATM    5  C   UNL     1     -10.681  11.532  65.648  1.00  0.00    -0.267 C  
HETATM    6  C   UNL     1     -10.466   9.040  66.331  1.00  0.00    -0.110 A  
HETATM    7  C   UNL     1     -10.553   7.998  67.250  1.00  0.00    -0.290 A  
HETATM    8  O   UNL     1     -10.419  10.869  64.365  1.00  0.00    -0.355 OA 
HETATM    9  O   UNL     1     -12.862  13.261  69.102  1.00  0.00     0.533 OA 
HETATM   10  C   UNL     1     -10.831   8.272  68.578  1.00  0.00     0.041 A  
HETATM   11  C   UNL     1     -12.215  12.694  68.216  1.00  0.00     0.112 C  
HETATM   12  C   UNL     1     -11.588  10.749  63.600  1.00  0.00     1.556 C  
HETATM   13 CL   UNL     1     -10.334   6.375  66.725  1.00  0.00    -0.279 Cl 
HETATM   14  C   UNL     1     -12.492  13.017  66.753  1.00  0.00     0.191 C  
HETATM   15  C   UNL     1     -12.532   9.627  63.983  1.00  0.00    12.222 C  
HETATM   16  C   UNL     1     -10.996   9.598  68.982  1.00  0.00    -0.161 A  
HETATM   17  C   UNL     1     -12.064  11.922  63.182  1.00  0.00    -0.321 C  
HETATM   18  N   UNL     1     -12.006  12.249  65.609  1.00  0.00    -0.378 N  
HETATM   19  C   UNL     1     -12.614  12.578  64.405  1.00  0.00    -0.410 C  
HETATM   20  O   UNL     1     -13.527  13.386  64.273  1.00  0.00     0.464 OA 
ENDROOT
BRANCH   5  21
HETATM   21  C   UNL     1      -9.490  12.503  65.916  1.00  0.00    -0.111 A  
HETATM   22  C   UNL     1      -8.633  14.785  66.148  1.00  0.00     0.386 A  
HETATM   23  C   UNL     1      -9.572  13.881  65.637  1.00  0.00    -0.067 A  
HETATM   24  C   UNL     1      -7.374  12.958  67.070  1.00  0.00     0.131 A  
HETATM   25  C   UNL     1      -8.321  12.056  66.570  1.00  0.00    -0.024 A  
HETATM   26  C   UNL     1      -7.551  14.325  66.891  1.00  0.00     0.398 A  
ENDBRANCH   5  21
TORSDOF 1
ENDMDL
MODEL      131
REMARK 921   NORMALIZED FREE ENERGY PREDICTED BY IDOCK:   13.38 KCAL/MOL
REMARK 922        TOTAL FREE ENERGY PREDICTED BY IDOCK:   13.84 KCAL/MOL
REMARK 923 INTER-LIGAND FREE ENERGY PREDICTED BY IDOCK:   12.96 KCAL/MOL
REMARK 924 INTRA-LIGAND FREE ENERGY PREDICTED BY IDOCK:    0.88 KCAL/MOL
REMARK 927      BINDING AFFINITY PREDICTED BY RF-SCORE:    0.00 PKD
ROOT
HETATM    1  C   UNL     1      -8.459   8.505  65.335  1.00  0.00    -0.173 C  
HETATM    2  N   UNL     1      -8.570   9.063  66.668  1.00  0.00    -0.125 N  
HETATM    3  C   UNL     1      -7.759   8.525  67.695  1.00  0.00    -0.102 A  
HETATM    4  C   UNL     1      -8.317   8.259  68.952  1.00  0.00    -0.127 A  
HETATM    5  C   UNL     1      -9.791   8.628  69.272  1.00  0.00    -0.188 C  
HETATM    6  C   UNL     1      -7.510   7.559  69.888  1.00  0.00    -0.084 A  
HETATM    7  C   UNL     1      -6.175   7.264  69.631  1.00  0.00    -0.031 A  
HETATM    8  O   UNL     1     -10.006   8.189  70.655  1.00  0.00    -0.187 OA 
HETATM    9  O   UNL     1      -8.720  11.180  65.805  1.00  0.00    -0.190 OA 
HETATM   10  C   UNL     1      -5.621   7.584  68.405  1.00  0.00    -0.027 A  
HETATM   11  C   UNL     1      -8.922  10.401  66.742  1.00  0.00    -0.140 C  
HETATM   12  C   UNL     1      -9.951   9.266  71.552  1.00  0.00    -0.211 C  
HETATM   13 CL   UNL     1      -5.216   6.517  70.849  1.00  0.00    -0.018 Cl 
HETATM   14  C   UNL     1      -9.855  10.808  67.876  1.00  0.00    -0.167 C  
HETATM   15  C   UNL     1      -8.569   9.761  71.927  1.00  0.00     2.316 C  
HETATM   16  C   UNL     1      -6.420   8.181  67.428  1.00  0.00    -0.057 A  
HETATM   17  C   UNL     1     -10.961  10.123  71.403  1.00  0.00     0.285 C  
HETATM   18  N   UNL     1      -9.981  10.119  69.158  1.00  0.00    -0.198 N  
HETATM   19  C   UNL     1     -10.685  10.833  70.119  1.00  0.00     0.013 C  
HETATM   20  O   UNL     1     -11.121  11.969  69.975  1.00  0.00     0.035 OA 
ENDROOT
BRANCH   5  21
HETATM   21  C   UNL     1     -10.790   7.833  68.376  1.00  0.00     0.009 A  
HETATM   22  C   UNL     1     -11.968   7.564  66.246  1.00  0.00     5.974 A  
HETATM   23  C   UNL     1     -11.323   8.373  67.189  1.00  0.00     1.280 A  
HETATM   24  C   UNL     1     -11.762   5.679  67.720  1.00  0.00     2.352 A  
HETATM   25  C   UNL     1     -11.104   6.485  68.656  1.00  0.00    -0.348 A  
HETATM   26  C   UNL     1     -12.160   6.210  66.499  1.00  0.00     3.070 A  
ENDBRANCH   5  21
TORSDOF 1
ENDMDL
MODEL      132
REMARK 921   NORMALIZED FREE ENERGY PREDICTED BY IDOCK:   20.45 KCAL/MOL
REMARK 922        TOTAL FREE ENERGY PREDICTED BY IDOCK:   21.32 KCAL/MOL
REMARK 923 INTER-LIGAND FREE ENERGY PREDICTED BY IDOCK:   18.75 KCAL/MOL
REMARK 924 INTRA-LIGAND FREE ENERGY PREDICTED BY IDOCK:    2.57 KCAL/MOL
REMARK 927      BINDING AFFINITY PREDICTED BY RF-SCORE:    0.00 PKD
ROOT
HETATM    1  C   UNL     1      -9.861  20.527  68.335  1.00  0.00     0.082 C  
HETATM    2  N   UNL     1     -10.066  19.173  68.810  1.00  0.00    -0.406 N  
HETATM    3  C   UNL     1      -8.933  18.353  69.024  1.00  0.00    -0.039 A  
HETATM    4  C   UNL     1      -8.943  17.025  68.578  1.00  0.00    -0.263 A  
HETATM    5  C   UNL     1     -10.211  16.404  67.932  1.00  0.00    -0.268 C  
HETATM    6  C   UNL     1      -7.724  16.302  68.659  1.00  0.00    -0.192 A  
HETATM    7  C   UNL     1      -6.594  16.831  69.276  1.00  0.00    -0.223 A  
HETATM    8  O   UNL     1      -9.833  15.028  67.590  1.00  0.00    -0.219 OA 
HETATM    9  O   UNL     1     -11.713  19.886  70.233  1.00  0.00     5.064 OA 
HETATM   10  C   UNL     1      -6.617  18.125  69.763  1.00  0.00     0.011 A  
HETATM   11  C   UNL     1     -11.185  18.966  69.600  1.00  0.00     3.267 C  
HETATM   12  C   UNL     1     -10.333  14.109  68.523  1.00  0.00    -0.249 C  
HETATM   13 CL   UNL     1      -5.182  15.863  69.446  1.00  0.00    -0.109 Cl 
HETATM   14  C   UNL     1     -11.932  17.652  69.410  1.00  0.00     4.097 C  
HETATM   15  C   UNL     1      -9.571  13.990  69.827  1.00  0.00     1.062 C  
HETATM   16  C   UNL     1      -7.771  18.895  69.606  1.00  0.00     0.358 A  
HETATM   17  C   UNL     1     -11.663  14.013  68.503  1.00  0.00    -0.387 C  
HETATM   18  N   UNL     1     -11.344  16.406  68.926  1.00  0.00    -0.311 N  
HETATM   19  C   UNL     1     -12.154  15.291  69.099  1.00  0.00    -0.235 C  
HETATM   20  O   UNL     1     -13.243  15.291  69.663  1.00  0.00     0.346 OA 
ENDROOT
BRANCH   5  21
HETATM   21  C   UNL     1     -10.589  17.123  66.600  1.00  0.00    -0.179 A  
HETATM   22  C   UNL     1     -11.570  17.043  64.359  1.00  0.00     1.154 A  
HETATM   23  C   UNL     1     -10.950  16.408  65.442  1.00  0.00    -0.167 A  
HETATM   24  C   UNL     1     -11.313  19.165  65.452  1.00  0.00     1.132 A  
HETATM   25  C   UNL     1     -10.705  18.529  66.541  1.00  0.00    -0.263 A  
HETATM   26  C   UNL     1     -11.779  18.417  64.378  1.00  0.00     5.688 A  
ENDBRANCH   5  21
TORSDOF 1
ENDMDL
MODEL      133
REMARK 921   NORMALIZED FREE ENERGY PREDICTED BY IDOCK:   24.24 KCAL/MOL
REMARK 922        TOTAL FREE ENERGY PREDICTED BY IDOCK:   25.34 KCAL/MOL
REMARK 923 INTER-LIGAND FREE ENERGY PREDICTED BY IDOCK:   23.00 KCAL/MOL
REMARK 924 INTRA-LIGAND FREE ENERGY PREDICTED BY IDOCK:    2.34 KCAL/MOL
REMARK 927      BINDING AFFINITY PREDICTED BY RF-SCORE:    0.00 PKD
ROOT
HETATM    1  C   UNL     1     -11.458  18.354  70.080  1.00  0.00     4.796 C  
HETATM    2  N   UNL     1     -10.976  17.296  69.215  1.00  0.00     0.069 N  
HETATM    3  C   UNL     1     -11.059  15.959  69.670  1.00  0.00    -0.320 A  
HETATM    4  C   UNL     1      -9.970  15.097  69.495  1.00  0.00    -0.209 A  
HETATM    5  C   UNL     1      -8.699  15.553  68.728  1.00  0.00    -0.192 C  
HETATM    6  C   UNL     1     -10.038  13.826  70.124  1.00  0.00     1.757 A  
HETATM    7  C   UNL     1     -11.187  13.388  70.775  1.00  0.00     1.313 A  
HETATM    8  O   UNL     1      -7.792  14.399  68.767  1.00  0.00    -0.135 OA 
HETATM    9  O   UNL     1     -11.882  18.336  67.385  1.00  0.00     1.343 OA 
HETATM   10  C   UNL     1     -12.278  14.231  70.890  1.00  0.00    -0.425 A  
HETATM   11  C   UNL     1     -11.067  17.533  67.853  1.00  0.00     0.021 C  
HETATM   12  C   UNL     1      -7.799  13.698  67.553  1.00  0.00    -0.177 C  
HETATM   13 CL   UNL     1     -11.250  11.793  71.417  1.00  0.00     2.548 Cl 
HETATM   14  C   UNL     1      -9.924  17.024  66.984  1.00  0.00    -0.288 C  
HETATM   15  C   UNL     1      -8.970  12.764  67.321  1.00  0.00    -0.199 C  
HETATM   16  C   UNL     1     -12.201  15.524  70.370  1.00  0.00    -0.443 A  
HETATM   17  C   UNL     1      -7.274  14.392  66.543  1.00  0.00     1.963 C  
HETATM   18  N   UNL     1      -9.056  15.893  67.304  1.00  0.00    -0.202 N  
HETATM   19  C   UNL     1      -8.277  15.457  66.240  1.00  0.00     0.252 C  
HETATM   20  O   UNL     1      -8.326  15.903  65.099  1.00  0.00     1.817 OA 
ENDROOT
BRANCH   5  21
HETATM   21  C   UNL     1      -7.979  16.730  69.456  1.00  0.00     0.320 A  
HETATM   22  C   UNL     1      -8.087  18.718  70.880  1.00  0.00     4.362 A  
HETATM   23  C   UNL     1      -8.687  17.829  69.980  1.00  0.00     2.141 A  
HETATM   24  C   UNL     1      -5.991  17.575  70.618  1.00  0.00     0.373 A  
HETATM   25  C   UNL     1      -6.594  16.678  69.728  1.00  0.00    -0.066 A  
HETATM   26  C   UNL     1      -6.747  18.572  71.222  1.00  0.00     2.582 A  
ENDBRANCH   5  21
TORSDOF 1
ENDMDL
MODEL      134
REMARK 921   NORMALIZED FREE ENERGY PREDICTED BY IDOCK:   24.54 KCAL/MOL
REMARK 922        TOTAL FREE ENERGY PREDICTED BY IDOCK:   25.66 KCAL/MOL
REMARK 923 INTER-LIGAND FREE ENERGY PREDICTED BY IDOCK:   25.98 KCAL/MOL
REMARK 924 INTRA-LIGAND FREE ENERGY PREDICTED BY IDOCK:   -0.32 KCAL/MOL
REMARK 927      BINDING AFFINITY PREDICTED BY RF-SCORE:    0.00 PKD
ROOT
HETATM    1  C   UNL     1     -10.793   8.721  73.635  1.00  0.00     3.429 C  
HETATM    2  N   UNL     1     -10.435   9.464  72.443  1.00  0.00     0.740 N  
HETATM    3  C   UNL     1     -11.079  10.699  72.196  1.00  0.00     3.920 A  
HETATM    4  C   UNL     1     -11.543  10.995  70.909  1.00  0.00    -0.031 A  
HETATM    5  C   UNL     1     -11.285  10.031  69.720  1.00  0.00    -0.258 C  
HETATM    6  C   UNL     1     -12.335  12.164  70.755  1.00  0.00    -0.391 A  
HETATM    7  C   UNL     1     -12.535  13.060  71.801  1.00  0.00     0.092 A  
HETATM    8  O   UNL     1     -11.925  10.668  68.563  1.00  0.00    -0.425 OA 
HETATM    9  O   UNL     1      -8.225   8.937  72.739  1.00  0.00    -0.387 OA 
HETATM   10  C   UNL     1     -12.021  12.782  73.055  1.00  0.00     4.833 A  
HETATM   11  C   UNL     1      -9.137   9.297  71.988  1.00  0.00     0.654 C  
HETATM   12  C   UNL     1     -10.984  11.307  67.742  1.00  0.00    -0.252 C  
HETATM   13 CL   UNL     1     -13.406  14.517  71.523  1.00  0.00    -0.411 Cl 
HETATM   14  C   UNL     1      -8.934   9.256  70.478  1.00  0.00    -0.250 C  
HETATM   15  C   UNL     1     -10.491  12.661  68.210  1.00  0.00    -0.249 C  
HETATM   16  C   UNL     1     -11.326  11.589  73.260  1.00  0.00    12.664 A  
HETATM   17  C   UNL     1     -10.157  10.457  67.132  1.00  0.00    -0.254 C  
HETATM   18  N   UNL     1      -9.803   9.889  69.489  1.00  0.00    -0.210 N  
HETATM   19  C   UNL     1      -9.262   9.943  68.211  1.00  0.00    -0.129 C  
HETATM   20  O   UNL     1      -8.136   9.569  67.904  1.00  0.00    -0.105 OA 
ENDROOT
BRANCH   5  21
HETATM   21  C   UNL     1     -11.986   8.654  69.933  1.00  0.00     0.684 A  
HETATM   22  C   UNL     1     -11.858   6.212  70.054  1.00  0.00     0.128 A  
HETATM   23  C   UNL     1     -11.364   7.438  69.592  1.00  0.00     0.019 A  
HETATM   24  C   UNL     1     -13.732   7.340  71.047  1.00  0.00    -0.092 A  
HETATM   25  C   UNL     1     -13.230   8.566  70.597  1.00  0.00     0.627 A  
HETATM   26  C   UNL     1     -13.026   6.167  70.808  1.00  0.00     1.634 A  
ENDBRANCH   5  21
TORSDOF 1
ENDMDL
MODEL      135
REMARK 921   NORMALIZED FREE ENERGY PREDICTED BY IDOCK:   35.14 KCAL/MOL
REMARK 922        TOTAL FREE ENERGY PREDICTED BY IDOCK:   36.88 KCAL/MOL
REMARK 923 INTER-LIGAND FREE ENERGY PREDICTED BY IDOCK:   34.69 KCAL/MOL
REMARK 924 INTRA-LIGAND FREE ENERGY PREDICTED BY IDOCK:    2.19 KCAL/MOL
REMARK 927      BINDING AFFINITY PREDICTED BY RF-SCORE:    0.00 PKD
ROOT
HETATM    1  C   UNL     1      -7.704  11.198  66.082  1.00  0.00    -0.053 C  
HETATM    2  N   UNL     1      -7.729  11.668  67.453  1.00  0.00    -0.138 N  
HETATM    3  C   UNL     1      -8.972  11.724  68.126  1.00  0.00    -0.181 A  
HETATM    4  C   UNL     1      -9.295  12.851  68.893  1.00  0.00     0.276 A  
HETATM    5  C   UNL     1      -8.278  14.006  69.094  1.00  0.00     0.226 C  
HETATM    6  C   UNL     1     -10.619  12.934  69.400  1.00  0.00     0.240 A  
HETATM    7  C   UNL     1     -11.526  11.887  69.266  1.00  0.00    -0.306 A  
HETATM    8  O   UNL     1      -8.976  14.992  69.927  1.00  0.00    -0.007 OA 
HETATM    9  O   UNL     1      -5.802  10.518  67.917  1.00  0.00    -0.044 OA 
HETATM   10  C   UNL     1     -11.172  10.755  68.554  1.00  0.00    -0.340 A  
HETATM   11  C   UNL     1      -6.587  11.429  68.200  1.00  0.00    -0.057 C  
HETATM   12  C   UNL     1      -8.564  14.918  71.266  1.00  0.00     3.687 C  
HETATM   13 CL   UNL     1     -13.076  12.000  70.003  1.00  0.00     0.670 Cl 
HETATM   14  C   UNL     1      -6.161  12.517  69.178  1.00  0.00    -0.094 C  
HETATM   15  C   UNL     1      -9.164  13.799  72.094  1.00  0.00    11.687 C  
HETATM   16  C   UNL     1      -9.912  10.690  67.957  1.00  0.00    -0.180 A  
HETATM   17  C   UNL     1      -7.297  15.292  71.447  1.00  0.00     2.582 C  
HETATM   18  N   UNL     1      -7.053  13.490  69.805  1.00  0.00     0.264 N  
HETATM   19  C   UNL     1      -6.479  14.191  70.856  1.00  0.00     0.176 C  
HETATM   20  O   UNL     1      -5.352  14.001  71.300  1.00  0.00    -0.142 OA 
ENDROOT
BRANCH   5  21
HETATM   21  C   UNL     1      -7.929  14.707  67.745  1.00  0.00    -0.166 A  
HETATM   22  C   UNL     1      -7.156  14.566  65.426  1.00  0.00     9.904 A  
HETATM   23  C   UNL     1      -7.206  14.053  66.728  1.00  0.00     1.161 A  
HETATM   24  C   UNL     1      -8.374  16.508  66.141  1.00  0.00    -0.305 A  
HETATM   25  C   UNL     1      -8.436  15.989  67.440  1.00  0.00    -0.187 A  
HETATM   26  C   UNL     1      -7.767  15.778  65.127  1.00  0.00     6.016 A  
ENDBRANCH   5  21
TORSDOF 1
ENDMDL
MODEL      136
REMARK 921   NORMALIZED FREE ENERGY PREDICTED BY IDOCK:   36.34 KCAL/MOL
REMARK 922        TOTAL FREE ENERGY PREDICTED BY IDOCK:   38.14 KCAL/MOL
REMARK 923 INTER-LIGAND FREE ENERGY PREDICTED BY IDOCK:   36.28 KCAL/MOL
REMARK 924 INTRA-LIGAND FREE ENERGY PREDICTED BY IDOCK:    1.86 KCAL/MOL
REMARK 927      BINDING AFFINITY PREDICTED BY RF-SCORE:    0.00 PKD
ROOT
HETATM    1  C   UNL     1      -7.653  12.860  71.686  1.00  0.00     9.095 C  
HETATM    2  N   UNL     1      -8.761  12.688  70.767  1.00  0.00     7.870 N  
HETATM    3  C   UNL     1      -9.191  11.375  70.464  1.00  0.00     4.250 A  
HETATM    4  C   UNL     1      -9.471  11.025  69.138  1.00  0.00    -0.064 A  
HETATM    5  C   UNL     1      -9.406  12.077  67.998  1.00  0.00    -0.196 C  
HETATM    6  C   UNL     1      -9.727   9.655  68.866  1.00  0.00    -0.163 A  
HETATM    7  C   UNL     1      -9.833   8.711  69.883  1.00  0.00    -0.183 A  
HETATM    8  O   UNL     1      -9.744  11.340  66.775  1.00  0.00    -0.189 OA 
HETATM    9  O   UNL     1      -9.858  14.466  71.708  1.00  0.00     3.536 OA 
HETATM   10  C   UNL     1      -9.610   9.083  71.196  1.00  0.00    -0.356 A  
HETATM   11  C   UNL     1      -9.699  13.708  70.746  1.00  0.00     5.103 C  
HETATM   12  C   UNL     1     -11.070  11.571  66.384  1.00  0.00    -0.269 C  
HETATM   13 CL   UNL     1     -10.260   7.088  69.501  1.00  0.00    -0.199 Cl 
HETATM   14  C   UNL     1     -10.294  14.071  69.391  1.00  0.00     0.136 C  
HETATM   15  C   UNL     1     -12.138  10.803  67.136  1.00  0.00     1.798 C  
HETATM   16  C   UNL     1      -9.256  10.404  71.482  1.00  0.00     4.441 A  
HETATM   17  C   UNL     1     -11.289  12.825  65.986  1.00  0.00    -0.363 C  
HETATM   18  N   UNL     1     -10.417  13.167  68.250  1.00  0.00    -0.245 N  
HETATM   19  C   UNL     1     -11.233  13.644  67.233  1.00  0.00    -0.309 C  
HETATM   20  O   UNL     1     -11.870  14.691  67.272  1.00  0.00    -0.392 OA 
ENDROOT
BRANCH   5  21
HETATM   21  C   UNL     1      -7.963  12.638  67.815  1.00  0.00    -0.158 A  
HETATM   22  C   UNL     1      -6.006  13.018  66.392  1.00  0.00     2.643 A  
HETATM   23  C   UNL     1      -7.162  12.293  66.708  1.00  0.00     0.151 A  
HETATM   24  C   UNL     1      -6.283  14.332  68.384  1.00  0.00    -0.103 A  
HETATM   25  C   UNL     1      -7.446  13.617  68.692  1.00  0.00    -0.113 A  
HETATM   26  C   UNL     1      -5.584  14.057  67.214  1.00  0.00     0.560 A  
ENDBRANCH   5  21
TORSDOF 1
ENDMDL
MODEL      137
REMARK 921   NORMALIZED FREE ENERGY PREDICTED BY IDOCK:   41.18 KCAL/MOL
REMARK 922        TOTAL FREE ENERGY PREDICTED BY IDOCK:   43.26 KCAL/MOL
REMARK 923 INTER-LIGAND FREE ENERGY PREDICTED BY IDOCK:   41.58 KCAL/MOL
REMARK 924 INTRA-LIGAND FREE ENERGY PREDICTED BY IDOCK:    1.68 KCAL/MOL
REMARK 927      BINDING AFFINITY PREDICTED BY RF-SCORE:    0.00 PKD
ROOT
HETATM    1  C   UNL     1      -6.656  13.437  69.872  1.00  0.00     0.081 C  
HETATM    2  N   UNL     1      -8.038  13.872  69.918  1.00  0.00     1.063 N  
HETATM    3  C   UNL     1      -9.042  12.909  70.177  1.00  0.00     4.174 A  
HETATM    4  C   UNL     1     -10.216  12.909  69.416  1.00  0.00     0.563 A  
HETATM    5  C   UNL     1     -10.482  14.003  68.347  1.00  0.00    -0.253 C  
HETATM    6  C   UNL     1     -11.109  11.819  69.597  1.00  0.00    -0.139 A  
HETATM    7  C   UNL     1     -10.906  10.857  70.582  1.00  0.00     0.688 A  
HETATM    8  O   UNL     1     -11.784  13.662  67.763  1.00  0.00    -0.320 OA 
HETATM    9  O   UNL     1      -7.435  15.776  71.039  1.00  0.00     1.944 OA 
HETATM   10  C   UNL     1      -9.767  10.903  71.366  1.00  0.00     5.991 A  
HETATM   11  C   UNL     1      -8.253  15.175  70.336  1.00  0.00     1.050 C  
HETATM   12  C   UNL     1     -12.809  14.468  68.280  1.00  0.00     1.336 C  
HETATM   13 CL   UNL     1     -12.082   9.627  70.830  1.00  0.00    -0.340 Cl 
HETATM   14  C   UNL     1      -9.365  15.949  69.640  1.00  0.00    -0.114 C  
HETATM   15  C   UNL     1     -13.331  14.096  69.652  1.00  0.00     1.556 C  
HETATM   16  C   UNL     1      -8.822  11.906  71.140  1.00  0.00    10.824 A  
HETATM   17  C   UNL     1     -12.702  15.747  67.918  1.00  0.00     1.966 C  
HETATM   18  N   UNL     1     -10.541  15.358  69.006  1.00  0.00    -0.236 N  
HETATM   19  C   UNL     1     -11.535  16.273  68.687  1.00  0.00    -0.288 C  
HETATM   20  O   UNL     1     -11.505  17.470  68.954  1.00  0.00     0.635 OA 
ENDROOT
BRANCH   5  21
HETATM   21  C   UNL     1      -9.432  13.950  67.196  1.00  0.00    -0.246 A  
HETATM   22  C   UNL     1      -7.121  14.206  66.427  1.00  0.00     2.826 A  
HETATM   23  C   UNL     1      -8.148  14.513  67.329  1.00  0.00    -0.219 A  
HETATM   24  C   UNL     1      -8.664  12.926  65.104  1.00  0.00     1.874 A  
HETATM   25  C   UNL     1      -9.686  13.221  66.013  1.00  0.00    -0.230 A  
HETATM   26  C   UNL     1      -7.373  13.387  65.331  1.00  0.00     7.394 A  
ENDBRANCH   5  21
TORSDOF 1
ENDMDL
MODEL      138
REMARK 921   NORMALIZED FREE ENERGY PREDICTED BY IDOCK:   44.00 KCAL/MOL
REMARK 922        TOTAL FREE ENERGY PREDICTED BY IDOCK:   46.25 KCAL/MOL
REMARK 923 INTER-LIGAND FREE ENERGY PREDICTED BY IDOCK:   46.24 KCAL/MOL
REMARK 924 INTRA-LIGAND FREE ENERGY PREDICTED BY IDOCK:    0.01 KCAL/MOL
REMARK 927      BINDING AFFINITY PREDICTED BY RF-SCORE:    0.00 PKD
ROOT
HETATM    1  C   UNL     1     -10.782  14.893  64.693  1.00  0.00    -0.234 C  
HETATM    2  N   UNL     1     -10.075  14.946  65.957  1.00  0.00    -0.293 N  
HETATM    3  C   UNL     1      -8.885  14.194  66.098  1.00  0.00     0.337 A  
HETATM    4  C   UNL     1      -8.669  13.450  67.264  1.00  0.00    -0.219 A  
HETATM    5  C   UNL     1      -9.670  13.503  68.450  1.00  0.00    -0.207 C  
HETATM    6  C   UNL     1      -7.548  12.577  67.281  1.00  0.00    -0.131 A  
HETATM    7  C   UNL     1      -6.619  12.553  66.245  1.00  0.00     1.865 A  
HETATM    8  O   UNL     1      -9.116  12.596  69.462  1.00  0.00     1.099 OA 
HETATM    9  O   UNL     1     -10.479  17.194  66.127  1.00  0.00    -0.332 OA 
HETATM   10  C   UNL     1      -6.816  13.338  65.123  1.00  0.00    10.463 A  
HETATM   11  C   UNL     1     -10.197  16.124  66.676  1.00  0.00    -0.287 C  
HETATM   12  C   UNL     1      -8.467  13.301  70.486  1.00  0.00     5.358 C  
HETATM   13 CL   UNL     1      -5.220  11.561  66.376  1.00  0.00    -0.113 Cl 
HETATM   14  C   UNL     1     -10.294  16.003  68.191  1.00  0.00    -0.260 C  
HETATM   15  C   UNL     1      -7.072  13.804  70.178  1.00  0.00     0.584 C  
HETATM   16  C   UNL     1      -7.964  14.129  65.036  1.00  0.00     7.961 A  
HETATM   17  C   UNL     1      -9.301  14.027  71.232  1.00  0.00     6.359 C  
HETATM   18  N   UNL     1      -9.748  14.908  68.990  1.00  0.00    -0.221 N  
HETATM   19  C   UNL     1      -9.723  15.159  70.355  1.00  0.00     0.520 C  
HETATM   20  O   UNL     1     -10.054  16.214  70.885  1.00  0.00     0.827 OA 
ENDROOT
BRANCH   5  21
HETATM   21  C   UNL     1     -11.069  12.944  68.047  1.00  0.00    -0.283 A  
HETATM   22  C   UNL     1     -13.406  13.337  67.433  1.00  0.00     4.631 A  
HETATM   23  C   UNL     1     -12.228  13.744  68.071  1.00  0.00    -0.179 A  
HETATM   24  C   UNL     1     -12.389  11.229  66.893  1.00  0.00     2.132 A  
HETATM   25  C   UNL     1     -11.207  11.641  67.519  1.00  0.00    -0.355 A  
HETATM   26  C   UNL     1     -13.476  12.092  66.818  1.00  0.00     7.218 A  
ENDBRANCH   5  21
TORSDOF 1
ENDMDL
MODEL      139
REMARK 921   NORMALIZED FREE ENERGY PREDICTED BY IDOCK:   50.53 KCAL/MOL
REMARK 922        TOTAL FREE ENERGY PREDICTED BY IDOCK:   53.16 KCAL/MOL
REMARK 923 INTER-LIGAND FREE ENERGY PREDICTED BY IDOCK:   52.13 KCAL/MOL
REMARK 924 INTRA-LIGAND FREE ENERGY PREDICTED BY IDOCK:    1.03 KCAL/MOL
REMARK 927      BINDING AFFINITY PREDICTED BY RF-SCORE:    0.00 PKD
ROOT
HETATM    1  C   UNL     1     -10.478  13.860  68.736  1.00  0.00    -0.221 C  
HETATM    2  N   UNL     1      -9.631  12.710  68.985  1.00  0.00     0.260 N  
HETATM    3  C   UNL     1      -8.687  12.339  67.998  1.00  0.00    -0.181 A  
HETATM    4  C   UNL     1      -8.540  10.991  67.651  1.00  0.00    -0.125 A  
HETATM    5  C   UNL     1      -9.329   9.879  68.392  1.00  0.00    -0.133 C  
HETATM    6  C   UNL     1      -7.711  10.693  66.537  1.00  0.00    -0.137 A  
HETATM    7  C   UNL     1      -6.962  11.674  65.893  1.00  0.00     0.706 A  
HETATM    8  O   UNL     1      -8.925   8.625  67.745  1.00  0.00    -0.135 OA 
HETATM    9  O   UNL     1      -9.373  13.333  71.174  1.00  0.00     7.842 OA 
HETATM   10  C   UNL     1      -7.075  12.996  66.286  1.00  0.00     2.428 A  
HETATM   11  C   UNL     1      -9.331  12.449  70.312  1.00  0.00     4.741 C  
HETATM   12  C   UNL     1      -7.983   7.928  68.517  1.00  0.00    -0.121 C  
HETATM   13 CL   UNL     1      -5.887  11.234  64.625  1.00  0.00     0.767 Cl 
HETATM   14  C   UNL     1      -9.266  10.986  70.732  1.00  0.00     4.160 C  
HETATM   15  C   UNL     1      -6.553   8.423  68.443  1.00  0.00    -0.060 C  
HETATM   16  C   UNL     1      -7.961  13.331  67.312  1.00  0.00    -0.134 A  
HETATM   17  C   UNL     1      -8.483   7.467  69.664  1.00  0.00    -0.133 C  
HETATM   18  N   UNL     1      -8.948   9.865  69.850  1.00  0.00    -0.217 N  
HETATM   19  C   UNL     1      -8.682   8.676  70.516  1.00  0.00    -0.162 C  
HETATM   20  O   UNL     1      -8.640   8.544  71.734  1.00  0.00    -0.162 OA 
ENDROOT
BRANCH   5  21
HETATM   21  C   UNL     1     -10.868  10.029  68.183  1.00  0.00    -0.303 A  
HETATM   22  C   UNL     1     -12.760  11.221  67.187  1.00  0.00     4.068 A  
HETATM   23  C   UNL     1     -11.438  11.201  67.648  1.00  0.00    -0.328 A  
HETATM   24  C   UNL     1     -13.067   8.968  67.960  1.00  0.00    11.965 A  
HETATM   25  C   UNL     1     -11.742   8.943  68.408  1.00  0.00     1.623 A  
HETATM   26  C   UNL     1     -13.565  10.094  67.316  1.00  0.00    16.123 A  
ENDBRANCH   5  21
TORSDOF 1
ENDMDL
MODEL      140
REMARK 921   NORMALIZED FREE ENERGY PREDICTED BY IDOCK:   60.14 KCAL/MOL
REMARK 922        TOTAL FREE ENERGY PREDICTED BY IDOCK:   63.33 KCAL/MOL
REMARK 923 INTER-LIGAND FREE ENERGY PREDICTED BY IDOCK:   62.44 KCAL/MOL
REMARK 924 INTRA-LIGAND FREE ENERGY PREDICTED BY IDOCK:    0.89 KCAL/MOL
REMARK 927      BINDING AFFINITY PREDICTED BY RF-SCORE:    0.00 PKD
ROOT
HETATM    1  C   UNL     1      -7.985  11.897  68.905  1.00  0.00     0.040 C  
HETATM    2  N   UNL     1      -9.215  12.651  68.765  1.00  0.00     0.062 N  
HETATM    3  C   UNL     1     -10.271  12.089  68.010  1.00  0.00    -0.198 A  
HETATM    4  C   UNL     1     -10.970  12.885  67.095  1.00  0.00    -0.290 A  
HETATM    5  C   UNL     1     -10.671  14.402  66.955  1.00  0.00    -0.285 C  
HETATM    6  C   UNL     1     -11.897  12.232  66.240  1.00  0.00    -0.387 A  
HETATM    7  C   UNL     1     -12.209  10.884  66.384  1.00  0.00     2.932 A  
HETATM    8  O   UNL     1     -11.579  14.878  65.906  1.00  0.00    -0.324 OA 
HETATM    9  O   UNL     1      -9.100  13.308  70.957  1.00  0.00     7.315 OA 
HETATM   10  C   UNL     1     -11.550  10.122  67.333  1.00  0.00     0.806 A  
HETATM   11  C   UNL     1      -9.536  13.495  69.817  1.00  0.00     1.711 C  
HETATM   12  C   UNL     1     -12.688  15.545  66.448  1.00  0.00     1.974 C  
HETATM   13 CL   UNL     1     -13.425  10.177  65.394  1.00  0.00    13.506 Cl 
HETATM   14  C   UNL     1     -10.174  14.832  69.460  1.00  0.00    -0.076 C  
HETATM   15  C   UNL     1     -13.794  14.671  67.004  1.00  0.00     6.823 C  
HETATM   16  C   UNL     1     -10.560  10.715  68.118  1.00  0.00    -0.237 A  
HETATM   17  C   UNL     1     -12.369  16.695  67.042  1.00  0.00     2.871 C  
HETATM   18  N   UNL     1     -10.959  15.102  68.259  1.00  0.00    -0.265 N  
HETATM   19  C   UNL     1     -11.656  16.303  68.294  1.00  0.00    -0.118 C  
HETATM   20  O   UNL     1     -11.695  17.068  69.251  1.00  0.00     0.574 OA 
ENDROOT
BRANCH   5  21
HETATM   21  C   UNL     1      -9.215  14.657  66.455  1.00  0.00    -0.294 A  
HETATM   22  C   UNL     1      -6.821  14.853  66.928  1.00  0.00     0.790 A  
HETATM   23  C   UNL     1      -8.156  14.924  67.344  1.00  0.00    -0.218 A  
HETATM   24  C   UNL     1      -7.543  14.449  64.673  1.00  0.00    13.740 A  
HETATM   25  C   UNL     1      -8.878  14.506  65.092  1.00  0.00     2.519 A  
HETATM   26  C   UNL     1      -6.515  14.586  65.598  1.00  0.00     9.473 A  
ENDBRANCH   5  21
TORSDOF 1
ENDMDL
