MODEL        1
REMARK 921   NORMALIZED FREE ENERGY PREDICTED BY IDOCK:   -7.01 KCAL/MOL
REMARK 922        TOTAL FREE ENERGY PREDICTED BY IDOCK:   -8.09 KCAL/MOL
REMARK 923 INTER-LIGAND FREE ENERGY PREDICTED BY IDOCK:   -7.82 KCAL/MOL
REMARK 924 INTRA-LIGAND FREE ENERGY PREDICTED BY IDOCK:   -0.27 KCAL/MOL
REMARK 927      BINDING AFFINITY PREDICTED BY RF-SCORE:    0.00 PKD
ROOT
HETATM    1  O   UNL     1      -9.460  11.944  65.645  1.00  0.00    -0.228 OA 
HETATM    2  C   UNL     1     -10.603  11.694  64.966  1.00  0.00    -0.289 C  
HETATM    3  C   UNL     1     -11.878  12.282  65.552  1.00  0.00    -0.420 A  
HETATM    4  O   UNL     1     -10.588  11.088  63.902  1.00  0.00    -0.369 OA 
HETATM    5  C   UNL     1     -12.165  13.684  64.952  1.00  0.00    -0.447 A  
HETATM    6  C   UNL     1     -12.133  14.704  66.109  1.00  0.00    -0.201 A  
HETATM    7  N   UNL     1     -11.947  13.879  67.286  1.00  0.00    -0.408 NA 
HETATM    8  C   UNL     1     -11.804  12.553  67.009  1.00  0.00    -0.323 A  
HETATM    9  C   UNL     1     -11.655  11.878  68.190  1.00  0.00    -0.400 A  
HETATM   10  C   UNL     1     -11.642  12.877  69.204  1.00  0.00    -0.375 A  
HETATM   11  C   UNL     1     -11.783  14.131  68.614  1.00  0.00    -0.350 A  
ENDROOT
BRANCH  11  12
HETATM   12  C   UNL     1     -11.808  15.451  69.222  1.00  0.00    -0.343 C  
HETATM   13  O   UNL     1     -11.343  16.444  68.662  1.00  0.00    -0.355 OA 
BRANCH  12  14
HETATM   14  C   UNL     1     -12.378  15.618  70.592  1.00  0.00    -0.457 A  
HETATM   15  C   UNL     1     -11.555  16.066  71.634  1.00  0.00    -0.538 A  
HETATM   16  C   UNL     1     -12.053  16.149  72.939  1.00  0.00    -0.643 A  
HETATM   17  C   UNL     1     -13.370  15.778  73.208  1.00  0.00    -0.649 A  
HETATM   18  C   UNL     1     -14.196  15.335  72.177  1.00  0.00    -0.667 A  
HETATM   19  C   UNL     1     -13.703  15.251  70.873  1.00  0.00    -0.363 A  
ENDBRANCH  12  14
ENDBRANCH  11  12
TORSDOF 2
ENDMDL
MODEL        2
REMARK 921   NORMALIZED FREE ENERGY PREDICTED BY IDOCK:   -6.88 KCAL/MOL
REMARK 922        TOTAL FREE ENERGY PREDICTED BY IDOCK:   -7.95 KCAL/MOL
REMARK 923 INTER-LIGAND FREE ENERGY PREDICTED BY IDOCK:   -7.79 KCAL/MOL
REMARK 924 INTRA-LIGAND FREE ENERGY PREDICTED BY IDOCK:   -0.16 KCAL/MOL
REMARK 927      BINDING AFFINITY PREDICTED BY RF-SCORE:    0.00 PKD
ROOT
HETATM    1  O   UNL     1     -13.328  12.667  64.798  1.00  0.00    -0.787 OA 
HETATM    2  C   UNL     1     -12.068  12.319  64.451  1.00  0.00    -0.399 C  
HETATM    3  C   UNL     1     -11.019  12.397  65.549  1.00  0.00    -0.328 A  
HETATM    4  O   UNL     1     -11.814  11.898  63.329  1.00  0.00    -0.421 OA 
HETATM    5  C   UNL     1     -10.886  11.035  66.282  1.00  0.00    -0.234 A  
HETATM    6  C   UNL     1     -11.271  11.259  67.759  1.00  0.00    -0.291 A  
HETATM    7  N   UNL     1     -11.493  12.689  67.841  1.00  0.00    -0.288 NA 
HETATM    8  C   UNL     1     -11.363  13.334  66.648  1.00  0.00    -0.321 A  
HETATM    9  C   UNL     1     -11.576  14.670  66.852  1.00  0.00    -0.374 A  
HETATM   10  C   UNL     1     -11.916  14.798  68.228  1.00  0.00    -0.258 A  
HETATM   11  C   UNL     1     -11.902  13.538  68.824  1.00  0.00    -0.355 A  
ENDROOT
BRANCH  11  12
HETATM   12  C   UNL     1     -12.197  13.151  70.193  1.00  0.00    -0.290 C  
HETATM   13  O   UNL     1     -12.172  11.978  70.565  1.00  0.00    -0.364 OA 
BRANCH  12  14
HETATM   14  C   UNL     1     -12.585  14.197  71.185  1.00  0.00    -0.439 A  
HETATM   15  C   UNL     1     -11.590  14.854  71.921  1.00  0.00    -0.335 A  
HETATM   16  C   UNL     1     -11.942  15.777  72.913  1.00  0.00    -0.599 A  
HETATM   17  C   UNL     1     -13.285  16.040  73.177  1.00  0.00    -0.633 A  
HETATM   18  C   UNL     1     -14.281  15.393  72.446  1.00  0.00    -0.584 A  
HETATM   19  C   UNL     1     -13.934  14.471  71.455  1.00  0.00    -0.487 A  
ENDBRANCH  12  14
ENDBRANCH  11  12
TORSDOF 2
ENDMDL
MODEL        3
REMARK 921   NORMALIZED FREE ENERGY PREDICTED BY IDOCK:   -6.83 KCAL/MOL
REMARK 922        TOTAL FREE ENERGY PREDICTED BY IDOCK:   -7.89 KCAL/MOL
REMARK 923 INTER-LIGAND FREE ENERGY PREDICTED BY IDOCK:   -7.38 KCAL/MOL
REMARK 924 INTRA-LIGAND FREE ENERGY PREDICTED BY IDOCK:   -0.51 KCAL/MOL
REMARK 927      BINDING AFFINITY PREDICTED BY RF-SCORE:    0.00 PKD
ROOT
HETATM    1  O   UNL     1     -11.111  16.571  66.435  1.00  0.00    -0.000 OA 
HETATM    2  C   UNL     1     -11.006  16.133  65.160  1.00  0.00    -0.316 C  
HETATM    3  C   UNL     1     -10.765  14.643  64.975  1.00  0.00    -0.448 A  
HETATM    4  O   UNL     1     -11.168  16.895  64.214  1.00  0.00    -1.204 OA 
HETATM    5  C   UNL     1     -12.110  13.883  64.822  1.00  0.00    -0.443 A  
HETATM    6  C   UNL     1     -12.223  12.889  65.997  1.00  0.00    -0.366 A  
HETATM    7  N   UNL     1     -10.955  13.030  66.686  1.00  0.00    -0.275 NA 
HETATM    8  C   UNL     1     -10.142  13.981  66.149  1.00  0.00    -0.309 A  
HETATM    9  C   UNL     1      -8.976  14.010  66.865  1.00  0.00    -0.243 A  
HETATM   10  C   UNL     1      -9.152  13.070  67.919  1.00  0.00    -0.207 A  
HETATM   11  C   UNL     1     -10.417  12.496  67.816  1.00  0.00    -0.220 A  
ENDROOT
BRANCH  11  12
HETATM   12  C   UNL     1     -11.063  11.506  68.662  1.00  0.00    -0.238 C  
HETATM   13  O   UNL     1     -11.058  10.305  68.392  1.00  0.00    -0.253 OA 
BRANCH  12  14
HETATM   14  C   UNL     1     -11.798  11.951  69.883  1.00  0.00    -0.418 A  
HETATM   15  C   UNL     1     -12.384  10.994  70.724  1.00  0.00    -0.496 A  
HETATM   16  C   UNL     1     -13.145  11.398  71.827  1.00  0.00    -0.523 A  
HETATM   17  C   UNL     1     -13.330  12.755  72.088  1.00  0.00    -0.593 A  
HETATM   18  C   UNL     1     -12.747  13.712  71.259  1.00  0.00    -0.443 A  
HETATM   19  C   UNL     1     -11.986  13.313  70.158  1.00  0.00    -0.388 A  
ENDBRANCH  12  14
ENDBRANCH  11  12
TORSDOF 2
ENDMDL
MODEL        4
REMARK 921   NORMALIZED FREE ENERGY PREDICTED BY IDOCK:   -6.77 KCAL/MOL
REMARK 922        TOTAL FREE ENERGY PREDICTED BY IDOCK:   -7.82 KCAL/MOL
REMARK 923 INTER-LIGAND FREE ENERGY PREDICTED BY IDOCK:   -7.35 KCAL/MOL
REMARK 924 INTRA-LIGAND FREE ENERGY PREDICTED BY IDOCK:   -0.47 KCAL/MOL
REMARK 927      BINDING AFFINITY PREDICTED BY RF-SCORE:    0.00 PKD
ROOT
HETATM    1  O   UNL     1     -11.358  11.854  65.286  1.00  0.00    -0.322 OA 
HETATM    2  C   UNL     1     -12.468  12.528  64.911  1.00  0.00    -0.450 C  
HETATM    3  C   UNL     1     -12.591  13.959  65.410  1.00  0.00    -0.538 A  
HETATM    4  O   UNL     1     -13.288  12.025  64.152  1.00  0.00    -0.725 OA 
HETATM    5  C   UNL     1     -11.987  14.955  64.383  1.00  0.00    -0.408 A  
HETATM    6  C   UNL     1     -10.811  15.679  65.069  1.00  0.00    -0.450 A  
HETATM    7  N   UNL     1     -10.848  15.179  66.430  1.00  0.00    -0.324 NA 
HETATM    8  C   UNL     1     -11.810  14.238  66.642  1.00  0.00    -0.421 A  
HETATM    9  C   UNL     1     -11.762  13.858  67.955  1.00  0.00    -0.396 A  
HETATM   10  C   UNL     1     -10.665  14.568  68.520  1.00  0.00    -0.253 A  
HETATM   11  C   UNL     1     -10.076  15.360  67.536  1.00  0.00    -0.233 A  
ENDROOT
BRANCH  11  12
HETATM   12  C   UNL     1      -8.925  16.244  67.616  1.00  0.00    -0.192 C  
HETATM   13  O   UNL     1      -7.784  15.823  67.807  1.00  0.00    -0.130 OA 
BRANCH  12  14
HETATM   14  C   UNL     1      -9.122  17.719  67.503  1.00  0.00    -0.244 A  
HETATM   15  C   UNL     1     -10.096  18.349  68.291  1.00  0.00    -0.410 A  
HETATM   16  C   UNL     1     -10.349  19.717  68.137  1.00  0.00    -0.561 A  
HETATM   17  C   UNL     1      -9.638  20.457  67.193  1.00  0.00    -0.587 A  
HETATM   18  C   UNL     1      -8.665  19.839  66.408  1.00  0.00    -0.412 A  
HETATM   19  C   UNL     1      -8.409  18.473  66.559  1.00  0.00    -0.297 A  
ENDBRANCH  12  14
ENDBRANCH  11  12
TORSDOF 2
ENDMDL
MODEL        5
REMARK 921   NORMALIZED FREE ENERGY PREDICTED BY IDOCK:   -6.63 KCAL/MOL
REMARK 922        TOTAL FREE ENERGY PREDICTED BY IDOCK:   -7.67 KCAL/MOL
REMARK 923 INTER-LIGAND FREE ENERGY PREDICTED BY IDOCK:   -7.17 KCAL/MOL
REMARK 924 INTRA-LIGAND FREE ENERGY PREDICTED BY IDOCK:   -0.50 KCAL/MOL
REMARK 927      BINDING AFFINITY PREDICTED BY RF-SCORE:    0.00 PKD
ROOT
HETATM    1  O   UNL     1     -13.218  14.178  64.983  1.00  0.00    -0.691 OA 
HETATM    2  C   UNL     1     -12.203  13.656  64.259  1.00  0.00    -0.396 C  
HETATM    3  C   UNL     1     -10.807  13.810  64.843  1.00  0.00    -0.398 A  
HETATM    4  O   UNL     1     -12.418  13.032  63.226  1.00  0.00    -0.699 OA 
HETATM    5  C   UNL     1     -10.437  12.581  65.716  1.00  0.00    -0.296 A  
HETATM    6  C   UNL     1     -10.210  13.083  67.157  1.00  0.00    -0.243 A  
HETATM    7  N   UNL     1     -10.343  14.521  67.043  1.00  0.00    -0.261 NA 
HETATM    8  C   UNL     1     -10.671  14.944  65.790  1.00  0.00    -0.331 A  
HETATM    9  C   UNL     1     -10.751  16.310  65.801  1.00  0.00    -0.264 A  
HETATM   10  C   UNL     1     -10.525  16.696  67.152  1.00  0.00    -0.300 A  
HETATM   11  C   UNL     1     -10.314  15.557  67.926  1.00  0.00    -0.250 A  
ENDROOT
BRANCH  11  12
HETATM   12  C   UNL     1     -10.063  15.432  69.352  1.00  0.00    -0.269 C  
HETATM   13  O   UNL     1      -8.929  15.473  69.827  1.00  0.00    -0.240 OA 
BRANCH  12  14
HETATM   14  C   UNL     1     -11.209  15.206  70.282  1.00  0.00    -0.306 A  
HETATM   15  C   UNL     1     -11.548  16.196  71.215  1.00  0.00    -0.470 A  
HETATM   16  C   UNL     1     -12.566  15.966  72.147  1.00  0.00    -0.522 A  
HETATM   17  C   UNL     1     -13.241  14.746  72.157  1.00  0.00    -0.452 A  
HETATM   18  C   UNL     1     -12.912  13.758  71.230  1.00  0.00    -0.409 A  
HETATM   19  C   UNL     1     -11.897  13.984  70.297  1.00  0.00    -0.373 A  
ENDBRANCH  12  14
ENDBRANCH  11  12
TORSDOF 2
ENDMDL
MODEL        6
REMARK 921   NORMALIZED FREE ENERGY PREDICTED BY IDOCK:   -6.47 KCAL/MOL
REMARK 922        TOTAL FREE ENERGY PREDICTED BY IDOCK:   -7.49 KCAL/MOL
REMARK 923 INTER-LIGAND FREE ENERGY PREDICTED BY IDOCK:   -7.01 KCAL/MOL
REMARK 924 INTRA-LIGAND FREE ENERGY PREDICTED BY IDOCK:   -0.48 KCAL/MOL
REMARK 927      BINDING AFFINITY PREDICTED BY RF-SCORE:    0.00 PKD
ROOT
HETATM    1  O   UNL     1     -10.861  18.614  67.821  1.00  0.00    -0.390 OA 
HETATM    2  C   UNL     1      -9.567  18.307  68.060  1.00  0.00    -0.304 C  
HETATM    3  C   UNL     1      -9.171  16.851  67.867  1.00  0.00    -0.234 A  
HETATM    4  O   UNL     1      -8.752  19.176  68.346  1.00  0.00    -0.325 OA 
HETATM    5  C   UNL     1      -8.665  16.604  66.421  1.00  0.00    -0.345 A  
HETATM    6  C   UNL     1      -9.616  15.585  65.759  1.00  0.00    -0.332 A  
HETATM    7  N   UNL     1     -10.522  15.219  66.829  1.00  0.00    -0.287 NA 
HETATM    8  C   UNL     1     -10.302  15.897  67.990  1.00  0.00    -0.262 A  
HETATM    9  C   UNL     1     -11.199  15.457  68.925  1.00  0.00    -0.296 A  
HETATM   10  C   UNL     1     -12.031  14.522  68.248  1.00  0.00    -0.303 A  
HETATM   11  C   UNL     1     -11.619  14.417  66.921  1.00  0.00    -0.388 A  
ENDROOT
BRANCH  11  12
HETATM   12  C   UNL     1     -12.160  13.615  65.837  1.00  0.00    -0.439 C  
HETATM   13  O   UNL     1     -13.251  13.855  65.321  1.00  0.00    -0.774 OA 
BRANCH  12  14
HETATM   14  C   UNL     1     -11.394  12.431  65.346  1.00  0.00    -0.379 A  
HETATM   15  C   UNL     1     -10.826  11.544  66.272  1.00  0.00    -0.333 A  
HETATM   16  C   UNL     1     -10.037  10.476  65.829  1.00  0.00    -0.329 A  
HETATM   17  C   UNL     1      -9.808  10.295  64.466  1.00  0.00    -0.384 A  
HETATM   18  C   UNL     1     -10.373  11.170  63.540  1.00  0.00    -0.446 A  
HETATM   19  C   UNL     1     -11.161  12.237  63.977  1.00  0.00    -0.456 A  
ENDBRANCH  12  14
ENDBRANCH  11  12
TORSDOF 2
ENDMDL
MODEL        7
REMARK 921   NORMALIZED FREE ENERGY PREDICTED BY IDOCK:   -6.46 KCAL/MOL
REMARK 922        TOTAL FREE ENERGY PREDICTED BY IDOCK:   -7.48 KCAL/MOL
REMARK 923 INTER-LIGAND FREE ENERGY PREDICTED BY IDOCK:   -7.01 KCAL/MOL
REMARK 924 INTRA-LIGAND FREE ENERGY PREDICTED BY IDOCK:   -0.47 KCAL/MOL
REMARK 927      BINDING AFFINITY PREDICTED BY RF-SCORE:    0.00 PKD
ROOT
HETATM    1  O   UNL     1      -7.655  21.114  67.105  1.00  0.00    -0.347 OA 
HETATM    2  C   UNL     1      -6.883  20.418  67.970  1.00  0.00    -0.296 C  
HETATM    3  C   UNL     1      -7.299  18.980  68.239  1.00  0.00    -0.316 A  
HETATM    4  O   UNL     1      -5.867  20.908  68.448  1.00  0.00    -0.310 OA 
HETATM    5  C   UNL     1      -6.582  18.008  67.263  1.00  0.00    -0.190 A  
HETATM    6  C   UNL     1      -7.668  17.305  66.422  1.00  0.00    -0.311 A  
HETATM    7  N   UNL     1      -8.909  17.792  66.990  1.00  0.00    -0.245 NA 
HETATM    8  C   UNL     1      -8.735  18.708  67.983  1.00  0.00    -0.303 A  
HETATM    9  C   UNL     1      -9.966  19.079  68.452  1.00  0.00    -0.473 A  
HETATM   10  C   UNL     1     -10.909  18.390  67.638  1.00  0.00    -0.295 A  
HETATM   11  C   UNL     1     -10.227  17.620  66.697  1.00  0.00    -0.341 A  
ENDROOT
BRANCH  11  12
HETATM   12  C   UNL     1     -10.743  16.763  65.643  1.00  0.00    -0.192 C  
HETATM   13  O   UNL     1     -11.088  17.202  64.546  1.00  0.00    -1.105 OA 
BRANCH  12  14
HETATM   14  C   UNL     1     -10.904  15.300  65.897  1.00  0.00    -0.345 A  
HETATM   15  C   UNL     1     -10.378  14.378  64.982  1.00  0.00    -0.449 A  
HETATM   16  C   UNL     1     -10.592  13.007  65.164  1.00  0.00    -0.327 A  
HETATM   17  C   UNL     1     -11.335  12.554  66.253  1.00  0.00    -0.386 A  
HETATM   18  C   UNL     1     -11.857  13.465  67.170  1.00  0.00    -0.429 A  
HETATM   19  C   UNL     1     -11.646  14.835  66.993  1.00  0.00    -0.352 A  
ENDBRANCH  12  14
ENDBRANCH  11  12
TORSDOF 2
ENDMDL
MODEL        8
REMARK 921   NORMALIZED FREE ENERGY PREDICTED BY IDOCK:   -6.43 KCAL/MOL
REMARK 922        TOTAL FREE ENERGY PREDICTED BY IDOCK:   -7.45 KCAL/MOL
REMARK 923 INTER-LIGAND FREE ENERGY PREDICTED BY IDOCK:   -7.05 KCAL/MOL
REMARK 924 INTRA-LIGAND FREE ENERGY PREDICTED BY IDOCK:   -0.40 KCAL/MOL
REMARK 927      BINDING AFFINITY PREDICTED BY RF-SCORE:    0.00 PKD
ROOT
HETATM    1  O   UNL     1      -7.103  19.457  68.704  1.00  0.00    -0.299 OA 
HETATM    2  C   UNL     1      -7.297  20.243  67.621  1.00  0.00    -0.305 C  
HETATM    3  C   UNL     1      -8.196  19.681  66.530  1.00  0.00    -0.350 A  
HETATM    4  O   UNL     1      -6.827  21.373  67.567  1.00  0.00    -0.548 OA 
HETATM    5  C   UNL     1      -9.670  20.114  66.753  1.00  0.00    -0.577 A  
HETATM    6  C   UNL     1     -10.506  18.836  66.968  1.00  0.00    -0.416 A  
HETATM    7  N   UNL     1      -9.551  17.765  66.763  1.00  0.00    -0.288 NA 
HETATM    8  C   UNL     1      -8.283  18.199  66.524  1.00  0.00    -0.267 A  
HETATM    9  C   UNL     1      -7.480  17.108  66.329  1.00  0.00    -0.344 A  
HETATM   10  C   UNL     1      -8.317  15.975  66.535  1.00  0.00    -0.348 A  
HETATM   11  C   UNL     1      -9.604  16.407  66.850  1.00  0.00    -0.244 A  
ENDROOT
BRANCH  11  12
HETATM   12  C   UNL     1     -10.796  15.636  67.162  1.00  0.00    -0.297 C  
HETATM   13  O   UNL     1     -11.486  15.864  68.156  1.00  0.00    -0.350 OA 
BRANCH  12  14
HETATM   14  C   UNL     1     -11.189  14.499  66.278  1.00  0.00    -0.342 A  
HETATM   15  C   UNL     1     -11.697  14.762  64.998  1.00  0.00    -0.364 A  
HETATM   16  C   UNL     1     -12.145  13.712  64.190  1.00  0.00    -0.484 A  
HETATM   17  C   UNL     1     -12.095  12.400  64.658  1.00  0.00    -0.487 A  
HETATM   18  C   UNL     1     -11.588  12.129  65.928  1.00  0.00    -0.425 A  
HETATM   19  C   UNL     1     -11.138  13.175  66.738  1.00  0.00    -0.314 A  
ENDBRANCH  12  14
ENDBRANCH  11  12
TORSDOF 2
ENDMDL
MODEL        9
REMARK 921   NORMALIZED FREE ENERGY PREDICTED BY IDOCK:   -6.39 KCAL/MOL
REMARK 922        TOTAL FREE ENERGY PREDICTED BY IDOCK:   -7.41 KCAL/MOL
REMARK 923 INTER-LIGAND FREE ENERGY PREDICTED BY IDOCK:   -7.03 KCAL/MOL
REMARK 924 INTRA-LIGAND FREE ENERGY PREDICTED BY IDOCK:   -0.38 KCAL/MOL
REMARK 927      BINDING AFFINITY PREDICTED BY RF-SCORE:    0.00 PKD
ROOT
HETATM    1  O   UNL     1     -11.680   6.397  70.565  1.00  0.00    -0.386 OA 
HETATM    2  C   UNL     1     -11.845   6.667  71.880  1.00  0.00    -0.332 C  
HETATM    3  C   UNL     1     -11.793   8.133  72.280  1.00  0.00    -0.441 A  
HETATM    4  O   UNL     1     -12.093   5.775  72.683  1.00  0.00    -0.212 OA 
HETATM    5  C   UNL     1     -13.214   8.758  72.268  1.00  0.00    -0.456 A  
HETATM    6  C   UNL     1     -13.219   9.888  71.217  1.00  0.00    -0.383 A  
HETATM    7  N   UNL     1     -11.843   9.941  70.766  1.00  0.00    -0.308 NA 
HETATM    8  C   UNL     1     -11.044   8.993  71.330  1.00  0.00    -0.312 A  
HETATM    9  C   UNL     1      -9.774   9.152  70.846  1.00  0.00    -0.352 A  
HETATM   10  C   UNL     1      -9.856  10.208  69.895  1.00  0.00    -0.223 A  
HETATM   11  C   UNL     1     -11.171  10.662  69.827  1.00  0.00    -0.297 A  
ENDROOT
BRANCH  11  12
HETATM   12  C   UNL     1     -11.757  11.703  68.997  1.00  0.00    -0.324 C  
HETATM   13  O   UNL     1     -12.158  11.486  67.854  1.00  0.00    -0.630 OA 
BRANCH  12  14
HETATM   14  C   UNL     1     -11.846  13.098  69.523  1.00  0.00    -0.383 A  
HETATM   15  C   UNL     1     -12.300  13.315  70.831  1.00  0.00    -0.413 A  
HETATM   16  C   UNL     1     -12.467  14.620  71.309  1.00  0.00    -0.408 A  
HETATM   17  C   UNL     1     -12.190  15.708  70.483  1.00  0.00    -0.437 A  
HETATM   18  C   UNL     1     -11.734  15.499  69.182  1.00  0.00    -0.380 A  
HETATM   19  C   UNL     1     -11.566  14.199  68.701  1.00  0.00    -0.352 A  
ENDBRANCH  12  14
ENDBRANCH  11  12
TORSDOF 2
ENDMDL
MODEL       10
REMARK 921   NORMALIZED FREE ENERGY PREDICTED BY IDOCK:   -6.34 KCAL/MOL
REMARK 922        TOTAL FREE ENERGY PREDICTED BY IDOCK:   -7.35 KCAL/MOL
REMARK 923 INTER-LIGAND FREE ENERGY PREDICTED BY IDOCK:   -6.83 KCAL/MOL
REMARK 924 INTRA-LIGAND FREE ENERGY PREDICTED BY IDOCK:   -0.52 KCAL/MOL
REMARK 927      BINDING AFFINITY PREDICTED BY RF-SCORE:    0.00 PKD
ROOT
HETATM    1  O   UNL     1      -7.216  19.826  65.196  1.00  0.00    -0.372 OA 
HETATM    2  C   UNL     1      -6.690  20.498  66.244  1.00  0.00    -0.242 C  
HETATM    3  C   UNL     1      -7.347  20.264  67.596  1.00  0.00    -0.340 A  
HETATM    4  O   UNL     1      -5.693  21.199  66.111  1.00  0.00    -0.229 OA 
HETATM    5  C   UNL     1      -6.647  19.105  68.355  1.00  0.00    -0.279 A  
HETATM    6  C   UNL     1      -7.690  17.989  68.569  1.00  0.00    -0.302 A  
HETATM    7  N   UNL     1      -8.915  18.562  68.049  1.00  0.00    -0.294 NA 
HETATM    8  C   UNL     1      -8.755  19.803  67.511  1.00  0.00    -0.330 A  
HETATM    9  C   UNL     1      -9.973  20.246  67.073  1.00  0.00    -0.601 A  
HETATM   10  C   UNL     1     -10.878  19.173  67.308  1.00  0.00    -0.529 A  
HETATM   11  C   UNL     1     -10.188  18.108  67.882  1.00  0.00    -0.379 A  
ENDROOT
BRANCH  11  12
HETATM   12  C   UNL     1     -10.665  16.795  68.283  1.00  0.00    -0.364 C  
HETATM   13  O   UNL     1     -10.851  16.493  69.462  1.00  0.00    -0.310 OA 
BRANCH  12  14
HETATM   14  C   UNL     1     -10.905  15.750  67.243  1.00  0.00    -0.298 A  
HETATM   15  C   UNL     1     -11.776  14.688  67.520  1.00  0.00    -0.403 A  
HETATM   16  C   UNL     1     -11.948  13.659  66.587  1.00  0.00    -0.458 A  
HETATM   17  C   UNL     1     -11.246  13.683  65.383  1.00  0.00    -0.306 A  
HETATM   18  C   UNL     1     -10.381  14.739  65.099  1.00  0.00    -0.439 A  
HETATM   19  C   UNL     1     -10.207  15.768  66.027  1.00  0.00    -0.352 A  
ENDBRANCH  12  14
ENDBRANCH  11  12
TORSDOF 2
ENDMDL
MODEL       11
REMARK 921   NORMALIZED FREE ENERGY PREDICTED BY IDOCK:   -6.33 KCAL/MOL
REMARK 922        TOTAL FREE ENERGY PREDICTED BY IDOCK:   -7.34 KCAL/MOL
REMARK 923 INTER-LIGAND FREE ENERGY PREDICTED BY IDOCK:   -6.94 KCAL/MOL
REMARK 924 INTRA-LIGAND FREE ENERGY PREDICTED BY IDOCK:   -0.40 KCAL/MOL
REMARK 927      BINDING AFFINITY PREDICTED BY RF-SCORE:    0.00 PKD
ROOT
HETATM    1  O   UNL     1     -12.999  13.642  65.417  1.00  0.00    -0.683 OA 
HETATM    2  C   UNL     1     -12.138  13.605  64.375  1.00  0.00    -0.427 C  
HETATM    3  C   UNL     1     -10.757  13.035  64.660  1.00  0.00    -0.386 A  
HETATM    4  O   UNL     1     -12.488  13.948  63.252  1.00  0.00    -0.817 OA 
HETATM    5  C   UNL     1     -10.721  11.509  64.375  1.00  0.00    -0.404 A  
HETATM    6  C   UNL     1     -10.396  10.793  65.702  1.00  0.00    -0.230 A  
HETATM    7  N   UNL     1     -10.161  11.881  66.630  1.00  0.00    -0.206 NA 
HETATM    8  C   UNL     1     -10.353  13.116  66.086  1.00  0.00    -0.284 A  
HETATM    9  C   UNL     1     -10.086  14.057  67.043  1.00  0.00    -0.255 A  
HETATM   10  C   UNL     1      -9.790  13.325  68.228  1.00  0.00    -0.231 A  
HETATM   11  C   UNL     1      -9.884  11.961  67.960  1.00  0.00    -0.190 A  
ENDROOT
BRANCH  11  12
HETATM   12  C   UNL     1      -9.694  10.822  68.843  1.00  0.00    -0.198 C  
HETATM   13  O   UNL     1      -8.691  10.111  68.794  1.00  0.00    -0.124 OA 
BRANCH  12  14
HETATM   14  C   UNL     1     -10.763  10.465  69.823  1.00  0.00    -0.325 A  
HETATM   15  C   UNL     1     -11.930  11.239  69.884  1.00  0.00    -0.440 A  
HETATM   16  C   UNL     1     -12.904  10.968  70.852  1.00  0.00    -0.393 A  
HETATM   17  C   UNL     1     -12.713   9.931  71.764  1.00  0.00    -0.523 A  
HETATM   18  C   UNL     1     -11.556   9.154  71.706  1.00  0.00    -0.457 A  
HETATM   19  C   UNL     1     -10.582   9.421  70.741  1.00  0.00    -0.371 A  
ENDBRANCH  12  14
ENDBRANCH  11  12
TORSDOF 2
ENDMDL
MODEL       12
REMARK 921   NORMALIZED FREE ENERGY PREDICTED BY IDOCK:   -6.31 KCAL/MOL
REMARK 922        TOTAL FREE ENERGY PREDICTED BY IDOCK:   -7.31 KCAL/MOL
REMARK 923 INTER-LIGAND FREE ENERGY PREDICTED BY IDOCK:   -6.80 KCAL/MOL
REMARK 924 INTRA-LIGAND FREE ENERGY PREDICTED BY IDOCK:   -0.51 KCAL/MOL
REMARK 927      BINDING AFFINITY PREDICTED BY RF-SCORE:    0.00 PKD
ROOT
HETATM    1  O   UNL     1      -7.593  19.517  68.685  1.00  0.00    -0.336 OA 
HETATM    2  C   UNL     1      -7.510  20.241  67.546  1.00  0.00    -0.312 C  
HETATM    3  C   UNL     1      -8.107  19.609  66.298  1.00  0.00    -0.347 A  
HETATM    4  O   UNL     1      -7.041  21.373  67.548  1.00  0.00    -0.522 OA 
HETATM    5  C   UNL     1      -9.589  20.034  66.121  1.00  0.00    -0.476 A  
HETATM    6  C   UNL     1     -10.454  18.757  66.190  1.00  0.00    -0.446 A  
HETATM    7  N   UNL     1      -9.478  17.690  66.290  1.00  0.00    -0.424 NA 
HETATM    8  C   UNL     1      -8.190  18.128  66.352  1.00  0.00    -0.253 A  
HETATM    9  C   UNL     1      -7.365  17.039  66.425  1.00  0.00    -0.328 A  
HETATM   10  C   UNL     1      -8.227  15.908  66.479  1.00  0.00    -0.307 A  
HETATM   11  C   UNL     1      -9.552  16.338  66.436  1.00  0.00    -0.291 A  
ENDROOT
BRANCH  11  12
HETATM   12  C   UNL     1     -10.784  15.570  66.483  1.00  0.00    -0.304 C  
HETATM   13  O   UNL     1     -11.453  15.335  65.477  1.00  0.00    -0.276 OA 
BRANCH  12  14
HETATM   14  C   UNL     1     -11.291  15.074  67.797  1.00  0.00    -0.340 A  
HETATM   15  C   UNL     1     -11.414  13.694  68.014  1.00  0.00    -0.345 A  
HETATM   16  C   UNL     1     -11.965  13.217  69.210  1.00  0.00    -0.344 A  
HETATM   17  C   UNL     1     -12.400  14.113  70.185  1.00  0.00    -0.413 A  
HETATM   18  C   UNL     1     -12.277  15.486  69.978  1.00  0.00    -0.380 A  
HETATM   19  C   UNL     1     -11.727  15.967  68.787  1.00  0.00    -0.355 A  
ENDBRANCH  12  14
ENDBRANCH  11  12
TORSDOF 2
ENDMDL
MODEL       13
REMARK 921   NORMALIZED FREE ENERGY PREDICTED BY IDOCK:   -6.27 KCAL/MOL
REMARK 922        TOTAL FREE ENERGY PREDICTED BY IDOCK:   -7.27 KCAL/MOL
REMARK 923 INTER-LIGAND FREE ENERGY PREDICTED BY IDOCK:   -7.12 KCAL/MOL
REMARK 924 INTRA-LIGAND FREE ENERGY PREDICTED BY IDOCK:   -0.16 KCAL/MOL
REMARK 927      BINDING AFFINITY PREDICTED BY RF-SCORE:    0.00 PKD
ROOT
HETATM    1  O   UNL     1     -13.639  15.309  71.051  1.00  0.00    -0.458 OA 
HETATM    2  C   UNL     1     -12.385  15.687  71.386  1.00  0.00    -0.426 C  
HETATM    3  C   UNL     1     -11.273  15.243  70.448  1.00  0.00    -0.325 A  
HETATM    4  O   UNL     1     -12.178  16.408  72.355  1.00  0.00    -0.479 OA 
HETATM    5  C   UNL     1     -11.001  16.321  69.365  1.00  0.00    -0.337 A  
HETATM    6  C   UNL     1     -11.302  15.689  67.990  1.00  0.00    -0.324 A  
HETATM    7  N   UNL     1     -11.613  14.310  68.309  1.00  0.00    -0.305 NA 
HETATM    8  C   UNL     1     -11.606  14.040  69.644  1.00  0.00    -0.289 A  
HETATM    9  C   UNL     1     -11.893  12.714  69.820  1.00  0.00    -0.379 A  
HETATM   10  C   UNL     1     -12.150  12.202  68.517  1.00  0.00    -0.115 A  
HETATM   11  C   UNL     1     -12.012  13.228  67.585  1.00  0.00    -0.322 A  
ENDROOT
BRANCH  11  12
HETATM   12  C   UNL     1     -12.189  13.208  66.143  1.00  0.00    -0.385 C  
HETATM   13  O   UNL     1     -13.078  13.848  65.579  1.00  0.00    -0.699 OA 
BRANCH  12  14
HETATM   14  C   UNL     1     -11.295  12.356  65.304  1.00  0.00    -0.374 A  
HETATM   15  C   UNL     1     -11.152  12.639  63.938  1.00  0.00    -0.476 A  
HETATM   16  C   UNL     1     -10.383  11.801  63.123  1.00  0.00    -0.364 A  
HETATM   17  C   UNL     1      -9.763  10.676  63.665  1.00  0.00    -0.383 A  
HETATM   18  C   UNL     1      -9.897  10.390  65.023  1.00  0.00    -0.384 A  
HETATM   19  C   UNL     1     -10.664  11.225  65.840  1.00  0.00    -0.291 A  
ENDBRANCH  12  14
ENDBRANCH  11  12
TORSDOF 2
ENDMDL
MODEL       14
REMARK 921   NORMALIZED FREE ENERGY PREDICTED BY IDOCK:   -6.24 KCAL/MOL
REMARK 922        TOTAL FREE ENERGY PREDICTED BY IDOCK:   -7.24 KCAL/MOL
REMARK 923 INTER-LIGAND FREE ENERGY PREDICTED BY IDOCK:   -6.76 KCAL/MOL
REMARK 924 INTRA-LIGAND FREE ENERGY PREDICTED BY IDOCK:   -0.48 KCAL/MOL
REMARK 927      BINDING AFFINITY PREDICTED BY RF-SCORE:    0.00 PKD
ROOT
HETATM    1  O   UNL     1     -11.986  11.758  66.925  1.00  0.00    -0.605 OA 
HETATM    2  C   UNL     1     -11.698  11.853  68.242  1.00  0.00    -0.321 C  
HETATM    3  C   UNL     1     -10.988  13.122  68.689  1.00  0.00    -0.296 A  
HETATM    4  O   UNL     1     -12.057  10.988  69.033  1.00  0.00    -0.426 OA 
HETATM    5  C   UNL     1     -12.014  14.201  69.130  1.00  0.00    -0.388 A  
HETATM    6  C   UNL     1     -11.851  15.413  68.190  1.00  0.00    -0.160 A  
HETATM    7  N   UNL     1     -10.721  15.050  67.358  1.00  0.00    -0.282 NA 
HETATM    8  C   UNL     1     -10.233  13.804  67.609  1.00  0.00    -0.242 A  
HETATM    9  C   UNL     1      -9.166  13.581  66.782  1.00  0.00    -0.248 A  
HETATM   10  C   UNL     1      -9.073  14.737  65.956  1.00  0.00    -0.061 A  
HETATM   11  C   UNL     1     -10.085  15.631  66.303  1.00  0.00    -0.299 A  
ENDROOT
BRANCH  11  12
HETATM   12  C   UNL     1     -10.415  16.930  65.741  1.00  0.00    -0.268 C  
HETATM   13  O   UNL     1     -11.048  17.052  64.693  1.00  0.00    -0.997 OA 
BRANCH  12  14
HETATM   14  C   UNL     1      -9.943  18.169  66.428  1.00  0.00    -0.376 A  
HETATM   15  C   UNL     1     -10.878  19.026  67.025  1.00  0.00    -0.438 A  
HETATM   16  C   UNL     1     -10.459  20.231  67.600  1.00  0.00    -0.327 A  
HETATM   17  C   UNL     1      -9.112  20.587  67.574  1.00  0.00    -0.413 A  
HETATM   18  C   UNL     1      -8.176  19.738  66.986  1.00  0.00    -0.340 A  
HETATM   19  C   UNL     1      -8.589  18.533  66.411  1.00  0.00    -0.272 A  
ENDBRANCH  12  14
ENDBRANCH  11  12
TORSDOF 2
ENDMDL
MODEL       15
REMARK 921   NORMALIZED FREE ENERGY PREDICTED BY IDOCK:   -6.23 KCAL/MOL
REMARK 922        TOTAL FREE ENERGY PREDICTED BY IDOCK:   -7.22 KCAL/MOL
REMARK 923 INTER-LIGAND FREE ENERGY PREDICTED BY IDOCK:   -6.92 KCAL/MOL
REMARK 924 INTRA-LIGAND FREE ENERGY PREDICTED BY IDOCK:   -0.30 KCAL/MOL
REMARK 927      BINDING AFFINITY PREDICTED BY RF-SCORE:    0.00 PKD
ROOT
HETATM    1  O   UNL     1      -9.292  11.716  67.439  1.00  0.00    -0.165 OA 
HETATM    2  C   UNL     1     -10.401  11.109  66.960  1.00  0.00    -0.224 C  
HETATM    3  C   UNL     1     -11.484  12.021  66.404  1.00  0.00    -0.417 A  
HETATM    4  O   UNL     1     -10.485   9.887  66.918  1.00  0.00    -0.238 OA 
HETATM    5  C   UNL     1     -11.292  12.237  64.879  1.00  0.00    -0.373 A  
HETATM    6  C   UNL     1     -11.047  13.742  64.646  1.00  0.00    -0.388 A  
HETATM    7  N   UNL     1     -11.207  14.322  65.965  1.00  0.00    -0.319 NA 
HETATM    8  C   UNL     1     -11.445  13.403  66.943  1.00  0.00    -0.342 A  
HETATM    9  C   UNL     1     -11.596  14.064  68.131  1.00  0.00    -0.369 A  
HETATM   10  C   UNL     1     -11.363  15.438  67.838  1.00  0.00    -0.328 A  
HETATM   11  C   UNL     1     -11.078  15.575  66.481  1.00  0.00    -0.182 A  
ENDROOT
BRANCH  11  12
HETATM   12  C   UNL     1     -10.755  16.765  65.712  1.00  0.00    -0.180 C  
HETATM   13  O   UNL     1     -11.109  16.909  64.542  1.00  0.00    -1.054 OA 
BRANCH  12  14
HETATM   14  C   UNL     1      -9.931  17.843  66.336  1.00  0.00    -0.358 A  
HETATM   15  C   UNL     1     -10.517  19.085  66.617  1.00  0.00    -0.517 A  
HETATM   16  C   UNL     1      -9.739  20.131  67.126  1.00  0.00    -0.576 A  
HETATM   17  C   UNL     1      -8.376  19.943  67.348  1.00  0.00    -0.366 A  
HETATM   18  C   UNL     1      -7.787  18.709  67.076  1.00  0.00    -0.242 A  
HETATM   19  C   UNL     1      -8.560  17.662  66.568  1.00  0.00    -0.287 A  
ENDBRANCH  12  14
ENDBRANCH  11  12
TORSDOF 2
ENDMDL
MODEL       16
REMARK 921   NORMALIZED FREE ENERGY PREDICTED BY IDOCK:   -6.21 KCAL/MOL
REMARK 922        TOTAL FREE ENERGY PREDICTED BY IDOCK:   -7.21 KCAL/MOL
REMARK 923 INTER-LIGAND FREE ENERGY PREDICTED BY IDOCK:   -6.80 KCAL/MOL
REMARK 924 INTRA-LIGAND FREE ENERGY PREDICTED BY IDOCK:   -0.41 KCAL/MOL
REMARK 927      BINDING AFFINITY PREDICTED BY RF-SCORE:    0.00 PKD
ROOT
HETATM    1  O   UNL     1     -11.215  15.160  72.402  1.00  0.00    -0.357 OA 
HETATM    2  C   UNL     1     -12.501  14.749  72.474  1.00  0.00    -0.327 C  
HETATM    3  C   UNL     1     -13.076  14.108  71.220  1.00  0.00    -0.420 A  
HETATM    4  O   UNL     1     -13.135  14.829  73.519  1.00  0.00    -0.551 OA 
HETATM    5  C   UNL     1     -12.883  12.569  71.249  1.00  0.00    -0.337 A  
HETATM    6  C   UNL     1     -11.990  12.186  70.050  1.00  0.00    -0.315 A  
HETATM    7  N   UNL     1     -11.804  13.441  69.349  1.00  0.00    -0.320 NA 
HETATM    8  C   UNL     1     -12.386  14.506  69.967  1.00  0.00    -0.323 A  
HETATM    9  C   UNL     1     -12.161  15.623  69.210  1.00  0.00    -0.263 A  
HETATM   10  C   UNL     1     -11.343  15.193  68.127  1.00  0.00    -0.345 A  
HETATM   11  C   UNL     1     -11.094  13.828  68.254  1.00  0.00    -0.255 A  
ENDROOT
BRANCH  11  12
HETATM   12  C   UNL     1     -10.302  12.942  67.416  1.00  0.00    -0.233 C  
HETATM   13  O   UNL     1      -9.182  12.551  67.744  1.00  0.00    -0.183 OA 
BRANCH  12  14
HETATM   14  C   UNL     1     -10.837  12.514  66.089  1.00  0.00    -0.304 A  
HETATM   15  C   UNL     1      -9.983  11.893  65.168  1.00  0.00    -0.276 A  
HETATM   16  C   UNL     1     -10.448  11.561  63.891  1.00  0.00    -0.439 A  
HETATM   17  C   UNL     1     -11.762  11.854  63.528  1.00  0.00    -0.550 A  
HETATM   18  C   UNL     1     -12.619  12.467  64.440  1.00  0.00    -0.497 A  
HETATM   19  C   UNL     1     -12.158  12.801  65.716  1.00  0.00    -0.505 A  
ENDBRANCH  12  14
ENDBRANCH  11  12
TORSDOF 2
ENDMDL
MODEL       17
REMARK 921   NORMALIZED FREE ENERGY PREDICTED BY IDOCK:   -6.16 KCAL/MOL
REMARK 922        TOTAL FREE ENERGY PREDICTED BY IDOCK:   -7.15 KCAL/MOL
REMARK 923 INTER-LIGAND FREE ENERGY PREDICTED BY IDOCK:   -7.05 KCAL/MOL
REMARK 924 INTRA-LIGAND FREE ENERGY PREDICTED BY IDOCK:   -0.10 KCAL/MOL
REMARK 927      BINDING AFFINITY PREDICTED BY RF-SCORE:    0.00 PKD
ROOT
HETATM    1  O   UNL     1      -9.346   8.919  72.174  1.00  0.00    -0.348 OA 
HETATM    2  C   UNL     1      -9.710   8.077  71.182  1.00  0.00    -0.160 C  
HETATM    3  C   UNL     1     -10.763   8.590  70.212  1.00  0.00    -0.242 A  
HETATM    4  O   UNL     1      -9.162   6.990  71.040  1.00  0.00    -0.155 OA 
HETATM    5  C   UNL     1     -10.098   9.282  68.992  1.00  0.00    -0.207 A  
HETATM    6  C   UNL     1     -10.548  10.758  68.988  1.00  0.00    -0.219 A  
HETATM    7  N   UNL     1     -11.493  10.830  70.085  1.00  0.00    -0.312 NA 
HETATM    8  C   UNL     1     -11.628   9.660  70.770  1.00  0.00    -0.321 A  
HETATM    9  C   UNL     1     -12.551   9.843  71.763  1.00  0.00    -0.506 A  
HETATM   10  C   UNL     1     -12.922  11.216  71.692  1.00  0.00    -0.548 A  
HETATM   11  C   UNL     1     -12.215  11.830  70.661  1.00  0.00    -0.349 A  
ENDROOT
BRANCH  11  12
HETATM   12  C   UNL     1     -12.232  13.212  70.212  1.00  0.00    -0.306 C  
HETATM   13  O   UNL     1     -11.923  13.536  69.066  1.00  0.00    -0.327 OA 
BRANCH  12  14
HETATM   14  C   UNL     1     -12.599  14.293  71.175  1.00  0.00    -0.432 A  
HETATM   15  C   UNL     1     -11.591  15.092  71.732  1.00  0.00    -0.478 A  
HETATM   16  C   UNL     1     -11.910  16.054  72.698  1.00  0.00    -0.611 A  
HETATM   17  C   UNL     1     -13.230  16.215  73.115  1.00  0.00    -0.518 A  
HETATM   18  C   UNL     1     -14.238  15.426  72.562  1.00  0.00    -0.500 A  
HETATM   19  C   UNL     1     -13.925  14.465  71.598  1.00  0.00    -0.506 A  
ENDBRANCH  12  14
ENDBRANCH  11  12
TORSDOF 2
ENDMDL
MODEL       18
REMARK 921   NORMALIZED FREE ENERGY PREDICTED BY IDOCK:   -6.14 KCAL/MOL
REMARK 922        TOTAL FREE ENERGY PREDICTED BY IDOCK:   -7.13 KCAL/MOL
REMARK 923 INTER-LIGAND FREE ENERGY PREDICTED BY IDOCK:   -6.78 KCAL/MOL
REMARK 924 INTRA-LIGAND FREE ENERGY PREDICTED BY IDOCK:   -0.35 KCAL/MOL
REMARK 927      BINDING AFFINITY PREDICTED BY RF-SCORE:    0.00 PKD
ROOT
HETATM    1  O   UNL     1     -10.749  17.847  67.810  1.00  0.00    -0.400 OA 
HETATM    2  C   UNL     1      -9.593  17.755  68.506  1.00  0.00    -0.322 C  
HETATM    3  C   UNL     1      -9.252  16.385  69.071  1.00  0.00    -0.247 A  
HETATM    4  O   UNL     1      -8.837  18.714  68.607  1.00  0.00    -0.323 OA 
HETATM    5  C   UNL     1      -8.380  15.578  68.072  1.00  0.00    -0.142 A  
HETATM    6  C   UNL     1      -9.172  14.315  67.674  1.00  0.00    -0.194 A  
HETATM    7  N   UNL     1     -10.361  14.383  68.500  1.00  0.00    -0.242 NA 
HETATM    8  C   UNL     1     -10.430  15.504  69.271  1.00  0.00    -0.245 A  
HETATM    9  C   UNL     1     -11.577  15.449  70.015  1.00  0.00    -0.343 A  
HETATM   10  C   UNL     1     -12.246  14.262  69.600  1.00  0.00    -0.371 A  
HETATM   11  C   UNL     1     -11.488  13.628  68.617  1.00  0.00    -0.307 A  
ENDROOT
BRANCH  11  12
HETATM   12  C   UNL     1     -11.756  12.407  67.876  1.00  0.00    -0.360 C  
HETATM   13  O   UNL     1     -12.086  11.359  68.431  1.00  0.00    -0.575 OA 
BRANCH  12  14
HETATM   14  C   UNL     1     -11.592  12.397  66.392  1.00  0.00    -0.442 A  
HETATM   15  C   UNL     1     -12.347  13.280  65.608  1.00  0.00    -0.521 A  
HETATM   16  C   UNL     1     -12.264  13.226  64.211  1.00  0.00    -0.454 A  
HETATM   17  C   UNL     1     -11.436  12.289  63.596  1.00  0.00    -0.572 A  
HETATM   18  C   UNL     1     -10.679  11.410  64.370  1.00  0.00    -0.405 A  
HETATM   19  C   UNL     1     -10.758  11.461  65.764  1.00  0.00    -0.309 A  
ENDBRANCH  12  14
ENDBRANCH  11  12
TORSDOF 2
ENDMDL
MODEL       19
REMARK 921   NORMALIZED FREE ENERGY PREDICTED BY IDOCK:   -6.13 KCAL/MOL
REMARK 922        TOTAL FREE ENERGY PREDICTED BY IDOCK:   -7.12 KCAL/MOL
REMARK 923 INTER-LIGAND FREE ENERGY PREDICTED BY IDOCK:   -6.97 KCAL/MOL
REMARK 924 INTRA-LIGAND FREE ENERGY PREDICTED BY IDOCK:   -0.14 KCAL/MOL
REMARK 927      BINDING AFFINITY PREDICTED BY RF-SCORE:    0.00 PKD
ROOT
HETATM    1  O   UNL     1      -8.717  10.293  67.996  1.00  0.00    -0.121 OA 
HETATM    2  C   UNL     1      -9.565   9.795  67.069  1.00  0.00    -0.172 C  
HETATM    3  C   UNL     1     -10.954  10.415  67.021  1.00  0.00    -0.222 A  
HETATM    4  O   UNL     1      -9.200   8.940  66.271  1.00  0.00    -0.175 OA 
HETATM    5  C   UNL     1     -10.996  11.592  66.010  1.00  0.00    -0.338 A  
HETATM    6  C   UNL     1     -11.342  12.873  66.798  1.00  0.00    -0.322 A  
HETATM    7  N   UNL     1     -11.581  12.392  68.144  1.00  0.00    -0.321 NA 
HETATM    8  C   UNL     1     -11.375  11.053  68.293  1.00  0.00    -0.299 A  
HETATM    9  C   UNL     1     -11.647  10.714  69.590  1.00  0.00    -0.368 A  
HETATM   10  C   UNL     1     -11.962  11.937  70.247  1.00  0.00    -0.416 A  
HETATM   11  C   UNL     1     -11.874  12.985  69.333  1.00  0.00    -0.322 A  
ENDROOT
BRANCH  11  12
HETATM   12  C   UNL     1     -12.082  14.411  69.526  1.00  0.00    -0.322 C  
HETATM   13  O   UNL     1     -11.892  15.231  68.629  1.00  0.00    -0.346 OA 
BRANCH  12  14
HETATM   14  C   UNL     1     -12.502  14.917  70.866  1.00  0.00    -0.395 A  
HETATM   15  C   UNL     1     -13.857  14.877  71.226  1.00  0.00    -0.500 A  
HETATM   16  C   UNL     1     -14.277  15.423  72.444  1.00  0.00    -0.584 A  
HETATM   17  C   UNL     1     -13.351  16.016  73.301  1.00  0.00    -0.625 A  
HETATM   18  C   UNL     1     -12.002  16.055  72.952  1.00  0.00    -0.611 A  
HETATM   19  C   UNL     1     -11.578  15.511  71.737  1.00  0.00    -0.515 A  
ENDBRANCH  12  14
ENDBRANCH  11  12
TORSDOF 2
ENDMDL
MODEL       20
REMARK 921   NORMALIZED FREE ENERGY PREDICTED BY IDOCK:   -6.13 KCAL/MOL
REMARK 922        TOTAL FREE ENERGY PREDICTED BY IDOCK:   -7.11 KCAL/MOL
REMARK 923 INTER-LIGAND FREE ENERGY PREDICTED BY IDOCK:   -7.04 KCAL/MOL
REMARK 924 INTRA-LIGAND FREE ENERGY PREDICTED BY IDOCK:   -0.07 KCAL/MOL
REMARK 927      BINDING AFFINITY PREDICTED BY RF-SCORE:    0.00 PKD
ROOT
HETATM    1  O   UNL     1     -12.158  11.410  67.948  1.00  0.00    -0.646 OA 
HETATM    2  C   UNL     1     -11.150  10.693  67.403  1.00  0.00    -0.272 C  
HETATM    3  C   UNL     1     -10.357  11.373  66.297  1.00  0.00    -0.287 A  
HETATM    4  O   UNL     1     -10.856   9.584  67.834  1.00  0.00    -0.245 OA 
HETATM    5  C   UNL     1      -9.128  12.120  66.881  1.00  0.00    -0.203 A  
HETATM    6  C   UNL     1      -9.298  13.620  66.564  1.00  0.00    -0.228 A  
HETATM    7  N   UNL     1     -10.501  13.665  65.757  1.00  0.00    -0.287 NA 
HETATM    8  C   UNL     1     -11.099  12.451  65.598  1.00  0.00    -0.306 A  
HETATM    9  C   UNL     1     -12.206  12.614  64.809  1.00  0.00    -0.528 A  
HETATM   10  C   UNL     1     -12.293  14.012  64.555  1.00  0.00    -0.409 A  
HETATM   11  C   UNL     1     -11.238  14.661  65.194  1.00  0.00    -0.374 A  
ENDROOT
BRANCH  11  12
HETATM   12  C   UNL     1     -10.910  16.075  65.248  1.00  0.00    -0.362 C  
HETATM   13  O   UNL     1     -11.170  16.848  64.326  1.00  0.00    -1.204 OA 
BRANCH  12  14
HETATM   14  C   UNL     1     -10.196  16.619  66.442  1.00  0.00    -0.322 A  
HETATM   15  C   UNL     1     -10.877  16.732  67.662  1.00  0.00    -0.252 A  
HETATM   16  C   UNL     1     -10.247  17.314  68.768  1.00  0.00    -0.353 A  
HETATM   17  C   UNL     1      -8.942  17.792  68.657  1.00  0.00    -0.258 A  
HETATM   18  C   UNL     1      -8.257  17.679  67.448  1.00  0.00    -0.221 A  
HETATM   19  C   UNL     1      -8.882  17.098  66.342  1.00  0.00    -0.288 A  
ENDBRANCH  12  14
ENDBRANCH  11  12
TORSDOF 2
ENDMDL
MODEL       21
REMARK 921   NORMALIZED FREE ENERGY PREDICTED BY IDOCK:   -6.09 KCAL/MOL
REMARK 922        TOTAL FREE ENERGY PREDICTED BY IDOCK:   -7.07 KCAL/MOL
REMARK 923 INTER-LIGAND FREE ENERGY PREDICTED BY IDOCK:   -7.00 KCAL/MOL
REMARK 924 INTRA-LIGAND FREE ENERGY PREDICTED BY IDOCK:   -0.07 KCAL/MOL
REMARK 927      BINDING AFFINITY PREDICTED BY RF-SCORE:    0.00 PKD
ROOT
HETATM    1  O   UNL     1      -8.485  15.833  66.426  1.00  0.00    -0.286 OA 
HETATM    2  C   UNL     1      -9.178  16.991  66.345  1.00  0.00    -0.271 C  
HETATM    3  C   UNL     1     -10.526  17.024  67.049  1.00  0.00    -0.279 A  
HETATM    4  O   UNL     1      -8.702  17.976  65.792  1.00  0.00    -0.482 OA 
HETATM    5  C   UNL     1     -10.376  17.548  68.502  1.00  0.00    -0.380 A  
HETATM    6  C   UNL     1     -10.821  16.420  69.456  1.00  0.00    -0.338 A  
HETATM    7  N   UNL     1     -11.290  15.381  68.560  1.00  0.00    -0.318 NA 
HETATM    8  C   UNL     1     -11.139  15.685  67.240  1.00  0.00    -0.238 A  
HETATM    9  C   UNL     1     -11.629  14.647  66.497  1.00  0.00    -0.350 A  
HETATM   10  C   UNL     1     -12.024  13.655  67.438  1.00  0.00    -0.413 A  
HETATM   11  C   UNL     1     -11.764  14.116  68.727  1.00  0.00    -0.345 A  
ENDROOT
BRANCH  11  12
HETATM   12  C   UNL     1     -11.972  13.466  70.010  1.00  0.00    -0.337 C  
HETATM   13  O   UNL     1     -11.740  12.270  70.188  1.00  0.00    -0.293 OA 
BRANCH  12  14
HETATM   14  C   UNL     1     -12.525  14.254  71.152  1.00  0.00    -0.433 A  
HETATM   15  C   UNL     1     -13.879  14.614  71.152  1.00  0.00    -0.340 A  
HETATM   16  C   UNL     1     -14.392  15.422  72.174  1.00  0.00    -0.642 A  
HETATM   17  C   UNL     1     -13.555  15.877  73.191  1.00  0.00    -0.580 A  
HETATM   18  C   UNL     1     -12.208  15.519  73.200  1.00  0.00    -0.580 A  
HETATM   19  C   UNL     1     -11.692  14.713  72.183  1.00  0.00    -0.098 A  
ENDBRANCH  12  14
ENDBRANCH  11  12
TORSDOF 2
ENDMDL
MODEL       22
REMARK 921   NORMALIZED FREE ENERGY PREDICTED BY IDOCK:   -6.03 KCAL/MOL
REMARK 922        TOTAL FREE ENERGY PREDICTED BY IDOCK:   -7.00 KCAL/MOL
REMARK 923 INTER-LIGAND FREE ENERGY PREDICTED BY IDOCK:   -6.46 KCAL/MOL
REMARK 924 INTRA-LIGAND FREE ENERGY PREDICTED BY IDOCK:   -0.54 KCAL/MOL
REMARK 927      BINDING AFFINITY PREDICTED BY RF-SCORE:    0.00 PKD
ROOT
HETATM    1  O   UNL     1     -10.808   9.777  67.133  1.00  0.00    -0.235 OA 
HETATM    2  C   UNL     1      -9.769  10.058  66.316  1.00  0.00    -0.214 C  
HETATM    3  C   UNL     1      -9.427  11.530  66.139  1.00  0.00    -0.239 A  
HETATM    4  O   UNL     1      -9.102   9.164  65.809  1.00  0.00    -0.183 OA 
HETATM    5  C   UNL     1      -8.363  11.978  67.176  1.00  0.00    -0.181 A  
HETATM    6  C   UNL     1      -8.999  13.071  68.059  1.00  0.00    -0.199 A  
HETATM    7  N   UNL     1     -10.302  13.279  67.458  1.00  0.00    -0.228 NA 
HETATM    8  C   UNL     1     -10.561  12.450  66.409  1.00  0.00    -0.244 A  
HETATM    9  C   UNL     1     -11.801  12.749  65.916  1.00  0.00    -0.490 A  
HETATM   10  C   UNL     1     -12.319  13.763  66.771  1.00  0.00    -0.365 A  
HETATM   11  C   UNL     1     -11.381  14.052  67.760  1.00  0.00    -0.303 A  
ENDROOT
BRANCH  11  12
HETATM   12  C   UNL     1     -11.452  14.992  68.866  1.00  0.00    -0.314 C  
HETATM   13  O   UNL     1     -10.859  16.070  68.853  1.00  0.00    -0.250 OA 
BRANCH  12  14
HETATM   14  C   UNL     1     -12.237  14.634  70.085  1.00  0.00    -0.391 A  
HETATM   15  C   UNL     1     -12.250  13.306  70.533  1.00  0.00    -0.416 A  
HETATM   16  C   UNL     1     -13.045  12.940  71.625  1.00  0.00    -0.430 A  
HETATM   17  C   UNL     1     -13.834  13.894  72.266  1.00  0.00    -0.669 A  
HETATM   18  C   UNL     1     -13.823  15.218  71.829  1.00  0.00    -0.622 A  
HETATM   19  C   UNL     1     -13.029  15.588  70.740  1.00  0.00    -0.490 A  
ENDBRANCH  12  14
ENDBRANCH  11  12
TORSDOF 2
ENDMDL
MODEL       23
REMARK 921   NORMALIZED FREE ENERGY PREDICTED BY IDOCK:   -6.03 KCAL/MOL
REMARK 922        TOTAL FREE ENERGY PREDICTED BY IDOCK:   -7.00 KCAL/MOL
REMARK 923 INTER-LIGAND FREE ENERGY PREDICTED BY IDOCK:   -6.53 KCAL/MOL
REMARK 924 INTRA-LIGAND FREE ENERGY PREDICTED BY IDOCK:   -0.47 KCAL/MOL
REMARK 927      BINDING AFFINITY PREDICTED BY RF-SCORE:    0.00 PKD
ROOT
HETATM    1  O   UNL     1     -11.874  11.927  66.265  1.00  0.00    -0.546 OA 
HETATM    2  C   UNL     1     -12.484  12.891  65.540  1.00  0.00    -0.402 C  
HETATM    3  C   UNL     1     -12.077  14.325  65.844  1.00  0.00    -0.416 A  
HETATM    4  O   UNL     1     -13.268  12.608  64.642  1.00  0.00    -0.828 OA 
HETATM    5  C   UNL     1     -10.909  14.772  64.924  1.00  0.00    -0.433 A  
HETATM    6  C   UNL     1      -9.701  15.100  65.826  1.00  0.00    -0.344 A  
HETATM    7  N   UNL     1     -10.225  14.942  67.168  1.00  0.00    -0.244 NA 
HETATM    8  C   UNL     1     -11.519  14.519  67.206  1.00  0.00    -0.365 A  
HETATM    9  C   UNL     1     -11.907  14.425  68.514  1.00  0.00    -0.369 A  
HETATM   10  C   UNL     1     -10.750  14.745  69.280  1.00  0.00    -0.263 A  
HETATM   11  C   UNL     1      -9.692  15.026  68.418  1.00  0.00    -0.216 A  
ENDROOT
BRANCH  11  12
HETATM   12  C   UNL     1      -8.315  15.382  68.716  1.00  0.00    -0.182 C  
HETATM   13  O   UNL     1      -7.445  14.536  68.922  1.00  0.00    -0.122 OA 
BRANCH  12  14
HETATM   14  C   UNL     1      -7.935  16.823  68.820  1.00  0.00    -0.250 A  
HETATM   15  C   UNL     1      -6.649  17.168  69.257  1.00  0.00    -0.234 A  
HETATM   16  C   UNL     1      -6.305  18.513  69.438  1.00  0.00    -0.271 A  
HETATM   17  C   UNL     1      -7.244  19.513  69.191  1.00  0.00    -0.382 A  
HETATM   18  C   UNL     1      -8.524  19.178  68.751  1.00  0.00    -0.376 A  
HETATM   19  C   UNL     1      -8.871  17.837  68.569  1.00  0.00    -0.284 A  
ENDBRANCH  12  14
ENDBRANCH  11  12
TORSDOF 2
ENDMDL
MODEL       24
REMARK 921   NORMALIZED FREE ENERGY PREDICTED BY IDOCK:   -6.00 KCAL/MOL
REMARK 922        TOTAL FREE ENERGY PREDICTED BY IDOCK:   -6.97 KCAL/MOL
REMARK 923 INTER-LIGAND FREE ENERGY PREDICTED BY IDOCK:   -6.53 KCAL/MOL
REMARK 924 INTRA-LIGAND FREE ENERGY PREDICTED BY IDOCK:   -0.44 KCAL/MOL
REMARK 927      BINDING AFFINITY PREDICTED BY RF-SCORE:    0.00 PKD
ROOT
HETATM    1  O   UNL     1      -7.543  19.364  68.672  1.00  0.00    -0.337 OA 
HETATM    2  C   UNL     1      -7.780  20.062  67.538  1.00  0.00    -0.298 C  
HETATM    3  C   UNL     1      -8.608  19.359  66.473  1.00  0.00    -0.363 A  
HETATM    4  O   UNL     1      -7.404  21.222  67.419  1.00  0.00    -0.484 OA 
HETATM    5  C   UNL     1     -10.117  19.680  66.646  1.00  0.00    -0.555 A  
HETATM    6  C   UNL     1     -10.849  18.352  66.931  1.00  0.00    -0.140 A  
HETATM    7  N   UNL     1      -9.805  17.354  66.808  1.00  0.00    -0.283 NA 
HETATM    8  C   UNL     1      -8.572  17.878  66.560  1.00  0.00    -0.255 A  
HETATM    9  C   UNL     1      -7.678  16.848  66.447  1.00  0.00    -0.345 A  
HETATM   10  C   UNL     1      -8.422  15.664  66.714  1.00  0.00    -0.307 A  
HETATM   11  C   UNL     1      -9.747  16.005  66.981  1.00  0.00    -0.229 A  
ENDROOT
BRANCH  11  12
HETATM   12  C   UNL     1     -10.877  15.158  67.326  1.00  0.00    -0.316 C  
HETATM   13  O   UNL     1     -11.536  14.562  66.475  1.00  0.00    -0.360 OA 
BRANCH  12  14
HETATM   14  C   UNL     1     -11.289  15.029  68.755  1.00  0.00    -0.306 A  
HETATM   15  C   UNL     1     -10.857  15.982  69.687  1.00  0.00    -0.329 A  
HETATM   16  C   UNL     1     -11.167  15.829  71.044  1.00  0.00    -0.396 A  
HETATM   17  C   UNL     1     -11.900  14.724  71.473  1.00  0.00    -0.394 A  
HETATM   18  C   UNL     1     -12.336  13.774  70.550  1.00  0.00    -0.429 A  
HETATM   19  C   UNL     1     -12.030  13.923  69.195  1.00  0.00    -0.404 A  
ENDBRANCH  12  14
ENDBRANCH  11  12
TORSDOF 2
ENDMDL
MODEL       25
REMARK 921   NORMALIZED FREE ENERGY PREDICTED BY IDOCK:   -6.00 KCAL/MOL
REMARK 922        TOTAL FREE ENERGY PREDICTED BY IDOCK:   -6.97 KCAL/MOL
REMARK 923 INTER-LIGAND FREE ENERGY PREDICTED BY IDOCK:   -6.72 KCAL/MOL
REMARK 924 INTRA-LIGAND FREE ENERGY PREDICTED BY IDOCK:   -0.25 KCAL/MOL
REMARK 927      BINDING AFFINITY PREDICTED BY RF-SCORE:    0.00 PKD
ROOT
HETATM    1  O   UNL     1      -9.538  11.735  64.384  1.00  0.00    -0.175 OA 
HETATM    2  C   UNL     1     -10.198  11.230  65.451  1.00  0.00    -0.270 C  
HETATM    3  C   UNL     1     -10.665  12.234  66.494  1.00  0.00    -0.279 A  
HETATM    4  O   UNL     1     -10.462  10.035  65.525  1.00  0.00    -0.167 OA 
HETATM    5  C   UNL     1     -12.109  12.714  66.189  1.00  0.00    -0.399 A  
HETATM    6  C   UNL     1     -12.053  14.235  65.934  1.00  0.00    -0.404 A  
HETATM    7  N   UNL     1     -10.669  14.574  66.197  1.00  0.00    -0.303 NA 
HETATM    8  C   UNL     1      -9.889  13.499  66.503  1.00  0.00    -0.291 A  
HETATM    9  C   UNL     1      -8.618  13.941  66.747  1.00  0.00    -0.066 A  
HETATM   10  C   UNL     1      -8.646  15.343  66.501  1.00  0.00    -0.294 A  
HETATM   11  C   UNL     1      -9.932  15.715  66.114  1.00  0.00    -0.312 A  
ENDROOT
BRANCH  11  12
HETATM   12  C   UNL     1     -10.452  17.020  65.741  1.00  0.00    -0.251 C  
HETATM   13  O   UNL     1     -11.022  17.219  64.668  1.00  0.00    -1.013 OA 
BRANCH  12  14
HETATM   14  C   UNL     1     -10.262  18.179  66.664  1.00  0.00    -0.388 A  
HETATM   15  C   UNL     1     -10.065  17.947  68.032  1.00  0.00    -0.360 A  
HETATM   16  C   UNL     1      -9.967  19.024  68.920  1.00  0.00    -0.460 A  
HETATM   17  C   UNL     1     -10.074  20.331  68.448  1.00  0.00    -0.341 A  
HETATM   18  C   UNL     1     -10.266  20.569  67.088  1.00  0.00    -0.334 A  
HETATM   19  C   UNL     1     -10.364  19.497  66.198  1.00  0.00    -0.614 A  
ENDBRANCH  12  14
ENDBRANCH  11  12
TORSDOF 2
ENDMDL
MODEL       26
REMARK 921   NORMALIZED FREE ENERGY PREDICTED BY IDOCK:   -5.98 KCAL/MOL
REMARK 922        TOTAL FREE ENERGY PREDICTED BY IDOCK:   -6.95 KCAL/MOL
REMARK 923 INTER-LIGAND FREE ENERGY PREDICTED BY IDOCK:   -6.46 KCAL/MOL
REMARK 924 INTRA-LIGAND FREE ENERGY PREDICTED BY IDOCK:   -0.50 KCAL/MOL
REMARK 927      BINDING AFFINITY PREDICTED BY RF-SCORE:    0.00 PKD
ROOT
HETATM    1  O   UNL     1      -9.588  15.858  65.269  1.00  0.00    -0.354 OA 
HETATM    2  C   UNL     1     -10.262  16.767  66.008  1.00  0.00    -0.346 C  
HETATM    3  C   UNL     1     -11.019  16.230  67.213  1.00  0.00    -0.144 A  
HETATM    4  O   UNL     1     -10.198  17.964  65.753  1.00  0.00    -0.577 OA 
HETATM    5  C   UNL     1     -10.133  16.275  68.486  1.00  0.00    -0.239 A  
HETATM    6  C   UNL     1      -9.950  14.825  68.981  1.00  0.00    -0.218 A  
HETATM    7  N   UNL     1     -10.784  14.051  68.084  1.00  0.00    -0.241 NA 
HETATM    8  C   UNL     1     -11.378  14.793  67.109  1.00  0.00    -0.356 A  
HETATM    9  C   UNL     1     -12.149  13.964  66.341  1.00  0.00    -0.489 A  
HETATM   10  C   UNL     1     -11.935  12.655  66.858  1.00  0.00    -0.345 A  
HETATM   11  C   UNL     1     -11.042  12.723  67.925  1.00  0.00    -0.246 A  
ENDROOT
BRANCH  11  12
HETATM   12  C   UNL     1     -10.500  11.662  68.758  1.00  0.00    -0.204 C  
HETATM   13  O   UNL     1      -9.396  11.160  68.550  1.00  0.00    -0.178 OA 
BRANCH  12  14
HETATM   14  C   UNL     1     -11.317  11.125  69.887  1.00  0.00    -0.348 A  
HETATM   15  C   UNL     1     -11.217   9.769  70.228  1.00  0.00    -0.347 A  
HETATM   16  C   UNL     1     -12.036   9.234  71.229  1.00  0.00    -0.414 A  
HETATM   17  C   UNL     1     -12.960  10.046  71.884  1.00  0.00    -0.547 A  
HETATM   18  C   UNL     1     -13.063  11.396  71.553  1.00  0.00    -0.438 A  
HETATM   19  C   UNL     1     -12.247  11.935  70.555  1.00  0.00    -0.426 A  
ENDBRANCH  12  14
ENDBRANCH  11  12
TORSDOF 2
ENDMDL
MODEL       27
REMARK 921   NORMALIZED FREE ENERGY PREDICTED BY IDOCK:   -5.97 KCAL/MOL
REMARK 922        TOTAL FREE ENERGY PREDICTED BY IDOCK:   -6.94 KCAL/MOL
REMARK 923 INTER-LIGAND FREE ENERGY PREDICTED BY IDOCK:   -6.69 KCAL/MOL
REMARK 924 INTRA-LIGAND FREE ENERGY PREDICTED BY IDOCK:   -0.24 KCAL/MOL
REMARK 927      BINDING AFFINITY PREDICTED BY RF-SCORE:    0.00 PKD
ROOT
HETATM    1  O   UNL     1     -13.386  12.249  64.394  1.00  0.00    -0.786 OA 
HETATM    2  C   UNL     1     -12.302  12.926  63.955  1.00  0.00    -0.380 C  
HETATM    3  C   UNL     1     -10.997  12.661  64.690  1.00  0.00    -0.346 A  
HETATM    4  O   UNL     1     -12.365  13.655  62.973  1.00  0.00    -0.672 OA 
HETATM    5  C   UNL     1     -10.202  11.515  64.007  1.00  0.00    -0.394 A  
HETATM    6  C   UNL     1     -10.064  10.367  65.029  1.00  0.00    -0.309 A  
HETATM    7  N   UNL     1     -10.658  10.911  66.235  1.00  0.00    -0.241 NA 
HETATM    8  C   UNL     1     -11.175  12.161  66.076  1.00  0.00    -0.336 A  
HETATM    9  C   UNL     1     -11.687  12.573  67.276  1.00  0.00    -0.431 A  
HETATM   10  C   UNL     1     -11.519  11.472  68.163  1.00  0.00    -0.385 A  
HETATM   11  C   UNL     1     -10.910  10.422  67.480  1.00  0.00    -0.301 A  
ENDROOT
BRANCH  11  12
HETATM   12  C   UNL     1     -10.550   9.092  67.944  1.00  0.00    -0.214 C  
HETATM   13  O   UNL     1     -10.595   8.104  67.211  1.00  0.00    -0.299 OA 
BRANCH  12  14
HETATM   14  C   UNL     1     -10.145   8.895  69.368  1.00  0.00    -0.202 A  
HETATM   15  C   UNL     1     -11.132   8.723  70.348  1.00  0.00    -0.261 A  
HETATM   16  C   UNL     1     -10.773   8.619  71.697  1.00  0.00    -0.374 A  
HETATM   17  C   UNL     1      -9.432   8.695  72.070  1.00  0.00    -0.370 A  
HETATM   18  C   UNL     1      -8.444   8.861  71.100  1.00  0.00    -0.250 A  
HETATM   19  C   UNL     1      -8.799   8.965  69.753  1.00  0.00    -0.144 A  
ENDBRANCH  12  14
ENDBRANCH  11  12
TORSDOF 2
ENDMDL
MODEL       28
REMARK 921   NORMALIZED FREE ENERGY PREDICTED BY IDOCK:   -5.96 KCAL/MOL
REMARK 922        TOTAL FREE ENERGY PREDICTED BY IDOCK:   -6.92 KCAL/MOL
REMARK 923 INTER-LIGAND FREE ENERGY PREDICTED BY IDOCK:   -6.43 KCAL/MOL
REMARK 924 INTRA-LIGAND FREE ENERGY PREDICTED BY IDOCK:   -0.49 KCAL/MOL
REMARK 927      BINDING AFFINITY PREDICTED BY RF-SCORE:    0.00 PKD
ROOT
HETATM    1  O   UNL     1     -10.660  18.641  65.672  1.00  0.00    -0.610 OA 
HETATM    2  C   UNL     1      -9.582  19.050  66.378  1.00  0.00    -0.353 C  
HETATM    3  C   UNL     1      -8.970  18.032  67.328  1.00  0.00    -0.251 A  
HETATM    4  O   UNL     1      -9.092  20.159  66.200  1.00  0.00    -0.327 OA 
HETATM    5  C   UNL     1      -7.845  17.227  66.624  1.00  0.00    -0.295 A  
HETATM    6  C   UNL     1      -8.270  15.744  66.608  1.00  0.00    -0.270 A  
HETATM    7  N   UNL     1      -9.508  15.735  67.362  1.00  0.00    -0.211 NA 
HETATM    8  C   UNL     1      -9.913  16.972  67.766  1.00  0.00    -0.280 A  
HETATM    9  C   UNL     1     -11.072  16.837  68.478  1.00  0.00    -0.260 A  
HETATM   10  C   UNL     1     -11.395  15.451  68.426  1.00  0.00    -0.345 A  
HETATM   11  C   UNL     1     -10.424  14.782  67.684  1.00  0.00    -0.254 A  
ENDROOT
BRANCH  11  12
HETATM   12  C   UNL     1     -10.323  13.375  67.335  1.00  0.00    -0.240 C  
HETATM   13  O   UNL     1      -9.794  12.548  68.078  1.00  0.00    -0.201 OA 
BRANCH  12  14
HETATM   14  C   UNL     1     -10.838  12.906  66.014  1.00  0.00    -0.300 A  
HETATM   15  C   UNL     1     -12.184  13.118  65.683  1.00  0.00    -0.521 A  
HETATM   16  C   UNL     1     -12.701  12.613  64.485  1.00  0.00    -0.439 A  
HETATM   17  C   UNL     1     -11.882  11.890  63.620  1.00  0.00    -0.573 A  
HETATM   18  C   UNL     1     -10.541  11.679  63.940  1.00  0.00    -0.446 A  
HETATM   19  C   UNL     1     -10.021  12.182  65.135  1.00  0.00    -0.251 A  
ENDBRANCH  12  14
ENDBRANCH  11  12
TORSDOF 2
ENDMDL
MODEL       29
REMARK 921   NORMALIZED FREE ENERGY PREDICTED BY IDOCK:   -5.95 KCAL/MOL
REMARK 922        TOTAL FREE ENERGY PREDICTED BY IDOCK:   -6.92 KCAL/MOL
REMARK 923 INTER-LIGAND FREE ENERGY PREDICTED BY IDOCK:   -6.51 KCAL/MOL
REMARK 924 INTRA-LIGAND FREE ENERGY PREDICTED BY IDOCK:   -0.41 KCAL/MOL
REMARK 927      BINDING AFFINITY PREDICTED BY RF-SCORE:    0.00 PKD
ROOT
HETATM    1  O   UNL     1     -14.324  15.217  70.632  1.00  0.00    -0.068 OA 
HETATM    2  C   UNL     1     -13.546  15.375  71.727  1.00  0.00    -0.498 C  
HETATM    3  C   UNL     1     -12.119  14.861  71.621  1.00  0.00    -0.415 A  
HETATM    4  O   UNL     1     -13.959  15.966  72.717  1.00  0.00    -0.581 OA 
HETATM    5  C   UNL     1     -11.163  15.983  71.132  1.00  0.00    -0.313 A  
HETATM    6  C   UNL     1     -10.561  15.531  69.786  1.00  0.00    -0.295 A  
HETATM    7  N   UNL     1     -11.079  14.189  69.612  1.00  0.00    -0.192 NA 
HETATM    8  C   UNL     1     -11.933  13.799  70.599  1.00  0.00    -0.266 A  
HETATM    9  C   UNL     1     -12.341  12.519  70.340  1.00  0.00    -0.311 A  
HETATM   10  C   UNL     1     -11.743  12.172  69.095  1.00  0.00    -0.384 A  
HETATM   11  C   UNL     1     -10.990  13.249  68.632  1.00  0.00    -0.264 A  
ENDROOT
BRANCH  11  12
HETATM   12  C   UNL     1     -10.215  13.388  67.410  1.00  0.00    -0.237 C  
HETATM   13  O   UNL     1      -9.037  13.742  67.414  1.00  0.00    -0.201 OA 
BRANCH  12  14
HETATM   14  C   UNL     1     -10.870  13.134  66.092  1.00  0.00    -0.293 A  
HETATM   15  C   UNL     1     -10.557  11.968  65.379  1.00  0.00    -0.319 A  
HETATM   16  C   UNL     1     -11.100  11.755  64.107  1.00  0.00    -0.442 A  
HETATM   17  C   UNL     1     -11.947  12.707  63.541  1.00  0.00    -0.630 A  
HETATM   18  C   UNL     1     -12.266  13.866  64.246  1.00  0.00    -0.447 A  
HETATM   19  C   UNL     1     -11.727  14.082  65.517  1.00  0.00    -0.353 A  
ENDBRANCH  12  14
ENDBRANCH  11  12
TORSDOF 2
ENDMDL
MODEL       30
REMARK 921   NORMALIZED FREE ENERGY PREDICTED BY IDOCK:   -5.95 KCAL/MOL
REMARK 922        TOTAL FREE ENERGY PREDICTED BY IDOCK:   -6.91 KCAL/MOL
REMARK 923 INTER-LIGAND FREE ENERGY PREDICTED BY IDOCK:   -6.48 KCAL/MOL
REMARK 924 INTRA-LIGAND FREE ENERGY PREDICTED BY IDOCK:   -0.43 KCAL/MOL
REMARK 927      BINDING AFFINITY PREDICTED BY RF-SCORE:    0.00 PKD
ROOT
HETATM    1  O   UNL     1     -11.016  16.333  66.486  1.00  0.00    -0.177 OA 
HETATM    2  C   UNL     1     -10.941  16.085  65.160  1.00  0.00    -0.348 C  
HETATM    3  C   UNL     1     -10.807  14.625  64.752  1.00  0.00    -0.402 A  
HETATM    4  O   UNL     1     -11.049  16.988  64.339  1.00  0.00    -1.144 OA 
HETATM    5  C   UNL     1     -12.202  13.993  64.501  1.00  0.00    -0.463 A  
HETATM    6  C   UNL     1     -12.385  12.845  65.516  1.00  0.00    -0.461 A  
HETATM    7  N   UNL     1     -11.111  12.792  66.205  1.00  0.00    -0.282 NA 
HETATM    8  C   UNL     1     -10.232  13.754  65.808  1.00  0.00    -0.311 A  
HETATM    9  C   UNL     1      -9.068  13.594  66.508  1.00  0.00    -0.138 A  
HETATM   10  C   UNL     1      -9.310  12.521  67.413  1.00  0.00    -0.187 A  
HETATM   11  C   UNL     1     -10.613  12.059  67.238  1.00  0.00    -0.222 A  
ENDROOT
BRANCH  11  12
HETATM   12  C   UNL     1     -11.328  11.002  67.933  1.00  0.00    -0.311 C  
HETATM   13  O   UNL     1     -12.406  11.195  68.494  1.00  0.00    -0.561 OA 
BRANCH  12  14
HETATM   14  C   UNL     1     -10.728   9.636  68.010  1.00  0.00    -0.284 A  
HETATM   15  C   UNL     1     -10.517   8.907  66.832  1.00  0.00    -0.304 A  
HETATM   16  C   UNL     1     -10.032   7.595  66.894  1.00  0.00    -0.325 A  
HETATM   17  C   UNL     1      -9.766   7.007  68.130  1.00  0.00    -0.139 A  
HETATM   18  C   UNL     1      -9.969   7.728  69.306  1.00  0.00    -0.182 A  
HETATM   19  C   UNL     1     -10.452   9.038  69.248  1.00  0.00    -0.238 A  
ENDBRANCH  12  14
ENDBRANCH  11  12
TORSDOF 2
ENDMDL
MODEL       31
REMARK 921   NORMALIZED FREE ENERGY PREDICTED BY IDOCK:   -5.92 KCAL/MOL
REMARK 922        TOTAL FREE ENERGY PREDICTED BY IDOCK:   -6.88 KCAL/MOL
REMARK 923 INTER-LIGAND FREE ENERGY PREDICTED BY IDOCK:   -6.45 KCAL/MOL
REMARK 924 INTRA-LIGAND FREE ENERGY PREDICTED BY IDOCK:   -0.43 KCAL/MOL
REMARK 927      BINDING AFFINITY PREDICTED BY RF-SCORE:    0.00 PKD
ROOT
HETATM    1  O   UNL     1      -7.582  17.226  65.904  1.00  0.00    -0.442 OA 
HETATM    2  C   UNL     1      -6.887  17.887  66.857  1.00  0.00    -0.180 C  
HETATM    3  C   UNL     1      -7.448  17.820  68.270  1.00  0.00    -0.247 A  
HETATM    4  O   UNL     1      -5.828  18.443  66.597  1.00  0.00    -0.143 OA 
HETATM    5  C   UNL     1      -6.833  16.629  69.052  1.00  0.00    -0.207 A  
HETATM    6  C   UNL     1      -7.983  15.670  69.425  1.00  0.00    -0.226 A  
HETATM    7  N   UNL     1      -9.169  16.365  68.964  1.00  0.00    -0.257 NA 
HETATM    8  C   UNL     1      -8.905  17.540  68.329  1.00  0.00    -0.274 A  
HETATM    9  C   UNL     1     -10.092  18.109  67.959  1.00  0.00    -0.376 A  
HETATM   10  C   UNL     1     -11.099  17.178  68.339  1.00  0.00    -0.107 A  
HETATM   11  C   UNL     1     -10.497  16.069  68.930  1.00  0.00    -0.245 A  
ENDROOT
BRANCH  11  12
HETATM   12  C   UNL     1     -11.096  14.855  69.460  1.00  0.00    -0.281 C  
HETATM   13  O   UNL     1     -11.083  13.790  68.841  1.00  0.00    -0.250 OA 
BRANCH  12  14
HETATM   14  C   UNL     1     -11.789  14.893  70.782  1.00  0.00    -0.368 A  
HETATM   15  C   UNL     1     -12.648  13.845  71.142  1.00  0.00    -0.446 A  
HETATM   16  C   UNL     1     -13.367  13.907  72.341  1.00  0.00    -0.629 A  
HETATM   17  C   UNL     1     -13.238  15.014  73.177  1.00  0.00    -0.587 A  
HETATM   18  C   UNL     1     -12.382  16.058  72.828  1.00  0.00    -0.603 A  
HETATM   19  C   UNL     1     -11.662  16.001  71.632  1.00  0.00    -0.583 A  
ENDBRANCH  12  14
ENDBRANCH  11  12
TORSDOF 2
ENDMDL
MODEL       32
REMARK 921   NORMALIZED FREE ENERGY PREDICTED BY IDOCK:   -5.92 KCAL/MOL
REMARK 922        TOTAL FREE ENERGY PREDICTED BY IDOCK:   -6.87 KCAL/MOL
REMARK 923 INTER-LIGAND FREE ENERGY PREDICTED BY IDOCK:   -6.41 KCAL/MOL
REMARK 924 INTRA-LIGAND FREE ENERGY PREDICTED BY IDOCK:   -0.46 KCAL/MOL
REMARK 927      BINDING AFFINITY PREDICTED BY RF-SCORE:    0.00 PKD
ROOT
HETATM    1  O   UNL     1      -9.950  14.894  64.483  1.00  0.00    -0.010 OA 
HETATM    2  C   UNL     1     -10.990  15.628  64.939  1.00  0.00    -0.431 C  
HETATM    3  C   UNL     1     -11.724  15.078  66.153  1.00  0.00    -0.091 A  
HETATM    4  O   UNL     1     -11.270  16.710  64.437  1.00  0.00    -1.033 OA 
HETATM    5  C   UNL     1     -11.119  15.644  67.466  1.00  0.00    -0.289 A  
HETATM    6  C   UNL     1     -10.567  14.454  68.278  1.00  0.00    -0.243 A  
HETATM    7  N   UNL     1     -10.953  13.298  67.495  1.00  0.00    -0.258 NA 
HETATM    8  C   UNL     1     -11.585  13.610  66.329  1.00  0.00    -0.348 A  
HETATM    9  C   UNL     1     -11.914  12.447  65.689  1.00  0.00    -0.449 A  
HETATM   10  C   UNL     1     -11.382  11.402  66.496  1.00  0.00    -0.195 A  
HETATM   11  C   UNL     1     -10.745  11.957  67.603  1.00  0.00    -0.215 A  
ENDROOT
BRANCH  11  12
HETATM   12  C   UNL     1     -10.038  11.307  68.695  1.00  0.00    -0.208 C  
HETATM   13  O   UNL     1      -8.809  11.280  68.760  1.00  0.00    -0.160 OA 
BRANCH  12  14
HETATM   14  C   UNL     1     -10.816  10.611  69.762  1.00  0.00    -0.317 A  
HETATM   15  C   UNL     1     -12.133  11.008  70.028  1.00  0.00    -0.441 A  
HETATM   16  C   UNL     1     -12.846  10.420  71.079  1.00  0.00    -0.494 A  
HETATM   17  C   UNL     1     -12.245   9.443  71.871  1.00  0.00    -0.440 A  
HETATM   18  C   UNL     1     -10.937   9.040  71.610  1.00  0.00    -0.435 A  
HETATM   19  C   UNL     1     -10.221   9.623  70.561  1.00  0.00    -0.351 A  
ENDBRANCH  12  14
ENDBRANCH  11  12
TORSDOF 2
ENDMDL
MODEL       33
REMARK 921   NORMALIZED FREE ENERGY PREDICTED BY IDOCK:   -5.90 KCAL/MOL
REMARK 922        TOTAL FREE ENERGY PREDICTED BY IDOCK:   -6.85 KCAL/MOL
REMARK 923 INTER-LIGAND FREE ENERGY PREDICTED BY IDOCK:   -6.40 KCAL/MOL
REMARK 924 INTRA-LIGAND FREE ENERGY PREDICTED BY IDOCK:   -0.45 KCAL/MOL
REMARK 927      BINDING AFFINITY PREDICTED BY RF-SCORE:    0.00 PKD
ROOT
HETATM    1  O   UNL     1     -11.151  17.229  67.615  1.00  0.00    -0.219 OA 
HETATM    2  C   UNL     1     -10.063  17.392  68.401  1.00  0.00    -0.347 C  
HETATM    3  C   UNL     1      -9.720  16.236  69.328  1.00  0.00    -0.238 A  
HETATM    4  O   UNL     1      -9.361  18.392  68.310  1.00  0.00    -0.304 OA 
HETATM    5  C   UNL     1      -8.725  15.259  68.645  1.00  0.00    -0.182 A  
HETATM    6  C   UNL     1      -9.423  13.888  68.526  1.00  0.00    -0.174 A  
HETATM    7  N   UNL     1     -10.686  14.088  69.209  1.00  0.00    -0.171 NA 
HETATM    8  C   UNL     1     -10.874  15.361  69.655  1.00  0.00    -0.283 A  
HETATM    9  C   UNL     1     -12.082  15.423  70.293  1.00  0.00    -0.402 A  
HETATM   10  C   UNL     1     -12.658  14.130  70.149  1.00  0.00    -0.325 A  
HETATM   11  C   UNL     1     -11.786  13.317  69.428  1.00  0.00    -0.329 A  
ENDROOT
BRANCH  11  12
HETATM   12  C   UNL     1     -11.932  11.932  69.010  1.00  0.00    -0.262 C  
HETATM   13  O   UNL     1     -12.136  11.616  67.838  1.00  0.00    -0.613 OA 
BRANCH  12  14
HETATM   14  C   UNL     1     -11.874  10.846  70.033  1.00  0.00    -0.428 A  
HETATM   15  C   UNL     1     -13.021  10.537  70.778  1.00  0.00    -0.413 A  
HETATM   16  C   UNL     1     -12.960   9.579  71.797  1.00  0.00    -0.502 A  
HETATM   17  C   UNL     1     -11.757   8.934  72.079  1.00  0.00    -0.438 A  
HETATM   18  C   UNL     1     -10.614   9.233  71.339  1.00  0.00    -0.417 A  
HETATM   19  C   UNL     1     -10.670  10.189  70.321  1.00  0.00    -0.352 A  
ENDBRANCH  12  14
ENDBRANCH  11  12
TORSDOF 2
ENDMDL
MODEL       34
REMARK 921   NORMALIZED FREE ENERGY PREDICTED BY IDOCK:   -5.87 KCAL/MOL
REMARK 922        TOTAL FREE ENERGY PREDICTED BY IDOCK:   -6.83 KCAL/MOL
REMARK 923 INTER-LIGAND FREE ENERGY PREDICTED BY IDOCK:   -6.31 KCAL/MOL
REMARK 924 INTRA-LIGAND FREE ENERGY PREDICTED BY IDOCK:   -0.51 KCAL/MOL
REMARK 927      BINDING AFFINITY PREDICTED BY RF-SCORE:    0.00 PKD
ROOT
HETATM    1  O   UNL     1      -7.981  16.255  67.023  1.00  0.00    -0.171 OA 
HETATM    2  C   UNL     1      -8.783  16.850  67.935  1.00  0.00    -0.213 C  
HETATM    3  C   UNL     1     -10.265  16.518  67.851  1.00  0.00    -0.273 A  
HETATM    4  O   UNL     1      -8.318  17.559  68.819  1.00  0.00    -0.275 OA 
HETATM    5  C   UNL     1     -10.611  15.308  68.759  1.00  0.00    -0.240 A  
HETATM    6  C   UNL     1     -11.140  14.177  67.853  1.00  0.00    -0.268 A  
HETATM    7  N   UNL     1     -11.180  14.785  66.537  1.00  0.00    -0.340 NA 
HETATM    8  C   UNL     1     -10.706  16.062  66.509  1.00  0.00    -0.238 A  
HETATM    9  C   UNL     1     -10.810  16.534  65.229  1.00  0.00    -0.233 A  
HETATM   10  C   UNL     1     -11.308  15.446  64.458  1.00  0.00    -0.321 A  
HETATM   11  C   UNL     1     -11.493  14.343  65.289  1.00  0.00    -0.350 A  
ENDROOT
BRANCH  11  12
HETATM   12  C   UNL     1     -11.960  13.004  64.970  1.00  0.00    -0.397 C  
HETATM   13  O   UNL     1     -13.156  12.727  64.882  1.00  0.00    -0.833 OA 
BRANCH  12  14
HETATM   14  C   UNL     1     -10.967  11.905  64.780  1.00  0.00    -0.366 A  
HETATM   15  C   UNL     1     -10.421  11.681  63.508  1.00  0.00    -0.498 A  
HETATM   16  C   UNL     1      -9.552  10.604  63.296  1.00  0.00    -0.382 A  
HETATM   17  C   UNL     1      -9.232   9.747  64.348  1.00  0.00    -0.301 A  
HETATM   18  C   UNL     1      -9.768   9.966  65.616  1.00  0.00    -0.346 A  
HETATM   19  C   UNL     1     -10.635  11.040  65.832  1.00  0.00    -0.270 A  
ENDBRANCH  12  14
ENDBRANCH  11  12
TORSDOF 2
ENDMDL
MODEL       35
REMARK 921   NORMALIZED FREE ENERGY PREDICTED BY IDOCK:   -5.83 KCAL/MOL
REMARK 922        TOTAL FREE ENERGY PREDICTED BY IDOCK:   -6.77 KCAL/MOL
REMARK 923 INTER-LIGAND FREE ENERGY PREDICTED BY IDOCK:   -6.26 KCAL/MOL
REMARK 924 INTRA-LIGAND FREE ENERGY PREDICTED BY IDOCK:   -0.51 KCAL/MOL
REMARK 927      BINDING AFFINITY PREDICTED BY RF-SCORE:    0.00 PKD
ROOT
HETATM    1  O   UNL     1     -10.120  12.130  68.595  1.00  0.00    -0.212 OA 
HETATM    2  C   UNL     1     -11.252  11.917  67.888  1.00  0.00    -0.263 C  
HETATM    3  C   UNL     1     -12.043  13.154  67.492  1.00  0.00    -0.300 A  
HETATM    4  O   UNL     1     -11.574  10.790  67.531  1.00  0.00    -0.510 OA 
HETATM    5  C   UNL     1     -11.606  13.664  66.092  1.00  0.00    -0.369 A  
HETATM    6  C   UNL     1     -11.033  15.085  66.270  1.00  0.00    -0.338 A  
HETATM    7  N   UNL     1     -11.252  15.369  67.674  1.00  0.00    -0.324 NA 
HETATM    8  C   UNL     1     -11.801  14.331  68.364  1.00  0.00    -0.338 A  
HETATM    9  C   UNL     1     -11.977  14.719  69.664  1.00  0.00    -0.360 A  
HETATM   10  C   UNL     1     -11.436  16.033  69.748  1.00  0.00    -0.318 A  
HETATM   11  C   UNL     1     -10.946  16.408  68.499  1.00  0.00    -0.350 A  
ENDROOT
BRANCH  11  12
HETATM   12  C   UNL     1     -10.288  17.636  68.085  1.00  0.00    -0.386 C  
HETATM   13  O   UNL     1     -10.849  18.480  67.386  1.00  0.00    -0.421 OA 
BRANCH  12  14
HETATM   14  C   UNL     1      -8.869  17.879  68.481  1.00  0.00    -0.293 A  
HETATM   15  C   UNL     1      -8.400  19.195  68.598  1.00  0.00    -0.403 A  
HETATM   16  C   UNL     1      -7.052  19.438  68.887  1.00  0.00    -0.393 A  
HETATM   17  C   UNL     1      -6.170  18.371  69.052  1.00  0.00    -0.238 A  
HETATM   18  C   UNL     1      -6.630  17.060  68.941  1.00  0.00    -0.196 A  
HETATM   19  C   UNL     1      -7.975  16.813  68.653  1.00  0.00    -0.246 A  
ENDBRANCH  12  14
ENDBRANCH  11  12
TORSDOF 2
ENDMDL
MODEL       36
REMARK 921   NORMALIZED FREE ENERGY PREDICTED BY IDOCK:   -5.80 KCAL/MOL
REMARK 922        TOTAL FREE ENERGY PREDICTED BY IDOCK:   -6.74 KCAL/MOL
REMARK 923 INTER-LIGAND FREE ENERGY PREDICTED BY IDOCK:   -6.24 KCAL/MOL
REMARK 924 INTRA-LIGAND FREE ENERGY PREDICTED BY IDOCK:   -0.50 KCAL/MOL
REMARK 927      BINDING AFFINITY PREDICTED BY RF-SCORE:    0.00 PKD
ROOT
HETATM    1  O   UNL     1      -7.301  10.515  65.581  1.00  0.00    -0.147 OA 
HETATM    2  C   UNL     1      -7.754   9.576  64.719  1.00  0.00    -0.119 C  
HETATM    3  C   UNL     1      -9.237   9.624  64.385  1.00  0.00    -0.258 A  
HETATM    4  O   UNL     1      -6.987   8.781  64.189  1.00  0.00    -0.087 OA 
HETATM    5  C   UNL     1      -9.490  10.493  63.124  1.00  0.00    -0.367 A  
HETATM    6  C   UNL     1     -10.379  11.681  63.545  1.00  0.00    -0.441 A  
HETATM    7  N   UNL     1     -10.680  11.407  64.936  1.00  0.00    -0.298 NA 
HETATM    8  C   UNL     1     -10.067  10.290  65.420  1.00  0.00    -0.284 A  
HETATM    9  C   UNL     1     -10.437  10.125  66.726  1.00  0.00    -0.270 A  
HETATM   10  C   UNL     1     -11.256  11.247  67.038  1.00  0.00    -0.324 A  
HETATM   11  C   UNL     1     -11.361  12.064  65.914  1.00  0.00    -0.337 A  
ENDROOT
BRANCH  11  12
HETATM   12  C   UNL     1     -12.065  13.323  65.740  1.00  0.00    -0.441 C  
HETATM   13  O   UNL     1     -13.131  13.403  65.129  1.00  0.00    -0.724 OA 
BRANCH  12  14
HETATM   14  C   UNL     1     -11.468  14.580  66.282  1.00  0.00    -0.358 A  
HETATM   15  C   UNL     1     -10.680  15.385  65.448  1.00  0.00    -0.416 A  
HETATM   16  C   UNL     1     -10.047  16.523  65.963  1.00  0.00    -0.368 A  
HETATM   17  C   UNL     1     -10.192  16.853  67.309  1.00  0.00    -0.297 A  
HETATM   18  C   UNL     1     -10.978  16.060  68.144  1.00  0.00    -0.339 A  
HETATM   19  C   UNL     1     -11.612  14.924  67.633  1.00  0.00    -0.357 A  
ENDBRANCH  12  14
ENDBRANCH  11  12
TORSDOF 2
ENDMDL
MODEL       37
REMARK 921   NORMALIZED FREE ENERGY PREDICTED BY IDOCK:   -5.78 KCAL/MOL
REMARK 922        TOTAL FREE ENERGY PREDICTED BY IDOCK:   -6.73 KCAL/MOL
REMARK 923 INTER-LIGAND FREE ENERGY PREDICTED BY IDOCK:   -6.40 KCAL/MOL
REMARK 924 INTRA-LIGAND FREE ENERGY PREDICTED BY IDOCK:   -0.33 KCAL/MOL
REMARK 927      BINDING AFFINITY PREDICTED BY RF-SCORE:    0.00 PKD
ROOT
HETATM    1  O   UNL     1      -9.384  15.244  69.431  1.00  0.00    -0.237 OA 
HETATM    2  C   UNL     1     -10.473  16.044  69.393  1.00  0.00    -0.271 C  
HETATM    3  C   UNL     1     -11.824  15.350  69.474  1.00  0.00    -0.370 A  
HETATM    4  O   UNL     1     -10.362  17.264  69.367  1.00  0.00    -0.287 OA 
HETATM    5  C   UNL     1     -12.304  15.249  70.947  1.00  0.00    -0.433 A  
HETATM    6  C   UNL     1     -12.428  13.751  71.297  1.00  0.00    -0.345 A  
HETATM    7  N   UNL     1     -12.137  13.083  70.044  1.00  0.00    -0.323 NA 
HETATM    8  C   UNL     1     -11.803  13.933  69.034  1.00  0.00    -0.358 A  
HETATM    9  C   UNL     1     -11.569  13.195  67.906  1.00  0.00    -0.375 A  
HETATM   10  C   UNL     1     -11.708  11.835  68.302  1.00  0.00    -0.377 A  
HETATM   11  C   UNL     1     -12.022  11.782  69.659  1.00  0.00    -0.312 A  
ENDROOT
BRANCH  11  12
HETATM   12  C   UNL     1     -12.241  10.633  70.522  1.00  0.00    -0.358 C  
HETATM   13  O   UNL     1     -13.355  10.337  70.954  1.00  0.00    -0.370 OA 
BRANCH  12  14
HETATM   14  C   UNL     1     -11.078   9.796  70.940  1.00  0.00    -0.428 A  
HETATM   15  C   UNL     1     -11.205   8.937  72.040  1.00  0.00    -0.422 A  
HETATM   16  C   UNL     1     -10.100   8.208  72.494  1.00  0.00    -0.370 A  
HETATM   17  C   UNL     1      -8.866   8.339  71.858  1.00  0.00    -0.238 A  
HETATM   18  C   UNL     1      -8.733   9.188  70.760  1.00  0.00    -0.285 A  
HETATM   19  C   UNL     1      -9.834   9.918  70.303  1.00  0.00    -0.236 A  
ENDBRANCH  12  14
ENDBRANCH  11  12
TORSDOF 2
ENDMDL
MODEL       38
REMARK 921   NORMALIZED FREE ENERGY PREDICTED BY IDOCK:   -5.78 KCAL/MOL
REMARK 922        TOTAL FREE ENERGY PREDICTED BY IDOCK:   -6.73 KCAL/MOL
REMARK 923 INTER-LIGAND FREE ENERGY PREDICTED BY IDOCK:   -6.59 KCAL/MOL
REMARK 924 INTRA-LIGAND FREE ENERGY PREDICTED BY IDOCK:   -0.14 KCAL/MOL
REMARK 927      BINDING AFFINITY PREDICTED BY RF-SCORE:    0.00 PKD
ROOT
HETATM    1  O   UNL     1      -9.069  14.337  68.750  1.00  0.00    -0.179 OA 
HETATM    2  C   UNL     1      -9.996  15.161  68.212  1.00  0.00    -0.223 C  
HETATM    3  C   UNL     1     -11.449  14.750  68.388  1.00  0.00    -0.336 A  
HETATM    4  O   UNL     1      -9.672  16.215  67.677  1.00  0.00    -0.229 OA 
HETATM    5  C   UNL     1     -12.049  15.382  69.673  1.00  0.00    -0.354 A  
HETATM    6  C   UNL     1     -12.459  14.230  70.614  1.00  0.00    -0.358 A  
HETATM    7  N   UNL     1     -12.194  13.039  69.831  1.00  0.00    -0.248 NA 
HETATM    8  C   UNL     1     -11.642  13.295  68.613  1.00  0.00    -0.327 A  
HETATM    9  C   UNL     1     -11.456  12.106  67.963  1.00  0.00    -0.380 A  
HETATM   10  C   UNL     1     -11.860  11.098  68.884  1.00  0.00    -0.406 A  
HETATM   11  C   UNL     1     -12.280  11.701  70.068  1.00  0.00    -0.263 A  
ENDROOT
BRANCH  11  12
HETATM   12  C   UNL     1     -12.760  11.100  71.301  1.00  0.00    -0.426 C  
HETATM   13  O   UNL     1     -13.304  11.760  72.187  1.00  0.00    -0.497 OA 
BRANCH  12  14
HETATM   14  C   UNL     1     -12.559   9.639  71.533  1.00  0.00    -0.483 A  
HETATM   15  C   UNL     1     -11.267   9.147  71.763  1.00  0.00    -0.451 A  
HETATM   16  C   UNL     1     -11.052   7.771  71.901  1.00  0.00    -0.302 A  
HETATM   17  C   UNL     1     -12.123   6.884  71.802  1.00  0.00    -0.385 A  
HETATM   18  C   UNL     1     -13.412   7.366  71.578  1.00  0.00    -0.445 A  
HETATM   19  C   UNL     1     -13.630   8.739  71.440  1.00  0.00    -0.292 A  
ENDBRANCH  12  14
ENDBRANCH  11  12
TORSDOF 2
ENDMDL
MODEL       39
REMARK 921   NORMALIZED FREE ENERGY PREDICTED BY IDOCK:   -5.78 KCAL/MOL
REMARK 922        TOTAL FREE ENERGY PREDICTED BY IDOCK:   -6.72 KCAL/MOL
REMARK 923 INTER-LIGAND FREE ENERGY PREDICTED BY IDOCK:   -6.24 KCAL/MOL
REMARK 924 INTRA-LIGAND FREE ENERGY PREDICTED BY IDOCK:   -0.49 KCAL/MOL
REMARK 927      BINDING AFFINITY PREDICTED BY RF-SCORE:    0.00 PKD
ROOT
HETATM    1  O   UNL     1      -9.436  11.835  65.627  1.00  0.00    -0.231 OA 
HETATM    2  C   UNL     1     -10.589  11.752  64.926  1.00  0.00    -0.294 C  
HETATM    3  C   UNL     1     -11.806  12.423  65.544  1.00  0.00    -0.469 A  
HETATM    4  O   UNL     1     -10.621  11.224  63.821  1.00  0.00    -0.355 OA 
HETATM    5  C   UNL     1     -11.942  13.886  65.044  1.00  0.00    -0.403 A  
HETATM    6  C   UNL     1     -11.823  14.814  66.271  1.00  0.00    -0.209 A  
HETATM    7  N   UNL     1     -11.737  13.893  67.388  1.00  0.00    -0.366 NA 
HETATM    8  C   UNL     1     -11.724  12.582  67.018  1.00  0.00    -0.367 A  
HETATM    9  C   UNL     1     -11.660  11.814  68.148  1.00  0.00    -0.391 A  
HETATM   10  C   UNL     1     -11.560  12.732  69.231  1.00  0.00    -0.372 A  
HETATM   11  C   UNL     1     -11.566  14.033  68.731  1.00  0.00    -0.331 A  
ENDROOT
BRANCH  11  12
HETATM   12  C   UNL     1     -11.466  15.302  69.432  1.00  0.00    -0.315 C  
HETATM   13  O   UNL     1     -12.326  15.686  70.224  1.00  0.00    -0.400 OA 
BRANCH  12  14
HETATM   14  C   UNL     1     -10.303  16.200  69.163  1.00  0.00    -0.259 A  
HETATM   15  C   UNL     1     -10.529  17.491  68.665  1.00  0.00    -0.338 A  
HETATM   16  C   UNL     1      -9.447  18.314  68.331  1.00  0.00    -0.336 A  
HETATM   17  C   UNL     1      -8.142  17.850  68.486  1.00  0.00    -0.305 A  
HETATM   18  C   UNL     1      -7.910  16.569  68.985  1.00  0.00    -0.226 A  
HETATM   19  C   UNL     1      -8.987  15.744  69.320  1.00  0.00    -0.266 A  
ENDBRANCH  12  14
ENDBRANCH  11  12
TORSDOF 2
ENDMDL
MODEL       40
REMARK 921   NORMALIZED FREE ENERGY PREDICTED BY IDOCK:   -5.77 KCAL/MOL
REMARK 922        TOTAL FREE ENERGY PREDICTED BY IDOCK:   -6.71 KCAL/MOL
REMARK 923 INTER-LIGAND FREE ENERGY PREDICTED BY IDOCK:   -6.37 KCAL/MOL
REMARK 924 INTRA-LIGAND FREE ENERGY PREDICTED BY IDOCK:   -0.34 KCAL/MOL
REMARK 927      BINDING AFFINITY PREDICTED BY RF-SCORE:    0.00 PKD
ROOT
HETATM    1  O   UNL     1     -10.471  14.158  64.346  1.00  0.00    -0.329 OA 
HETATM    2  C   UNL     1     -11.814  14.174  64.501  1.00  0.00    -0.436 C  
HETATM    3  C   UNL     1     -12.380  13.266  65.582  1.00  0.00    -0.521 A  
HETATM    4  O   UNL     1     -12.518  14.936  63.849  1.00  0.00    -0.806 OA 
HETATM    5  C   UNL     1     -12.503  14.025  66.931  1.00  0.00    -0.187 A  
HETATM    6  C   UNL     1     -11.592  13.313  67.953  1.00  0.00    -0.334 A  
HETATM    7  N   UNL     1     -11.090  12.166  67.223  1.00  0.00    -0.269 NA 
HETATM    8  C   UNL     1     -11.504  12.117  65.926  1.00  0.00    -0.363 A  
HETATM    9  C   UNL     1     -10.987  10.991  65.348  1.00  0.00    -0.091 A  
HETATM   10  C   UNL     1     -10.170  10.388  66.346  1.00  0.00    -0.292 A  
HETATM   11  C   UNL     1     -10.213  11.164  67.503  1.00  0.00    -0.186 A  
ENDROOT
BRANCH  11  12
HETATM   12  C   UNL     1      -9.537  10.977  68.776  1.00  0.00    -0.187 C  
HETATM   13  O   UNL     1      -8.372  11.329  68.961  1.00  0.00    -0.114 OA 
BRANCH  12  14
HETATM   14  C   UNL     1     -10.256  10.301  69.897  1.00  0.00    -0.250 A  
HETATM   15  C   UNL     1      -9.625   9.261  70.594  1.00  0.00    -0.334 A  
HETATM   16  C   UNL     1     -10.315   8.563  71.592  1.00  0.00    -0.333 A  
HETATM   17  C   UNL     1     -11.636   8.896  71.891  1.00  0.00    -0.442 A  
HETATM   18  C   UNL     1     -12.268   9.932  71.205  1.00  0.00    -0.468 A  
HETATM   19  C   UNL     1     -11.583  10.631  70.208  1.00  0.00    -0.424 A  
ENDBRANCH  12  14
ENDBRANCH  11  12
TORSDOF 2
ENDMDL
MODEL       41
REMARK 921   NORMALIZED FREE ENERGY PREDICTED BY IDOCK:   -5.76 KCAL/MOL
REMARK 922        TOTAL FREE ENERGY PREDICTED BY IDOCK:   -6.70 KCAL/MOL
REMARK 923 INTER-LIGAND FREE ENERGY PREDICTED BY IDOCK:   -6.31 KCAL/MOL
REMARK 924 INTRA-LIGAND FREE ENERGY PREDICTED BY IDOCK:   -0.39 KCAL/MOL
REMARK 927      BINDING AFFINITY PREDICTED BY RF-SCORE:    0.00 PKD
ROOT
HETATM    1  O   UNL     1     -10.800   7.435  73.244  1.00  0.00    -0.374 OA 
HETATM    2  C   UNL     1     -11.566   6.570  72.542  1.00  0.00    -0.208 C  
HETATM    3  C   UNL     1     -12.082   7.062  71.198  1.00  0.00    -0.412 A  
HETATM    4  O   UNL     1     -11.766   5.431  72.945  1.00  0.00    -0.297 OA 
HETATM    5  C   UNL     1     -11.103   6.675  70.057  1.00  0.00    -0.394 A  
HETATM    6  C   UNL     1     -10.589   7.982  69.418  1.00  0.00    -0.205 A  
HETATM    7  N   UNL     1     -11.336   9.016  70.107  1.00  0.00    -0.180 NA 
HETATM    8  C   UNL     1     -12.157   8.540  71.084  1.00  0.00    -0.252 A  
HETATM    9  C   UNL     1     -12.819   9.597  71.647  1.00  0.00    -0.499 A  
HETATM   10  C   UNL     1     -12.301  10.758  71.006  1.00  0.00    -0.509 A  
HETATM   11  C   UNL     1     -11.340  10.377  70.073  1.00  0.00    -0.313 A  
ENDROOT
BRANCH  11  12
HETATM   12  C   UNL     1     -10.521  11.192  69.191  1.00  0.00    -0.182 C  
HETATM   13  O   UNL     1      -9.292  11.141  69.199  1.00  0.00    -0.103 OA 
BRANCH  12  14
HETATM   14  C   UNL     1     -11.180  12.159  68.263  1.00  0.00    -0.319 A  
HETATM   15  C   UNL     1     -11.410  11.791  66.931  1.00  0.00    -0.386 A  
HETATM   16  C   UNL     1     -11.951  12.715  66.029  1.00  0.00    -0.478 A  
HETATM   17  C   UNL     1     -12.255  14.008  66.452  1.00  0.00    -0.492 A  
HETATM   18  C   UNL     1     -12.032  14.381  67.777  1.00  0.00    -0.368 A  
HETATM   19  C   UNL     1     -11.492  13.461  68.680  1.00  0.00    -0.345 A  
ENDBRANCH  12  14
ENDBRANCH  11  12
TORSDOF 2
ENDMDL
MODEL       42
REMARK 921   NORMALIZED FREE ENERGY PREDICTED BY IDOCK:   -5.73 KCAL/MOL
REMARK 922        TOTAL FREE ENERGY PREDICTED BY IDOCK:   -6.67 KCAL/MOL
REMARK 923 INTER-LIGAND FREE ENERGY PREDICTED BY IDOCK:   -6.20 KCAL/MOL
REMARK 924 INTRA-LIGAND FREE ENERGY PREDICTED BY IDOCK:   -0.47 KCAL/MOL
REMARK 927      BINDING AFFINITY PREDICTED BY RF-SCORE:    0.00 PKD
ROOT
HETATM    1  O   UNL     1     -13.101  12.503  64.863  1.00  0.00    -0.833 OA 
HETATM    2  C   UNL     1     -12.282  13.189  64.035  1.00  0.00    -0.414 C  
HETATM    3  C   UNL     1     -10.789  12.991  64.245  1.00  0.00    -0.430 A  
HETATM    4  O   UNL     1     -12.732  13.874  63.124  1.00  0.00    -0.718 OA 
HETATM    5  C   UNL     1     -10.255  11.839  63.351  1.00  0.00    -0.482 A  
HETATM    6  C   UNL     1      -9.705  10.740  64.284  1.00  0.00    -0.302 A  
HETATM    7  N   UNL     1      -9.835  11.318  65.607  1.00  0.00    -0.223 NA 
HETATM    8  C   UNL     1     -10.425  12.546  65.613  1.00  0.00    -0.273 A  
HETATM    9  C   UNL     1     -10.476  12.995  66.904  1.00  0.00    -0.258 A  
HETATM   10  C   UNL     1      -9.948  11.939  67.699  1.00  0.00    -0.197 A  
HETATM   11  C   UNL     1      -9.591  10.876  66.871  1.00  0.00    -0.178 A  
ENDROOT
BRANCH  11  12
HETATM   12  C   UNL     1      -9.032   9.578  67.208  1.00  0.00    -0.131 C  
HETATM   13  O   UNL     1      -7.865   9.278  66.959  1.00  0.00    -0.098 OA 
BRANCH  12  14
HETATM   14  C   UNL     1      -9.903   8.546  67.846  1.00  0.00    -0.208 A  
HETATM   15  C   UNL     1     -10.101   8.571  69.233  1.00  0.00    -0.203 A  
HETATM   16  C   UNL     1     -10.848   7.563  69.855  1.00  0.00    -0.250 A  
HETATM   17  C   UNL     1     -11.390   6.527  69.097  1.00  0.00    -0.330 A  
HETATM   18  C   UNL     1     -11.200   6.497  67.716  1.00  0.00    -0.261 A  
HETATM   19  C   UNL     1     -10.456   7.502  67.091  1.00  0.00    -0.407 A  
ENDBRANCH  12  14
ENDBRANCH  11  12
TORSDOF 2
ENDMDL
MODEL       43
REMARK 921   NORMALIZED FREE ENERGY PREDICTED BY IDOCK:   -5.71 KCAL/MOL
REMARK 922        TOTAL FREE ENERGY PREDICTED BY IDOCK:   -6.65 KCAL/MOL
REMARK 923 INTER-LIGAND FREE ENERGY PREDICTED BY IDOCK:   -6.15 KCAL/MOL
REMARK 924 INTRA-LIGAND FREE ENERGY PREDICTED BY IDOCK:   -0.50 KCAL/MOL
REMARK 927      BINDING AFFINITY PREDICTED BY RF-SCORE:    0.00 PKD
ROOT
HETATM    1  O   UNL     1     -12.123  12.988  68.278  1.00  0.00    -0.308 OA 
HETATM    2  C   UNL     1     -11.414  11.940  67.802  1.00  0.00    -0.319 C  
HETATM    3  C   UNL     1     -10.256  12.274  66.873  1.00  0.00    -0.229 A  
HETATM    4  O   UNL     1     -11.656  10.795  68.164  1.00  0.00    -0.441 OA 
HETATM    5  C   UNL     1      -8.936  12.436  67.674  1.00  0.00    -0.183 A  
HETATM    6  C   UNL     1      -8.444  13.885  67.478  1.00  0.00    -0.196 A  
HETATM    7  N   UNL     1      -9.391  14.442  66.532  1.00  0.00    -0.283 NA 
HETATM    8  C   UNL     1     -10.391  13.584  66.187  1.00  0.00    -0.296 A  
HETATM    9  C   UNL     1     -11.206  14.208  65.283  1.00  0.00    -0.326 A  
HETATM   10  C   UNL     1     -10.689  15.528  65.149  1.00  0.00    -0.460 A  
HETATM   11  C   UNL     1      -9.575  15.670  65.974  1.00  0.00    -0.351 A  
ENDROOT
BRANCH  11  12
HETATM   12  C   UNL     1      -8.723  16.825  66.199  1.00  0.00    -0.264 C  
HETATM   13  O   UNL     1      -7.547  16.857  65.836  1.00  0.00    -0.276 OA 
BRANCH  12  14
HETATM   14  C   UNL     1      -9.267  18.008  66.930  1.00  0.00    -0.271 A  
HETATM   15  C   UNL     1      -9.398  17.958  68.325  1.00  0.00    -0.287 A  
HETATM   16  C   UNL     1      -9.982  19.026  69.015  1.00  0.00    -0.390 A  
HETATM   17  C   UNL     1     -10.442  20.141  68.317  1.00  0.00    -0.357 A  
HETATM   18  C   UNL     1     -10.311  20.201  66.930  1.00  0.00    -0.503 A  
HETATM   19  C   UNL     1      -9.728  19.136  66.237  1.00  0.00    -0.412 A  
ENDBRANCH  12  14
ENDBRANCH  11  12
TORSDOF 2
ENDMDL
MODEL       44
REMARK 921   NORMALIZED FREE ENERGY PREDICTED BY IDOCK:   -5.71 KCAL/MOL
REMARK 922        TOTAL FREE ENERGY PREDICTED BY IDOCK:   -6.64 KCAL/MOL
REMARK 923 INTER-LIGAND FREE ENERGY PREDICTED BY IDOCK:   -7.17 KCAL/MOL
REMARK 924 INTRA-LIGAND FREE ENERGY PREDICTED BY IDOCK:    0.53 KCAL/MOL
REMARK 927      BINDING AFFINITY PREDICTED BY RF-SCORE:    0.00 PKD
ROOT
HETATM    1  O   UNL     1     -10.838   7.334  73.463  1.00  0.00    -0.375 OA 
HETATM    2  C   UNL     1     -11.209   6.447  72.513  1.00  0.00    -0.272 C  
HETATM    3  C   UNL     1     -11.880   7.023  71.275  1.00  0.00    -0.371 A  
HETATM    4  O   UNL     1     -10.949   5.255  72.624  1.00  0.00    -0.238 OA 
HETATM    5  C   UNL     1     -10.831   7.330  70.172  1.00  0.00    -0.274 A  
HETATM    6  C   UNL     1     -10.868   8.848  69.901  1.00  0.00    -0.211 A  
HETATM    7  N   UNL     1     -11.956   9.318  70.735  1.00  0.00    -0.251 NA 
HETATM    8  C   UNL     1     -12.525   8.342  71.496  1.00  0.00    -0.312 A  
HETATM    9  C   UNL     1     -13.543   8.896  72.222  1.00  0.00    -0.513 A  
HETATM   10  C   UNL     1     -13.520  10.286  71.916  1.00  0.00    -0.403 A  
HETATM   11  C   UNL     1     -12.489  10.539  71.014  1.00  0.00    -0.400 A  
ENDROOT
BRANCH  11  12
HETATM   12  C   UNL     1     -12.054  11.794  70.422  1.00  0.00    -0.352 C  
HETATM   13  O   UNL     1     -11.196  11.845  69.542  1.00  0.00    -0.231 OA 
BRANCH  12  14
HETATM   14  C   UNL     1     -12.632  13.079  70.918  1.00  0.00    -0.364 A  
HETATM   15  C   UNL     1     -12.435  14.254  70.180  1.00  0.00    -0.393 A  
HETATM   16  C   UNL     1     -12.900  15.480  70.672  1.00  0.00    -0.466 A  
HETATM   17  C   UNL     1     -13.554  15.536  71.902  1.00  0.00    -0.580 A  
HETATM   18  C   UNL     1     -13.757  14.370  72.640  1.00  0.00    -0.546 A  
HETATM   19  C   UNL     1     -13.295  13.145  72.152  1.00  0.00    -0.621 A  
ENDBRANCH  12  14
ENDBRANCH  11  12
TORSDOF 2
ENDMDL
MODEL       45
REMARK 921   NORMALIZED FREE ENERGY PREDICTED BY IDOCK:   -5.71 KCAL/MOL
REMARK 922        TOTAL FREE ENERGY PREDICTED BY IDOCK:   -6.64 KCAL/MOL
REMARK 923 INTER-LIGAND FREE ENERGY PREDICTED BY IDOCK:   -6.18 KCAL/MOL
REMARK 924 INTRA-LIGAND FREE ENERGY PREDICTED BY IDOCK:   -0.46 KCAL/MOL
REMARK 927      BINDING AFFINITY PREDICTED BY RF-SCORE:    0.00 PKD
ROOT
HETATM    1  O   UNL     1     -11.168  16.594  64.042  1.00  0.00    -1.052 OA 
HETATM    2  C   UNL     1     -10.887  16.937  65.320  1.00  0.00    -0.104 C  
HETATM    3  C   UNL     1     -10.755  15.792  66.313  1.00  0.00    -0.282 A  
HETATM    4  O   UNL     1     -10.683  18.104  65.632  1.00  0.00    -0.538 OA 
HETATM    5  C   UNL     1      -9.280  15.321  66.418  1.00  0.00    -0.342 A  
HETATM    6  C   UNL     1      -9.225  13.849  65.959  1.00  0.00     0.077 A  
HETATM    7  N   UNL     1     -10.615  13.513  65.724  1.00  0.00    -0.278 NA 
HETATM    8  C   UNL     1     -11.471  14.556  65.909  1.00  0.00    -0.345 A  
HETATM    9  C   UNL     1     -12.746  14.118  65.678  1.00  0.00    -0.469 A  
HETATM   10  C   UNL     1     -12.616  12.760  65.269  1.00  0.00    -0.460 A  
HETATM   11  C   UNL     1     -11.267  12.411  65.262  1.00  0.00    -0.318 A  
ENDROOT
BRANCH  11  12
HETATM   12  C   UNL     1     -10.631  11.154  64.901  1.00  0.00    -0.289 C  
HETATM   13  O   UNL     1     -10.438  10.826  63.731  1.00  0.00    -0.319 OA 
BRANCH  12  14
HETATM   14  C   UNL     1     -10.229  10.199  65.976  1.00  0.00    -0.288 A  
HETATM   15  C   UNL     1     -10.744  10.358  67.270  1.00  0.00    -0.331 A  
HETATM   16  C   UNL     1     -10.313   9.522  68.306  1.00  0.00    -0.244 A  
HETATM   17  C   UNL     1      -9.363   8.533  68.056  1.00  0.00    -0.147 A  
HETATM   18  C   UNL     1      -8.849   8.366  66.771  1.00  0.00    -0.156 A  
HETATM   19  C   UNL     1      -9.277   9.199  65.734  1.00  0.00    -0.294 A  
ENDBRANCH  12  14
ENDBRANCH  11  12
TORSDOF 2
ENDMDL
MODEL       46
REMARK 921   NORMALIZED FREE ENERGY PREDICTED BY IDOCK:   -5.68 KCAL/MOL
REMARK 922        TOTAL FREE ENERGY PREDICTED BY IDOCK:   -6.61 KCAL/MOL
REMARK 923 INTER-LIGAND FREE ENERGY PREDICTED BY IDOCK:   -6.17 KCAL/MOL
REMARK 924 INTRA-LIGAND FREE ENERGY PREDICTED BY IDOCK:   -0.43 KCAL/MOL
REMARK 927      BINDING AFFINITY PREDICTED BY RF-SCORE:    0.00 PKD
ROOT
HETATM    1  O   UNL     1     -11.349  17.119  65.879  1.00  0.00     0.454 OA 
HETATM    2  C   UNL     1     -11.264  16.213  64.879  1.00  0.00    -0.285 C  
HETATM    3  C   UNL     1     -11.130  14.757  65.297  1.00  0.00    -0.374 A  
HETATM    4  O   UNL     1     -11.363  16.553  63.706  1.00  0.00    -0.966 OA 
HETATM    5  C   UNL     1     -12.524  14.083  65.403  1.00  0.00    -0.520 A  
HETATM    6  C   UNL     1     -12.718  13.637  66.868  1.00  0.00     0.298 A  
HETATM    7  N   UNL     1     -11.450  13.956  67.493  1.00  0.00    -0.321 NA 
HETATM    8  C   UNL     1     -10.565  14.569  66.658  1.00  0.00    -0.283 A  
HETATM    9  C   UNL     1      -9.408  14.802  67.348  1.00  0.00    -0.199 A  
HETATM   10  C   UNL     1      -9.659  14.362  68.678  1.00  0.00    -0.208 A  
HETATM   11  C   UNL     1     -10.962  13.873  68.761  1.00  0.00    -0.263 A  
ENDROOT
BRANCH  11  12
HETATM   12  C   UNL     1     -11.685  13.335  69.900  1.00  0.00    -0.259 C  
HETATM   13  O   UNL     1     -11.878  12.128  70.048  1.00  0.00    -0.328 OA 
BRANCH  12  14
HETATM   14  C   UNL     1     -12.255  14.269  70.917  1.00  0.00    -0.425 A  
HETATM   15  C   UNL     1     -11.391  15.018  71.727  1.00  0.00    -0.302 A  
HETATM   16  C   UNL     1     -11.908  15.835  72.739  1.00  0.00    -0.584 A  
HETATM   17  C   UNL     1     -13.285  15.900  72.949  1.00  0.00    -0.619 A  
HETATM   18  C   UNL     1     -14.150  15.161  72.144  1.00  0.00    -0.654 A  
HETATM   19  C   UNL     1     -13.638  14.344  71.133  1.00  0.00    -0.338 A  
ENDBRANCH  12  14
ENDBRANCH  11  12
TORSDOF 2
ENDMDL
MODEL       47
REMARK 921   NORMALIZED FREE ENERGY PREDICTED BY IDOCK:   -5.67 KCAL/MOL
REMARK 922        TOTAL FREE ENERGY PREDICTED BY IDOCK:   -6.60 KCAL/MOL
REMARK 923 INTER-LIGAND FREE ENERGY PREDICTED BY IDOCK:   -6.42 KCAL/MOL
REMARK 924 INTRA-LIGAND FREE ENERGY PREDICTED BY IDOCK:   -0.18 KCAL/MOL
REMARK 927      BINDING AFFINITY PREDICTED BY RF-SCORE:    0.00 PKD
ROOT
HETATM    1  O   UNL     1     -11.437  15.564  72.989  1.00  0.00    -0.371 OA 
HETATM    2  C   UNL     1     -12.785  15.668  72.946  1.00  0.00    -0.453 C  
HETATM    3  C   UNL     1     -13.492  14.846  71.879  1.00  0.00    -0.477 A  
HETATM    4  O   UNL     1     -13.395  16.335  73.773  1.00  0.00    -0.670 OA 
HETATM    5  C   UNL     1     -13.903  13.457  72.436  1.00  0.00    -0.665 A  
HETATM    6  C   UNL     1     -13.161  12.384  71.612  1.00  0.00    -0.307 A  
HETATM    7  N   UNL     1     -12.471  13.151  70.594  1.00  0.00    -0.321 NA 
HETATM    8  C   UNL     1     -12.635  14.498  70.718  1.00  0.00    -0.351 A  
HETATM    9  C   UNL     1     -11.959  15.112  69.699  1.00  0.00    -0.359 A  
HETATM   10  C   UNL     1     -11.310  14.066  68.984  1.00  0.00    -0.319 A  
HETATM   11  C   UNL     1     -11.608  12.846  69.587  1.00  0.00    -0.248 A  
ENDROOT
BRANCH  11  12
HETATM   12  C   UNL     1     -11.171  11.503  69.241  1.00  0.00    -0.272 C  
HETATM   13  O   UNL     1     -11.423  10.526  69.945  1.00  0.00    -0.264 OA 
BRANCH  12  14
HETATM   14  C   UNL     1     -10.353  11.292  68.010  1.00  0.00    -0.204 A  
HETATM   15  C   UNL     1      -8.955  11.351  68.091  1.00  0.00    -0.169 A  
HETATM   16  C   UNL     1      -8.178  11.236  66.932  1.00  0.00    -0.153 A  
HETATM   17  C   UNL     1      -8.793  11.070  65.692  1.00  0.00    -0.187 A  
HETATM   18  C   UNL     1     -10.183  11.006  65.604  1.00  0.00    -0.318 A  
HETATM   19  C   UNL     1     -10.962  11.120  66.758  1.00  0.00    -0.309 A  
ENDBRANCH  12  14
ENDBRANCH  11  12
TORSDOF 2
ENDMDL
MODEL       48
REMARK 921   NORMALIZED FREE ENERGY PREDICTED BY IDOCK:   -5.65 KCAL/MOL
REMARK 922        TOTAL FREE ENERGY PREDICTED BY IDOCK:   -6.58 KCAL/MOL
REMARK 923 INTER-LIGAND FREE ENERGY PREDICTED BY IDOCK:   -6.29 KCAL/MOL
REMARK 924 INTRA-LIGAND FREE ENERGY PREDICTED BY IDOCK:   -0.29 KCAL/MOL
REMARK 927      BINDING AFFINITY PREDICTED BY RF-SCORE:    0.00 PKD
ROOT
HETATM    1  O   UNL     1      -9.695  14.213  65.617  1.00  0.00    -0.271 OA 
HETATM    2  C   UNL     1     -10.995  14.585  65.641  1.00  0.00    -0.323 C  
HETATM    3  C   UNL     1     -11.919  13.753  66.517  1.00  0.00    -0.470 A  
HETATM    4  O   UNL     1     -11.379  15.583  65.043  1.00  0.00    -0.354 OA 
HETATM    5  C   UNL     1     -12.017  14.355  67.944  1.00  0.00    -0.348 A  
HETATM    6  C   UNL     1     -11.471  13.305  68.934  1.00  0.00    -0.298 A  
HETATM    7  N   UNL     1     -11.196  12.156  68.095  1.00  0.00    -0.246 NA 
HETATM    8  C   UNL     1     -11.431  12.374  66.771  1.00  0.00    -0.362 A  
HETATM    9  C   UNL     1     -11.156  11.222  66.086  1.00  0.00    -0.207 A  
HETATM   10  C   UNL     1     -10.668  10.305  67.059  1.00  0.00    -0.281 A  
HETATM   11  C   UNL     1     -10.660  10.923  68.308  1.00  0.00    -0.190 A  
ENDROOT
BRANCH  11  12
HETATM   12  C   UNL     1     -10.234  10.410  69.599  1.00  0.00    -0.209 C  
HETATM   13  O   UNL     1      -9.048  10.333  69.919  1.00  0.00    -0.143 OA 
BRANCH  12  14
HETATM   14  C   UNL     1     -11.257   9.917  70.568  1.00  0.00    -0.399 A  
HETATM   15  C   UNL     1     -11.288   8.558  70.910  1.00  0.00    -0.304 A  
HETATM   16  C   UNL     1     -12.291   8.067  71.753  1.00  0.00    -0.352 A  
HETATM   17  C   UNL     1     -13.270   8.927  72.249  1.00  0.00    -0.498 A  
HETATM   18  C   UNL     1     -13.244  10.281  71.917  1.00  0.00    -0.550 A  
HETATM   19  C   UNL     1     -12.243  10.775  71.076  1.00  0.00    -0.485 A  
ENDBRANCH  12  14
ENDBRANCH  11  12
TORSDOF 2
ENDMDL
MODEL       49
REMARK 921   NORMALIZED FREE ENERGY PREDICTED BY IDOCK:   -5.64 KCAL/MOL
REMARK 922        TOTAL FREE ENERGY PREDICTED BY IDOCK:   -6.57 KCAL/MOL
REMARK 923 INTER-LIGAND FREE ENERGY PREDICTED BY IDOCK:   -6.12 KCAL/MOL
REMARK 924 INTRA-LIGAND FREE ENERGY PREDICTED BY IDOCK:   -0.45 KCAL/MOL
REMARK 927      BINDING AFFINITY PREDICTED BY RF-SCORE:    0.00 PKD
ROOT
HETATM    1  O   UNL     1     -10.821  18.200  67.396  1.00  0.00    -0.374 OA 
HETATM    2  C   UNL     1     -10.155  17.426  66.510  1.00  0.00    -0.320 C  
HETATM    3  C   UNL     1     -10.040  15.949  66.856  1.00  0.00    -0.267 A  
HETATM    4  O   UNL     1      -9.735  17.888  65.456  1.00  0.00    -0.327 OA 
HETATM    5  C   UNL     1     -11.216  15.146  66.239  1.00  0.00    -0.273 A  
HETATM    6  C   UNL     1     -12.015  14.519  67.400  1.00  0.00    -0.335 A  
HETATM    7  N   UNL     1     -11.245  14.875  68.575  1.00  0.00    -0.266 NA 
HETATM    8  C   UNL     1     -10.163  15.657  68.306  1.00  0.00    -0.223 A  
HETATM    9  C   UNL     1      -9.509  15.912  69.480  1.00  0.00    -0.219 A  
HETATM   10  C   UNL     1     -10.296  15.301  70.497  1.00  0.00    -0.008 A  
HETATM   11  C   UNL     1     -11.405  14.691  69.915  1.00  0.00    -0.259 A  
ENDROOT
BRANCH  11  12
HETATM   12  C   UNL     1     -12.501  13.963  70.532  1.00  0.00    -0.352 C  
HETATM   13  O   UNL     1     -13.532  14.519  70.909  1.00  0.00    -0.354 OA 
BRANCH  12  14
HETATM   14  C   UNL     1     -12.370  12.493  70.760  1.00  0.00    -0.376 A  
HETATM   15  C   UNL     1     -11.549  11.733  69.915  1.00  0.00    -0.351 A  
HETATM   16  C   UNL     1     -11.480  10.343  70.065  1.00  0.00    -0.382 A  
HETATM   17  C   UNL     1     -12.234   9.709  71.051  1.00  0.00    -0.409 A  
HETATM   18  C   UNL     1     -13.050  10.458  71.898  1.00  0.00    -0.563 A  
HETATM   19  C   UNL     1     -13.121  11.846  71.752  1.00  0.00    -0.465 A  
ENDBRANCH  12  14
ENDBRANCH  11  12
TORSDOF 2
ENDMDL
MODEL       50
REMARK 921   NORMALIZED FREE ENERGY PREDICTED BY IDOCK:   -5.64 KCAL/MOL
REMARK 922        TOTAL FREE ENERGY PREDICTED BY IDOCK:   -6.56 KCAL/MOL
REMARK 923 INTER-LIGAND FREE ENERGY PREDICTED BY IDOCK:   -6.08 KCAL/MOL
REMARK 924 INTRA-LIGAND FREE ENERGY PREDICTED BY IDOCK:   -0.48 KCAL/MOL
REMARK 927      BINDING AFFINITY PREDICTED BY RF-SCORE:    0.00 PKD
ROOT
HETATM    1  O   UNL     1     -10.231  11.360  69.064  1.00  0.00    -0.193 OA 
HETATM    2  C   UNL     1     -11.222  11.417  68.145  1.00  0.00    -0.278 C  
HETATM    3  C   UNL     1     -11.597  12.802  67.641  1.00  0.00    -0.412 A  
HETATM    4  O   UNL     1     -11.732  10.396  67.700  1.00  0.00    -0.309 OA 
HETATM    5  C   UNL     1     -10.786  13.164  66.368  1.00  0.00    -0.293 A  
HETATM    6  C   UNL     1      -9.931  14.406  66.695  1.00  0.00    -0.272 A  
HETATM    7  N   UNL     1     -10.344  14.760  68.039  1.00  0.00    -0.235 NA 
HETATM    8  C   UNL     1     -11.251  13.900  68.579  1.00  0.00    -0.270 A  
HETATM    9  C   UNL     1     -11.577  14.343  69.831  1.00  0.00    -0.341 A  
HETATM   10  C   UNL     1     -10.760  15.487  70.057  1.00  0.00    -0.331 A  
HETATM   11  C   UNL     1      -9.961  15.708  68.938  1.00  0.00    -0.215 A  
ENDROOT
BRANCH  11  12
HETATM   12  C   UNL     1      -8.958  16.732  68.696  1.00  0.00    -0.251 C  
HETATM   13  O   UNL     1      -7.836  16.687  69.200  1.00  0.00    -0.237 OA 
BRANCH  12  14
HETATM   14  C   UNL     1      -9.298  17.906  67.838  1.00  0.00    -0.271 A  
HETATM   15  C   UNL     1      -8.272  18.611  67.194  1.00  0.00    -0.258 A  
HETATM   16  C   UNL     1      -8.566  19.761  66.453  1.00  0.00    -0.398 A  
HETATM   17  C   UNL     1      -9.882  20.214  66.360  1.00  0.00    -0.560 A  
HETATM   18  C   UNL     1     -10.908  19.515  66.994  1.00  0.00    -0.542 A  
HETATM   19  C   UNL     1     -10.618  18.366  67.734  1.00  0.00    -0.419 A  
ENDBRANCH  12  14
ENDBRANCH  11  12
TORSDOF 2
ENDMDL
MODEL       51
REMARK 921   NORMALIZED FREE ENERGY PREDICTED BY IDOCK:   -5.64 KCAL/MOL
REMARK 922        TOTAL FREE ENERGY PREDICTED BY IDOCK:   -6.56 KCAL/MOL
REMARK 923 INTER-LIGAND FREE ENERGY PREDICTED BY IDOCK:   -6.09 KCAL/MOL
REMARK 924 INTRA-LIGAND FREE ENERGY PREDICTED BY IDOCK:   -0.47 KCAL/MOL
REMARK 927      BINDING AFFINITY PREDICTED BY RF-SCORE:    0.00 PKD
ROOT
HETATM    1  O   UNL     1      -9.554   9.157  72.119  1.00  0.00    -0.276 OA 
HETATM    2  C   UNL     1     -10.472   8.215  71.808  1.00  0.00    -0.242 C  
HETATM    3  C   UNL     1     -11.255   8.433  70.522  1.00  0.00    -0.252 A  
HETATM    4  O   UNL     1     -10.606   7.209  72.496  1.00  0.00    -0.216 OA 
HETATM    5  C   UNL     1     -10.554   7.735  69.326  1.00  0.00    -0.199 A  
HETATM    6  C   UNL     1     -10.162   8.829  68.311  1.00  0.00    -0.201 A  
HETATM    7  N   UNL     1     -10.720  10.040  68.881  1.00  0.00    -0.211 NA 
HETATM    8  C   UNL     1     -11.321   9.851  70.088  1.00  0.00    -0.275 A  
HETATM    9  C   UNL     1     -11.822  11.050  70.516  1.00  0.00    -0.464 A  
HETATM   10  C   UNL     1     -11.428  12.001  69.532  1.00  0.00    -0.351 A  
HETATM   11  C   UNL     1     -10.700  11.356  68.535  1.00  0.00    -0.201 A  
ENDROOT
BRANCH  11  12
HETATM   12  C   UNL     1     -10.073  11.897  67.340  1.00  0.00    -0.196 C  
HETATM   13  O   UNL     1      -8.930  12.354  67.346  1.00  0.00    -0.171 OA 
BRANCH  12  14
HETATM   14  C   UNL     1     -10.844  11.942  66.062  1.00  0.00    -0.342 A  
HETATM   15  C   UNL     1     -10.367  11.246  64.943  1.00  0.00    -0.362 A  
HETATM   16  C   UNL     1     -11.034  11.345  63.717  1.00  0.00    -0.448 A  
HETATM   17  C   UNL     1     -12.171  12.143  63.602  1.00  0.00    -0.663 A  
HETATM   18  C   UNL     1     -12.654  12.835  64.712  1.00  0.00    -0.518 A  
HETATM   19  C   UNL     1     -11.992  12.738  65.939  1.00  0.00    -0.506 A  
ENDBRANCH  12  14
ENDBRANCH  11  12
TORSDOF 2
ENDMDL
MODEL       52
REMARK 921   NORMALIZED FREE ENERGY PREDICTED BY IDOCK:   -5.62 KCAL/MOL
REMARK 922        TOTAL FREE ENERGY PREDICTED BY IDOCK:   -6.54 KCAL/MOL
REMARK 923 INTER-LIGAND FREE ENERGY PREDICTED BY IDOCK:   -6.01 KCAL/MOL
REMARK 924 INTRA-LIGAND FREE ENERGY PREDICTED BY IDOCK:   -0.53 KCAL/MOL
REMARK 927      BINDING AFFINITY PREDICTED BY RF-SCORE:    0.00 PKD
ROOT
HETATM    1  O   UNL     1     -13.034  12.662  64.989  1.00  0.00    -0.812 OA 
HETATM    2  C   UNL     1     -12.389  13.849  64.961  1.00  0.00    -0.430 C  
HETATM    3  C   UNL     1     -11.321  14.064  66.022  1.00  0.00    -0.328 A  
HETATM    4  O   UNL     1     -12.612  14.670  64.079  1.00  0.00    -0.819 OA 
HETATM    5  C   UNL     1      -9.928  13.619  65.500  1.00  0.00    -0.244 A  
HETATM    6  C   UNL     1      -9.436  12.468  66.402  1.00  0.00    -0.233 A  
HETATM    7  N   UNL     1     -10.461  12.371  67.422  1.00  0.00    -0.214 NA 
HETATM    8  C   UNL     1     -11.502  13.231  67.237  1.00  0.00    -0.338 A  
HETATM    9  C   UNL     1     -12.390  13.063  68.264  1.00  0.00     0.177 A  
HETATM   10  C   UNL     1     -11.870  11.997  69.051  1.00  0.00    -0.372 A  
HETATM   11  C   UNL     1     -10.680  11.546  68.483  1.00  0.00    -0.209 A  
ENDROOT
BRANCH  11  12
HETATM   12  C   UNL     1      -9.793  10.474  68.903  1.00  0.00    -0.201 C  
HETATM   13  O   UNL     1      -8.729  10.688  69.484  1.00  0.00    -0.096 OA 
BRANCH  12  14
HETATM   14  C   UNL     1     -10.153   9.059  68.592  1.00  0.00    -0.207 A  
HETATM   15  C   UNL     1     -10.337   8.670  67.257  1.00  0.00    -0.366 A  
HETATM   16  C   UNL     1     -10.754   7.369  66.955  1.00  0.00    -0.389 A  
HETATM   17  C   UNL     1     -10.995   6.457  67.981  1.00  0.00    -0.400 A  
HETATM   18  C   UNL     1     -10.810   6.834  69.310  1.00  0.00    -0.303 A  
HETATM   19  C   UNL     1     -10.393   8.132  69.616  1.00  0.00    -0.221 A  
ENDBRANCH  12  14
ENDBRANCH  11  12
TORSDOF 2
ENDMDL
MODEL       53
REMARK 921   NORMALIZED FREE ENERGY PREDICTED BY IDOCK:   -5.61 KCAL/MOL
REMARK 922        TOTAL FREE ENERGY PREDICTED BY IDOCK:   -6.53 KCAL/MOL
REMARK 923 INTER-LIGAND FREE ENERGY PREDICTED BY IDOCK:   -6.09 KCAL/MOL
REMARK 924 INTRA-LIGAND FREE ENERGY PREDICTED BY IDOCK:   -0.44 KCAL/MOL
REMARK 927      BINDING AFFINITY PREDICTED BY RF-SCORE:    0.00 PKD
ROOT
HETATM    1  O   UNL     1     -11.145   7.360  66.868  1.00  0.00    -0.236 OA 
HETATM    2  C   UNL     1     -10.121   7.624  67.710  1.00  0.00    -0.186 C  
HETATM    3  C   UNL     1      -9.615   9.058  67.728  1.00  0.00    -0.178 A  
HETATM    4  O   UNL     1      -9.683   6.763  68.463  1.00  0.00    -0.133 OA 
HETATM    5  C   UNL     1     -10.348   9.887  68.817  1.00  0.00    -0.222 A  
HETATM    6  C   UNL     1     -11.107  11.026  68.105  1.00  0.00    -0.270 A  
HETATM    7  N   UNL     1     -10.714  10.883  66.717  1.00  0.00    -0.264 NA 
HETATM    8  C   UNL     1      -9.901   9.816  66.484  1.00  0.00    -0.225 A  
HETATM    9  C   UNL     1      -9.585   9.794  65.154  1.00  0.00    -0.356 A  
HETATM   10  C   UNL     1     -10.311  10.870  64.570  1.00  0.00    -0.417 A  
HETATM   11  C   UNL     1     -11.049  11.516  65.559  1.00  0.00    -0.191 A  
ENDROOT
BRANCH  11  12
HETATM   12  C   UNL     1     -11.954  12.648  65.458  1.00  0.00    -0.456 C  
HETATM   13  O   UNL     1     -13.069  12.557  64.943  1.00  0.00    -0.833 OA 
BRANCH  12  14
HETATM   14  C   UNL     1     -11.517  13.986  65.957  1.00  0.00    -0.340 A  
HETATM   15  C   UNL     1     -10.673  14.776  65.164  1.00  0.00    -0.433 A  
HETATM   16  C   UNL     1     -10.189  15.996  65.652  1.00  0.00    -0.412 A  
HETATM   17  C   UNL     1     -10.537  16.424  66.932  1.00  0.00    -0.252 A  
HETATM   18  C   UNL     1     -11.379  15.645  67.724  1.00  0.00    -0.261 A  
HETATM   19  C   UNL     1     -11.865  14.428  67.241  1.00  0.00    -0.434 A  
ENDBRANCH  12  14
ENDBRANCH  11  12
TORSDOF 2
ENDMDL
MODEL       54
REMARK 921   NORMALIZED FREE ENERGY PREDICTED BY IDOCK:   -5.61 KCAL/MOL
REMARK 922        TOTAL FREE ENERGY PREDICTED BY IDOCK:   -6.53 KCAL/MOL
REMARK 923 INTER-LIGAND FREE ENERGY PREDICTED BY IDOCK:   -6.26 KCAL/MOL
REMARK 924 INTRA-LIGAND FREE ENERGY PREDICTED BY IDOCK:   -0.27 KCAL/MOL
REMARK 927      BINDING AFFINITY PREDICTED BY RF-SCORE:    0.00 PKD
ROOT
HETATM    1  O   UNL     1     -10.128   5.947  70.782  1.00  0.00    -0.184 OA 
HETATM    2  C   UNL     1     -10.056   6.137  72.119  1.00  0.00    -0.183 C  
HETATM    3  C   UNL     1     -10.285   7.557  72.613  1.00  0.00    -0.297 A  
HETATM    4  O   UNL     1      -9.887   5.195  72.884  1.00  0.00    -0.153 OA 
HETATM    5  C   UNL     1     -11.783   7.789  72.949  1.00  0.00    -0.231 A  
HETATM    6  C   UNL     1     -12.306   8.900  72.014  1.00  0.00    -0.390 A  
HETATM    7  N   UNL     1     -11.123   9.320  71.289  1.00  0.00    -0.326 NA 
HETATM    8  C   UNL     1     -10.007   8.602  71.596  1.00  0.00    -0.282 A  
HETATM    9  C   UNL     1      -8.959   9.098  70.870  1.00  0.00    -0.298 A  
HETATM   10  C   UNL     1      -9.514  10.115  70.043  1.00  0.00    -0.086 A  
HETATM   11  C   UNL     1     -10.882  10.211  70.289  1.00  0.00    -0.310 A  
ENDROOT
BRANCH  11  12
HETATM   12  C   UNL     1     -11.879  11.080  69.685  1.00  0.00    -0.342 C  
HETATM   13  O   UNL     1     -12.351  10.865  68.569  1.00  0.00    -0.490 OA 
BRANCH  12  14
HETATM   14  C   UNL     1     -12.329  12.301  70.417  1.00  0.00    -0.309 A  
HETATM   15  C   UNL     1     -13.069  12.165  71.599  1.00  0.00    -0.413 A  
HETATM   16  C   UNL     1     -13.567  13.299  72.252  1.00  0.00    -0.703 A  
HETATM   17  C   UNL     1     -13.335  14.568  71.722  1.00  0.00    -0.445 A  
HETATM   18  C   UNL     1     -12.596  14.711  70.549  1.00  0.00    -0.409 A  
HETATM   19  C   UNL     1     -12.097  13.582  69.895  1.00  0.00    -0.408 A  
ENDBRANCH  12  14
ENDBRANCH  11  12
TORSDOF 2
ENDMDL
MODEL       55
REMARK 921   NORMALIZED FREE ENERGY PREDICTED BY IDOCK:   -5.59 KCAL/MOL
REMARK 922        TOTAL FREE ENERGY PREDICTED BY IDOCK:   -6.51 KCAL/MOL
REMARK 923 INTER-LIGAND FREE ENERGY PREDICTED BY IDOCK:   -6.39 KCAL/MOL
REMARK 924 INTRA-LIGAND FREE ENERGY PREDICTED BY IDOCK:   -0.12 KCAL/MOL
REMARK 927      BINDING AFFINITY PREDICTED BY RF-SCORE:    0.00 PKD
ROOT
HETATM    1  O   UNL     1     -11.851   6.765  70.076  1.00  0.00    -0.316 OA 
HETATM    2  C   UNL     1     -11.963   6.974  71.407  1.00  0.00    -0.340 C  
HETATM    3  C   UNL     1     -11.745   8.401  71.888  1.00  0.00    -0.398 A  
HETATM    4  O   UNL     1     -12.292   6.069  72.165  1.00  0.00    -0.254 OA 
HETATM    5  C   UNL     1     -13.089   9.175  71.943  1.00  0.00    -0.478 A  
HETATM    6  C   UNL     1     -12.990  10.358  70.958  1.00  0.00    -0.399 A  
HETATM    7  N   UNL     1     -11.624  10.288  70.478  1.00  0.00    -0.314 NA 
HETATM    8  C   UNL     1     -10.923   9.228  70.969  1.00  0.00    -0.320 A  
HETATM    9  C   UNL     1      -9.652   9.278  70.465  1.00  0.00    -0.317 A  
HETATM   10  C   UNL     1      -9.635  10.390  69.577  1.00  0.00    -0.182 A  
HETATM   11  C   UNL     1     -10.895  10.986  69.565  1.00  0.00    -0.216 A  
ENDROOT
BRANCH  11  12
HETATM   12  C   UNL     1     -11.378  12.130  68.809  1.00  0.00    -0.288 C  
HETATM   13  O   UNL     1     -11.847  13.129  69.354  1.00  0.00    -0.304 OA 
BRANCH  12  14
HETATM   14  C   UNL     1     -11.346  12.091  67.317  1.00  0.00    -0.394 A  
HETATM   15  C   UNL     1     -12.160  12.967  66.586  1.00  0.00    -0.386 A  
HETATM   16  C   UNL     1     -12.203  12.887  65.189  1.00  0.00    -0.519 A  
HETATM   17  C   UNL     1     -11.442  11.929  64.521  1.00  0.00    -0.363 A  
HETATM   18  C   UNL     1     -10.626  11.057  65.241  1.00  0.00    -0.283 A  
HETATM   19  C   UNL     1     -10.580  11.134  66.635  1.00  0.00    -0.314 A  
ENDBRANCH  12  14
ENDBRANCH  11  12
TORSDOF 2
ENDMDL
MODEL       56
REMARK 921   NORMALIZED FREE ENERGY PREDICTED BY IDOCK:   -5.56 KCAL/MOL
REMARK 922        TOTAL FREE ENERGY PREDICTED BY IDOCK:   -6.48 KCAL/MOL
REMARK 923 INTER-LIGAND FREE ENERGY PREDICTED BY IDOCK:   -6.03 KCAL/MOL
REMARK 924 INTRA-LIGAND FREE ENERGY PREDICTED BY IDOCK:   -0.45 KCAL/MOL
REMARK 927      BINDING AFFINITY PREDICTED BY RF-SCORE:    0.00 PKD
ROOT
HETATM    1  O   UNL     1     -10.768  16.825  67.801  1.00  0.00    -0.337 OA 
HETATM    2  C   UNL     1     -10.299  17.043  66.552  1.00  0.00    -0.298 C  
HETATM    3  C   UNL     1      -9.823  15.818  65.786  1.00  0.00    -0.383 A  
HETATM    4  O   UNL     1     -10.329  18.160  66.050  1.00  0.00    -0.478 OA 
HETATM    5  C   UNL     1     -10.975  15.214  64.940  1.00  0.00    -0.434 A  
HETATM    6  C   UNL     1     -11.234  13.783  65.455  1.00  0.00    -0.302 A  
HETATM    7  N   UNL     1     -10.201  13.587  66.453  1.00  0.00    -0.285 NA 
HETATM    8  C   UNL     1      -9.418  14.683  66.654  1.00  0.00    -0.278 A  
HETATM    9  C   UNL     1      -8.475  14.376  67.596  1.00  0.00    -0.191 A  
HETATM   10  C   UNL     1      -8.772  13.048  68.015  1.00  0.00    -0.187 A  
HETATM   11  C   UNL     1      -9.885  12.585  67.318  1.00  0.00    -0.204 A  
ENDROOT
BRANCH  11  12
HETATM   12  C   UNL     1     -10.578  11.310  67.407  1.00  0.00    -0.224 C  
HETATM   13  O   UNL     1     -10.785  10.603  66.421  1.00  0.00    -0.214 OA 
BRANCH  12  14
HETATM   14  C   UNL     1     -11.097  10.847  68.728  1.00  0.00    -0.310 A  
HETATM   15  C   UNL     1     -12.006  11.648  69.433  1.00  0.00    -0.381 A  
HETATM   16  C   UNL     1     -12.438  11.266  70.708  1.00  0.00    -0.471 A  
HETATM   17  C   UNL     1     -11.959  10.092  71.286  1.00  0.00    -0.483 A  
HETATM   18  C   UNL     1     -11.058   9.287  70.590  1.00  0.00    -0.335 A  
HETATM   19  C   UNL     1     -10.624   9.664  69.316  1.00  0.00    -0.236 A  
ENDBRANCH  12  14
ENDBRANCH  11  12
TORSDOF 2
ENDMDL
MODEL       57
REMARK 921   NORMALIZED FREE ENERGY PREDICTED BY IDOCK:   -5.56 KCAL/MOL
REMARK 922        TOTAL FREE ENERGY PREDICTED BY IDOCK:   -6.47 KCAL/MOL
REMARK 923 INTER-LIGAND FREE ENERGY PREDICTED BY IDOCK:   -6.11 KCAL/MOL
REMARK 924 INTRA-LIGAND FREE ENERGY PREDICTED BY IDOCK:   -0.37 KCAL/MOL
REMARK 927      BINDING AFFINITY PREDICTED BY RF-SCORE:    0.00 PKD
ROOT
HETATM    1  O   UNL     1      -7.527  19.286  65.402  1.00  0.00    -0.430 OA 
HETATM    2  C   UNL     1      -7.109  20.204  66.303  1.00  0.00    -0.261 C  
HETATM    3  C   UNL     1      -7.597  20.019  67.732  1.00  0.00    -0.328 A  
HETATM    4  O   UNL     1      -6.323  21.089  65.987  1.00  0.00    -0.257 OA 
HETATM    5  C   UNL     1      -6.587  19.173  68.553  1.00  0.00    -0.284 A  
HETATM    6  C   UNL     1      -7.311  17.888  69.005  1.00  0.00    -0.190 A  
HETATM    7  N   UNL     1      -8.672  18.083  68.543  1.00  0.00    -0.302 NA 
HETATM    8  C   UNL     1      -8.854  19.237  67.844  1.00  0.00    -0.312 A  
HETATM    9  C   UNL     1     -10.169  19.320  67.479  1.00  0.00    -0.514 A  
HETATM   10  C   UNL     1     -10.770  18.112  67.932  1.00  0.00    -0.331 A  
HETATM   11  C   UNL     1      -9.804  17.328  68.560  1.00  0.00    -0.307 A  
ENDROOT
BRANCH  11  12
HETATM   12  C   UNL     1      -9.921  16.011  69.164  1.00  0.00    -0.246 C  
HETATM   13  O   UNL     1      -9.089  15.123  68.975  1.00  0.00    -0.197 OA 
BRANCH  12  14
HETATM   14  C   UNL     1     -11.106  15.695  70.016  1.00  0.00    -0.332 A  
HETATM   15  C   UNL     1     -11.316  16.414  71.201  1.00  0.00    -0.191 A  
HETATM   16  C   UNL     1     -12.376  16.075  72.050  1.00  0.00    -0.540 A  
HETATM   17  C   UNL     1     -13.221  15.015  71.724  1.00  0.00    -0.457 A  
HETATM   18  C   UNL     1     -13.021  14.299  70.545  1.00  0.00    -0.259 A  
HETATM   19  C   UNL     1     -11.965  14.634  69.694  1.00  0.00    -0.368 A  
ENDBRANCH  12  14
ENDBRANCH  11  12
TORSDOF 2
ENDMDL
MODEL       58
REMARK 921   NORMALIZED FREE ENERGY PREDICTED BY IDOCK:   -5.53 KCAL/MOL
REMARK 922        TOTAL FREE ENERGY PREDICTED BY IDOCK:   -6.44 KCAL/MOL
REMARK 923 INTER-LIGAND FREE ENERGY PREDICTED BY IDOCK:   -5.99 KCAL/MOL
REMARK 924 INTRA-LIGAND FREE ENERGY PREDICTED BY IDOCK:   -0.45 KCAL/MOL
REMARK 927      BINDING AFFINITY PREDICTED BY RF-SCORE:    0.00 PKD
ROOT
HETATM    1  O   UNL     1     -12.103  11.517  67.252  1.00  0.00    -0.548 OA 
HETATM    2  C   UNL     1     -10.792  11.761  67.471  1.00  0.00    -0.239 C  
HETATM    3  C   UNL     1     -10.193  11.156  68.732  1.00  0.00    -0.219 A  
HETATM    4  O   UNL     1     -10.117  12.376  66.654  1.00  0.00    -0.216 OA 
HETATM    5  C   UNL     1      -9.590   9.756  68.440  1.00  0.00    -0.157 A  
HETATM    6  C   UNL     1     -10.361   8.727  69.292  1.00  0.00    -0.214 A  
HETATM    7  N   UNL     1     -11.259   9.544  70.084  1.00  0.00    -0.244 NA 
HETATM    8  C   UNL     1     -11.188  10.873  69.797  1.00  0.00    -0.281 A  
HETATM    9  C   UNL     1     -12.060  11.540  70.613  1.00  0.00    -0.450 A  
HETATM   10  C   UNL     1     -12.724  10.533  71.368  1.00  0.00    -0.547 A  
HETATM   11  C   UNL     1     -12.239   9.283  70.992  1.00  0.00    -0.255 A  
ENDROOT
BRANCH  11  12
HETATM   12  C   UNL     1     -12.614   7.958  71.457  1.00  0.00    -0.321 C  
HETATM   13  O   UNL     1     -13.712   7.459  71.209  1.00  0.00    -0.359 OA 
BRANCH  12  14
HETATM   14  C   UNL     1     -11.660   7.178  72.301  1.00  0.00    -0.309 A  
HETATM   15  C   UNL     1     -11.767   5.781  72.353  1.00  0.00    -0.281 A  
HETATM   16  C   UNL     1     -10.933   5.044  73.201  1.00  0.00    -0.375 A  
HETATM   17  C   UNL     1     -10.000   5.697  74.004  1.00  0.00    -0.216 A  
HETATM   18  C   UNL     1      -9.885   7.085  73.955  1.00  0.00    -0.345 A  
HETATM   19  C   UNL     1     -10.715   7.826  73.109  1.00  0.00    -0.414 A  
ENDBRANCH  12  14
ENDBRANCH  11  12
TORSDOF 2
ENDMDL
MODEL       59
REMARK 921   NORMALIZED FREE ENERGY PREDICTED BY IDOCK:   -5.53 KCAL/MOL
REMARK 922        TOTAL FREE ENERGY PREDICTED BY IDOCK:   -6.44 KCAL/MOL
REMARK 923 INTER-LIGAND FREE ENERGY PREDICTED BY IDOCK:   -5.98 KCAL/MOL
REMARK 924 INTRA-LIGAND FREE ENERGY PREDICTED BY IDOCK:   -0.46 KCAL/MOL
REMARK 927      BINDING AFFINITY PREDICTED BY RF-SCORE:    0.00 PKD
ROOT
HETATM    1  O   UNL     1     -11.593  10.708  67.641  1.00  0.00    -0.492 OA 
HETATM    2  C   UNL     1     -10.592  10.502  66.756  1.00  0.00    -0.222 C  
HETATM    3  C   UNL     1      -9.943  11.746  66.169  1.00  0.00    -0.254 A  
HETATM    4  O   UNL     1     -10.191   9.372  66.506  1.00  0.00    -0.258 OA 
HETATM    5  C   UNL     1      -8.719  12.183  67.017  1.00  0.00    -0.190 A  
HETATM    6  C   UNL     1      -9.013  13.592  67.573  1.00  0.00    -0.210 A  
HETATM    7  N   UNL     1     -10.282  13.940  66.965  1.00  0.00    -0.252 NA 
HETATM    8  C   UNL     1     -10.812  12.950  66.195  1.00  0.00    -0.279 A  
HETATM    9  C   UNL     1     -11.990  13.397  65.663  1.00  0.00    -0.439 A  
HETATM   10  C   UNL     1     -12.190  14.695  66.212  1.00  0.00    -0.162 A  
HETATM   11  C   UNL     1     -11.128  15.002  67.061  1.00  0.00    -0.334 A  
ENDROOT
BRANCH  11  12
HETATM   12  C   UNL     1     -10.889  16.191  67.862  1.00  0.00    -0.332 C  
HETATM   13  O   UNL     1     -11.297  16.299  69.018  1.00  0.00    -0.331 OA 
BRANCH  12  14
HETATM   14  C   UNL     1     -10.157  17.346  67.262  1.00  0.00    -0.310 A  
HETATM   15  C   UNL     1      -8.816  17.193  66.883  1.00  0.00    -0.255 A  
HETATM   16  C   UNL     1      -8.094  18.289  66.395  1.00  0.00    -0.285 A  
HETATM   17  C   UNL     1      -8.704  19.538  66.293  1.00  0.00    -0.383 A  
HETATM   18  C   UNL     1     -10.038  19.697  66.665  1.00  0.00    -0.555 A  
HETATM   19  C   UNL     1     -10.763  18.606  67.151  1.00  0.00    -0.433 A  
ENDBRANCH  12  14
ENDBRANCH  11  12
TORSDOF 2
ENDMDL
MODEL       60
REMARK 921   NORMALIZED FREE ENERGY PREDICTED BY IDOCK:   -5.51 KCAL/MOL
REMARK 922        TOTAL FREE ENERGY PREDICTED BY IDOCK:   -6.43 KCAL/MOL
REMARK 923 INTER-LIGAND FREE ENERGY PREDICTED BY IDOCK:   -6.02 KCAL/MOL
REMARK 924 INTRA-LIGAND FREE ENERGY PREDICTED BY IDOCK:   -0.41 KCAL/MOL
REMARK 927      BINDING AFFINITY PREDICTED BY RF-SCORE:    0.00 PKD
ROOT
HETATM    1  O   UNL     1      -8.531  18.663  65.869  1.00  0.00    -0.491 OA 
HETATM    2  C   UNL     1      -9.594  19.140  66.556  1.00  0.00    -0.355 C  
HETATM    3  C   UNL     1     -10.520  18.104  67.174  1.00  0.00    -0.392 A  
HETATM    4  O   UNL     1      -9.750  20.344  66.724  1.00  0.00    -0.417 OA 
HETATM    5  C   UNL     1     -10.089  17.777  68.629  1.00  0.00    -0.384 A  
HETATM    6  C   UNL     1      -9.714  16.281  68.682  1.00  0.00    -0.235 A  
HETATM    7  N   UNL     1     -10.031  15.803  67.351  1.00  0.00    -0.235 NA 
HETATM    8  C   UNL     1     -10.472  16.778  66.508  1.00  0.00    -0.258 A  
HETATM    9  C   UNL     1     -10.755  16.208  65.297  1.00  0.00    -0.386 A  
HETATM   10  C   UNL     1     -10.393  14.837  65.424  1.00  0.00    -0.410 A  
HETATM   11  C   UNL     1      -9.900  14.611  66.707  1.00  0.00    -0.255 A  
ENDROOT
BRANCH  11  12
HETATM   12  C   UNL     1      -9.389  13.390  67.307  1.00  0.00    -0.233 C  
HETATM   13  O   UNL     1      -8.208  13.055  67.216  1.00  0.00    -0.180 OA 
BRANCH  12  14
HETATM   14  C   UNL     1     -10.325  12.478  68.030  1.00  0.00    -0.226 A  
HETATM   15  C   UNL     1     -11.168  12.999  69.022  1.00  0.00    -0.316 A  
HETATM   16  C   UNL     1     -11.992  12.145  69.764  1.00  0.00    -0.372 A  
HETATM   17  C   UNL     1     -11.971  10.772  69.525  1.00  0.00    -0.364 A  
HETATM   18  C   UNL     1     -11.138  10.247  68.538  1.00  0.00    -0.294 A  
HETATM   19  C   UNL     1     -10.315  11.096  67.794  1.00  0.00    -0.215 A  
ENDBRANCH  12  14
ENDBRANCH  11  12
TORSDOF 2
ENDMDL
MODEL       61
REMARK 921   NORMALIZED FREE ENERGY PREDICTED BY IDOCK:   -5.49 KCAL/MOL
REMARK 922        TOTAL FREE ENERGY PREDICTED BY IDOCK:   -6.40 KCAL/MOL
REMARK 923 INTER-LIGAND FREE ENERGY PREDICTED BY IDOCK:   -6.05 KCAL/MOL
REMARK 924 INTRA-LIGAND FREE ENERGY PREDICTED BY IDOCK:   -0.35 KCAL/MOL
REMARK 927      BINDING AFFINITY PREDICTED BY RF-SCORE:    0.00 PKD
ROOT
HETATM    1  O   UNL     1      -7.945  16.832  67.620  1.00  0.00    -0.171 OA 
HETATM    2  C   UNL     1      -8.875  17.728  68.021  1.00  0.00    -0.259 C  
HETATM    3  C   UNL     1     -10.328  17.347  67.781  1.00  0.00    -0.358 A  
HETATM    4  O   UNL     1      -8.554  18.753  68.610  1.00  0.00    -0.335 OA 
HETATM    5  C   UNL     1     -10.917  16.613  69.015  1.00  0.00    -0.279 A  
HETATM    6  C   UNL     1     -11.321  15.193  68.567  1.00  0.00    -0.309 A  
HETATM    7  N   UNL     1     -11.065  15.200  67.140  1.00  0.00    -0.335 NA 
HETATM    8  C   UNL     1     -10.521  16.363  66.686  1.00  0.00    -0.274 A  
HETATM    9  C   UNL     1     -10.342  16.259  65.334  1.00  0.00    -0.320 A  
HETATM   10  C   UNL     1     -10.740  14.935  64.995  1.00  0.00    -0.451 A  
HETATM   11  C   UNL     1     -11.150  14.270  66.149  1.00  0.00    -0.324 A  
ENDROOT
BRANCH  11  12
HETATM   12  C   UNL     1     -11.622  12.907  66.322  1.00  0.00    -0.372 C  
HETATM   13  O   UNL     1     -12.516  12.426  65.626  1.00  0.00    -0.640 OA 
BRANCH  12  14
HETATM   14  C   UNL     1     -11.039  12.059  67.404  1.00  0.00    -0.337 A  
HETATM   15  C   UNL     1      -9.687  11.696  67.344  1.00  0.00    -0.186 A  
HETATM   16  C   UNL     1      -9.146  10.835  68.307  1.00  0.00    -0.157 A  
HETATM   17  C   UNL     1      -9.954  10.329  69.324  1.00  0.00    -0.244 A  
HETATM   18  C   UNL     1     -11.299  10.689  69.393  1.00  0.00    -0.348 A  
HETATM   19  C   UNL     1     -11.842  11.549  68.435  1.00  0.00    -0.353 A  
ENDBRANCH  12  14
ENDBRANCH  11  12
TORSDOF 2
ENDMDL
MODEL       62
REMARK 921   NORMALIZED FREE ENERGY PREDICTED BY IDOCK:   -5.47 KCAL/MOL
REMARK 922        TOTAL FREE ENERGY PREDICTED BY IDOCK:   -6.38 KCAL/MOL
REMARK 923 INTER-LIGAND FREE ENERGY PREDICTED BY IDOCK:   -5.89 KCAL/MOL
REMARK 924 INTRA-LIGAND FREE ENERGY PREDICTED BY IDOCK:   -0.49 KCAL/MOL
REMARK 927      BINDING AFFINITY PREDICTED BY RF-SCORE:    0.00 PKD
ROOT
HETATM    1  O   UNL     1      -9.986  17.351  65.560  1.00  0.00    -0.555 OA 
HETATM    2  C   UNL     1      -8.947  17.490  66.414  1.00  0.00    -0.238 C  
HETATM    3  C   UNL     1      -8.812  16.427  67.493  1.00  0.00    -0.187 A  
HETATM    4  O   UNL     1      -8.126  18.388  66.271  1.00  0.00    -0.319 OA 
HETATM    5  C   UNL     1      -7.893  15.271  67.015  1.00  0.00    -0.224 A  
HETATM    6  C   UNL     1      -8.737  13.980  66.994  1.00  0.00    -0.203 A  
HETATM    7  N   UNL     1     -10.014  14.398  67.537  1.00  0.00    -0.223 NA 
HETATM    8  C   UNL     1     -10.082  15.729  67.817  1.00  0.00    -0.238 A  
HETATM    9  C   UNL     1     -11.318  16.001  68.336  1.00  0.00    -0.355 A  
HETATM   10  C   UNL     1     -12.031  14.770  68.291  1.00  0.00    -0.258 A  
HETATM   11  C   UNL     1     -11.212  13.785  67.746  1.00  0.00    -0.288 A  
ENDROOT
BRANCH  11  12
HETATM   12  C   UNL     1     -11.490  12.383  67.478  1.00  0.00    -0.346 C  
HETATM   13  O   UNL     1     -12.086  12.012  66.468  1.00  0.00    -0.617 OA 
BRANCH  12  14
HETATM   14  C   UNL     1     -11.078  11.349  68.474  1.00  0.00    -0.287 A  
HETATM   15  C   UNL     1     -11.779  11.235  69.682  1.00  0.00    -0.420 A  
HETATM   16  C   UNL     1     -11.354  10.327  70.658  1.00  0.00    -0.431 A  
HETATM   17  C   UNL     1     -10.227   9.538  70.436  1.00  0.00    -0.337 A  
HETATM   18  C   UNL     1      -9.527   9.643  69.235  1.00  0.00    -0.184 A  
HETATM   19  C   UNL     1      -9.948  10.548  68.257  1.00  0.00    -0.176 A  
ENDBRANCH  12  14
ENDBRANCH  11  12
TORSDOF 2
ENDMDL
MODEL       63
REMARK 921   NORMALIZED FREE ENERGY PREDICTED BY IDOCK:   -5.43 KCAL/MOL
REMARK 922        TOTAL FREE ENERGY PREDICTED BY IDOCK:   -6.33 KCAL/MOL
REMARK 923 INTER-LIGAND FREE ENERGY PREDICTED BY IDOCK:   -5.82 KCAL/MOL
REMARK 924 INTRA-LIGAND FREE ENERGY PREDICTED BY IDOCK:   -0.51 KCAL/MOL
REMARK 927      BINDING AFFINITY PREDICTED BY RF-SCORE:    0.00 PKD
ROOT
HETATM    1  O   UNL     1      -7.748   7.000  70.472  1.00  0.00    -0.092 OA 
HETATM    2  C   UNL     1      -8.098   5.698  70.371  1.00  0.00    -0.105 C  
HETATM    3  C   UNL     1      -9.534   5.354  70.736  1.00  0.00    -0.215 A  
HETATM    4  O   UNL     1      -7.312   4.862  69.939  1.00  0.00    -0.053 OA 
HETATM    5  C   UNL     1     -10.448   5.400  69.482  1.00  0.00    -0.343 A  
HETATM    6  C   UNL     1     -11.510   6.494  69.717  1.00  0.00    -0.379 A  
HETATM    7  N   UNL     1     -11.250   6.937  71.073  1.00  0.00    -0.267 NA 
HETATM    8  C   UNL     1     -10.175   6.331  71.651  1.00  0.00    -0.194 A  
HETATM    9  C   UNL     1     -10.039   6.812  72.924  1.00  0.00    -0.201 A  
HETATM   10  C   UNL     1     -11.051   7.804  73.069  1.00  0.00    -0.419 A  
HETATM   11  C   UNL     1     -11.773   7.899  71.881  1.00  0.00    -0.297 A  
ENDROOT
BRANCH  11  12
HETATM   12  C   UNL     1     -12.881   8.771  71.531  1.00  0.00    -0.325 C  
HETATM   13  O   UNL     1     -14.044   8.371  71.480  1.00  0.00    -0.394 OA 
BRANCH  12  14
HETATM   14  C   UNL     1     -12.611  10.197  71.180  1.00  0.00    -0.486 A  
HETATM   15  C   UNL     1     -13.206  11.219  71.934  1.00  0.00    -0.491 A  
HETATM   16  C   UNL     1     -13.029  12.558  71.567  1.00  0.00    -0.379 A  
HETATM   17  C   UNL     1     -12.265  12.880  70.446  1.00  0.00    -0.381 A  
HETATM   18  C   UNL     1     -11.667  11.869  69.694  1.00  0.00    -0.413 A  
HETATM   19  C   UNL     1     -11.841  10.532  70.057  1.00  0.00    -0.388 A  
ENDBRANCH  12  14
ENDBRANCH  11  12
TORSDOF 2
ENDMDL
MODEL       64
REMARK 921   NORMALIZED FREE ENERGY PREDICTED BY IDOCK:   -5.40 KCAL/MOL
REMARK 922        TOTAL FREE ENERGY PREDICTED BY IDOCK:   -6.30 KCAL/MOL
REMARK 923 INTER-LIGAND FREE ENERGY PREDICTED BY IDOCK:   -5.84 KCAL/MOL
REMARK 924 INTRA-LIGAND FREE ENERGY PREDICTED BY IDOCK:   -0.47 KCAL/MOL
REMARK 927      BINDING AFFINITY PREDICTED BY RF-SCORE:    0.00 PKD
ROOT
HETATM    1  O   UNL     1     -10.944  17.064  67.562  1.00  0.00    -0.258 OA 
HETATM    2  C   UNL     1     -10.485  17.258  66.305  1.00  0.00    -0.268 C  
HETATM    3  C   UNL     1     -10.058  16.014  65.542  1.00  0.00    -0.336 A  
HETATM    4  O   UNL     1     -10.486  18.373  65.796  1.00  0.00    -0.594 OA 
HETATM    5  C   UNL     1     -11.240  15.442  64.715  1.00  0.00    -0.404 A  
HETATM    6  C   UNL     1     -11.537  14.023  65.243  1.00  0.00    -0.337 A  
HETATM    7  N   UNL     1     -10.498  13.801  66.229  1.00  0.00    -0.286 NA 
HETATM    8  C   UNL     1      -9.678  14.873  66.412  1.00  0.00    -0.285 A  
HETATM    9  C   UNL     1      -8.733  14.542  67.344  1.00  0.00    -0.210 A  
HETATM   10  C   UNL     1      -9.066  13.227  67.777  1.00  0.00    -0.202 A  
HETATM   11  C   UNL     1     -10.203  12.794  67.097  1.00  0.00    -0.233 A  
ENDROOT
BRANCH  11  12
HETATM   12  C   UNL     1     -10.934  11.543  67.203  1.00  0.00    -0.286 C  
HETATM   13  O   UNL     1     -12.100  11.492  67.595  1.00  0.00    -0.623 OA 
BRANCH  12  14
HETATM   14  C   UNL     1     -10.248  10.260  66.867  1.00  0.00    -0.286 A  
HETATM   15  C   UNL     1      -9.587  10.131  65.638  1.00  0.00    -0.302 A  
HETATM   16  C   UNL     1      -9.010   8.909  65.274  1.00  0.00    -0.213 A  
HETATM   17  C   UNL     1      -9.097   7.813  66.131  1.00  0.00    -0.199 A  
HETATM   18  C   UNL     1      -9.749   7.934  67.357  1.00  0.00    -0.210 A  
HETATM   19  C   UNL     1     -10.326   9.153  67.725  1.00  0.00    -0.302 A  
ENDBRANCH  12  14
ENDBRANCH  11  12
TORSDOF 2
ENDMDL
MODEL       65
REMARK 921   NORMALIZED FREE ENERGY PREDICTED BY IDOCK:   -5.40 KCAL/MOL
REMARK 922        TOTAL FREE ENERGY PREDICTED BY IDOCK:   -6.30 KCAL/MOL
REMARK 923 INTER-LIGAND FREE ENERGY PREDICTED BY IDOCK:   -5.84 KCAL/MOL
REMARK 924 INTRA-LIGAND FREE ENERGY PREDICTED BY IDOCK:   -0.46 KCAL/MOL
REMARK 927      BINDING AFFINITY PREDICTED BY RF-SCORE:    0.00 PKD
ROOT
HETATM    1  O   UNL     1     -11.274  11.953  65.307  1.00  0.00    -0.317 OA 
HETATM    2  C   UNL     1     -12.431  12.499  64.871  1.00  0.00    -0.450 C  
HETATM    3  C   UNL     1     -12.705  13.933  65.297  1.00  0.00    -0.485 A  
HETATM    4  O   UNL     1     -13.175  11.885  64.115  1.00  0.00    -0.645 OA 
HETATM    5  C   UNL     1     -12.168  14.934  64.240  1.00  0.00    -0.365 A  
HETATM    6  C   UNL     1     -11.088  15.800  64.921  1.00  0.00    -0.399 A  
HETATM    7  N   UNL     1     -11.120  15.361  66.302  1.00  0.00    -0.278 NA 
HETATM    8  C   UNL     1     -11.993  14.342  66.534  1.00  0.00    -0.427 A  
HETATM    9  C   UNL     1     -11.950  14.028  67.864  1.00  0.00    -0.387 A  
HETATM   10  C   UNL     1     -10.943  14.866  68.423  1.00  0.00    -0.266 A  
HETATM   11  C   UNL     1     -10.403  15.665  67.419  1.00  0.00    -0.275 A  
ENDROOT
BRANCH  11  12
HETATM   12  C   UNL     1      -9.344  16.659  67.486  1.00  0.00    -0.219 C  
HETATM   13  O   UNL     1      -9.511  17.825  67.128  1.00  0.00    -0.255 OA 
BRANCH  12  14
HETATM   14  C   UNL     1      -7.989  16.257  67.967  1.00  0.00    -0.151 A  
HETATM   15  C   UNL     1      -7.367  15.129  67.415  1.00  0.00    -0.235 A  
HETATM   16  C   UNL     1      -6.133  14.692  67.913  1.00  0.00    -0.162 A  
HETATM   17  C   UNL     1      -5.524  15.374  68.965  1.00  0.00    -0.098 A  
HETATM   18  C   UNL     1      -6.134  16.499  69.516  1.00  0.00    -0.199 A  
HETATM   19  C   UNL     1      -7.365  16.939  69.022  1.00  0.00    -0.231 A  
ENDBRANCH  12  14
ENDBRANCH  11  12
TORSDOF 2
ENDMDL
MODEL       66
REMARK 921   NORMALIZED FREE ENERGY PREDICTED BY IDOCK:   -5.38 KCAL/MOL
REMARK 922        TOTAL FREE ENERGY PREDICTED BY IDOCK:   -6.28 KCAL/MOL
REMARK 923 INTER-LIGAND FREE ENERGY PREDICTED BY IDOCK:   -5.88 KCAL/MOL
REMARK 924 INTRA-LIGAND FREE ENERGY PREDICTED BY IDOCK:   -0.40 KCAL/MOL
REMARK 927      BINDING AFFINITY PREDICTED BY RF-SCORE:    0.00 PKD
ROOT
HETATM    1  O   UNL     1     -14.410  15.270  71.481  1.00  0.00    -0.509 OA 
HETATM    2  C   UNL     1     -13.421  15.548  72.359  1.00  0.00    -0.509 C  
HETATM    3  C   UNL     1     -12.030  15.057  71.988  1.00  0.00    -0.464 A  
HETATM    4  O   UNL     1     -13.633  16.222  73.360  1.00  0.00    -0.612 OA 
HETATM    5  C   UNL     1     -11.251  16.147  71.203  1.00  0.00    -0.257 A  
HETATM    6  C   UNL     1     -10.937  15.582  69.803  1.00  0.00    -0.294 A  
HETATM    7  N   UNL     1     -11.424  14.218  69.868  1.00  0.00    -0.260 NA 
HETATM    8  C   UNL     1     -12.026  13.907  71.049  1.00  0.00    -0.180 A  
HETATM    9  C   UNL     1     -12.426  12.599  71.001  1.00  0.00    -0.354 A  
HETATM   10  C   UNL     1     -12.098  12.147  69.691  1.00  0.00    -0.283 A  
HETATM   11  C   UNL     1     -11.509  13.190  68.980  1.00  0.00    -0.296 A  
ENDROOT
BRANCH  11  12
HETATM   12  C   UNL     1     -11.025  13.228  67.610  1.00  0.00    -0.262 C  
HETATM   13  O   UNL     1     -11.388  14.088  66.807  1.00  0.00    -0.312 OA 
BRANCH  12  14
HETATM   14  C   UNL     1     -10.085  12.171  67.133  1.00  0.00    -0.220 A  
HETATM   15  C   UNL     1      -8.716  12.287  67.411  1.00  0.00    -0.180 A  
HETATM   16  C   UNL     1      -7.813  11.347  66.901  1.00  0.00    -0.158 A  
HETATM   17  C   UNL     1      -8.271  10.297  66.108  1.00  0.00    -0.138 A  
HETATM   18  C   UNL     1      -9.632  10.172  65.831  1.00  0.00    -0.274 A  
HETATM   19  C   UNL     1     -10.537  11.107  66.338  1.00  0.00    -0.315 A  
ENDBRANCH  12  14
ENDBRANCH  11  12
TORSDOF 2
ENDMDL
MODEL       67
REMARK 921   NORMALIZED FREE ENERGY PREDICTED BY IDOCK:   -5.35 KCAL/MOL
REMARK 922        TOTAL FREE ENERGY PREDICTED BY IDOCK:   -6.25 KCAL/MOL
REMARK 923 INTER-LIGAND FREE ENERGY PREDICTED BY IDOCK:   -6.12 KCAL/MOL
REMARK 924 INTRA-LIGAND FREE ENERGY PREDICTED BY IDOCK:   -0.13 KCAL/MOL
REMARK 927      BINDING AFFINITY PREDICTED BY RF-SCORE:    0.00 PKD
ROOT
HETATM    1  O   UNL     1     -10.147   9.831  65.385  1.00  0.00    -0.305 OA 
HETATM    2  C   UNL     1      -8.940  10.439  65.409  1.00  0.00    -0.183 C  
HETATM    3  C   UNL     1      -8.730  11.483  66.496  1.00  0.00    -0.183 A  
HETATM    4  O   UNL     1      -8.048  10.107  64.637  1.00  0.00    -0.147 OA 
HETATM    5  C   UNL     1      -8.112  10.840  67.766  1.00  0.00    -0.111 A  
HETATM    6  C   UNL     1      -9.118  11.023  68.921  1.00  0.00    -0.123 A  
HETATM    7  N   UNL     1     -10.175  11.820  68.330  1.00  0.00    -0.199 NA 
HETATM    8  C   UNL     1      -9.988  12.083  67.007  1.00  0.00    -0.204 A  
HETATM    9  C   UNL     1     -11.031  12.851  66.566  1.00  0.00    -0.300 A  
HETATM   10  C   UNL     1     -11.908  12.982  67.680  1.00  0.00    -0.401 A  
HETATM   11  C   UNL     1     -11.375  12.291  68.766  1.00  0.00    -0.289 A  
ENDROOT
BRANCH  11  12
HETATM   12  C   UNL     1     -11.903  12.114  70.109  1.00  0.00    -0.287 C  
HETATM   13  O   UNL     1     -11.973  11.010  70.649  1.00  0.00    -0.331 OA 
BRANCH  12  14
HETATM   14  C   UNL     1     -12.420  13.298  70.858  1.00  0.00    -0.424 A  
HETATM   15  C   UNL     1     -13.321  13.108  71.915  1.00  0.00    -0.546 A  
HETATM   16  C   UNL     1     -13.876  14.212  72.572  1.00  0.00    -0.590 A  
HETATM   17  C   UNL     1     -13.542  15.504  72.172  1.00  0.00    -0.596 A  
HETATM   18  C   UNL     1     -12.644  15.702  71.124  1.00  0.00    -0.511 A  
HETATM   19  C   UNL     1     -12.086  14.603  70.465  1.00  0.00    -0.388 A  
ENDBRANCH  12  14
ENDBRANCH  11  12
TORSDOF 2
ENDMDL
MODEL       68
REMARK 921   NORMALIZED FREE ENERGY PREDICTED BY IDOCK:   -5.33 KCAL/MOL
REMARK 922        TOTAL FREE ENERGY PREDICTED BY IDOCK:   -6.22 KCAL/MOL
REMARK 923 INTER-LIGAND FREE ENERGY PREDICTED BY IDOCK:   -5.85 KCAL/MOL
REMARK 924 INTRA-LIGAND FREE ENERGY PREDICTED BY IDOCK:   -0.37 KCAL/MOL
REMARK 927      BINDING AFFINITY PREDICTED BY RF-SCORE:    0.00 PKD
ROOT
HETATM    1  O   UNL     1      -7.651  11.615  68.585  1.00  0.00    -0.123 OA 
HETATM    2  C   UNL     1      -7.818  10.692  67.612  1.00  0.00    -0.105 C  
HETATM    3  C   UNL     1      -9.067   9.828  67.708  1.00  0.00    -0.138 A  
HETATM    4  O   UNL     1      -7.037  10.614  66.671  1.00  0.00    -0.108 OA 
HETATM    5  C   UNL     1     -10.238  10.462  66.912  1.00  0.00    -0.281 A  
HETATM    6  C   UNL     1     -11.369  10.778  67.913  1.00  0.00    -0.299 A  
HETATM    7  N   UNL     1     -10.875  10.240  69.166  1.00  0.00    -0.220 NA 
HETATM    8  C   UNL     1      -9.620   9.717  69.081  1.00  0.00    -0.188 A  
HETATM    9  C   UNL     1      -9.271   9.228  70.310  1.00  0.00    -0.273 A  
HETATM   10  C   UNL     1     -10.357   9.548  71.173  1.00  0.00    -0.330 A  
HETATM   11  C   UNL     1     -11.337  10.221  70.446  1.00  0.00    -0.332 A  
ENDROOT
BRANCH  11  12
HETATM   12  C   UNL     1     -12.612  10.766  70.882  1.00  0.00    -0.401 C  
HETATM   13  O   UNL     1     -13.622  10.071  70.992  1.00  0.00    -0.317 OA 
BRANCH  12  14
HETATM   14  C   UNL     1     -12.727  12.227  71.172  1.00  0.00    -0.340 A  
HETATM   15  C   UNL     1     -13.554  12.660  72.217  1.00  0.00    -0.508 A  
HETATM   16  C   UNL     1     -13.735  14.029  72.448  1.00  0.00    -0.669 A  
HETATM   17  C   UNL     1     -13.100  14.965  71.634  1.00  0.00    -0.424 A  
HETATM   18  C   UNL     1     -12.272  14.541  70.596  1.00  0.00    -0.401 A  
HETATM   19  C   UNL     1     -12.087  13.176  70.362  1.00  0.00    -0.392 A  
ENDBRANCH  12  14
ENDBRANCH  11  12
TORSDOF 2
ENDMDL
MODEL       69
REMARK 921   NORMALIZED FREE ENERGY PREDICTED BY IDOCK:   -5.31 KCAL/MOL
REMARK 922        TOTAL FREE ENERGY PREDICTED BY IDOCK:   -6.20 KCAL/MOL
REMARK 923 INTER-LIGAND FREE ENERGY PREDICTED BY IDOCK:   -5.80 KCAL/MOL
REMARK 924 INTRA-LIGAND FREE ENERGY PREDICTED BY IDOCK:   -0.40 KCAL/MOL
REMARK 927      BINDING AFFINITY PREDICTED BY RF-SCORE:    0.00 PKD
ROOT
HETATM    1  O   UNL     1     -11.141  15.668  72.145  1.00  0.00    -0.236 OA 
HETATM    2  C   UNL     1     -12.470  15.674  72.391  1.00  0.00    -0.423 C  
HETATM    3  C   UNL     1     -13.320  14.749  71.534  1.00  0.00    -0.452 A  
HETATM    4  O   UNL     1     -12.941  16.339  73.306  1.00  0.00    -0.477 OA 
HETATM    5  C   UNL     1     -13.490  13.366  72.217  1.00  0.00    -0.683 A  
HETATM    6  C   UNL     1     -12.857  12.306  71.292  1.00  0.00    -0.239 A  
HETATM    7  N   UNL     1     -12.465  13.065  70.121  1.00  0.00    -0.162 NA 
HETATM    8  C   UNL     1     -12.706  14.401  70.228  1.00  0.00    -0.263 A  
HETATM    9  C   UNL     1     -12.315  15.007  69.066  1.00  0.00    -0.056 A  
HETATM   10  C   UNL     1     -11.752  13.973  68.266  1.00  0.00    -0.392 A  
HETATM   11  C   UNL     1     -11.816  12.768  68.962  1.00  0.00    -0.297 A  
ENDROOT
BRANCH  11  12
HETATM   12  C   UNL     1     -11.356  11.443  68.579  1.00  0.00    -0.271 C  
HETATM   13  O   UNL     1     -11.898  10.791  67.687  1.00  0.00    -0.505 OA 
BRANCH  12  14
HETATM   14  C   UNL     1     -10.212  10.822  69.311  1.00  0.00    -0.217 A  
HETATM   15  C   UNL     1      -8.902  11.055  68.869  1.00  0.00    -0.120 A  
HETATM   16  C   UNL     1      -7.826  10.414  69.494  1.00  0.00    -0.161 A  
HETATM   17  C   UNL     1      -8.054   9.536  70.553  1.00  0.00    -0.199 A  
HETATM   18  C   UNL     1      -9.354   9.303  70.999  1.00  0.00    -0.298 A  
HETATM   19  C   UNL     1     -10.432   9.941  70.379  1.00  0.00    -0.347 A  
ENDBRANCH  12  14
ENDBRANCH  11  12
TORSDOF 2
ENDMDL
MODEL       70
REMARK 921   NORMALIZED FREE ENERGY PREDICTED BY IDOCK:   -5.31 KCAL/MOL
REMARK 922        TOTAL FREE ENERGY PREDICTED BY IDOCK:   -6.19 KCAL/MOL
REMARK 923 INTER-LIGAND FREE ENERGY PREDICTED BY IDOCK:   -5.84 KCAL/MOL
REMARK 924 INTRA-LIGAND FREE ENERGY PREDICTED BY IDOCK:   -0.35 KCAL/MOL
REMARK 927      BINDING AFFINITY PREDICTED BY RF-SCORE:    0.00 PKD
ROOT
HETATM    1  O   UNL     1     -10.647   7.766  68.576  1.00  0.00    -0.189 OA 
HETATM    2  C   UNL     1     -10.679   7.856  69.924  1.00  0.00    -0.244 C  
HETATM    3  C   UNL     1     -10.652   9.260  70.508  1.00  0.00    -0.309 A  
HETATM    4  O   UNL     1     -10.796   6.857  70.623  1.00  0.00    -0.229 OA 
HETATM    5  C   UNL     1     -12.093   9.795  70.724  1.00  0.00    -0.364 A  
HETATM    6  C   UNL     1     -12.265  11.047  69.839  1.00  0.00    -0.336 A  
HETATM    7  N   UNL     1     -10.950  11.239  69.260  1.00  0.00    -0.243 NA 
HETATM    8  C   UNL     1     -10.051  10.277  69.609  1.00  0.00    -0.224 A  
HETATM    9  C   UNL     1      -8.851  10.572  69.022  1.00  0.00    -0.174 A  
HETATM   10  C   UNL     1      -9.085  11.733  68.233  1.00  0.00    -0.187 A  
HETATM   11  C   UNL     1     -10.420  12.113  68.361  1.00  0.00    -0.231 A  
ENDROOT
BRANCH  11  12
HETATM   12  C   UNL     1     -11.140  13.213  67.741  1.00  0.00    -0.262 C  
HETATM   13  O   UNL     1     -11.556  14.175  68.387  1.00  0.00    -0.281 OA 
BRANCH  12  14
HETATM   14  C   UNL     1     -11.428  13.171  66.277  1.00  0.00    -0.372 A  
HETATM   15  C   UNL     1     -11.082  12.031  65.538  1.00  0.00    -0.361 A  
HETATM   16  C   UNL     1     -11.271  12.008  64.151  1.00  0.00    -0.441 A  
HETATM   17  C   UNL     1     -11.796  13.123  63.499  1.00  0.00    -0.539 A  
HETATM   18  C   UNL     1     -12.147  14.258  64.228  1.00  0.00    -0.467 A  
HETATM   19  C   UNL     1     -11.961  14.285  65.613  1.00  0.00    -0.390 A  
ENDBRANCH  12  14
ENDBRANCH  11  12
TORSDOF 2
ENDMDL
MODEL       71
REMARK 921   NORMALIZED FREE ENERGY PREDICTED BY IDOCK:   -5.30 KCAL/MOL
REMARK 922        TOTAL FREE ENERGY PREDICTED BY IDOCK:   -6.19 KCAL/MOL
REMARK 923 INTER-LIGAND FREE ENERGY PREDICTED BY IDOCK:   -5.96 KCAL/MOL
REMARK 924 INTRA-LIGAND FREE ENERGY PREDICTED BY IDOCK:   -0.22 KCAL/MOL
REMARK 927      BINDING AFFINITY PREDICTED BY RF-SCORE:    0.00 PKD
ROOT
HETATM    1  O   UNL     1      -8.841   9.022  71.845  1.00  0.00    -0.360 OA 
HETATM    2  C   UNL     1      -9.313   7.876  71.304  1.00  0.00    -0.146 C  
HETATM    3  C   UNL     1     -10.460   8.019  70.315  1.00  0.00    -0.222 A  
HETATM    4  O   UNL     1      -8.790   6.796  71.552  1.00  0.00    -0.137 OA 
HETATM    5  C   UNL     1      -9.923   8.145  68.864  1.00  0.00    -0.198 A  
HETATM    6  C   UNL     1     -10.361   9.522  68.321  1.00  0.00    -0.207 A  
HETATM    7  N   UNL     1     -11.184  10.062  69.385  1.00  0.00    -0.217 NA 
HETATM    8  C   UNL     1     -11.253   9.262  70.485  1.00  0.00    -0.265 A  
HETATM    9  C   UNL     1     -12.066   9.862  71.407  1.00  0.00    -0.501 A  
HETATM   10  C   UNL     1     -12.433  11.114  70.837  1.00  0.00    -0.509 A  
HETATM   11  C   UNL     1     -11.835  11.240  69.585  1.00  0.00    -0.360 A  
ENDROOT
BRANCH  11  12
HETATM   12  C   UNL     1     -11.891  12.336  68.632  1.00  0.00    -0.305 C  
HETATM   13  O   UNL     1     -12.136  12.159  67.439  1.00  0.00    -0.553 OA 
BRANCH  12  14
HETATM   14  C   UNL     1     -11.604  13.727  69.093  1.00  0.00    -0.363 A  
HETATM   15  C   UNL     1     -10.417  14.356  68.694  1.00  0.00    -0.247 A  
HETATM   16  C   UNL     1     -10.095  15.627  69.184  1.00  0.00    -0.237 A  
HETATM   17  C   UNL     1     -10.952  16.268  70.077  1.00  0.00    -0.356 A  
HETATM   18  C   UNL     1     -12.136  15.651  70.476  1.00  0.00    -0.430 A  
HETATM   19  C   UNL     1     -12.461  14.382  69.989  1.00  0.00    -0.353 A  
ENDBRANCH  12  14
ENDBRANCH  11  12
TORSDOF 2
ENDMDL
MODEL       72
REMARK 921   NORMALIZED FREE ENERGY PREDICTED BY IDOCK:   -5.30 KCAL/MOL
REMARK 922        TOTAL FREE ENERGY PREDICTED BY IDOCK:   -6.18 KCAL/MOL
REMARK 923 INTER-LIGAND FREE ENERGY PREDICTED BY IDOCK:   -5.68 KCAL/MOL
REMARK 924 INTRA-LIGAND FREE ENERGY PREDICTED BY IDOCK:   -0.50 KCAL/MOL
REMARK 927      BINDING AFFINITY PREDICTED BY RF-SCORE:    0.00 PKD
ROOT
HETATM    1  O   UNL     1     -10.042  13.057  63.774  1.00  0.00    -0.334 OA 
HETATM    2  C   UNL     1     -11.119  12.313  64.114  1.00  0.00    -0.366 C  
HETATM    3  C   UNL     1     -11.533  12.354  65.577  1.00  0.00    -0.404 A  
HETATM    4  O   UNL     1     -11.760  11.702  63.267  1.00  0.00    -0.343 OA 
HETATM    5  C   UNL     1     -12.585  13.469  65.821  1.00  0.00    -0.490 A  
HETATM    6  C   UNL     1     -11.972  14.481  66.812  1.00  0.00    -0.342 A  
HETATM    7  N   UNL     1     -10.699  13.884  67.166  1.00  0.00    -0.281 NA 
HETATM    8  C   UNL     1     -10.435  12.722  66.505  1.00  0.00    -0.263 A  
HETATM    9  C   UNL     1      -9.227  12.245  66.932  1.00  0.00    -0.209 A  
HETATM   10  C   UNL     1      -8.729  13.221  67.842  1.00  0.00    -0.192 A  
HETATM   11  C   UNL     1      -9.648  14.264  67.943  1.00  0.00    -0.221 A  
ENDROOT
BRANCH  11  12
HETATM   12  C   UNL     1      -9.586  15.489  68.722  1.00  0.00    -0.208 C  
HETATM   13  O   UNL     1      -9.901  15.530  69.911  1.00  0.00    -0.286 OA 
BRANCH  12  14
HETATM   14  C   UNL     1      -9.164  16.760  68.061  1.00  0.00    -0.228 A  
HETATM   15  C   UNL     1      -8.273  16.713  66.980  1.00  0.00    -0.222 A  
HETATM   16  C   UNL     1      -7.805  17.899  66.402  1.00  0.00    -0.307 A  
HETATM   17  C   UNL     1      -8.218  19.132  66.906  1.00  0.00    -0.287 A  
HETATM   18  C   UNL     1      -9.107  19.186  67.979  1.00  0.00    -0.358 A  
HETATM   19  C   UNL     1      -9.577  18.004  68.558  1.00  0.00    -0.342 A  
ENDBRANCH  12  14
ENDBRANCH  11  12
TORSDOF 2
ENDMDL
MODEL       73
REMARK 921   NORMALIZED FREE ENERGY PREDICTED BY IDOCK:   -5.26 KCAL/MOL
REMARK 922        TOTAL FREE ENERGY PREDICTED BY IDOCK:   -6.15 KCAL/MOL
REMARK 923 INTER-LIGAND FREE ENERGY PREDICTED BY IDOCK:   -5.67 KCAL/MOL
REMARK 924 INTRA-LIGAND FREE ENERGY PREDICTED BY IDOCK:   -0.48 KCAL/MOL
REMARK 927      BINDING AFFINITY PREDICTED BY RF-SCORE:    0.00 PKD
ROOT
HETATM    1  O   UNL     1      -7.893  10.427  64.408  1.00  0.00    -0.144 OA 
HETATM    2  C   UNL     1      -9.111  10.790  63.949  1.00  0.00    -0.191 C  
HETATM    3  C   UNL     1     -10.264  10.683  64.936  1.00  0.00    -0.395 A  
HETATM    4  O   UNL     1      -9.253  11.247  62.821  1.00  0.00    -0.334 OA 
HETATM    5  C   UNL     1     -10.467  12.023  65.694  1.00  0.00    -0.293 A  
HETATM    6  C   UNL     1     -10.229  11.752  67.194  1.00  0.00    -0.212 A  
HETATM    7  N   UNL     1     -10.018  10.319  67.253  1.00  0.00    -0.182 NA 
HETATM    8  C   UNL     1     -10.031   9.712  66.034  1.00  0.00    -0.274 A  
HETATM    9  C   UNL     1      -9.841   8.370  66.216  1.00  0.00    -0.257 A  
HETATM   10  C   UNL     1      -9.638   8.197  67.614  1.00  0.00    -0.186 A  
HETATM   11  C   UNL     1      -9.709   9.438  68.244  1.00  0.00    -0.145 A  
ENDROOT
BRANCH  11  12
HETATM   12  C   UNL     1      -9.549   9.782  69.647  1.00  0.00    -0.221 C  
HETATM   13  O   UNL     1      -8.448  10.007  70.149  1.00  0.00    -0.169 OA 
BRANCH  12  14
HETATM   14  C   UNL     1     -10.750   9.831  70.533  1.00  0.00    -0.381 A  
HETATM   15  C   UNL     1     -11.073   8.718  71.321  1.00  0.00    -0.348 A  
HETATM   16  C   UNL     1     -12.240   8.718  72.094  1.00  0.00    -0.448 A  
HETATM   17  C   UNL     1     -13.090   9.823  72.076  1.00  0.00    -0.546 A  
HETATM   18  C   UNL     1     -12.774  10.936  71.298  1.00  0.00    -0.542 A  
HETATM   19  C   UNL     1     -11.609  10.940  70.525  1.00  0.00    -0.397 A  
ENDBRANCH  12  14
ENDBRANCH  11  12
TORSDOF 2
ENDMDL
MODEL       74
REMARK 921   NORMALIZED FREE ENERGY PREDICTED BY IDOCK:   -5.26 KCAL/MOL
REMARK 922        TOTAL FREE ENERGY PREDICTED BY IDOCK:   -6.14 KCAL/MOL
REMARK 923 INTER-LIGAND FREE ENERGY PREDICTED BY IDOCK:   -5.61 KCAL/MOL
REMARK 924 INTRA-LIGAND FREE ENERGY PREDICTED BY IDOCK:   -0.53 KCAL/MOL
REMARK 927      BINDING AFFINITY PREDICTED BY RF-SCORE:    0.00 PKD
ROOT
HETATM    1  O   UNL     1      -9.687  15.518  64.893  1.00  0.00    -0.176 OA 
HETATM    2  C   UNL     1     -10.976  15.584  64.492  1.00  0.00    -0.206 C  
HETATM    3  C   UNL     1     -11.805  14.321  64.667  1.00  0.00    -0.459 A  
HETATM    4  O   UNL     1     -11.457  16.632  64.077  1.00  0.00    -1.192 OA 
HETATM    5  C   UNL     1     -12.531  14.324  66.039  1.00  0.00    -0.392 A  
HETATM    6  C   UNL     1     -12.011  13.118  66.848  1.00  0.00    -0.362 A  
HETATM    7  N   UNL     1     -11.132  12.437  65.918  1.00  0.00    -0.300 NA 
HETATM    8  C   UNL     1     -11.001  13.074  64.721  1.00  0.00    -0.327 A  
HETATM    9  C   UNL     1     -10.169  12.335  63.925  1.00  0.00    -0.421 A  
HETATM   10  C   UNL     1      -9.738  11.243  64.731  1.00  0.00    -0.298 A  
HETATM   11  C   UNL     1     -10.319  11.348  65.993  1.00  0.00    -0.249 A  
ENDROOT
BRANCH  11  12
HETATM   12  C   UNL     1     -10.174  10.494  67.160  1.00  0.00    -0.223 C  
HETATM   13  O   UNL     1     -11.023   9.661  67.477  1.00  0.00    -0.260 OA 
BRANCH  12  14
HETATM   14  C   UNL     1      -8.976  10.648  68.039  1.00  0.00    -0.140 A  
HETATM   15  C   UNL     1      -8.569   9.577  68.846  1.00  0.00    -0.128 A  
HETATM   16  C   UNL     1      -7.499   9.732  69.735  1.00  0.00    -0.127 A  
HETATM   17  C   UNL     1      -6.839  10.957  69.826  1.00  0.00    -0.134 A  
HETATM   18  C   UNL     1      -7.235  12.026  69.023  1.00  0.00    -0.053 A  
HETATM   19  C   UNL     1      -8.303  11.874  68.134  1.00  0.00    -0.161 A  
ENDBRANCH  12  14
ENDBRANCH  11  12
TORSDOF 2
ENDMDL
MODEL       75
REMARK 921   NORMALIZED FREE ENERGY PREDICTED BY IDOCK:   -5.25 KCAL/MOL
REMARK 922        TOTAL FREE ENERGY PREDICTED BY IDOCK:   -6.13 KCAL/MOL
REMARK 923 INTER-LIGAND FREE ENERGY PREDICTED BY IDOCK:   -5.98 KCAL/MOL
REMARK 924 INTRA-LIGAND FREE ENERGY PREDICTED BY IDOCK:   -0.15 KCAL/MOL
REMARK 927      BINDING AFFINITY PREDICTED BY RF-SCORE:    0.00 PKD
ROOT
HETATM    1  O   UNL     1     -10.561  15.100  71.993  1.00  0.00     0.303 OA 
HETATM    2  C   UNL     1     -11.689  15.737  71.606  1.00  0.00    -0.464 C  
HETATM    3  C   UNL     1     -12.839  14.854  71.148  1.00  0.00    -0.426 A  
HETATM    4  O   UNL     1     -11.790  16.955  71.693  1.00  0.00     0.093 OA 
HETATM    5  C   UNL     1     -13.780  14.514  72.335  1.00  0.00    -0.583 A  
HETATM    6  C   UNL     1     -13.756  12.984  72.528  1.00  0.00    -0.398 A  
HETATM    7  N   UNL     1     -12.932  12.514  71.432  1.00  0.00    -0.320 NA 
HETATM    8  C   UNL     1     -12.418  13.515  70.665  1.00  0.00    -0.333 A  
HETATM    9  C   UNL     1     -11.678  12.954  69.659  1.00  0.00    -0.367 A  
HETATM   10  C   UNL     1     -11.708  11.551  69.899  1.00  0.00    -0.420 A  
HETATM   11  C   UNL     1     -12.464  11.297  71.041  1.00  0.00    -0.400 A  
ENDROOT
BRANCH  11  12
HETATM   12  C   UNL     1     -12.768  10.036  71.697  1.00  0.00    -0.435 C  
HETATM   13  O   UNL     1     -13.761   9.886  72.409  1.00  0.00    -0.338 OA 
BRANCH  12  14
HETATM   14  C   UNL     1     -11.832   8.883  71.542  1.00  0.00    -0.402 A  
HETATM   15  C   UNL     1     -12.324   7.648  71.097  1.00  0.00    -0.293 A  
HETATM   16  C   UNL     1     -11.476   6.537  71.025  1.00  0.00    -0.392 A  
HETATM   17  C   UNL     1     -10.140   6.653  71.404  1.00  0.00    -0.209 A  
HETATM   18  C   UNL     1      -9.642   7.879  71.844  1.00  0.00    -0.226 A  
HETATM   19  C   UNL     1     -10.485   8.991  71.917  1.00  0.00    -0.373 A  
ENDBRANCH  12  14
ENDBRANCH  11  12
TORSDOF 2
ENDMDL
MODEL       76
REMARK 921   NORMALIZED FREE ENERGY PREDICTED BY IDOCK:   -5.24 KCAL/MOL
REMARK 922        TOTAL FREE ENERGY PREDICTED BY IDOCK:   -6.12 KCAL/MOL
REMARK 923 INTER-LIGAND FREE ENERGY PREDICTED BY IDOCK:   -5.58 KCAL/MOL
REMARK 924 INTRA-LIGAND FREE ENERGY PREDICTED BY IDOCK:   -0.54 KCAL/MOL
REMARK 927      BINDING AFFINITY PREDICTED BY RF-SCORE:    0.00 PKD
ROOT
HETATM    1  O   UNL     1      -9.059  15.951  66.014  1.00  0.00    -0.335 OA 
HETATM    2  C   UNL     1      -9.855  16.760  66.748  1.00  0.00    -0.276 C  
HETATM    3  C   UNL     1     -11.011  16.092  67.475  1.00  0.00    -0.261 A  
HETATM    4  O   UNL     1      -9.605  17.954  66.869  1.00  0.00    -0.279 OA 
HETATM    5  C   UNL     1     -10.593  15.677  68.912  1.00  0.00    -0.228 A  
HETATM    6  C   UNL     1     -10.712  14.142  69.010  1.00  0.00    -0.231 A  
HETATM    7  N   UNL     1     -11.271  13.761  67.728  1.00  0.00    -0.278 NA 
HETATM    8  C   UNL     1     -11.443  14.806  66.871  1.00  0.00    -0.347 A  
HETATM    9  C   UNL     1     -11.988  14.330  65.711  1.00  0.00    -0.399 A  
HETATM   10  C   UNL     1     -12.074  12.919  65.878  1.00  0.00    -0.503 A  
HETATM   11  C   UNL     1     -11.578  12.575  67.134  1.00  0.00    -0.368 A  
ENDROOT
BRANCH  11  12
HETATM   12  C   UNL     1     -11.438  11.269  67.755  1.00  0.00    -0.275 C  
HETATM   13  O   UNL     1     -12.190  10.880  68.649  1.00  0.00    -0.533 OA 
BRANCH  12  14
HETATM   14  C   UNL     1     -10.322  10.370  67.333  1.00  0.00    -0.275 A  
HETATM   15  C   UNL     1      -9.066  10.919  67.042  1.00  0.00    -0.158 A  
HETATM   16  C   UNL     1      -8.034  10.101  66.567  1.00  0.00    -0.118 A  
HETATM   17  C   UNL     1      -8.256   8.739  66.373  1.00  0.00    -0.111 A  
HETATM   18  C   UNL     1      -9.502   8.185  66.663  1.00  0.00    -0.274 A  
HETATM   19  C   UNL     1     -10.534   8.998  67.139  1.00  0.00    -0.333 A  
ENDBRANCH  12  14
ENDBRANCH  11  12
TORSDOF 2
ENDMDL
MODEL       77
REMARK 921   NORMALIZED FREE ENERGY PREDICTED BY IDOCK:   -5.22 KCAL/MOL
REMARK 922        TOTAL FREE ENERGY PREDICTED BY IDOCK:   -6.10 KCAL/MOL
REMARK 923 INTER-LIGAND FREE ENERGY PREDICTED BY IDOCK:   -5.67 KCAL/MOL
REMARK 924 INTRA-LIGAND FREE ENERGY PREDICTED BY IDOCK:   -0.42 KCAL/MOL
REMARK 927      BINDING AFFINITY PREDICTED BY RF-SCORE:    0.00 PKD
ROOT
HETATM    1  O   UNL     1      -8.530   9.497  70.460  1.00  0.00    -0.195 OA 
HETATM    2  C   UNL     1      -9.243   8.366  70.260  1.00  0.00    -0.152 C  
HETATM    3  C   UNL     1     -10.536   8.514  69.473  1.00  0.00    -0.215 A  
HETATM    4  O   UNL     1      -8.823   7.278  70.636  1.00  0.00    -0.146 OA 
HETATM    5  C   UNL     1     -10.288   8.284  67.958  1.00  0.00    -0.268 A  
HETATM    6  C   UNL     1     -10.647   9.591  67.221  1.00  0.00    -0.248 A  
HETATM    7  N   UNL     1     -11.165  10.444  68.272  1.00  0.00    -0.285 NA 
HETATM    8  C   UNL     1     -11.114   9.880  69.511  1.00  0.00    -0.217 A  
HETATM    9  C   UNL     1     -11.643  10.764  70.412  1.00  0.00    -0.431 A  
HETATM   10  C   UNL     1     -11.953  11.934  69.663  1.00  0.00    -0.365 A  
HETATM   11  C   UNL     1     -11.606  11.731  68.329  1.00  0.00    -0.308 A  
ENDROOT
BRANCH  11  12
HETATM   12  C   UNL     1     -11.711  12.628  67.191  1.00  0.00    -0.371 C  
HETATM   13  O   UNL     1     -12.398  12.364  66.204  1.00  0.00    -0.606 OA 
BRANCH  12  14
HETATM   14  C   UNL     1     -10.932  13.902  67.185  1.00  0.00    -0.298 A  
HETATM   15  C   UNL     1     -11.466  15.041  67.804  1.00  0.00    -0.347 A  
HETATM   16  C   UNL     1     -10.786  16.262  67.736  1.00  0.00    -0.325 A  
HETATM   17  C   UNL     1      -9.578  16.352  67.047  1.00  0.00    -0.244 A  
HETATM   18  C   UNL     1      -9.038  15.223  66.433  1.00  0.00    -0.347 A  
HETATM   19  C   UNL     1      -9.714  14.001  66.498  1.00  0.00    -0.305 A  
ENDBRANCH  12  14
ENDBRANCH  11  12
TORSDOF 2
ENDMDL
MODEL       78
REMARK 921   NORMALIZED FREE ENERGY PREDICTED BY IDOCK:   -5.20 KCAL/MOL
REMARK 922        TOTAL FREE ENERGY PREDICTED BY IDOCK:   -6.08 KCAL/MOL
REMARK 923 INTER-LIGAND FREE ENERGY PREDICTED BY IDOCK:   -5.60 KCAL/MOL
REMARK 924 INTRA-LIGAND FREE ENERGY PREDICTED BY IDOCK:   -0.48 KCAL/MOL
REMARK 927      BINDING AFFINITY PREDICTED BY RF-SCORE:    0.00 PKD
ROOT
HETATM    1  O   UNL     1      -8.753   7.035  70.380  1.00  0.00    -0.144 OA 
HETATM    2  C   UNL     1      -9.933   6.432  70.113  1.00  0.00    -0.171 C  
HETATM    3  C   UNL     1     -10.882   7.181  69.190  1.00  0.00    -0.185 A  
HETATM    4  O   UNL     1     -10.182   5.311  70.540  1.00  0.00    -0.230 OA 
HETATM    5  C   UNL     1     -10.659   6.761  67.712  1.00  0.00    -0.307 A  
HETATM    6  C   UNL     1     -10.212   8.014  66.931  1.00  0.00    -0.315 A  
HETATM    7  N   UNL     1     -10.295   9.076  67.914  1.00  0.00    -0.225 NA 
HETATM    8  C   UNL     1     -10.657   8.648  69.155  1.00  0.00    -0.178 A  
HETATM    9  C   UNL     1     -10.720   9.733  69.987  1.00  0.00    -0.326 A  
HETATM   10  C   UNL     1     -10.303  10.843  69.200  1.00  0.00    -0.228 A  
HETATM   11  C   UNL     1      -9.999  10.405  67.913  1.00  0.00    -0.167 A  
ENDROOT
BRANCH  11  12
HETATM   12  C   UNL     1      -9.516  11.152  66.763  1.00  0.00    -0.184 C  
HETATM   13  O   UNL     1      -8.338  11.485  66.642  1.00  0.00    -0.168 OA 
BRANCH  12  14
HETATM   14  C   UNL     1     -10.480  11.571  65.702  1.00  0.00    -0.317 A  
HETATM   15  C   UNL     1     -10.143  11.391  64.353  1.00  0.00    -0.341 A  
HETATM   16  C   UNL     1     -10.999  11.853  63.347  1.00  0.00    -0.470 A  
HETATM   17  C   UNL     1     -12.187  12.501  63.684  1.00  0.00    -0.642 A  
HETATM   18  C   UNL     1     -12.530  12.680  65.023  1.00  0.00    -0.556 A  
HETATM   19  C   UNL     1     -11.679  12.220  66.030  1.00  0.00    -0.451 A  
ENDBRANCH  12  14
ENDBRANCH  11  12
TORSDOF 2
ENDMDL
MODEL       79
REMARK 921   NORMALIZED FREE ENERGY PREDICTED BY IDOCK:   -5.20 KCAL/MOL
REMARK 922        TOTAL FREE ENERGY PREDICTED BY IDOCK:   -6.08 KCAL/MOL
REMARK 923 INTER-LIGAND FREE ENERGY PREDICTED BY IDOCK:   -5.62 KCAL/MOL
REMARK 924 INTRA-LIGAND FREE ENERGY PREDICTED BY IDOCK:   -0.46 KCAL/MOL
REMARK 927      BINDING AFFINITY PREDICTED BY RF-SCORE:    0.00 PKD
ROOT
HETATM    1  O   UNL     1      -9.866   4.615  73.226  1.00  0.00    -0.140 OA 
HETATM    2  C   UNL     1      -8.731   5.052  72.636  1.00  0.00    -0.119 C  
HETATM    3  C   UNL     1      -8.845   6.324  71.810  1.00  0.00    -0.137 A  
HETATM    4  O   UNL     1      -7.661   4.485  72.824  1.00  0.00    -0.082 OA 
HETATM    5  C   UNL     1      -8.536   7.574  72.676  1.00  0.00    -0.154 A  
HETATM    6  C   UNL     1      -9.806   8.449  72.704  1.00  0.00    -0.259 A  
HETATM    7  N   UNL     1     -10.716   7.761  71.810  1.00  0.00    -0.218 NA 
HETATM    8  C   UNL     1     -10.216   6.597  71.309  1.00  0.00    -0.200 A  
HETATM    9  C   UNL     1     -11.148   6.050  70.470  1.00  0.00    -0.385 A  
HETATM   10  C   UNL     1     -12.280   6.910  70.542  1.00  0.00    -0.253 A  
HETATM   11  C   UNL     1     -12.006   7.956  71.422  1.00  0.00    -0.303 A  
ENDROOT
BRANCH  11  12
HETATM   12  C   UNL     1     -12.844   9.067  71.840  1.00  0.00    -0.387 C  
HETATM   13  O   UNL     1     -13.796   8.921  72.607  1.00  0.00    -0.445 OA 
BRANCH  12  14
HETATM   14  C   UNL     1     -12.579  10.433  71.299  1.00  0.00    -0.525 A  
HETATM   15  C   UNL     1     -13.165  11.546  71.915  1.00  0.00    -0.479 A  
HETATM   16  C   UNL     1     -12.992  12.824  71.371  1.00  0.00    -0.359 A  
HETATM   17  C   UNL     1     -12.241  12.992  70.208  1.00  0.00    -0.368 A  
HETATM   18  C   UNL     1     -11.652  11.890  69.591  1.00  0.00    -0.387 A  
HETATM   19  C   UNL     1     -11.822  10.612  70.132  1.00  0.00    -0.421 A  
ENDBRANCH  12  14
ENDBRANCH  11  12
TORSDOF 2
ENDMDL
MODEL       80
REMARK 921   NORMALIZED FREE ENERGY PREDICTED BY IDOCK:   -5.20 KCAL/MOL
REMARK 922        TOTAL FREE ENERGY PREDICTED BY IDOCK:   -6.07 KCAL/MOL
REMARK 923 INTER-LIGAND FREE ENERGY PREDICTED BY IDOCK:   -5.65 KCAL/MOL
REMARK 924 INTRA-LIGAND FREE ENERGY PREDICTED BY IDOCK:   -0.42 KCAL/MOL
REMARK 927      BINDING AFFINITY PREDICTED BY RF-SCORE:    0.00 PKD
ROOT
HETATM    1  O   UNL     1      -9.536  11.697  65.041  1.00  0.00    -0.228 OA 
HETATM    2  C   UNL     1      -9.481  10.586  65.810  1.00  0.00    -0.201 C  
HETATM    3  C   UNL     1      -9.774  10.773  67.290  1.00  0.00    -0.187 A  
HETATM    4  O   UNL     1      -9.275   9.484  65.315  1.00  0.00    -0.217 OA 
HETATM    5  C   UNL     1     -11.282  10.554  67.585  1.00  0.00    -0.338 A  
HETATM    6  C   UNL     1     -11.848  11.878  68.140  1.00  0.00    -0.270 A  
HETATM    7  N   UNL     1     -10.680  12.731  68.242  1.00  0.00    -0.231 NA 
HETATM    8  C   UNL     1      -9.536  12.152  67.784  1.00  0.00    -0.192 A  
HETATM    9  C   UNL     1      -8.506  13.038  67.946  1.00  0.00    -0.185 A  
HETATM   10  C   UNL     1      -9.099  14.224  68.465  1.00  0.00    -0.191 A  
HETATM   11  C   UNL     1     -10.472  14.027  68.604  1.00  0.00    -0.247 A  
ENDROOT
BRANCH  11  12
HETATM   12  C   UNL     1     -11.503  14.940  69.070  1.00  0.00    -0.301 C  
HETATM   13  O   UNL     1     -11.939  15.853  68.370  1.00  0.00    -0.251 OA 
BRANCH  12  14
HETATM   14  C   UNL     1     -12.033  14.801  70.459  1.00  0.00    -0.373 A  
HETATM   15  C   UNL     1     -11.406  15.486  71.509  1.00  0.00    -0.466 A  
HETATM   16  C   UNL     1     -11.841  15.302  72.827  1.00  0.00    -0.521 A  
HETATM   17  C   UNL     1     -12.894  14.430  73.100  1.00  0.00    -0.492 A  
HETATM   18  C   UNL     1     -13.525  13.750  72.060  1.00  0.00    -0.559 A  
HETATM   19  C   UNL     1     -13.095  13.931  70.743  1.00  0.00    -0.204 A  
ENDBRANCH  12  14
ENDBRANCH  11  12
TORSDOF 2
ENDMDL
MODEL       81
REMARK 921   NORMALIZED FREE ENERGY PREDICTED BY IDOCK:   -5.17 KCAL/MOL
REMARK 922        TOTAL FREE ENERGY PREDICTED BY IDOCK:   -6.05 KCAL/MOL
REMARK 923 INTER-LIGAND FREE ENERGY PREDICTED BY IDOCK:   -5.57 KCAL/MOL
REMARK 924 INTRA-LIGAND FREE ENERGY PREDICTED BY IDOCK:   -0.48 KCAL/MOL
REMARK 927      BINDING AFFINITY PREDICTED BY RF-SCORE:    0.00 PKD
ROOT
HETATM    1  O   UNL     1     -10.937   7.432  69.904  1.00  0.00    -0.250 OA 
HETATM    2  C   UNL     1     -10.998   7.967  71.144  1.00  0.00    -0.243 C  
HETATM    3  C   UNL     1     -10.885   9.482  71.233  1.00  0.00    -0.413 A  
HETATM    4  O   UNL     1     -11.206   7.266  72.127  1.00  0.00    -0.236 OA 
HETATM    5  C   UNL     1     -12.289  10.143  71.189  1.00  0.00    -0.488 A  
HETATM    6  C   UNL     1     -12.347  11.036  69.932  1.00  0.00    -0.288 A  
HETATM    7  N   UNL     1     -11.006  10.947  69.388  1.00  0.00    -0.237 NA 
HETATM    8  C   UNL     1     -10.189  10.104  70.079  1.00  0.00    -0.220 A  
HETATM    9  C   UNL     1      -8.955  10.116  69.488  1.00  0.00    -0.205 A  
HETATM   10  C   UNL     1      -9.084  10.960  68.349  1.00  0.00    -0.164 A  
HETATM   11  C   UNL     1     -10.390  11.439  68.278  1.00  0.00    -0.194 A  
ENDROOT
BRANCH  11  12
HETATM   12  C   UNL     1     -11.012  12.311  67.296  1.00  0.00    -0.256 C  
HETATM   13  O   UNL     1     -11.844  11.903  66.485  1.00  0.00    -0.579 OA 
BRANCH  12  14
HETATM   14  C   UNL     1     -10.609  13.747  67.229  1.00  0.00    -0.275 A  
HETATM   15  C   UNL     1     -10.939  14.607  68.285  1.00  0.00    -0.261 A  
HETATM   16  C   UNL     1     -10.640  15.972  68.200  1.00  0.00    -0.286 A  
HETATM   17  C   UNL     1     -10.021  16.482  67.060  1.00  0.00    -0.268 A  
HETATM   18  C   UNL     1      -9.686  15.632  66.007  1.00  0.00    -0.378 A  
HETATM   19  C   UNL     1      -9.982  14.269  66.088  1.00  0.00    -0.330 A  
ENDBRANCH  12  14
ENDBRANCH  11  12
TORSDOF 2
ENDMDL
MODEL       82
REMARK 921   NORMALIZED FREE ENERGY PREDICTED BY IDOCK:   -5.16 KCAL/MOL
REMARK 922        TOTAL FREE ENERGY PREDICTED BY IDOCK:   -6.03 KCAL/MOL
REMARK 923 INTER-LIGAND FREE ENERGY PREDICTED BY IDOCK:   -5.57 KCAL/MOL
REMARK 924 INTRA-LIGAND FREE ENERGY PREDICTED BY IDOCK:   -0.46 KCAL/MOL
REMARK 927      BINDING AFFINITY PREDICTED BY RF-SCORE:    0.00 PKD
ROOT
HETATM    1  O   UNL     1      -8.847  10.328  69.643  1.00  0.00    -0.175 OA 
HETATM    2  C   UNL     1      -9.625   9.278  69.296  1.00  0.00    -0.161 C  
HETATM    3  C   UNL     1     -10.904   9.607  68.540  1.00  0.00    -0.202 A  
HETATM    4  O   UNL     1      -9.273   8.127  69.520  1.00  0.00    -0.157 OA 
HETATM    5  C   UNL     1     -10.663   9.569  67.007  1.00  0.00    -0.220 A  
HETATM    6  C   UNL     1     -10.940  10.982  66.454  1.00  0.00    -0.137 A  
HETATM    7  N   UNL     1     -11.411  11.715  67.613  1.00  0.00    -0.417 NA 
HETATM    8  C   UNL     1     -11.400  10.988  68.764  1.00  0.00    -0.283 A  
HETATM    9  C   UNL     1     -11.879  11.772  69.777  1.00  0.00    -0.420 A  
HETATM   10  C   UNL     1     -12.116  13.049  69.194  1.00  0.00    -0.234 A  
HETATM   11  C   UNL     1     -11.776  13.006  67.843  1.00  0.00    -0.357 A  
ENDROOT
BRANCH  11  12
HETATM   12  C   UNL     1     -11.822  14.054  66.837  1.00  0.00    -0.430 C  
HETATM   13  O   UNL     1     -12.638  14.046  65.915  1.00  0.00    -0.488 OA 
BRANCH  12  14
HETATM   14  C   UNL     1     -10.825  15.164  66.886  1.00  0.00    -0.317 A  
HETATM   15  C   UNL     1      -9.724  15.144  66.018  1.00  0.00    -0.361 A  
HETATM   16  C   UNL     1      -8.739  16.134  66.108  1.00  0.00    -0.358 A  
HETATM   17  C   UNL     1      -8.845  17.140  67.067  1.00  0.00    -0.246 A  
HETATM   18  C   UNL     1      -9.939  17.169  67.931  1.00  0.00    -0.292 A  
HETATM   19  C   UNL     1     -10.925  16.183  67.844  1.00  0.00    -0.318 A  
ENDBRANCH  12  14
ENDBRANCH  11  12
TORSDOF 2
ENDMDL
MODEL       83
REMARK 921   NORMALIZED FREE ENERGY PREDICTED BY IDOCK:   -5.16 KCAL/MOL
REMARK 922        TOTAL FREE ENERGY PREDICTED BY IDOCK:   -6.03 KCAL/MOL
REMARK 923 INTER-LIGAND FREE ENERGY PREDICTED BY IDOCK:   -5.61 KCAL/MOL
REMARK 924 INTRA-LIGAND FREE ENERGY PREDICTED BY IDOCK:   -0.42 KCAL/MOL
REMARK 927      BINDING AFFINITY PREDICTED BY RF-SCORE:    0.00 PKD
ROOT
HETATM    1  O   UNL     1     -11.095  11.797  66.727  1.00  0.00    -0.277 OA 
HETATM    2  C   UNL     1     -11.510  11.900  68.010  1.00  0.00    -0.323 C  
HETATM    3  C   UNL     1     -11.074  13.147  68.763  1.00  0.00    -0.309 A  
HETATM    4  O   UNL     1     -12.255  11.061  68.504  1.00  0.00    -0.582 OA 
HETATM    5  C   UNL     1     -12.137  14.271  68.631  1.00  0.00    -0.295 A  
HETATM    6  C   UNL     1     -11.471  15.462  67.912  1.00  0.00    -0.299 A  
HETATM    7  N   UNL     1     -10.091  15.044  67.763  1.00  0.00    -0.233 NA 
HETATM    8  C   UNL     1      -9.848  13.784  68.219  1.00  0.00    -0.232 A  
HETATM    9  C   UNL     1      -8.519  13.508  68.045  1.00  0.00    -0.176 A  
HETATM   10  C   UNL     1      -7.975  14.648  67.388  1.00  0.00    -0.223 A  
HETATM   11  C   UNL     1      -8.986  15.584  67.180  1.00  0.00    -0.214 A  
ENDROOT
BRANCH  11  12
HETATM   12  C   UNL     1      -8.933  16.886  66.537  1.00  0.00    -0.272 C  
HETATM   13  O   UNL     1      -9.673  17.189  65.601  1.00  0.00    -0.545 OA 
BRANCH  12  14
HETATM   14  C   UNL     1      -7.925  17.890  66.992  1.00  0.00    -0.234 A  
HETATM   15  C   UNL     1      -8.106  18.544  68.218  1.00  0.00    -0.324 A  
HETATM   16  C   UNL     1      -7.214  19.546  68.619  1.00  0.00    -0.374 A  
HETATM   17  C   UNL     1      -6.147  19.901  67.795  1.00  0.00    -0.232 A  
HETATM   18  C   UNL     1      -5.958  19.252  66.576  1.00  0.00    -0.175 A  
HETATM   19  C   UNL     1      -6.846  18.251  66.172  1.00  0.00    -0.291 A  
ENDBRANCH  12  14
ENDBRANCH  11  12
TORSDOF 2
ENDMDL
MODEL       84
REMARK 921   NORMALIZED FREE ENERGY PREDICTED BY IDOCK:   -5.12 KCAL/MOL
REMARK 922        TOTAL FREE ENERGY PREDICTED BY IDOCK:   -5.98 KCAL/MOL
REMARK 923 INTER-LIGAND FREE ENERGY PREDICTED BY IDOCK:   -5.46 KCAL/MOL
REMARK 924 INTRA-LIGAND FREE ENERGY PREDICTED BY IDOCK:   -0.52 KCAL/MOL
REMARK 927      BINDING AFFINITY PREDICTED BY RF-SCORE:    0.00 PKD
ROOT
HETATM    1  O   UNL     1      -7.813  17.388  65.824  1.00  0.00    -0.526 OA 
HETATM    2  C   UNL     1      -8.646  18.441  65.983  1.00  0.00     0.008 C  
HETATM    3  C   UNL     1     -10.035  18.130  66.519  1.00  0.00    -0.374 A  
HETATM    4  O   UNL     1      -8.265  19.587  65.772  1.00  0.00    -0.427 OA 
HETATM    5  C   UNL     1     -10.065  18.238  68.068  1.00  0.00    -0.381 A  
HETATM    6  C   UNL     1     -10.426  16.846  68.627  1.00  0.00    -0.352 A  
HETATM    7  N   UNL     1     -10.685  16.057  67.439  1.00  0.00    -0.316 NA 
HETATM    8  C   UNL     1     -10.477  16.734  66.275  1.00  0.00    -0.261 A  
HETATM    9  C   UNL     1     -10.769  15.900  65.231  1.00  0.00    -0.442 A  
HETATM   10  C   UNL     1     -11.098  14.647  65.821  1.00  0.00    -0.331 A  
HETATM   11  C   UNL     1     -10.998  14.753  67.207  1.00  0.00    -0.318 A  
ENDROOT
BRANCH  11  12
HETATM   12  C   UNL     1     -11.213  13.750  68.237  1.00  0.00    -0.273 C  
HETATM   13  O   UNL     1     -12.217  13.742  68.948  1.00  0.00    -0.344 OA 
BRANCH  12  14
HETATM   14  C   UNL     1     -10.169  12.710  68.479  1.00  0.00    -0.207 A  
HETATM   15  C   UNL     1      -8.829  12.995  68.187  1.00  0.00    -0.194 A  
HETATM   16  C   UNL     1      -7.851  12.004  68.331  1.00  0.00    -0.147 A  
HETATM   17  C   UNL     1      -8.209  10.726  68.757  1.00  0.00    -0.145 A  
HETATM   18  C   UNL     1      -9.540  10.436  69.054  1.00  0.00    -0.212 A  
HETATM   19  C   UNL     1     -10.519  11.423  68.912  1.00  0.00    -0.219 A  
ENDBRANCH  12  14
ENDBRANCH  11  12
TORSDOF 2
ENDMDL
MODEL       85
REMARK 921   NORMALIZED FREE ENERGY PREDICTED BY IDOCK:   -5.10 KCAL/MOL
REMARK 922        TOTAL FREE ENERGY PREDICTED BY IDOCK:   -5.96 KCAL/MOL
REMARK 923 INTER-LIGAND FREE ENERGY PREDICTED BY IDOCK:   -5.47 KCAL/MOL
REMARK 924 INTRA-LIGAND FREE ENERGY PREDICTED BY IDOCK:   -0.49 KCAL/MOL
REMARK 927      BINDING AFFINITY PREDICTED BY RF-SCORE:    0.00 PKD
ROOT
HETATM    1  O   UNL     1      -9.719   8.501  65.986  1.00  0.00    -0.222 OA 
HETATM    2  C   UNL     1      -8.579   8.932  65.400  1.00  0.00    -0.176 C  
HETATM    3  C   UNL     1      -8.417  10.439  65.263  1.00  0.00    -0.173 A  
HETATM    4  O   UNL     1      -7.701   8.145  65.067  1.00  0.00    -0.099 OA 
HETATM    5  C   UNL     1      -7.670  11.026  66.491  1.00  0.00    -0.154 A  
HETATM    6  C   UNL     1      -8.626  12.012  67.193  1.00  0.00    -0.182 A  
HETATM    7  N   UNL     1      -9.788  12.037  66.326  1.00  0.00    -0.226 NA 
HETATM    8  C   UNL     1      -9.700  11.186  65.266  1.00  0.00    -0.241 A  
HETATM    9  C   UNL     1     -10.836  11.310  64.515  1.00  0.00    -0.354 A  
HETATM   10  C   UNL     1     -11.660  12.234  65.217  1.00  0.00    -0.405 A  
HETATM   11  C   UNL     1     -11.004  12.648  66.374  1.00  0.00    -0.272 A  
ENDROOT
BRANCH  11  12
HETATM   12  C   UNL     1     -11.439  13.561  67.417  1.00  0.00    -0.336 C  
HETATM   13  O   UNL     1     -11.422  14.783  67.272  1.00  0.00    -0.350 OA 
BRANCH  12  14
HETATM   14  C   UNL     1     -11.888  13.014  68.732  1.00  0.00    -0.355 A  
HETATM   15  C   UNL     1     -12.123  13.891  69.801  1.00  0.00    -0.404 A  
HETATM   16  C   UNL     1     -12.464  13.387  71.061  1.00  0.00    -0.437 A  
HETATM   17  C   UNL     1     -12.564  12.011  71.260  1.00  0.00    -0.357 A  
HETATM   18  C   UNL     1     -12.336  11.133  70.201  1.00  0.00    -0.373 A  
HETATM   19  C   UNL     1     -11.995  11.632  68.941  1.00  0.00    -0.355 A  
ENDBRANCH  12  14
ENDBRANCH  11  12
TORSDOF 2
ENDMDL
MODEL       86
REMARK 921   NORMALIZED FREE ENERGY PREDICTED BY IDOCK:   -5.08 KCAL/MOL
REMARK 922        TOTAL FREE ENERGY PREDICTED BY IDOCK:   -5.95 KCAL/MOL
REMARK 923 INTER-LIGAND FREE ENERGY PREDICTED BY IDOCK:   -5.71 KCAL/MOL
REMARK 924 INTRA-LIGAND FREE ENERGY PREDICTED BY IDOCK:   -0.23 KCAL/MOL
REMARK 927      BINDING AFFINITY PREDICTED BY RF-SCORE:    0.00 PKD
ROOT
HETATM    1  O   UNL     1      -9.612   7.206  67.910  1.00  0.00    -0.132 OA 
HETATM    2  C   UNL     1      -8.421   7.694  68.323  1.00  0.00    -0.125 C  
HETATM    3  C   UNL     1      -8.455   9.023  69.063  1.00  0.00    -0.132 A  
HETATM    4  O   UNL     1      -7.386   7.057  68.166  1.00  0.00    -0.091 OA 
HETATM    5  C   UNL     1      -8.570   8.797  70.594  1.00  0.00    -0.203 A  
HETATM    6  C   UNL     1      -9.895   9.432  71.063  1.00  0.00    -0.247 A  
HETATM    7  N   UNL     1     -10.415  10.062  69.865  1.00  0.00    -0.257 NA 
HETATM    8  C   UNL     1      -9.648   9.852  68.759  1.00  0.00    -0.160 A  
HETATM    9  C   UNL     1     -10.223  10.504  67.703  1.00  0.00    -0.234 A  
HETATM   10  C   UNL     1     -11.429  11.066  68.211  1.00  0.00    -0.374 A  
HETATM   11  C   UNL     1     -11.554  10.741  69.560  1.00  0.00    -0.303 A  
ENDROOT
BRANCH  11  12
HETATM   12  C   UNL     1     -12.612  11.064  70.503  1.00  0.00    -0.304 C  
HETATM   13  O   UNL     1     -13.405  10.220  70.918  1.00  0.00    -0.370 OA 
BRANCH  12  14
HETATM   14  C   UNL     1     -12.780  12.475  70.964  1.00  0.00    -0.316 A  
HETATM   15  C   UNL     1     -12.160  13.512  70.253  1.00  0.00    -0.425 A  
HETATM   16  C   UNL     1     -12.240  14.830  70.719  1.00  0.00    -0.380 A  
HETATM   17  C   UNL     1     -12.931  15.113  71.896  1.00  0.00    -0.443 A  
HETATM   18  C   UNL     1     -13.554  14.087  72.606  1.00  0.00    -0.623 A  
HETATM   19  C   UNL     1     -13.477  12.771  72.144  1.00  0.00    -0.591 A  
ENDBRANCH  12  14
ENDBRANCH  11  12
TORSDOF 2
ENDMDL
MODEL       87
REMARK 921   NORMALIZED FREE ENERGY PREDICTED BY IDOCK:   -5.08 KCAL/MOL
REMARK 922        TOTAL FREE ENERGY PREDICTED BY IDOCK:   -5.94 KCAL/MOL
REMARK 923 INTER-LIGAND FREE ENERGY PREDICTED BY IDOCK:   -5.43 KCAL/MOL
REMARK 924 INTRA-LIGAND FREE ENERGY PREDICTED BY IDOCK:   -0.51 KCAL/MOL
REMARK 927      BINDING AFFINITY PREDICTED BY RF-SCORE:    0.00 PKD
ROOT
HETATM    1  O   UNL     1     -11.398  13.359  66.387  1.00  0.00    -0.299 OA 
HETATM    2  C   UNL     1     -11.497  12.593  67.497  1.00  0.00    -0.340 C  
HETATM    3  C   UNL     1     -10.595  12.972  68.662  1.00  0.00    -0.257 A  
HETATM    4  O   UNL     1     -12.322  11.691  67.572  1.00  0.00    -0.256 OA 
HETATM    5  C   UNL     1     -11.318  13.954  69.622  1.00  0.00    -0.259 A  
HETATM    6  C   UNL     1     -10.518  15.273  69.634  1.00  0.00    -0.270 A  
HETATM    7  N   UNL     1      -9.363  14.979  68.808  1.00  0.00    -0.194 NA 
HETATM    8  C   UNL     1      -9.382  13.730  68.264  1.00  0.00    -0.209 A  
HETATM    9  C   UNL     1      -8.242  13.561  67.527  1.00  0.00    -0.186 A  
HETATM   10  C   UNL     1      -7.557  14.808  67.590  1.00  0.00    -0.193 A  
HETATM   11  C   UNL     1      -8.298  15.699  68.363  1.00  0.00    -0.162 A  
ENDROOT
BRANCH  11  12
HETATM   12  C   UNL     1      -8.028  17.087  68.702  1.00  0.00    -0.258 C  
HETATM   13  O   UNL     1      -7.156  17.411  69.507  1.00  0.00    -0.135 OA 
BRANCH  12  14
HETATM   14  C   UNL     1      -8.858  18.167  68.089  1.00  0.00    -0.289 A  
HETATM   15  C   UNL     1      -8.734  18.440  66.720  1.00  0.00    -0.284 A  
HETATM   16  C   UNL     1      -9.443  19.503  66.148  1.00  0.00    -0.401 A  
HETATM   17  C   UNL     1     -10.269  20.298  66.940  1.00  0.00    -0.504 A  
HETATM   18  C   UNL     1     -10.400  20.030  68.302  1.00  0.00    -0.494 A  
HETATM   19  C   UNL     1      -9.695  18.970  68.877  1.00  0.00    -0.442 A  
ENDBRANCH  12  14
ENDBRANCH  11  12
TORSDOF 2
ENDMDL
MODEL       88
REMARK 921   NORMALIZED FREE ENERGY PREDICTED BY IDOCK:   -5.06 KCAL/MOL
REMARK 922        TOTAL FREE ENERGY PREDICTED BY IDOCK:   -5.92 KCAL/MOL
REMARK 923 INTER-LIGAND FREE ENERGY PREDICTED BY IDOCK:   -5.44 KCAL/MOL
REMARK 924 INTRA-LIGAND FREE ENERGY PREDICTED BY IDOCK:   -0.47 KCAL/MOL
REMARK 927      BINDING AFFINITY PREDICTED BY RF-SCORE:    0.00 PKD
ROOT
HETATM    1  O   UNL     1     -11.483  12.958  65.651  1.00  0.00    -0.308 OA 
HETATM    2  C   UNL     1     -10.674  12.428  64.705  1.00  0.00    -0.298 C  
HETATM    3  C   UNL     1      -9.595  11.475  65.195  1.00  0.00    -0.235 A  
HETATM    4  O   UNL     1     -10.857  12.657  63.515  1.00  0.00    -0.429 OA 
HETATM    5  C   UNL     1     -10.104  10.009  65.173  1.00  0.00    -0.268 A  
HETATM    6  C   UNL     1     -10.082   9.483  66.623  1.00  0.00    -0.252 A  
HETATM    7  N   UNL     1      -9.489  10.573  67.372  1.00  0.00    -0.153 NA 
HETATM    8  C   UNL     1      -9.215  11.673  66.616  1.00  0.00    -0.191 A  
HETATM    9  C   UNL     1      -8.645  12.621  67.421  1.00  0.00    -0.189 A  
HETATM   10  C   UNL     1      -8.653  12.066  68.732  1.00  0.00     0.076 A  
HETATM   11  C   UNL     1      -9.226  10.796  68.689  1.00  0.00    -0.184 A  
ENDROOT
BRANCH  11  12
HETATM   12  C   UNL     1      -9.473   9.848  69.762  1.00  0.00    -0.226 C  
HETATM   13  O   UNL     1      -8.686   8.942  70.036  1.00  0.00    -0.130 OA 
BRANCH  12  14
HETATM   14  C   UNL     1     -10.742   9.938  70.545  1.00  0.00    -0.382 A  
HETATM   15  C   UNL     1     -11.128   8.866  71.361  1.00  0.00    -0.376 A  
HETATM   16  C   UNL     1     -12.354   8.902  72.036  1.00  0.00    -0.460 A  
HETATM   17  C   UNL     1     -13.199  10.001  71.892  1.00  0.00    -0.557 A  
HETATM   18  C   UNL     1     -12.820  11.073  71.085  1.00  0.00    -0.491 A  
HETATM   19  C   UNL     1     -11.597  11.042  70.410  1.00  0.00    -0.389 A  
ENDBRANCH  12  14
ENDBRANCH  11  12
TORSDOF 2
ENDMDL
MODEL       89
REMARK 921   NORMALIZED FREE ENERGY PREDICTED BY IDOCK:   -5.00 KCAL/MOL
REMARK 922        TOTAL FREE ENERGY PREDICTED BY IDOCK:   -5.85 KCAL/MOL
REMARK 923 INTER-LIGAND FREE ENERGY PREDICTED BY IDOCK:   -5.85 KCAL/MOL
REMARK 924 INTRA-LIGAND FREE ENERGY PREDICTED BY IDOCK:   -0.00 KCAL/MOL
REMARK 927      BINDING AFFINITY PREDICTED BY RF-SCORE:    0.00 PKD
ROOT
HETATM    1  O   UNL     1     -11.132   6.334  69.704  1.00  0.00    -0.340 OA 
HETATM    2  C   UNL     1     -10.693   6.204  70.976  1.00  0.00    -0.260 C  
HETATM    3  C   UNL     1     -10.491   7.494  71.756  1.00  0.00    -0.222 A  
HETATM    4  O   UNL     1     -10.539   5.099  71.483  1.00  0.00    -0.211 OA 
HETATM    5  C   UNL     1     -11.776   7.870  72.541  1.00  0.00    -0.423 A  
HETATM    6  C   UNL     1     -12.271   9.230  72.005  1.00  0.00    -0.348 A  
HETATM    7  N   UNL     1     -11.245   9.617  71.057  1.00  0.00    -0.345 NA 
HETATM    8  C   UNL     1     -10.262   8.687  70.902  1.00  0.00    -0.209 A  
HETATM    9  C   UNL     1      -9.349   9.167  70.005  1.00  0.00    -0.218 A  
HETATM   10  C   UNL     1      -9.866  10.417  69.563  1.00  0.00    -0.211 A  
HETATM   11  C   UNL     1     -11.079  10.663  70.202  1.00  0.00    -0.268 A  
ENDROOT
BRANCH  11  12
HETATM   12  C   UNL     1     -11.992  11.787  70.071  1.00  0.00    -0.344 C  
HETATM   13  O   UNL     1     -12.876  12.017  70.896  1.00  0.00    -0.238 OA 
BRANCH  12  14
HETATM   14  C   UNL     1     -11.891  12.680  68.879  1.00  0.00    -0.345 A  
HETATM   15  C   UNL     1     -11.892  12.119  67.594  1.00  0.00    -0.316 A  
HETATM   16  C   UNL     1     -11.716  12.935  66.470  1.00  0.00    -0.453 A  
HETATM   17  C   UNL     1     -11.532  14.308  66.626  1.00  0.00    -0.374 A  
HETATM   18  C   UNL     1     -11.535  14.874  67.901  1.00  0.00    -0.357 A  
HETATM   19  C   UNL     1     -11.710  14.063  69.025  1.00  0.00    -0.368 A  
ENDBRANCH  12  14
ENDBRANCH  11  12
TORSDOF 2
ENDMDL
MODEL       90
REMARK 921   NORMALIZED FREE ENERGY PREDICTED BY IDOCK:   -4.98 KCAL/MOL
REMARK 922        TOTAL FREE ENERGY PREDICTED BY IDOCK:   -5.83 KCAL/MOL
REMARK 923 INTER-LIGAND FREE ENERGY PREDICTED BY IDOCK:   -5.35 KCAL/MOL
REMARK 924 INTRA-LIGAND FREE ENERGY PREDICTED BY IDOCK:   -0.49 KCAL/MOL
REMARK 927      BINDING AFFINITY PREDICTED BY RF-SCORE:    0.00 PKD
ROOT
HETATM    1  O   UNL     1     -11.582   7.078  69.947  1.00  0.00    -0.223 OA 
HETATM    2  C   UNL     1     -12.071   7.569  71.107  1.00  0.00    -0.307 C  
HETATM    3  C   UNL     1     -11.702   9.006  71.441  1.00  0.00    -0.392 A  
HETATM    4  O   UNL     1     -12.829   6.907  71.806  1.00  0.00    -0.362 OA 
HETATM    5  C   UNL     1     -12.775   9.991  70.903  1.00  0.00    -0.414 A  
HETATM    6  C   UNL     1     -12.090  10.914  69.874  1.00  0.00    -0.354 A  
HETATM    7  N   UNL     1     -10.696  10.519  69.936  1.00  0.00    -0.266 NA 
HETATM    8  C   UNL     1     -10.458   9.479  70.783  1.00  0.00    -0.314 A  
HETATM    9  C   UNL     1      -9.117   9.209  70.772  1.00  0.00    -0.313 A  
HETATM   10  C   UNL     1      -8.556  10.098  69.811  1.00  0.00    -0.148 A  
HETATM   11  C   UNL     1      -9.569  10.883  69.266  1.00  0.00    -0.044 A  
ENDROOT
BRANCH  11  12
HETATM   12  C   UNL     1      -9.502  11.913  68.242  1.00  0.00    -0.197 C  
HETATM   13  O   UNL     1      -8.946  12.994  68.432  1.00  0.00    -0.188 OA 
BRANCH  12  14
HETATM   14  C   UNL     1     -10.161  11.682  66.923  1.00  0.00    -0.244 A  
HETATM   15  C   UNL     1      -9.643  10.713  66.052  1.00  0.00    -0.244 A  
HETATM   16  C   UNL     1     -10.199  10.541  64.779  1.00  0.00    -0.373 A  
HETATM   17  C   UNL     1     -11.266  11.340  64.370  1.00  0.00    -0.196 A  
HETATM   18  C   UNL     1     -11.789  12.303  65.231  1.00  0.00    -0.411 A  
HETATM   19  C   UNL     1     -11.237  12.477  66.503  1.00  0.00    -0.356 A  
ENDBRANCH  12  14
ENDBRANCH  11  12
TORSDOF 2
ENDMDL
MODEL       91
REMARK 921   NORMALIZED FREE ENERGY PREDICTED BY IDOCK:   -4.97 KCAL/MOL
REMARK 922        TOTAL FREE ENERGY PREDICTED BY IDOCK:   -5.82 KCAL/MOL
REMARK 923 INTER-LIGAND FREE ENERGY PREDICTED BY IDOCK:   -5.49 KCAL/MOL
REMARK 924 INTRA-LIGAND FREE ENERGY PREDICTED BY IDOCK:   -0.33 KCAL/MOL
REMARK 927      BINDING AFFINITY PREDICTED BY RF-SCORE:    0.00 PKD
ROOT
HETATM    1  O   UNL     1      -7.280  18.037  65.439  1.00  0.00    -0.502 OA 
HETATM    2  C   UNL     1      -7.520  18.220  66.756  1.00  0.00    -0.219 C  
HETATM    3  C   UNL     1      -8.530  17.281  67.396  1.00  0.00    -0.210 A  
HETATM    4  O   UNL     1      -6.897  19.054  67.403  1.00  0.00    -0.203 OA 
HETATM    5  C   UNL     1      -7.824  16.033  67.992  1.00  0.00    -0.142 A  
HETATM    6  C   UNL     1      -8.362  14.792  67.250  1.00  0.00    -0.212 A  
HETATM    7  N   UNL     1      -9.385  15.333  66.377  1.00  0.00    -0.275 NA 
HETATM    8  C   UNL     1      -9.497  16.689  66.437  1.00  0.00    -0.280 A  
HETATM    9  C   UNL     1     -10.498  17.079  65.592  1.00  0.00    -0.229 A  
HETATM   10  C   UNL     1     -10.947  15.889  64.953  1.00  0.00    -0.427 A  
HETATM   11  C   UNL     1     -10.207  14.808  65.428  1.00  0.00    -0.387 A  
ENDROOT
BRANCH  11  12
HETATM   12  C   UNL     1     -10.277  13.401  65.070  1.00  0.00    -0.307 C  
HETATM   13  O   UNL     1     -10.266  13.017  63.900  1.00  0.00    -0.378 OA 
BRANCH  12  14
HETATM   14  C   UNL     1     -10.407  12.374  66.146  1.00  0.00    -0.271 A  
HETATM   15  C   UNL     1     -11.413  12.510  67.113  1.00  0.00    -0.414 A  
HETATM   16  C   UNL     1     -11.496  11.602  68.174  1.00  0.00    -0.382 A  
HETATM   17  C   UNL     1     -10.573  10.563  68.278  1.00  0.00    -0.240 A  
HETATM   18  C   UNL     1      -9.572  10.418  67.319  1.00  0.00    -0.182 A  
HETATM   19  C   UNL     1      -9.486  11.323  66.257  1.00  0.00    -0.227 A  
ENDBRANCH  12  14
ENDBRANCH  11  12
TORSDOF 2
ENDMDL
MODEL       92
REMARK 921   NORMALIZED FREE ENERGY PREDICTED BY IDOCK:   -4.95 KCAL/MOL
REMARK 922        TOTAL FREE ENERGY PREDICTED BY IDOCK:   -5.79 KCAL/MOL
REMARK 923 INTER-LIGAND FREE ENERGY PREDICTED BY IDOCK:   -5.31 KCAL/MOL
REMARK 924 INTRA-LIGAND FREE ENERGY PREDICTED BY IDOCK:   -0.49 KCAL/MOL
REMARK 927      BINDING AFFINITY PREDICTED BY RF-SCORE:    0.00 PKD
ROOT
HETATM    1  O   UNL     1     -10.841   9.150  67.751  1.00  0.00    -0.217 OA 
HETATM    2  C   UNL     1     -10.642   9.324  69.077  1.00  0.00    -0.205 C  
HETATM    3  C   UNL     1     -10.385  10.751  69.540  1.00  0.00    -0.178 A  
HETATM    4  O   UNL     1     -10.738   8.387  69.861  1.00  0.00    -0.232 OA 
HETATM    5  C   UNL     1     -11.713  11.449  69.937  1.00  0.00    -0.424 A  
HETATM    6  C   UNL     1     -11.908  12.656  68.996  1.00  0.00    -0.294 A  
HETATM    7  N   UNL     1     -10.693  12.671  68.205  1.00  0.00    -0.217 NA 
HETATM    8  C   UNL     1      -9.846  11.641  68.481  1.00  0.00    -0.193 A  
HETATM    9  C   UNL     1      -8.735  11.770  67.693  1.00  0.00    -0.159 A  
HETATM   10  C   UNL     1      -8.984  12.900  66.863  1.00  0.00    -0.210 A  
HETATM   11  C   UNL     1     -10.237  13.427  67.169  1.00  0.00    -0.247 A  
ENDROOT
BRANCH  11  12
HETATM   12  C   UNL     1     -10.940  14.558  66.588  1.00  0.00    -0.321 C  
HETATM   13  O   UNL     1     -11.811  14.421  65.728  1.00  0.00    -0.363 OA 
BRANCH  12  14
HETATM   14  C   UNL     1     -10.578  15.944  67.009  1.00  0.00    -0.306 A  
HETATM   15  C   UNL     1     -10.441  16.238  68.373  1.00  0.00    -0.282 A  
HETATM   16  C   UNL     1     -10.183  17.550  68.787  1.00  0.00    -0.373 A  
HETATM   17  C   UNL     1     -10.069  18.570  67.844  1.00  0.00    -0.398 A  
HETATM   18  C   UNL     1     -10.199  18.285  66.486  1.00  0.00    -0.409 A  
HETATM   19  C   UNL     1     -10.457  16.977  66.068  1.00  0.00    -0.280 A  
ENDBRANCH  12  14
ENDBRANCH  11  12
TORSDOF 2
ENDMDL
MODEL       93
REMARK 921   NORMALIZED FREE ENERGY PREDICTED BY IDOCK:   -4.94 KCAL/MOL
REMARK 922        TOTAL FREE ENERGY PREDICTED BY IDOCK:   -5.79 KCAL/MOL
REMARK 923 INTER-LIGAND FREE ENERGY PREDICTED BY IDOCK:   -5.74 KCAL/MOL
REMARK 924 INTRA-LIGAND FREE ENERGY PREDICTED BY IDOCK:   -0.05 KCAL/MOL
REMARK 927      BINDING AFFINITY PREDICTED BY RF-SCORE:    0.00 PKD
ROOT
HETATM    1  O   UNL     1     -10.739   7.148  74.076  1.00  0.00    -0.283 OA 
HETATM    2  C   UNL     1     -10.210   6.428  73.062  1.00  0.00    -0.199 C  
HETATM    3  C   UNL     1     -10.463   6.953  71.657  1.00  0.00    -0.224 A  
HETATM    4  O   UNL     1      -9.506   5.449  73.280  1.00  0.00    -0.141 OA 
HETATM    5  C   UNL     1      -9.315   7.897  71.206  1.00  0.00    -0.172 A  
HETATM    6  C   UNL     1      -9.926   9.292  70.958  1.00  0.00    -0.293 A  
HETATM    7  N   UNL     1     -11.347   9.083  71.159  1.00  0.00    -0.283 NA 
HETATM    8  C   UNL     1     -11.666   7.815  71.542  1.00  0.00    -0.280 A  
HETATM    9  C   UNL     1     -13.024   7.734  71.682  1.00  0.00    -0.374 A  
HETATM   10  C   UNL     1     -13.515   9.047  71.433  1.00  0.00    -0.331 A  
HETATM   11  C   UNL     1     -12.443   9.890  71.148  1.00  0.00    -0.368 A  
ENDROOT
BRANCH  11  12
HETATM   12  C   UNL     1     -12.429  11.312  70.849  1.00  0.00    -0.394 C  
HETATM   13  O   UNL     1     -12.867  12.154  71.633  1.00  0.00    -0.359 OA 
BRANCH  12  14
HETATM   14  C   UNL     1     -11.904  11.781  69.532  1.00  0.00    -0.402 A  
HETATM   15  C   UNL     1     -11.645  10.847  68.520  1.00  0.00    -0.360 A  
HETATM   16  C   UNL     1     -11.076  11.262  67.310  1.00  0.00    -0.367 A  
HETATM   17  C   UNL     1     -10.759  12.604  67.111  1.00  0.00    -0.264 A  
HETATM   18  C   UNL     1     -11.018  13.540  68.112  1.00  0.00    -0.275 A  
HETATM   19  C   UNL     1     -11.586  13.131  69.321  1.00  0.00    -0.370 A  
ENDBRANCH  12  14
ENDBRANCH  11  12
TORSDOF 2
ENDMDL
MODEL       94
REMARK 921   NORMALIZED FREE ENERGY PREDICTED BY IDOCK:   -4.92 KCAL/MOL
REMARK 922        TOTAL FREE ENERGY PREDICTED BY IDOCK:   -5.77 KCAL/MOL
REMARK 923 INTER-LIGAND FREE ENERGY PREDICTED BY IDOCK:   -5.59 KCAL/MOL
REMARK 924 INTRA-LIGAND FREE ENERGY PREDICTED BY IDOCK:   -0.18 KCAL/MOL
REMARK 927      BINDING AFFINITY PREDICTED BY RF-SCORE:    0.00 PKD
ROOT
HETATM    1  O   UNL     1     -12.410  12.373  65.965  1.00  0.00    -0.627 OA 
HETATM    2  C   UNL     1     -11.627  13.459  66.152  1.00  0.00    -0.346 C  
HETATM    3  C   UNL     1     -10.614  13.374  67.284  1.00  0.00    -0.256 A  
HETATM    4  O   UNL     1     -11.690  14.423  65.400  1.00  0.00    -0.346 OA 
HETATM    5  C   UNL     1      -9.253  12.837  66.766  1.00  0.00    -0.225 A  
HETATM    6  C   UNL     1      -8.963  11.510  67.500  1.00  0.00    -0.159 A  
HETATM    7  N   UNL     1     -10.058  11.395  68.442  1.00  0.00    -0.195 NA 
HETATM    8  C   UNL     1     -10.974  12.399  68.345  1.00  0.00    -0.241 A  
HETATM    9  C   UNL     1     -11.942  12.196  69.289  1.00  0.00    -0.318 A  
HETATM   10  C   UNL     1     -11.606  10.967  69.924  1.00  0.00    -0.410 A  
HETATM   11  C   UNL     1     -10.444  10.457  69.350  1.00  0.00    -0.238 A  
ENDROOT
BRANCH  11  12
HETATM   12  C   UNL     1      -9.722   9.229  69.639  1.00  0.00    -0.182 C  
HETATM   13  O   UNL     1      -8.802   8.823  68.929  1.00  0.00    -0.135 OA 
BRANCH  12  14
HETATM   14  C   UNL     1     -10.124   8.400  70.814  1.00  0.00    -0.226 A  
HETATM   15  C   UNL     1     -11.104   7.410  70.657  1.00  0.00    -0.285 A  
HETATM   16  C   UNL     1     -11.550   6.680  71.766  1.00  0.00    -0.347 A  
HETATM   17  C   UNL     1     -11.027   6.942  73.031  1.00  0.00    -0.308 A  
HETATM   18  C   UNL     1     -10.048   7.922  73.194  1.00  0.00    -0.362 A  
HETATM   19  C   UNL     1      -9.600   8.652  72.090  1.00  0.00    -0.378 A  
ENDBRANCH  12  14
ENDBRANCH  11  12
TORSDOF 2
ENDMDL
MODEL       95
REMARK 921   NORMALIZED FREE ENERGY PREDICTED BY IDOCK:   -4.92 KCAL/MOL
REMARK 922        TOTAL FREE ENERGY PREDICTED BY IDOCK:   -5.76 KCAL/MOL
REMARK 923 INTER-LIGAND FREE ENERGY PREDICTED BY IDOCK:   -5.62 KCAL/MOL
REMARK 924 INTRA-LIGAND FREE ENERGY PREDICTED BY IDOCK:   -0.14 KCAL/MOL
REMARK 927      BINDING AFFINITY PREDICTED BY RF-SCORE:    0.00 PKD
ROOT
HETATM    1  O   UNL     1     -13.649  13.736  65.519  1.00  0.00    -0.511 OA 
HETATM    2  C   UNL     1     -12.525  13.795  64.771  1.00  0.00    -0.349 C  
HETATM    3  C   UNL     1     -11.245  13.312  65.434  1.00  0.00    -0.306 A  
HETATM    4  O   UNL     1     -12.563  14.153  63.599  1.00  0.00    -0.831 OA 
HETATM    5  C   UNL     1     -11.011  11.804  65.149  1.00  0.00    -0.351 A  
HETATM    6  C   UNL     1     -11.027  11.064  66.503  1.00  0.00    -0.166 A  
HETATM    7  N   UNL     1     -11.153  12.132  67.475  1.00  0.00    -0.259 NA 
HETATM    8  C   UNL     1     -11.274  13.369  66.917  1.00  0.00    -0.308 A  
HETATM    9  C   UNL     1     -11.366  14.291  67.924  1.00  0.00    -0.320 A  
HETATM   10  C   UNL     1     -11.368  13.539  69.133  1.00  0.00    -0.333 A  
HETATM   11  C   UNL     1     -11.276  12.183  68.829  1.00  0.00    -0.264 A  
ENDROOT
BRANCH  11  12
HETATM   12  C   UNL     1     -11.261  11.028  69.712  1.00  0.00    -0.268 C  
HETATM   13  O   UNL     1     -12.004  10.937  70.690  1.00  0.00    -0.321 OA 
BRANCH  12  14
HETATM   14  C   UNL     1     -10.289   9.924  69.461  1.00  0.00    -0.248 A  
HETATM   15  C   UNL     1     -10.719   8.592  69.542  1.00  0.00    -0.189 A  
HETATM   16  C   UNL     1      -9.802   7.546  69.390  1.00  0.00    -0.166 A  
HETATM   17  C   UNL     1      -8.455   7.825  69.166  1.00  0.00    -0.138 A  
HETATM   18  C   UNL     1      -8.020   9.147  69.080  1.00  0.00    -0.101 A  
HETATM   19  C   UNL     1      -8.932  10.194  69.230  1.00  0.00    -0.193 A  
ENDBRANCH  12  14
ENDBRANCH  11  12
TORSDOF 2
ENDMDL
MODEL       96
REMARK 921   NORMALIZED FREE ENERGY PREDICTED BY IDOCK:   -4.91 KCAL/MOL
REMARK 922        TOTAL FREE ENERGY PREDICTED BY IDOCK:   -5.75 KCAL/MOL
REMARK 923 INTER-LIGAND FREE ENERGY PREDICTED BY IDOCK:   -5.29 KCAL/MOL
REMARK 924 INTRA-LIGAND FREE ENERGY PREDICTED BY IDOCK:   -0.46 KCAL/MOL
REMARK 927      BINDING AFFINITY PREDICTED BY RF-SCORE:    0.00 PKD
ROOT
HETATM    1  O   UNL     1      -8.111   4.742  67.193  1.00  0.00    -0.102 OA 
HETATM    2  C   UNL     1      -9.322   4.584  66.612  1.00  0.00    -0.149 C  
HETATM    3  C   UNL     1     -10.494   5.270  67.297  1.00  0.00    -0.236 A  
HETATM    4  O   UNL     1      -9.442   3.980  65.553  1.00  0.00    -0.154 OA 
HETATM    5  C   UNL     1     -10.719   6.691  66.715  1.00  0.00    -0.329 A  
HETATM    6  C   UNL     1     -10.511   7.704  67.860  1.00  0.00    -0.207 A  
HETATM    7  N   UNL     1     -10.295   6.866  69.022  1.00  0.00    -0.184 NA 
HETATM    8  C   UNL     1     -10.279   5.533  68.742  1.00  0.00    -0.199 A  
HETATM    9  C   UNL     1     -10.087   4.846  69.910  1.00  0.00    -0.332 A  
HETATM   10  C   UNL     1      -9.912   5.840  70.914  1.00  0.00    -0.243 A  
HETATM   11  C   UNL     1     -10.003   7.102  70.331  1.00  0.00    -0.187 A  
ENDROOT
BRANCH  11  12
HETATM   12  C   UNL     1      -9.874   8.419  70.932  1.00  0.00    -0.184 C  
HETATM   13  O   UNL     1      -8.800   8.849  71.352  1.00  0.00    -0.210 OA 
BRANCH  12  14
HETATM   14  C   UNL     1     -11.086   9.277  71.090  1.00  0.00    -0.411 A  
HETATM   15  C   UNL     1     -11.187  10.469  70.360  1.00  0.00    -0.378 A  
HETATM   16  C   UNL     1     -12.278  11.324  70.558  1.00  0.00    -0.474 A  
HETATM   17  C   UNL     1     -13.264  10.995  71.487  1.00  0.00    -0.400 A  
HETATM   18  C   UNL     1     -13.172   9.809  72.213  1.00  0.00    -0.468 A  
HETATM   19  C   UNL     1     -12.085   8.952  72.019  1.00  0.00    -0.442 A  
ENDBRANCH  12  14
ENDBRANCH  11  12
TORSDOF 2
ENDMDL
MODEL       97
REMARK 921   NORMALIZED FREE ENERGY PREDICTED BY IDOCK:   -4.90 KCAL/MOL
REMARK 922        TOTAL FREE ENERGY PREDICTED BY IDOCK:   -5.74 KCAL/MOL
REMARK 923 INTER-LIGAND FREE ENERGY PREDICTED BY IDOCK:   -5.29 KCAL/MOL
REMARK 924 INTRA-LIGAND FREE ENERGY PREDICTED BY IDOCK:   -0.45 KCAL/MOL
REMARK 927      BINDING AFFINITY PREDICTED BY RF-SCORE:    0.00 PKD
ROOT
HETATM    1  O   UNL     1     -10.988   7.685  70.403  1.00  0.00    -0.243 OA 
HETATM    2  C   UNL     1     -11.147   8.727  71.250  1.00  0.00    -0.278 C  
HETATM    3  C   UNL     1     -10.842  10.107  70.689  1.00  0.00    -0.305 A  
HETATM    4  O   UNL     1     -11.584   8.560  72.383  1.00  0.00    -0.372 OA 
HETATM    5  C   UNL     1     -12.122  10.759  70.101  1.00  0.00    -0.427 A  
HETATM    6  C   UNL     1     -11.882  10.988  68.595  1.00  0.00    -0.247 A  
HETATM    7  N   UNL     1     -10.504  10.582  68.403  1.00  0.00    -0.176 NA 
HETATM    8  C   UNL     1      -9.914  10.096  69.530  1.00  0.00    -0.235 A  
HETATM    9  C   UNL     1      -8.620   9.764  69.234  1.00  0.00    -0.158 A  
HETATM   10  C   UNL     1      -8.472  10.007  67.839  1.00  0.00    -0.118 A  
HETATM   11  C   UNL     1      -9.678  10.480  67.325  1.00  0.00    -0.169 A  
ENDROOT
BRANCH  11  12
HETATM   12  C   UNL     1     -10.033  10.847  65.965  1.00  0.00    -0.240 C  
HETATM   13  O   UNL     1     -10.078  10.025  65.050  1.00  0.00    -0.323 OA 
BRANCH  12  14
HETATM   14  C   UNL     1     -10.316  12.277  65.640  1.00  0.00    -0.287 A  
HETATM   15  C   UNL     1     -11.237  12.587  64.630  1.00  0.00    -0.353 A  
HETATM   16  C   UNL     1     -11.452  13.919  64.259  1.00  0.00    -0.336 A  
HETATM   17  C   UNL     1     -10.744  14.942  64.887  1.00  0.00    -0.426 A  
HETATM   18  C   UNL     1      -9.829  14.643  65.895  1.00  0.00    -0.358 A  
HETATM   19  C   UNL     1      -9.612  13.314  66.269  1.00  0.00    -0.244 A  
ENDBRANCH  12  14
ENDBRANCH  11  12
TORSDOF 2
ENDMDL
MODEL       98
REMARK 921   NORMALIZED FREE ENERGY PREDICTED BY IDOCK:   -4.87 KCAL/MOL
REMARK 922        TOTAL FREE ENERGY PREDICTED BY IDOCK:   -5.70 KCAL/MOL
REMARK 923 INTER-LIGAND FREE ENERGY PREDICTED BY IDOCK:   -5.69 KCAL/MOL
REMARK 924 INTRA-LIGAND FREE ENERGY PREDICTED BY IDOCK:   -0.02 KCAL/MOL
REMARK 927      BINDING AFFINITY PREDICTED BY RF-SCORE:    0.00 PKD
ROOT
HETATM    1  O   UNL     1     -11.408  14.978  71.936  1.00  0.00    -0.375 OA 
HETATM    2  C   UNL     1     -12.728  14.991  71.646  1.00  0.00    -0.340 C  
HETATM    3  C   UNL     1     -13.276  13.762  70.937  1.00  0.00    -0.156 A  
HETATM    4  O   UNL     1     -13.446  15.917  72.005  1.00  0.00    -0.424 OA 
HETATM    5  C   UNL     1     -13.804  12.724  71.963  1.00  0.00    -0.203 A  
HETATM    6  C   UNL     1     -12.966  11.438  71.801  1.00  0.00    -0.414 A  
HETATM    7  N   UNL     1     -12.105  11.732  70.672  1.00  0.00    -0.361 NA 
HETATM    8  C   UNL     1     -12.254  12.994  70.183  1.00  0.00    -0.272 A  
HETATM    9  C   UNL     1     -11.411  13.148  69.117  1.00  0.00    -0.335 A  
HETATM   10  C   UNL     1     -10.682  11.929  69.026  1.00  0.00    -0.197 A  
HETATM   11  C   UNL     1     -11.101  11.067  70.037  1.00  0.00    -0.161 A  
ENDROOT
BRANCH  11  12
HETATM   12  C   UNL     1     -10.647   9.727  70.369  1.00  0.00    -0.304 C  
HETATM   13  O   UNL     1     -10.204   9.438  71.480  1.00  0.00    -0.308 OA 
BRANCH  12  14
HETATM   14  C   UNL     1     -10.677   8.661  69.323  1.00  0.00    -0.151 A  
HETATM   15  C   UNL     1     -10.525   9.013  67.975  1.00  0.00    -0.270 A  
HETATM   16  C   UNL     1     -10.633   8.037  66.977  1.00  0.00    -0.364 A  
HETATM   17  C   UNL     1     -10.899   6.712  67.322  1.00  0.00    -0.456 A  
HETATM   18  C   UNL     1     -11.046   6.354  68.661  1.00  0.00    -0.393 A  
HETATM   19  C   UNL     1     -10.939   7.326  69.660  1.00  0.00    -0.204 A  
ENDBRANCH  12  14
ENDBRANCH  11  12
TORSDOF 2
ENDMDL
MODEL       99
REMARK 921   NORMALIZED FREE ENERGY PREDICTED BY IDOCK:   -4.86 KCAL/MOL
REMARK 922        TOTAL FREE ENERGY PREDICTED BY IDOCK:   -5.69 KCAL/MOL
REMARK 923 INTER-LIGAND FREE ENERGY PREDICTED BY IDOCK:   -5.24 KCAL/MOL
REMARK 924 INTRA-LIGAND FREE ENERGY PREDICTED BY IDOCK:   -0.45 KCAL/MOL
REMARK 927      BINDING AFFINITY PREDICTED BY RF-SCORE:    0.00 PKD
ROOT
HETATM    1  O   UNL     1      -7.540   4.639  67.223  1.00  0.00    -0.084 OA 
HETATM    2  C   UNL     1      -8.640   4.152  66.605  1.00  0.00    -0.112 C  
HETATM    3  C   UNL     1      -9.978   4.478  67.252  1.00  0.00    -0.187 A  
HETATM    4  O   UNL     1      -8.555   3.545  65.545  1.00  0.00    -0.109 OA 
HETATM    5  C   UNL     1     -10.573   5.783  66.660  1.00  0.00    -0.347 A  
HETATM    6  C   UNL     1     -10.693   6.807  67.808  1.00  0.00    -0.268 A  
HETATM    7  N   UNL     1     -10.285   6.056  68.979  1.00  0.00    -0.175 NA 
HETATM    8  C   UNL     1      -9.889   4.782  68.703  1.00  0.00    -0.138 A  
HETATM    9  C   UNL     1      -9.548   4.170  69.878  1.00  0.00    -0.282 A  
HETATM   10  C   UNL     1      -9.688   5.167  70.884  1.00  0.00    -0.252 A  
HETATM   11  C   UNL     1     -10.111   6.356  70.295  1.00  0.00    -0.181 A  
ENDROOT
BRANCH  11  12
HETATM   12  C   UNL     1     -10.374   7.653  70.897  1.00  0.00    -0.201 C  
HETATM   13  O   UNL     1      -9.490   8.494  71.061  1.00  0.00    -0.161 OA 
BRANCH  12  14
HETATM   14  C   UNL     1     -11.752   7.976  71.373  1.00  0.00    -0.320 A  
HETATM   15  C   UNL     1     -12.778   7.036  71.209  1.00  0.00    -0.400 A  
HETATM   16  C   UNL     1     -14.090   7.355  71.575  1.00  0.00    -0.541 A  
HETATM   17  C   UNL     1     -14.383   8.614  72.097  1.00  0.00    -0.518 A  
HETATM   18  C   UNL     1     -13.367   9.554  72.267  1.00  0.00    -0.526 A  
HETATM   19  C   UNL     1     -12.055   9.238  71.903  1.00  0.00    -0.440 A  
ENDBRANCH  12  14
ENDBRANCH  11  12
TORSDOF 2
ENDMDL
MODEL      100
REMARK 921   NORMALIZED FREE ENERGY PREDICTED BY IDOCK:   -4.85 KCAL/MOL
REMARK 922        TOTAL FREE ENERGY PREDICTED BY IDOCK:   -5.68 KCAL/MOL
REMARK 923 INTER-LIGAND FREE ENERGY PREDICTED BY IDOCK:   -5.41 KCAL/MOL
REMARK 924 INTRA-LIGAND FREE ENERGY PREDICTED BY IDOCK:   -0.27 KCAL/MOL
REMARK 927      BINDING AFFINITY PREDICTED BY RF-SCORE:    0.00 PKD
ROOT
HETATM    1  O   UNL     1      -8.519   9.389  71.118  1.00  0.00    -0.303 OA 
HETATM    2  C   UNL     1      -8.916   8.314  70.400  1.00  0.00    -0.146 C  
HETATM    3  C   UNL     1      -9.773   8.597  69.176  1.00  0.00    -0.173 A  
HETATM    4  O   UNL     1      -8.539   7.185  70.691  1.00  0.00    -0.140 OA 
HETATM    5  C   UNL     1      -8.889   8.757  67.910  1.00  0.00    -0.136 A  
HETATM    6  C   UNL     1      -9.093  10.190  67.375  1.00  0.00    -0.137 A  
HETATM    7  N   UNL     1     -10.116  10.737  68.244  1.00  0.00    -0.165 NA 
HETATM    8  C   UNL     1     -10.504   9.888  69.236  1.00  0.00    -0.221 A  
HETATM    9  C   UNL     1     -11.478  10.501  69.975  1.00  0.00    -0.393 A  
HETATM   10  C   UNL     1     -11.615  11.805  69.422  1.00  0.00    -0.386 A  
HETATM   11  C   UNL     1     -10.721  11.950  68.363  1.00  0.00    -0.220 A  
ENDROOT
BRANCH  11  12
HETATM   12  C   UNL     1     -10.471  13.095  67.503  1.00  0.00    -0.228 C  
HETATM   13  O   UNL     1      -9.751  14.033  67.847  1.00  0.00    -0.217 OA 
BRANCH  12  14
HETATM   14  C   UNL     1     -11.136  13.171  66.168  1.00  0.00    -0.301 A  
HETATM   15  C   UNL     1     -11.116  12.053  65.323  1.00  0.00    -0.367 A  
HETATM   16  C   UNL     1     -11.663  12.134  64.037  1.00  0.00    -0.515 A  
HETATM   17  C   UNL     1     -12.222  13.330  63.590  1.00  0.00    -0.522 A  
HETATM   18  C   UNL     1     -12.249  14.445  64.426  1.00  0.00    -0.481 A  
HETATM   19  C   UNL     1     -11.705  14.368  65.711  1.00  0.00    -0.362 A  
ENDBRANCH  12  14
ENDBRANCH  11  12
TORSDOF 2
ENDMDL
MODEL      101
REMARK 921   NORMALIZED FREE ENERGY PREDICTED BY IDOCK:   -4.84 KCAL/MOL
REMARK 922        TOTAL FREE ENERGY PREDICTED BY IDOCK:   -5.67 KCAL/MOL
REMARK 923 INTER-LIGAND FREE ENERGY PREDICTED BY IDOCK:   -5.23 KCAL/MOL
REMARK 924 INTRA-LIGAND FREE ENERGY PREDICTED BY IDOCK:   -0.44 KCAL/MOL
REMARK 927      BINDING AFFINITY PREDICTED BY RF-SCORE:    0.00 PKD
ROOT
HETATM    1  O   UNL     1      -9.924  11.013  66.100  1.00  0.00    -0.215 OA 
HETATM    2  C   UNL     1      -9.430   9.899  65.515  1.00  0.00    -0.252 C  
HETATM    3  C   UNL     1      -8.861   8.841  66.450  1.00  0.00    -0.175 A  
HETATM    4  O   UNL     1      -9.507   9.731  64.304  1.00  0.00    -0.263 OA 
HETATM    5  C   UNL     1      -9.951   7.807  66.840  1.00  0.00    -0.331 A  
HETATM    6  C   UNL     1     -10.145   7.885  68.368  1.00  0.00    -0.194 A  
HETATM    7  N   UNL     1      -9.135   8.834  68.793  1.00  0.00    -0.138 NA 
HETATM    8  C   UNL     1      -8.421   9.371  67.765  1.00  0.00    -0.116 A  
HETATM    9  C   UNL     1      -7.492  10.231  68.284  1.00  0.00    -0.086 A  
HETATM   10  C   UNL     1      -7.727  10.245  69.688  1.00  0.00    -0.166 A  
HETATM   11  C   UNL     1      -8.790   9.394  69.984  1.00  0.00    -0.211 A  
ENDROOT
BRANCH  11  12
HETATM   12  C   UNL     1      -9.412   9.088  71.262  1.00  0.00    -0.269 C  
HETATM   13  O   UNL     1      -8.780   8.614  72.205  1.00  0.00    -0.306 OA 
BRANCH  12  14
HETATM   14  C   UNL     1     -10.878   9.315  71.438  1.00  0.00    -0.434 A  
HETATM   15  C   UNL     1     -11.660   8.328  72.054  1.00  0.00    -0.403 A  
HETATM   16  C   UNL     1     -13.047   8.490  72.153  1.00  0.00    -0.393 A  
HETATM   17  C   UNL     1     -13.656   9.631  71.632  1.00  0.00    -0.402 A  
HETATM   18  C   UNL     1     -12.884  10.619  71.022  1.00  0.00    -0.496 A  
HETATM   19  C   UNL     1     -11.499  10.461  70.922  1.00  0.00    -0.385 A  
ENDBRANCH  12  14
ENDBRANCH  11  12
TORSDOF 2
ENDMDL
MODEL      102
REMARK 921   NORMALIZED FREE ENERGY PREDICTED BY IDOCK:   -4.83 KCAL/MOL
REMARK 922        TOTAL FREE ENERGY PREDICTED BY IDOCK:   -5.67 KCAL/MOL
REMARK 923 INTER-LIGAND FREE ENERGY PREDICTED BY IDOCK:   -5.24 KCAL/MOL
REMARK 924 INTRA-LIGAND FREE ENERGY PREDICTED BY IDOCK:   -0.43 KCAL/MOL
REMARK 927      BINDING AFFINITY PREDICTED BY RF-SCORE:    0.00 PKD
ROOT
HETATM    1  O   UNL     1      -8.630  12.295  68.506  1.00  0.00    -0.150 OA 
HETATM    2  C   UNL     1      -9.724  12.792  67.888  1.00  0.00    -0.217 C  
HETATM    3  C   UNL     1     -11.029  12.047  68.122  1.00  0.00    -0.273 A  
HETATM    4  O   UNL     1      -9.668  13.828  67.236  1.00  0.00    -0.231 OA 
HETATM    5  C   UNL     1     -11.795  12.642  69.333  1.00  0.00    -0.356 A  
HETATM    6  C   UNL     1     -11.918  11.534  70.400  1.00  0.00    -0.368 A  
HETATM    7  N   UNL     1     -11.345  10.371  69.752  1.00  0.00    -0.270 NA 
HETATM    8  C   UNL     1     -10.851  10.624  68.508  1.00  0.00    -0.233 A  
HETATM    9  C   UNL     1     -10.357   9.458  67.992  1.00  0.00    -0.267 A  
HETATM   10  C   UNL     1     -10.510   8.488  69.023  1.00  0.00    -0.216 A  
HETATM   11  C   UNL     1     -11.093   9.090  70.136  1.00  0.00    -0.207 A  
ENDROOT
BRANCH  11  12
HETATM   12  C   UNL     1     -11.429   8.526  71.433  1.00  0.00    -0.287 C  
HETATM   13  O   UNL     1     -12.590   8.446  71.835  1.00  0.00    -0.316 OA 
BRANCH  12  14
HETATM   14  C   UNL     1     -10.337   8.057  72.336  1.00  0.00    -0.355 A  
HETATM   15  C   UNL     1     -10.631   7.147  73.361  1.00  0.00    -0.424 A  
HETATM   16  C   UNL     1      -9.635   6.761  74.266  1.00  0.00    -0.305 A  
HETATM   17  C   UNL     1      -8.349   7.288  74.156  1.00  0.00    -0.210 A  
HETATM   18  C   UNL     1      -8.048   8.190  73.137  1.00  0.00    -0.237 A  
HETATM   19  C   UNL     1      -9.039   8.577  72.231  1.00  0.00    -0.318 A  
ENDBRANCH  12  14
ENDBRANCH  11  12
TORSDOF 2
ENDMDL
MODEL      103
REMARK 921   NORMALIZED FREE ENERGY PREDICTED BY IDOCK:   -4.81 KCAL/MOL
REMARK 922        TOTAL FREE ENERGY PREDICTED BY IDOCK:   -5.64 KCAL/MOL
REMARK 923 INTER-LIGAND FREE ENERGY PREDICTED BY IDOCK:   -5.11 KCAL/MOL
REMARK 924 INTRA-LIGAND FREE ENERGY PREDICTED BY IDOCK:   -0.53 KCAL/MOL
REMARK 927      BINDING AFFINITY PREDICTED BY RF-SCORE:    0.00 PKD
ROOT
HETATM    1  O   UNL     1      -9.130   8.864  72.281  1.00  0.00    -0.381 OA 
HETATM    2  C   UNL     1      -9.877   7.758  72.068  1.00  0.00    -0.174 C  
HETATM    3  C   UNL     1     -10.959   7.868  71.005  1.00  0.00    -0.262 A  
HETATM    4  O   UNL     1      -9.638   6.709  72.656  1.00  0.00    -0.147 OA 
HETATM    5  C   UNL     1     -10.418   7.421  69.620  1.00  0.00    -0.237 A  
HETATM    6  C   UNL     1     -10.503   8.634  68.670  1.00  0.00    -0.177 A  
HETATM    7  N   UNL     1     -11.158   9.649  69.471  1.00  0.00    -0.207 NA 
HETATM    8  C   UNL     1     -11.416   9.257  70.750  1.00  0.00    -0.292 A  
HETATM    9  C   UNL     1     -12.046  10.283  71.399  1.00  0.00    -0.457 A  
HETATM   10  C   UNL     1     -12.094  11.356  70.464  1.00  0.00    -0.487 A  
HETATM   11  C   UNL     1     -11.492  10.954  69.274  1.00  0.00    -0.302 A  
ENDROOT
BRANCH  11  12
HETATM   12  C   UNL     1     -11.280  11.693  68.040  1.00  0.00    -0.263 C  
HETATM   13  O   UNL     1     -12.047  11.609  67.081  1.00  0.00    -0.575 OA 
BRANCH  12  14
HETATM   14  C   UNL     1     -10.071  12.559  67.901  1.00  0.00    -0.214 A  
HETATM   15  C   UNL     1     -10.127  13.697  67.085  1.00  0.00    -0.245 A  
HETATM   16  C   UNL     1      -8.980  14.472  66.880  1.00  0.00    -0.267 A  
HETATM   17  C   UNL     1      -7.775  14.110  67.481  1.00  0.00    -0.201 A  
HETATM   18  C   UNL     1      -7.713  12.981  68.297  1.00  0.00    -0.141 A  
HETATM   19  C   UNL     1      -8.856  12.205  68.505  1.00  0.00    -0.079 A  
ENDBRANCH  12  14
ENDBRANCH  11  12
TORSDOF 2
ENDMDL
MODEL      104
REMARK 921   NORMALIZED FREE ENERGY PREDICTED BY IDOCK:   -4.80 KCAL/MOL
REMARK 922        TOTAL FREE ENERGY PREDICTED BY IDOCK:   -5.63 KCAL/MOL
REMARK 923 INTER-LIGAND FREE ENERGY PREDICTED BY IDOCK:   -5.31 KCAL/MOL
REMARK 924 INTRA-LIGAND FREE ENERGY PREDICTED BY IDOCK:   -0.33 KCAL/MOL
REMARK 927      BINDING AFFINITY PREDICTED BY RF-SCORE:    0.00 PKD
ROOT
HETATM    1  O   UNL     1     -10.152   2.573  71.649  1.00  0.00    -0.144 OA 
HETATM    2  C   UNL     1      -8.959   3.089  72.019  1.00  0.00    -0.088 C  
HETATM    3  C   UNL     1      -8.838   4.605  71.983  1.00  0.00    -0.136 A  
HETATM    4  O   UNL     1      -8.056   2.368  72.426  1.00  0.00    -0.053 OA 
HETATM    5  C   UNL     1      -9.207   5.220  73.360  1.00  0.00    -0.131 A  
HETATM    6  C   UNL     1     -10.437   6.128  73.154  1.00  0.00    -0.236 A  
HETATM    7  N   UNL     1     -10.652   6.091  71.721  1.00  0.00    -0.221 NA 
HETATM    8  C   UNL     1      -9.793   5.266  71.059  1.00  0.00    -0.191 A  
HETATM    9  C   UNL     1     -10.077   5.327  69.722  1.00  0.00    -0.334 A  
HETATM   10  C   UNL     1     -11.210   6.182  69.610  1.00  0.00    -0.488 A  
HETATM   11  C   UNL     1     -11.583   6.618  70.879  1.00  0.00    -0.361 A  
ENDROOT
BRANCH  11  12
HETATM   12  C   UNL     1     -12.679   7.482  71.284  1.00  0.00    -0.302 C  
HETATM   13  O   UNL     1     -13.734   7.039  71.738  1.00  0.00    -0.338 OA 
BRANCH  12  14
HETATM   14  C   UNL     1     -12.552   8.960  71.113  1.00  0.00    -0.228 A  
HETATM   15  C   UNL     1     -11.599   9.472  70.222  1.00  0.00    -0.219 A  
HETATM   16  C   UNL     1     -11.411  10.855  70.112  1.00  0.00    -0.405 A  
HETATM   17  C   UNL     1     -12.167  11.727  70.894  1.00  0.00    -0.378 A  
HETATM   18  C   UNL     1     -13.120  11.225  71.779  1.00  0.00    -0.527 A  
HETATM   19  C   UNL     1     -13.311   9.845  71.892  1.00  0.00    -0.524 A  
ENDBRANCH  12  14
ENDBRANCH  11  12
TORSDOF 2
ENDMDL
MODEL      105
REMARK 921   NORMALIZED FREE ENERGY PREDICTED BY IDOCK:   -4.80 KCAL/MOL
REMARK 922        TOTAL FREE ENERGY PREDICTED BY IDOCK:   -5.62 KCAL/MOL
REMARK 923 INTER-LIGAND FREE ENERGY PREDICTED BY IDOCK:   -5.15 KCAL/MOL
REMARK 924 INTRA-LIGAND FREE ENERGY PREDICTED BY IDOCK:   -0.47 KCAL/MOL
REMARK 927      BINDING AFFINITY PREDICTED BY RF-SCORE:    0.00 PKD
ROOT
HETATM    1  O   UNL     1      -7.649   9.630  71.088  1.00  0.00    -0.318 OA 
HETATM    2  C   UNL     1      -6.594   9.788  70.259  1.00  0.00    -0.102 C  
HETATM    3  C   UNL     1      -6.915  10.156  68.818  1.00  0.00    -0.066 A  
HETATM    4  O   UNL     1      -5.444   9.705  70.674  1.00  0.00    -0.039 OA 
HETATM    5  C   UNL     1      -6.926  11.697  68.632  1.00  0.00    -0.088 A  
HETATM    6  C   UNL     1      -8.348  12.107  68.197  1.00  0.00    -0.170 A  
HETATM    7  N   UNL     1      -9.038  10.841  68.050  1.00  0.00    -0.146 NA 
HETATM    8  C   UNL     1      -8.279   9.760  68.384  1.00  0.00    -0.105 A  
HETATM    9  C   UNL     1      -9.024   8.630  68.189  1.00  0.00    -0.141 A  
HETATM   10  C   UNL     1     -10.311   9.084  67.784  1.00  0.00    -0.304 A  
HETATM   11  C   UNL     1     -10.314  10.477  67.745  1.00  0.00    -0.212 A  
ENDROOT
BRANCH  11  12
HETATM   12  C   UNL     1     -11.387  11.398  67.412  1.00  0.00    -0.288 C  
HETATM   13  O   UNL     1     -12.263  11.708  68.220  1.00  0.00    -0.525 OA 
BRANCH  12  14
HETATM   14  C   UNL     1     -11.467  11.968  66.034  1.00  0.00    -0.399 A  
HETATM   15  C   UNL     1     -12.107  13.198  65.831  1.00  0.00    -0.501 A  
HETATM   16  C   UNL     1     -12.262  13.705  64.536  1.00  0.00    -0.444 A  
HETATM   17  C   UNL     1     -11.786  12.983  63.442  1.00  0.00    -0.543 A  
HETATM   18  C   UNL     1     -11.144  11.761  63.636  1.00  0.00    -0.518 A  
HETATM   19  C   UNL     1     -10.988  11.252  64.928  1.00  0.00    -0.243 A  
ENDBRANCH  12  14
ENDBRANCH  11  12
TORSDOF 2
ENDMDL
MODEL      106
REMARK 921   NORMALIZED FREE ENERGY PREDICTED BY IDOCK:   -4.79 KCAL/MOL
REMARK 922        TOTAL FREE ENERGY PREDICTED BY IDOCK:   -5.62 KCAL/MOL
REMARK 923 INTER-LIGAND FREE ENERGY PREDICTED BY IDOCK:   -5.13 KCAL/MOL
REMARK 924 INTRA-LIGAND FREE ENERGY PREDICTED BY IDOCK:   -0.49 KCAL/MOL
REMARK 927      BINDING AFFINITY PREDICTED BY RF-SCORE:    0.00 PKD
ROOT
HETATM    1  O   UNL     1      -9.318  12.087  65.117  1.00  0.00    -0.064 OA 
HETATM    2  C   UNL     1     -10.651  12.298  65.203  1.00  0.00    -0.285 C  
HETATM    3  C   UNL     1     -11.358  11.678  66.398  1.00  0.00    -0.312 A  
HETATM    4  O   UNL     1     -11.232  13.012  64.394  1.00  0.00    -0.325 OA 
HETATM    5  C   UNL     1     -11.412  12.677  67.585  1.00  0.00    -0.390 A  
HETATM    6  C   UNL     1     -10.628  12.053  68.759  1.00  0.00    -0.209 A  
HETATM    7  N   UNL     1     -10.264  10.740  68.266  1.00  0.00    -0.161 NA 
HETATM    8  C   UNL     1     -10.649  10.510  66.980  1.00  0.00    -0.253 A  
HETATM    9  C   UNL     1     -10.271   9.242  66.633  1.00  0.00    -0.323 A  
HETATM   10  C   UNL     1      -9.565   8.732  67.759  1.00  0.00    -0.177 A  
HETATM   11  C   UNL     1      -9.533   9.702  68.759  1.00  0.00    -0.148 A  
ENDROOT
BRANCH  11  12
HETATM   12  C   UNL     1      -8.919   9.665  70.076  1.00  0.00    -0.237 C  
HETATM   13  O   UNL     1      -7.855  10.232  70.322  1.00  0.00    -0.156 OA 
BRANCH  12  14
HETATM   14  C   UNL     1      -9.570   8.883  71.168  1.00  0.00    -0.342 A  
HETATM   15  C   UNL     1     -10.967   8.889  71.284  1.00  0.00    -0.363 A  
HETATM   16  C   UNL     1     -11.587   8.228  72.351  1.00  0.00    -0.464 A  
HETATM   17  C   UNL     1     -10.816   7.568  73.307  1.00  0.00    -0.409 A  
HETATM   18  C   UNL     1      -9.426   7.555  73.196  1.00  0.00    -0.272 A  
HETATM   19  C   UNL     1      -8.804   8.213  72.132  1.00  0.00    -0.238 A  
ENDBRANCH  12  14
ENDBRANCH  11  12
TORSDOF 2
ENDMDL
MODEL      107
REMARK 921   NORMALIZED FREE ENERGY PREDICTED BY IDOCK:   -4.77 KCAL/MOL
REMARK 922        TOTAL FREE ENERGY PREDICTED BY IDOCK:   -5.59 KCAL/MOL
REMARK 923 INTER-LIGAND FREE ENERGY PREDICTED BY IDOCK:   -5.37 KCAL/MOL
REMARK 924 INTRA-LIGAND FREE ENERGY PREDICTED BY IDOCK:   -0.22 KCAL/MOL
REMARK 927      BINDING AFFINITY PREDICTED BY RF-SCORE:    0.00 PKD
ROOT
HETATM    1  O   UNL     1     -11.761  11.144  66.977  1.00  0.00    -0.460 OA 
HETATM    2  C   UNL     1     -10.877  12.105  67.326  1.00  0.00    -0.244 C  
HETATM    3  C   UNL     1     -10.317  12.027  68.738  1.00  0.00    -0.181 A  
HETATM    4  O   UNL     1     -10.502  12.944  66.516  1.00  0.00    -0.259 OA 
HETATM    5  C   UNL     1      -9.000  11.207  68.764  1.00  0.00    -0.136 A  
HETATM    6  C   UNL     1      -9.232   9.975  69.663  1.00  0.00    -0.215 A  
HETATM    7  N   UNL     1     -10.570  10.180  70.182  1.00  0.00    -0.285 NA 
HETATM    8  C   UNL     1     -11.185  11.292  69.692  1.00  0.00    -0.251 A  
HETATM    9  C   UNL     1     -12.424  11.390  70.263  1.00  0.00    -0.312 A  
HETATM   10  C   UNL     1     -12.563  10.231  71.078  1.00  0.00    -0.487 A  
HETATM   11  C   UNL     1     -11.406   9.461  70.981  1.00  0.00    -0.337 A  
ENDROOT
BRANCH  11  12
HETATM   12  C   UNL     1     -11.077   8.190  71.605  1.00  0.00    -0.255 C  
HETATM   13  O   UNL     1     -10.989   8.058  72.825  1.00  0.00    -0.363 OA 
BRANCH  12  14
HETATM   14  C   UNL     1     -10.794   7.002  70.746  1.00  0.00    -0.272 A  
HETATM   15  C   UNL     1     -10.215   5.860  71.316  1.00  0.00    -0.262 A  
HETATM   16  C   UNL     1      -9.868   4.770  70.509  1.00  0.00    -0.301 A  
HETATM   17  C   UNL     1     -10.091   4.820  69.134  1.00  0.00    -0.196 A  
HETATM   18  C   UNL     1     -10.671   5.951  68.560  1.00  0.00    -0.327 A  
HETATM   19  C   UNL     1     -11.019   7.041  69.362  1.00  0.00    -0.232 A  
ENDBRANCH  12  14
ENDBRANCH  11  12
TORSDOF 2
ENDMDL
MODEL      108
REMARK 921   NORMALIZED FREE ENERGY PREDICTED BY IDOCK:   -4.76 KCAL/MOL
REMARK 922        TOTAL FREE ENERGY PREDICTED BY IDOCK:   -5.58 KCAL/MOL
REMARK 923 INTER-LIGAND FREE ENERGY PREDICTED BY IDOCK:   -5.12 KCAL/MOL
REMARK 924 INTRA-LIGAND FREE ENERGY PREDICTED BY IDOCK:   -0.46 KCAL/MOL
REMARK 927      BINDING AFFINITY PREDICTED BY RF-SCORE:    0.00 PKD
ROOT
HETATM    1  O   UNL     1      -9.609  14.516  66.313  1.00  0.00    -0.286 OA 
HETATM    2  C   UNL     1     -10.781  14.414  66.979  1.00  0.00    -0.285 C  
HETATM    3  C   UNL     1     -11.327  13.008  67.174  1.00  0.00    -0.348 A  
HETATM    4  O   UNL     1     -11.325  15.402  67.457  1.00  0.00    -0.328 OA 
HETATM    5  C   UNL     1     -10.839  12.409  68.520  1.00  0.00    -0.270 A  
HETATM    6  C   UNL     1      -9.996  11.157  68.197  1.00  0.00    -0.178 A  
HETATM    7  N   UNL     1     -10.116  11.027  66.758  1.00  0.00    -0.213 NA 
HETATM    8  C   UNL     1     -10.836  12.026  66.175  1.00  0.00    -0.286 A  
HETATM    9  C   UNL     1     -10.896  11.788  64.830  1.00  0.00    -0.358 A  
HETATM   10  C   UNL     1     -10.107  10.624  64.611  1.00  0.00    -0.417 A  
HETATM   11  C   UNL     1      -9.590  10.185  65.827  1.00  0.00    -0.230 A  
ENDROOT
BRANCH  11  12
HETATM   12  C   UNL     1      -8.718   9.059  66.119  1.00  0.00    -0.147 C  
HETATM   13  O   UNL     1      -7.492   9.167  66.155  1.00  0.00    -0.093 OA 
BRANCH  12  14
HETATM   14  C   UNL     1      -9.313   7.708  66.344  1.00  0.00    -0.228 A  
HETATM   15  C   UNL     1     -10.509   7.592  67.065  1.00  0.00    -0.419 A  
HETATM   16  C   UNL     1     -11.036   6.328  67.355  1.00  0.00    -0.447 A  
HETATM   17  C   UNL     1     -10.367   5.179  66.935  1.00  0.00    -0.288 A  
HETATM   18  C   UNL     1      -9.179   5.287  66.214  1.00  0.00    -0.152 A  
HETATM   19  C   UNL     1      -8.650   6.547  65.922  1.00  0.00    -0.153 A  
ENDBRANCH  12  14
ENDBRANCH  11  12
TORSDOF 2
ENDMDL
MODEL      109
REMARK 921   NORMALIZED FREE ENERGY PREDICTED BY IDOCK:   -4.75 KCAL/MOL
REMARK 922        TOTAL FREE ENERGY PREDICTED BY IDOCK:   -5.58 KCAL/MOL
REMARK 923 INTER-LIGAND FREE ENERGY PREDICTED BY IDOCK:   -5.24 KCAL/MOL
REMARK 924 INTRA-LIGAND FREE ENERGY PREDICTED BY IDOCK:   -0.33 KCAL/MOL
REMARK 927      BINDING AFFINITY PREDICTED BY RF-SCORE:    0.00 PKD
ROOT
HETATM    1  O   UNL     1     -11.095  18.774  67.422  1.00  0.00    -0.332 OA 
HETATM    2  C   UNL     1     -10.375  18.524  66.305  1.00  0.00    -0.427 C  
HETATM    3  C   UNL     1      -9.922  17.087  66.101  1.00  0.00    -0.314 A  
HETATM    4  O   UNL     1     -10.168  19.402  65.476  1.00  0.00    -0.419 OA 
HETATM    5  C   UNL     1     -10.961  16.295  65.262  1.00  0.00    -0.245 A  
HETATM    6  C   UNL     1     -11.492  15.143  66.141  1.00  0.00    -0.157 A  
HETATM    7  N   UNL     1     -10.699  15.243  67.350  1.00  0.00    -0.287 NA 
HETATM    8  C   UNL     1      -9.835  16.297  67.355  1.00  0.00    -0.242 A  
HETATM    9  C   UNL     1      -9.134  16.278  68.529  1.00  0.00    -0.216 A  
HETATM   10  C   UNL     1      -9.671  15.193  69.278  1.00  0.00    -0.225 A  
HETATM   11  C   UNL     1     -10.682  14.581  68.540  1.00  0.00    -0.250 A  
ENDROOT
BRANCH  11  12
HETATM   12  C   UNL     1     -11.535  13.455  68.881  1.00  0.00    -0.304 C  
HETATM   13  O   UNL     1     -12.523  13.572  69.604  1.00  0.00    -0.218 OA 
BRANCH  12  14
HETATM   14  C   UNL     1     -11.189  12.093  68.375  1.00  0.00    -0.314 A  
HETATM   15  C   UNL     1     -11.536  10.966  69.133  1.00  0.00    -0.373 A  
HETATM   16  C   UNL     1     -11.147   9.689  68.713  1.00  0.00    -0.093 A  
HETATM   17  C   UNL     1     -10.407   9.534  67.542  1.00  0.00    -0.306 A  
HETATM   18  C   UNL     1     -10.063  10.650  66.780  1.00  0.00    -0.272 A  
HETATM   19  C   UNL     1     -10.449  11.926  67.195  1.00  0.00    -0.249 A  
ENDBRANCH  12  14
ENDBRANCH  11  12
TORSDOF 2
ENDMDL
MODEL      110
REMARK 921   NORMALIZED FREE ENERGY PREDICTED BY IDOCK:   -4.71 KCAL/MOL
REMARK 922        TOTAL FREE ENERGY PREDICTED BY IDOCK:   -5.53 KCAL/MOL
REMARK 923 INTER-LIGAND FREE ENERGY PREDICTED BY IDOCK:   -5.01 KCAL/MOL
REMARK 924 INTRA-LIGAND FREE ENERGY PREDICTED BY IDOCK:   -0.52 KCAL/MOL
REMARK 927      BINDING AFFINITY PREDICTED BY RF-SCORE:    0.00 PKD
ROOT
HETATM    1  O   UNL     1     -10.357   5.700  67.033  1.00  0.00    -0.199 OA 
HETATM    2  C   UNL     1      -9.678   4.607  67.445  1.00  0.00    -0.178 C  
HETATM    3  C   UNL     1      -8.951   4.725  68.776  1.00  0.00    -0.137 A  
HETATM    4  O   UNL     1      -9.715   3.561  66.807  1.00  0.00    -0.164 OA 
HETATM    5  C   UNL     1      -9.857   4.250  69.943  1.00  0.00    -0.267 A  
HETATM    6  C   UNL     1     -10.076   5.452  70.885  1.00  0.00    -0.219 A  
HETATM    7  N   UNL     1      -9.241   6.490  70.312  1.00  0.00    -0.155 NA 
HETATM    8  C   UNL     1      -8.617   6.119  69.160  1.00  0.00    -0.119 A  
HETATM    9  C   UNL     1      -7.850   7.165  68.726  1.00  0.00    -0.122 A  
HETATM   10  C   UNL     1      -8.097   8.227  69.641  1.00  0.00    -0.116 A  
HETATM   11  C   UNL     1      -9.007   7.799  70.606  1.00  0.00    -0.145 A  
ENDROOT
BRANCH  11  12
HETATM   12  C   UNL     1      -9.581   8.518  71.731  1.00  0.00    -0.267 C  
HETATM   13  O   UNL     1      -8.963   8.705  72.778  1.00  0.00    -0.356 OA 
BRANCH  12  14
HETATM   14  C   UNL     1     -10.985   9.019  71.643  1.00  0.00    -0.435 A  
HETATM   15  C   UNL     1     -11.273  10.129  70.837  1.00  0.00    -0.383 A  
HETATM   16  C   UNL     1     -12.568  10.660  70.808  1.00  0.00    -0.479 A  
HETATM   17  C   UNL     1     -13.574  10.091  71.588  1.00  0.00    -0.304 A  
HETATM   18  C   UNL     1     -13.296   8.984  72.388  1.00  0.00    -0.516 A  
HETATM   19  C   UNL     1     -12.005   8.450  72.419  1.00  0.00    -0.451 A  
ENDBRANCH  12  14
ENDBRANCH  11  12
TORSDOF 2
ENDMDL
MODEL      111
REMARK 921   NORMALIZED FREE ENERGY PREDICTED BY IDOCK:   -4.70 KCAL/MOL
REMARK 922        TOTAL FREE ENERGY PREDICTED BY IDOCK:   -5.52 KCAL/MOL
REMARK 923 INTER-LIGAND FREE ENERGY PREDICTED BY IDOCK:   -5.01 KCAL/MOL
REMARK 924 INTRA-LIGAND FREE ENERGY PREDICTED BY IDOCK:   -0.51 KCAL/MOL
REMARK 927      BINDING AFFINITY PREDICTED BY RF-SCORE:    0.00 PKD
ROOT
HETATM    1  O   UNL     1      -8.326   6.556  67.665  1.00  0.00    -0.120 OA 
HETATM    2  C   UNL     1      -8.515   5.471  68.449  1.00  0.00    -0.101 C  
HETATM    3  C   UNL     1      -9.251   5.704  69.760  1.00  0.00    -0.165 A  
HETATM    4  O   UNL     1      -8.170   4.354  68.080  1.00  0.00    -0.093 OA 
HETATM    5  C   UNL     1     -10.778   5.485  69.581  1.00  0.00    -0.349 A  
HETATM    6  C   UNL     1     -11.482   6.822  69.890  1.00  0.00    -0.300 A  
HETATM    7  N   UNL     1     -10.400   7.686  70.319  1.00  0.00    -0.210 NA 
HETATM    8  C   UNL     1      -9.172   7.101  70.256  1.00  0.00    -0.156 A  
HETATM    9  C   UNL     1      -8.240   7.998  70.700  1.00  0.00    -0.114 A  
HETATM   10  C   UNL     1      -8.960   9.196  70.970  1.00  0.00    -0.281 A  
HETATM   11  C   UNL     1     -10.309   8.995  70.684  1.00  0.00    -0.229 A  
ENDROOT
BRANCH  11  12
HETATM   12  C   UNL     1     -11.430   9.915  70.778  1.00  0.00    -0.354 C  
HETATM   13  O   UNL     1     -12.314   9.792  71.625  1.00  0.00    -0.364 OA 
BRANCH  12  14
HETATM   14  C   UNL     1     -11.548  11.032  69.794  1.00  0.00    -0.401 A  
HETATM   15  C   UNL     1     -11.928  12.306  70.237  1.00  0.00    -0.373 A  
HETATM   16  C   UNL     1     -12.123  13.342  69.316  1.00  0.00    -0.312 A  
HETATM   17  C   UNL     1     -11.947  13.108  67.954  1.00  0.00    -0.347 A  
HETATM   18  C   UNL     1     -11.565  11.844  67.505  1.00  0.00    -0.374 A  
HETATM   19  C   UNL     1     -11.369  10.807  68.421  1.00  0.00    -0.367 A  
ENDBRANCH  12  14
ENDBRANCH  11  12
TORSDOF 2
ENDMDL
MODEL      112
REMARK 921   NORMALIZED FREE ENERGY PREDICTED BY IDOCK:   -4.70 KCAL/MOL
REMARK 922        TOTAL FREE ENERGY PREDICTED BY IDOCK:   -5.52 KCAL/MOL
REMARK 923 INTER-LIGAND FREE ENERGY PREDICTED BY IDOCK:   -5.15 KCAL/MOL
REMARK 924 INTRA-LIGAND FREE ENERGY PREDICTED BY IDOCK:   -0.37 KCAL/MOL
REMARK 927      BINDING AFFINITY PREDICTED BY RF-SCORE:    0.00 PKD
ROOT
HETATM    1  O   UNL     1      -7.439  14.884  69.994  1.00  0.00    -0.100 OA 
HETATM    2  C   UNL     1      -6.356  14.565  69.250  1.00  0.00    -0.117 C  
HETATM    3  C   UNL     1      -6.499  14.727  67.744  1.00  0.00    -0.183 A  
HETATM    4  O   UNL     1      -5.301  14.234  69.777  1.00  0.00    -0.092 OA 
HETATM    5  C   UNL     1      -6.036  16.138  67.295  1.00  0.00    -0.145 A  
HETATM    6  C   UNL     1      -7.251  16.852  66.667  1.00  0.00    -0.259 A  
HETATM    7  N   UNL     1      -8.286  15.838  66.677  1.00  0.00    -0.270 NA 
HETATM    8  C   UNL     1      -7.902  14.669  67.261  1.00  0.00    -0.186 A  
HETATM    9  C   UNL     1      -8.947  13.788  67.197  1.00  0.00    -0.241 A  
HETATM   10  C   UNL     1     -10.021  14.511  66.604  1.00  0.00    -0.276 A  
HETATM   11  C   UNL     1      -9.600  15.809  66.324  1.00  0.00    -0.313 A  
ENDROOT
BRANCH  11  12
HETATM   12  C   UNL     1     -10.332  16.921  65.740  1.00  0.00    -0.283 C  
HETATM   13  O   UNL     1     -10.918  16.831  64.662  1.00  0.00    -0.839 OA 
BRANCH  12  14
HETATM   14  C   UNL     1     -10.350  18.238  66.443  1.00  0.00    -0.418 A  
HETATM   15  C   UNL     1     -10.161  19.417  65.708  1.00  0.00    -0.346 A  
HETATM   16  C   UNL     1     -10.094  20.652  66.364  1.00  0.00    -0.044 A  
HETATM   17  C   UNL     1     -10.208  20.713  67.752  1.00  0.00    -0.193 A  
HETATM   18  C   UNL     1     -10.400  19.545  68.489  1.00  0.00    -0.436 A  
HETATM   19  C   UNL     1     -10.468  18.311  67.839  1.00  0.00    -0.408 A  
ENDBRANCH  12  14
ENDBRANCH  11  12
TORSDOF 2
ENDMDL
MODEL      113
REMARK 921   NORMALIZED FREE ENERGY PREDICTED BY IDOCK:   -4.70 KCAL/MOL
REMARK 922        TOTAL FREE ENERGY PREDICTED BY IDOCK:   -5.52 KCAL/MOL
REMARK 923 INTER-LIGAND FREE ENERGY PREDICTED BY IDOCK:   -5.05 KCAL/MOL
REMARK 924 INTRA-LIGAND FREE ENERGY PREDICTED BY IDOCK:   -0.47 KCAL/MOL
REMARK 927      BINDING AFFINITY PREDICTED BY RF-SCORE:    0.00 PKD
ROOT
HETATM    1  O   UNL     1      -9.028   8.807  65.710  1.00  0.00    -0.184 OA 
HETATM    2  C   UNL     1      -8.076   9.638  65.232  1.00  0.00    -0.125 C  
HETATM    3  C   UNL     1      -8.185  11.099  65.641  1.00  0.00     0.047 A  
HETATM    4  O   UNL     1      -7.140   9.212  64.564  1.00  0.00    -0.088 OA 
HETATM    5  C   UNL     1      -7.369  11.372  66.933  1.00  0.00    -0.147 A  
HETATM    6  C   UNL     1      -8.358  11.838  68.021  1.00  0.00    -0.154 A  
HETATM    7  N   UNL     1      -9.625  11.918  67.321  1.00  0.00    -0.176 NA 
HETATM    8  C   UNL     1      -9.558  11.518  66.020  1.00  0.00    -0.228 A  
HETATM    9  C   UNL     1     -10.799  11.653  65.461  1.00  0.00    -0.334 A  
HETATM   10  C   UNL     1     -11.649  12.090  66.516  1.00  0.00    -0.384 A  
HETATM   11  C   UNL     1     -10.903  12.209  67.686  1.00  0.00    -0.233 A  
ENDROOT
BRANCH  11  12
HETATM   12  C   UNL     1     -11.321  12.600  69.023  1.00  0.00    -0.292 C  
HETATM   13  O   UNL     1     -11.342  13.775  69.389  1.00  0.00    -0.257 OA 
BRANCH  12  14
HETATM   14  C   UNL     1     -11.703  11.547  70.010  1.00  0.00    -0.414 A  
HETATM   15  C   UNL     1     -11.028  10.318  70.006  1.00  0.00    -0.371 A  
HETATM   16  C   UNL     1     -11.429   9.293  70.870  1.00  0.00    -0.367 A  
HETATM   17  C   UNL     1     -12.507   9.487  71.732  1.00  0.00    -0.484 A  
HETATM   18  C   UNL     1     -13.181  10.708  71.744  1.00  0.00    -0.526 A  
HETATM   19  C   UNL     1     -12.783  11.734  70.884  1.00  0.00    -0.328 A  
ENDBRANCH  12  14
ENDBRANCH  11  12
TORSDOF 2
ENDMDL
MODEL      114
REMARK 921   NORMALIZED FREE ENERGY PREDICTED BY IDOCK:   -4.66 KCAL/MOL
REMARK 922        TOTAL FREE ENERGY PREDICTED BY IDOCK:   -5.48 KCAL/MOL
REMARK 923 INTER-LIGAND FREE ENERGY PREDICTED BY IDOCK:   -4.98 KCAL/MOL
REMARK 924 INTRA-LIGAND FREE ENERGY PREDICTED BY IDOCK:   -0.50 KCAL/MOL
REMARK 927      BINDING AFFINITY PREDICTED BY RF-SCORE:    0.00 PKD
ROOT
HETATM    1  O   UNL     1      -8.549  13.617  67.063  1.00  0.00    -0.209 OA 
HETATM    2  C   UNL     1      -9.665  14.074  66.452  1.00  0.00    -0.296 C  
HETATM    3  C   UNL     1     -10.713  13.032  66.092  1.00  0.00    -0.288 A  
HETATM    4  O   UNL     1      -9.842  15.273  66.271  1.00  0.00    -0.257 OA 
HETATM    5  C   UNL     1     -11.749  12.873  67.237  1.00  0.00    -0.431 A  
HETATM    6  C   UNL     1     -11.661  11.421  67.751  1.00  0.00    -0.251 A  
HETATM    7  N   UNL     1     -10.704  10.800  66.855  1.00  0.00    -0.262 NA 
HETATM    8  C   UNL     1     -10.171  11.658  65.941  1.00  0.00    -0.238 A  
HETATM    9  C   UNL     1      -9.304  10.961  65.146  1.00  0.00    -0.252 A  
HETATM   10  C   UNL     1      -9.280   9.638  65.673  1.00  0.00    -0.270 A  
HETATM   11  C   UNL     1     -10.133   9.567  66.773  1.00  0.00    -0.245 A  
ENDROOT
BRANCH  11  12
HETATM   12  C   UNL     1     -10.432   8.448  67.650  1.00  0.00    -0.239 C  
HETATM   13  O   UNL     1     -11.023   7.443  67.258  1.00  0.00    -0.280 OA 
BRANCH  12  14
HETATM   14  C   UNL     1     -10.050   8.522  69.092  1.00  0.00    -0.207 A  
HETATM   15  C   UNL     1     -11.008   8.242  70.076  1.00  0.00    -0.197 A  
HETATM   16  C   UNL     1     -10.687   8.387  71.431  1.00  0.00    -0.298 A  
HETATM   17  C   UNL     1      -9.415   8.818  71.806  1.00  0.00    -0.363 A  
HETATM   18  C   UNL     1      -8.456   9.095  70.833  1.00  0.00    -0.251 A  
HETATM   19  C   UNL     1      -8.772   8.951  69.479  1.00  0.00    -0.142 A  
ENDBRANCH  12  14
ENDBRANCH  11  12
TORSDOF 2
ENDMDL
MODEL      115
REMARK 921   NORMALIZED FREE ENERGY PREDICTED BY IDOCK:   -4.66 KCAL/MOL
REMARK 922        TOTAL FREE ENERGY PREDICTED BY IDOCK:   -5.47 KCAL/MOL
REMARK 923 INTER-LIGAND FREE ENERGY PREDICTED BY IDOCK:   -5.15 KCAL/MOL
REMARK 924 INTRA-LIGAND FREE ENERGY PREDICTED BY IDOCK:   -0.32 KCAL/MOL
REMARK 927      BINDING AFFINITY PREDICTED BY RF-SCORE:    0.00 PKD
ROOT
HETATM    1  O   UNL     1     -11.718   6.053  69.080  1.00  0.00     0.004 OA 
HETATM    2  C   UNL     1     -10.533   6.075  69.732  1.00  0.00    -0.255 C  
HETATM    3  C   UNL     1      -9.736   7.367  69.640  1.00  0.00    -0.163 A  
HETATM    4  O   UNL     1     -10.167   5.125  70.414  1.00  0.00    -0.240 OA 
HETATM    5  C   UNL     1     -10.078   8.311  70.824  1.00  0.00    -0.218 A  
HETATM    6  C   UNL     1     -10.686   9.601  70.233  1.00  0.00    -0.281 A  
HETATM    7  N   UNL     1     -10.575   9.406  68.801  1.00  0.00    -0.222 NA 
HETATM    8  C   UNL     1     -10.060   8.194  68.451  1.00  0.00    -0.200 A  
HETATM    9  C   UNL     1      -9.986   8.133  67.086  1.00  0.00    -0.304 A  
HETATM   10  C   UNL     1     -10.554   9.350  66.617  1.00  0.00    -0.170 A  
HETATM   11  C   UNL     1     -10.958  10.119  67.707  1.00  0.00    -0.277 A  
ENDROOT
BRANCH  11  12
HETATM   12  C   UNL     1     -11.604  11.420  67.742  1.00  0.00    -0.251 C  
HETATM   13  O   UNL     1     -12.476  11.700  68.564  1.00  0.00    -0.271 OA 
BRANCH  12  14
HETATM   14  C   UNL     1     -11.235  12.452  66.727  1.00  0.00    -0.363 A  
HETATM   15  C   UNL     1     -10.108  13.257  66.939  1.00  0.00    -0.250 A  
HETATM   16  C   UNL     1      -9.797  14.282  66.038  1.00  0.00    -0.336 A  
HETATM   17  C   UNL     1     -10.612  14.511  64.931  1.00  0.00    -0.450 A  
HETATM   18  C   UNL     1     -11.733  13.711  64.711  1.00  0.00    -0.399 A  
HETATM   19  C   UNL     1     -12.047  12.686  65.608  1.00  0.00    -0.502 A  
ENDBRANCH  12  14
ENDBRANCH  11  12
TORSDOF 2
ENDMDL
MODEL      116
REMARK 921   NORMALIZED FREE ENERGY PREDICTED BY IDOCK:   -4.66 KCAL/MOL
REMARK 922        TOTAL FREE ENERGY PREDICTED BY IDOCK:   -5.47 KCAL/MOL
REMARK 923 INTER-LIGAND FREE ENERGY PREDICTED BY IDOCK:   -4.95 KCAL/MOL
REMARK 924 INTRA-LIGAND FREE ENERGY PREDICTED BY IDOCK:   -0.52 KCAL/MOL
REMARK 927      BINDING AFFINITY PREDICTED BY RF-SCORE:    0.00 PKD
ROOT
HETATM    1  O   UNL     1      -8.579   8.281  66.679  1.00  0.00    -0.121 OA 
HETATM    2  C   UNL     1      -8.667   6.989  66.291  1.00  0.00    -0.146 C  
HETATM    3  C   UNL     1      -9.042   5.984  67.369  1.00  0.00    -0.106 A  
HETATM    4  O   UNL     1      -8.519   6.669  65.118  1.00  0.00    -0.122 OA 
HETATM    5  C   UNL     1     -10.579   5.775  67.417  1.00  0.00    -0.340 A  
HETATM    6  C   UNL     1     -11.070   6.222  68.810  1.00  0.00    -0.346 A  
HETATM    7  N   UNL     1      -9.846   6.552  69.513  1.00  0.00    -0.151 NA 
HETATM    8  C   UNL     1      -8.725   6.431  68.749  1.00  0.00    -0.122 A  
HETATM    9  C   UNL     1      -7.639   6.748  69.519  1.00  0.00    -0.099 A  
HETATM   10  C   UNL     1      -8.167   7.141  70.781  1.00  0.00    -0.120 A  
HETATM   11  C   UNL     1      -9.557   7.053  70.745  1.00  0.00    -0.164 A  
ENDROOT
BRANCH  11  12
HETATM   12  C   UNL     1     -10.538   7.363  71.772  1.00  0.00    -0.201 C  
HETATM   13  O   UNL     1     -10.737   6.625  72.737  1.00  0.00    -0.219 OA 
BRANCH  12  14
HETATM   14  C   UNL     1     -11.369   8.597  71.645  1.00  0.00    -0.377 A  
HETATM   15  C   UNL     1     -12.635   8.641  72.244  1.00  0.00    -0.457 A  
HETATM   16  C   UNL     1     -13.459   9.759  72.066  1.00  0.00    -0.498 A  
HETATM   17  C   UNL     1     -13.026  10.828  71.284  1.00  0.00    -0.502 A  
HETATM   18  C   UNL     1     -11.766  10.793  70.688  1.00  0.00    -0.442 A  
HETATM   19  C   UNL     1     -10.940   9.680  70.864  1.00  0.00    -0.412 A  
ENDBRANCH  12  14
ENDBRANCH  11  12
TORSDOF 2
ENDMDL
MODEL      117
REMARK 921   NORMALIZED FREE ENERGY PREDICTED BY IDOCK:   -4.65 KCAL/MOL
REMARK 922        TOTAL FREE ENERGY PREDICTED BY IDOCK:   -5.47 KCAL/MOL
REMARK 923 INTER-LIGAND FREE ENERGY PREDICTED BY IDOCK:   -4.97 KCAL/MOL
REMARK 924 INTRA-LIGAND FREE ENERGY PREDICTED BY IDOCK:   -0.50 KCAL/MOL
REMARK 927      BINDING AFFINITY PREDICTED BY RF-SCORE:    0.00 PKD
ROOT
HETATM    1  O   UNL     1     -12.970   7.400  71.644  1.00  0.00    -0.349 OA 
HETATM    2  C   UNL     1     -13.297   8.598  72.177  1.00  0.00    -0.396 C  
HETATM    3  C   UNL     1     -12.302   9.728  71.959  1.00  0.00    -0.336 A  
HETATM    4  O   UNL     1     -14.372   8.770  72.739  1.00  0.00    -0.569 OA 
HETATM    5  C   UNL     1     -12.647  10.527  70.674  1.00  0.00    -0.457 A  
HETATM    6  C   UNL     1     -11.458  10.386  69.701  1.00  0.00    -0.262 A  
HETATM    7  N   UNL     1     -10.477   9.641  70.467  1.00  0.00    -0.284 NA 
HETATM    8  C   UNL     1     -10.914   9.269  71.702  1.00  0.00    -0.363 A  
HETATM    9  C   UNL     1      -9.905   8.594  72.333  1.00  0.00    -0.315 A  
HETATM   10  C   UNL     1      -8.847   8.510  71.384  1.00  0.00    -0.253 A  
HETATM   11  C   UNL     1      -9.241   9.136  70.203  1.00  0.00    -0.206 A  
ENDROOT
BRANCH  11  12
HETATM   12  C   UNL     1      -8.526   9.293  68.947  1.00  0.00    -0.129 C  
HETATM   13  O   UNL     1      -7.813  10.269  68.714  1.00  0.00    -0.093 OA 
BRANCH  12  14
HETATM   14  C   UNL     1      -8.682   8.263  67.878  1.00  0.00    -0.135 A  
HETATM   15  C   UNL     1      -9.939   7.686  67.653  1.00  0.00    -0.225 A  
HETATM   16  C   UNL     1     -10.084   6.661  66.711  1.00  0.00    -0.240 A  
HETATM   17  C   UNL     1      -8.976   6.205  65.999  1.00  0.00    -0.156 A  
HETATM   18  C   UNL     1      -7.723   6.777  66.214  1.00  0.00    -0.098 A  
HETATM   19  C   UNL     1      -7.574   7.800  67.153  1.00  0.00    -0.100 A  
ENDBRANCH  12  14
ENDBRANCH  11  12
TORSDOF 2
ENDMDL
MODEL      118
REMARK 921   NORMALIZED FREE ENERGY PREDICTED BY IDOCK:   -4.64 KCAL/MOL
REMARK 922        TOTAL FREE ENERGY PREDICTED BY IDOCK:   -5.45 KCAL/MOL
REMARK 923 INTER-LIGAND FREE ENERGY PREDICTED BY IDOCK:   -5.03 KCAL/MOL
REMARK 924 INTRA-LIGAND FREE ENERGY PREDICTED BY IDOCK:   -0.43 KCAL/MOL
REMARK 927      BINDING AFFINITY PREDICTED BY RF-SCORE:    0.00 PKD
ROOT
HETATM    1  O   UNL     1      -7.411   6.616  66.870  1.00  0.00    -0.083 OA 
HETATM    2  C   UNL     1      -8.412   6.891  66.005  1.00  0.00    -0.139 C  
HETATM    3  C   UNL     1      -9.816   6.941  66.589  1.00  0.00    -0.217 A  
HETATM    4  O   UNL     1      -8.181   7.156  64.831  1.00  0.00    -0.129 OA 
HETATM    5  C   UNL     1     -10.180   8.386  67.026  1.00  0.00    -0.377 A  
HETATM    6  C   UNL     1     -10.427   8.366  68.549  1.00  0.00    -0.164 A  
HETATM    7  N   UNL     1     -10.309   6.964  68.896  1.00  0.00    -0.181 NA 
HETATM    8  C   UNL     1      -9.975   6.165  67.845  1.00  0.00    -0.134 A  
HETATM    9  C   UNL     1      -9.912   4.872  68.286  1.00  0.00    -0.177 A  
HETATM   10  C   UNL     1     -10.155   4.933  69.687  1.00  0.00    -0.300 A  
HETATM   11  C   UNL     1     -10.360   6.260  70.060  1.00  0.00    -0.199 A  
ENDROOT
BRANCH  11  12
HETATM   12  C   UNL     1     -10.623   6.831  71.370  1.00  0.00    -0.221 C  
HETATM   13  O   UNL     1      -9.826   6.733  72.303  1.00  0.00    -0.157 OA 
BRANCH  12  14
HETATM   14  C   UNL     1     -11.918   7.529  71.621  1.00  0.00    -0.333 A  
HETATM   15  C   UNL     1     -11.914   8.806  72.199  1.00  0.00    -0.436 A  
HETATM   16  C   UNL     1     -13.122   9.439  72.516  1.00  0.00    -0.374 A  
HETATM   17  C   UNL     1     -14.334   8.797  72.263  1.00  0.00    -0.468 A  
HETATM   18  C   UNL     1     -14.346   7.529  71.685  1.00  0.00    -0.621 A  
HETATM   19  C   UNL     1     -13.143   6.894  71.367  1.00  0.00    -0.316 A  
ENDBRANCH  12  14
ENDBRANCH  11  12
TORSDOF 2
ENDMDL
MODEL      119
REMARK 921   NORMALIZED FREE ENERGY PREDICTED BY IDOCK:   -4.62 KCAL/MOL
REMARK 922        TOTAL FREE ENERGY PREDICTED BY IDOCK:   -5.43 KCAL/MOL
REMARK 923 INTER-LIGAND FREE ENERGY PREDICTED BY IDOCK:   -4.95 KCAL/MOL
REMARK 924 INTRA-LIGAND FREE ENERGY PREDICTED BY IDOCK:   -0.48 KCAL/MOL
REMARK 927      BINDING AFFINITY PREDICTED BY RF-SCORE:    0.00 PKD
ROOT
HETATM    1  O   UNL     1      -9.950  14.013  65.082  1.00  0.00    -0.322 OA 
HETATM    2  C   UNL     1     -11.293  13.864  65.137  1.00  0.00    -0.318 C  
HETATM    3  C   UNL     1     -11.804  12.487  65.534  1.00  0.00    -0.491 A  
HETATM    4  O   UNL     1     -12.044  14.813  64.946  1.00  0.00    -0.384 OA 
HETATM    5  C   UNL     1     -12.019  12.401  67.069  1.00  0.00    -0.257 A  
HETATM    6  C   UNL     1     -11.074  11.309  67.613  1.00  0.00    -0.277 A  
HETATM    7  N   UNL     1     -10.463  10.761  66.419  1.00  0.00    -0.247 NA 
HETATM    8  C   UNL     1     -10.843  11.387  65.271  1.00  0.00    -0.233 A  
HETATM    9  C   UNL     1     -10.221  10.776  64.217  1.00  0.00    -0.422 A  
HETATM   10  C   UNL     1      -9.379   9.783  64.792  1.00  0.00    -0.327 A  
HETATM   11  C   UNL     1      -9.511   9.817  66.179  1.00  0.00    -0.205 A  
ENDROOT
BRANCH  11  12
HETATM   12  C   UNL     1      -8.849   9.021  67.198  1.00  0.00    -0.119 C  
HETATM   13  O   UNL     1      -7.719   9.282  67.608  1.00  0.00    -0.091 OA 
BRANCH  12  14
HETATM   14  C   UNL     1      -9.537   7.816  67.750  1.00  0.00    -0.172 A  
HETATM   15  C   UNL     1      -9.936   7.803  69.094  1.00  0.00    -0.182 A  
HETATM   16  C   UNL     1     -10.508   6.651  69.647  1.00  0.00    -0.249 A  
HETATM   17  C   UNL     1     -10.675   5.509  68.864  1.00  0.00    -0.207 A  
HETATM   18  C   UNL     1     -10.284   5.516  67.526  1.00  0.00    -0.245 A  
HETATM   19  C   UNL     1      -9.714   6.664  66.970  1.00  0.00    -0.197 A  
ENDBRANCH  12  14
ENDBRANCH  11  12
TORSDOF 2
ENDMDL
MODEL      120
REMARK 921   NORMALIZED FREE ENERGY PREDICTED BY IDOCK:   -4.61 KCAL/MOL
REMARK 922        TOTAL FREE ENERGY PREDICTED BY IDOCK:   -5.42 KCAL/MOL
REMARK 923 INTER-LIGAND FREE ENERGY PREDICTED BY IDOCK:   -5.08 KCAL/MOL
REMARK 924 INTRA-LIGAND FREE ENERGY PREDICTED BY IDOCK:   -0.34 KCAL/MOL
REMARK 927      BINDING AFFINITY PREDICTED BY RF-SCORE:    0.00 PKD
ROOT
HETATM    1  O   UNL     1      -9.846   5.709  73.529  1.00  0.00    -0.157 OA 
HETATM    2  C   UNL     1     -10.664   4.950  72.766  1.00  0.00    -0.228 C  
HETATM    3  C   UNL     1     -11.202   5.598  71.500  1.00  0.00    -0.182 A  
HETATM    4  O   UNL     1     -10.895   3.781  73.054  1.00  0.00    -0.173 OA 
HETATM    5  C   UNL     1     -10.273   5.302  70.292  1.00  0.00    -0.345 A  
HETATM    6  C   UNL     1      -9.730   6.651  69.777  1.00  0.00    -0.159 A  
HETATM    7  N   UNL     1     -10.417   7.631  70.595  1.00  0.00    -0.214 NA 
HETATM    8  C   UNL     1     -11.226   7.082  71.544  1.00  0.00    -0.249 A  
HETATM    9  C   UNL     1     -11.830   8.095  72.237  1.00  0.00    -0.441 A  
HETATM   10  C   UNL     1     -11.289   9.299  71.705  1.00  0.00    -0.467 A  
HETATM   11  C   UNL     1     -10.371   8.987  70.704  1.00  0.00    -0.229 A  
ENDROOT
BRANCH  11  12
HETATM   12  C   UNL     1      -9.550   9.863  69.886  1.00  0.00    -0.227 C  
HETATM   13  O   UNL     1      -8.337   9.982  70.061  1.00  0.00    -0.188 OA 
BRANCH  12  14
HETATM   14  C   UNL     1     -10.191  10.683  68.815  1.00  0.00    -0.204 A  
HETATM   15  C   UNL     1     -11.193  11.601  69.156  1.00  0.00    -0.325 A  
HETATM   16  C   UNL     1     -11.861  12.317  68.155  1.00  0.00    -0.372 A  
HETATM   17  C   UNL     1     -11.535  12.113  66.815  1.00  0.00    -0.418 A  
HETATM   18  C   UNL     1     -10.536  11.205  66.469  1.00  0.00    -0.305 A  
HETATM   19  C   UNL     1      -9.867  10.488  67.465  1.00  0.00    -0.196 A  
ENDBRANCH  12  14
ENDBRANCH  11  12
TORSDOF 2
ENDMDL
MODEL      121
REMARK 921   NORMALIZED FREE ENERGY PREDICTED BY IDOCK:   -4.60 KCAL/MOL
REMARK 922        TOTAL FREE ENERGY PREDICTED BY IDOCK:   -5.41 KCAL/MOL
REMARK 923 INTER-LIGAND FREE ENERGY PREDICTED BY IDOCK:   -5.01 KCAL/MOL
REMARK 924 INTRA-LIGAND FREE ENERGY PREDICTED BY IDOCK:   -0.40 KCAL/MOL
REMARK 927      BINDING AFFINITY PREDICTED BY RF-SCORE:    0.00 PKD
ROOT
HETATM    1  O   UNL     1      -9.995  13.666  68.513  1.00  0.00    -0.231 OA 
HETATM    2  C   UNL     1     -11.162  13.210  68.005  1.00  0.00    -0.277 C  
HETATM    3  C   UNL     1     -11.447  11.727  68.194  1.00  0.00    -0.382 A  
HETATM    4  O   UNL     1     -11.969  13.972  67.487  1.00  0.00    -0.386 OA 
HETATM    5  C   UNL     1     -12.250  11.483  69.499  1.00  0.00    -0.287 A  
HETATM    6  C   UNL     1     -11.385  10.600  70.423  1.00  0.00    -0.304 A  
HETATM    7  N   UNL     1     -10.222  10.295  69.613  1.00  0.00    -0.238 NA 
HETATM    8  C   UNL     1     -10.231  10.899  68.392  1.00  0.00    -0.178 A  
HETATM    9  C   UNL     1      -9.102  10.526  67.716  1.00  0.00    -0.140 A  
HETATM   10  C   UNL     1      -8.363   9.714  68.622  1.00  0.00    -0.114 A  
HETATM   11  C   UNL     1      -9.062   9.616  69.824  1.00  0.00    -0.215 A  
ENDROOT
BRANCH  11  12
HETATM   12  C   UNL     1      -8.713   8.921  71.052  1.00  0.00    -0.224 C  
HETATM   13  O   UNL     1      -7.679   9.162  71.674  1.00  0.00    -0.338 OA 
BRANCH  12  14
HETATM   14  C   UNL     1      -9.611   7.845  71.568  1.00  0.00    -0.189 A  
HETATM   15  C   UNL     1      -9.908   7.791  72.937  1.00  0.00    -0.326 A  
HETATM   16  C   UNL     1     -10.681   6.742  73.447  1.00  0.00    -0.332 A  
HETATM   17  C   UNL     1     -11.152   5.743  72.597  1.00  0.00    -0.325 A  
HETATM   18  C   UNL     1     -10.865   5.792  71.233  1.00  0.00    -0.313 A  
HETATM   19  C   UNL     1     -10.094   6.838  70.719  1.00  0.00    -0.208 A  
ENDBRANCH  12  14
ENDBRANCH  11  12
TORSDOF 2
ENDMDL
MODEL      122
REMARK 921   NORMALIZED FREE ENERGY PREDICTED BY IDOCK:   -4.60 KCAL/MOL
REMARK 922        TOTAL FREE ENERGY PREDICTED BY IDOCK:   -5.41 KCAL/MOL
REMARK 923 INTER-LIGAND FREE ENERGY PREDICTED BY IDOCK:   -5.31 KCAL/MOL
REMARK 924 INTRA-LIGAND FREE ENERGY PREDICTED BY IDOCK:   -0.10 KCAL/MOL
REMARK 927      BINDING AFFINITY PREDICTED BY RF-SCORE:    0.00 PKD
ROOT
HETATM    1  O   UNL     1      -8.367  11.155  67.907  1.00  0.00    -0.122 OA 
HETATM    2  C   UNL     1      -9.353  11.297  66.994  1.00  0.00    -0.172 C  
HETATM    3  C   UNL     1     -10.665  10.592  67.302  1.00  0.00    -0.338 A  
HETATM    4  O   UNL     1      -9.209  12.017  66.013  1.00  0.00    -0.221 OA 
HETATM    5  C   UNL     1     -11.631  11.534  68.070  1.00  0.00    -0.370 A  
HETATM    6  C   UNL     1     -11.908  10.898  69.448  1.00  0.00    -0.328 A  
HETATM    7  N   UNL     1     -11.215   9.627  69.382  1.00  0.00    -0.139 NA 
HETATM    8  C   UNL     1     -10.528   9.435  68.222  1.00  0.00    -0.217 A  
HETATM    9  C   UNL     1      -9.935   8.203  68.267  1.00  0.00    -0.212 A  
HETATM   10  C   UNL     1     -10.238   7.679  69.555  1.00  0.00    -0.209 A  
HETATM   11  C   UNL     1     -11.007   8.605  70.258  1.00  0.00    -0.236 A  
ENDROOT
BRANCH  11  12
HETATM   12  C   UNL     1     -11.542   8.540  71.607  1.00  0.00    -0.299 C  
HETATM   13  O   UNL     1     -12.254   9.428  72.077  1.00  0.00    -0.363 OA 
BRANCH  12  14
HETATM   14  C   UNL     1     -11.194   7.381  72.481  1.00  0.00    -0.363 A  
HETATM   15  C   UNL     1     -10.211   7.531  73.470  1.00  0.00    -0.380 A  
HETATM   16  C   UNL     1      -9.816   6.432  74.241  1.00  0.00    -0.320 A  
HETATM   17  C   UNL     1     -10.393   5.182  74.023  1.00  0.00    -0.299 A  
HETATM   18  C   UNL     1     -11.374   5.026  73.045  1.00  0.00    -0.374 A  
HETATM   19  C   UNL     1     -11.772   6.120  72.273  1.00  0.00    -0.352 A  
ENDBRANCH  12  14
ENDBRANCH  11  12
TORSDOF 2
ENDMDL
MODEL      123
REMARK 921   NORMALIZED FREE ENERGY PREDICTED BY IDOCK:   -4.60 KCAL/MOL
REMARK 922        TOTAL FREE ENERGY PREDICTED BY IDOCK:   -5.41 KCAL/MOL
REMARK 923 INTER-LIGAND FREE ENERGY PREDICTED BY IDOCK:   -5.12 KCAL/MOL
REMARK 924 INTRA-LIGAND FREE ENERGY PREDICTED BY IDOCK:   -0.29 KCAL/MOL
REMARK 927      BINDING AFFINITY PREDICTED BY RF-SCORE:    0.00 PKD
ROOT
HETATM    1  O   UNL     1     -11.921  11.302  67.494  1.00  0.00    -0.612 OA 
HETATM    2  C   UNL     1     -10.756  11.175  66.819  1.00  0.00    -0.276 C  
HETATM    3  C   UNL     1      -9.829  10.059  67.276  1.00  0.00    -0.225 A  
HETATM    4  O   UNL     1     -10.506  11.880  65.849  1.00  0.00    -0.242 OA 
HETATM    5  C   UNL     1     -10.102   8.755  66.480  1.00  0.00    -0.349 A  
HETATM    6  C   UNL     1     -10.560   7.679  67.487  1.00  0.00    -0.252 A  
HETATM    7  N   UNL     1     -10.435   8.338  68.771  1.00  0.00    -0.204 NA 
HETATM    8  C   UNL     1     -10.039   9.639  68.684  1.00  0.00    -0.179 A  
HETATM    9  C   UNL     1      -9.938  10.147  69.950  1.00  0.00    -0.250 A  
HETATM   10  C   UNL     1     -10.367   9.103  70.818  1.00  0.00    -0.323 A  
HETATM   11  C   UNL     1     -10.716   7.989  70.057  1.00  0.00    -0.244 A  
ENDROOT
BRANCH  11  12
HETATM   12  C   UNL     1     -11.227   6.695  70.477  1.00  0.00    -0.334 C  
HETATM   13  O   UNL     1     -12.394   6.530  70.832  1.00  0.00    -0.290 OA 
BRANCH  12  14
HETATM   14  C   UNL     1     -10.304   5.521  70.523  1.00  0.00    -0.342 A  
HETATM   15  C   UNL     1      -9.906   4.908  69.327  1.00  0.00    -0.272 A  
HETATM   16  C   UNL     1      -9.108   3.758  69.358  1.00  0.00    -0.197 A  
HETATM   17  C   UNL     1      -8.715   3.214  70.579  1.00  0.00    -0.128 A  
HETATM   18  C   UNL     1      -9.104   3.820  71.773  1.00  0.00    -0.164 A  
HETATM   19  C   UNL     1      -9.899   4.968  71.747  1.00  0.00    -0.234 A  
ENDBRANCH  12  14
ENDBRANCH  11  12
TORSDOF 2
ENDMDL
MODEL      124
REMARK 921   NORMALIZED FREE ENERGY PREDICTED BY IDOCK:   -4.60 KCAL/MOL
REMARK 922        TOTAL FREE ENERGY PREDICTED BY IDOCK:   -5.41 KCAL/MOL
REMARK 923 INTER-LIGAND FREE ENERGY PREDICTED BY IDOCK:   -5.12 KCAL/MOL
REMARK 924 INTRA-LIGAND FREE ENERGY PREDICTED BY IDOCK:   -0.28 KCAL/MOL
REMARK 927      BINDING AFFINITY PREDICTED BY RF-SCORE:    0.00 PKD
ROOT
HETATM    1  O   UNL     1      -8.031  10.118  70.169  1.00  0.00    -0.160 OA 
HETATM    2  C   UNL     1      -7.770   9.611  68.943  1.00  0.00    -0.077 C  
HETATM    3  C   UNL     1      -8.644  10.113  67.804  1.00  0.00    -0.118 A  
HETATM    4  O   UNL     1      -6.831   8.845  68.762  1.00  0.00    -0.060 OA 
HETATM    5  C   UNL     1      -7.999  11.346  67.116  1.00  0.00    -0.156 A  
HETATM    6  C   UNL     1      -8.962  12.538  67.295  1.00  0.00    -0.192 A  
HETATM    7  N   UNL     1     -10.115  11.951  67.949  1.00  0.00    -0.187 NA 
HETATM    8  C   UNL     1      -9.966  10.628  68.239  1.00  0.00    -0.158 A  
HETATM    9  C   UNL     1     -11.115  10.182  68.832  1.00  0.00    -0.251 A  
HETATM   10  C   UNL     1     -11.951  11.328  68.957  1.00  0.00    -0.393 A  
HETATM   11  C   UNL     1     -11.289  12.438  68.436  1.00  0.00    -0.285 A  
ENDROOT
BRANCH  11  12
HETATM   12  C   UNL     1     -11.717  13.824  68.353  1.00  0.00    -0.358 C  
HETATM   13  O   UNL     1     -12.231  14.413  69.303  1.00  0.00    -0.306 OA 
BRANCH  12  14
HETATM   14  C   UNL     1     -11.568  14.563  67.064  1.00  0.00    -0.402 A  
HETATM   15  C   UNL     1     -12.210  14.082  65.914  1.00  0.00    -0.481 A  
HETATM   16  C   UNL     1     -12.015  14.717  64.682  1.00  0.00    -0.472 A  
HETATM   17  C   UNL     1     -11.173  15.825  64.592  1.00  0.00    -0.373 A  
HETATM   18  C   UNL     1     -10.535  16.311  65.732  1.00  0.00    -0.379 A  
HETATM   19  C   UNL     1     -10.728  15.681  66.964  1.00  0.00    -0.314 A  
ENDBRANCH  12  14
ENDBRANCH  11  12
TORSDOF 2
ENDMDL
MODEL      125
REMARK 921   NORMALIZED FREE ENERGY PREDICTED BY IDOCK:   -4.60 KCAL/MOL
REMARK 922        TOTAL FREE ENERGY PREDICTED BY IDOCK:   -5.41 KCAL/MOL
REMARK 923 INTER-LIGAND FREE ENERGY PREDICTED BY IDOCK:   -5.02 KCAL/MOL
REMARK 924 INTRA-LIGAND FREE ENERGY PREDICTED BY IDOCK:   -0.38 KCAL/MOL
REMARK 927      BINDING AFFINITY PREDICTED BY RF-SCORE:    0.00 PKD
ROOT
HETATM    1  O   UNL     1     -10.549   6.548  71.108  1.00  0.00    -0.219 OA 
HETATM    2  C   UNL     1     -10.551   7.463  72.103  1.00  0.00    -0.220 C  
HETATM    3  C   UNL     1     -10.242   8.897  71.702  1.00  0.00    -0.415 A  
HETATM    4  O   UNL     1     -10.856   7.152  73.248  1.00  0.00    -0.327 OA 
HETATM    5  C   UNL     1     -11.547   9.672  71.376  1.00  0.00    -0.472 A  
HETATM    6  C   UNL     1     -11.477  10.105  69.897  1.00  0.00    -0.254 A  
HETATM    7  N   UNL     1     -10.155   9.681  69.479  1.00  0.00    -0.195 NA 
HETATM    8  C   UNL     1      -9.460   9.019  70.446  1.00  0.00    -0.210 A  
HETATM    9  C   UNL     1      -8.231   8.687  69.947  1.00  0.00    -0.121 A  
HETATM   10  C   UNL     1      -8.238   9.122  68.591  1.00  0.00    -0.114 A  
HETATM   11  C   UNL     1      -9.470   9.705  68.303  1.00  0.00    -0.136 A  
ENDROOT
BRANCH  11  12
HETATM   12  C   UNL     1      -9.964  10.276  67.061  1.00  0.00    -0.201 C  
HETATM   13  O   UNL     1     -10.103   9.606  66.037  1.00  0.00    -0.283 OA 
BRANCH  12  14
HETATM   14  C   UNL     1     -10.283  11.733  66.998  1.00  0.00    -0.240 A  
HETATM   15  C   UNL     1      -9.241  12.670  67.023  1.00  0.00    -0.212 A  
HETATM   16  C   UNL     1      -9.527  14.040  67.047  1.00  0.00    -0.253 A  
HETATM   17  C   UNL     1     -10.850  14.477  67.054  1.00  0.00    -0.297 A  
HETATM   18  C   UNL     1     -11.893  13.551  67.024  1.00  0.00    -0.447 A  
HETATM   19  C   UNL     1     -11.611  12.183  66.999  1.00  0.00    -0.406 A  
ENDBRANCH  12  14
ENDBRANCH  11  12
TORSDOF 2
ENDMDL
MODEL      126
REMARK 921   NORMALIZED FREE ENERGY PREDICTED BY IDOCK:   -4.56 KCAL/MOL
REMARK 922        TOTAL FREE ENERGY PREDICTED BY IDOCK:   -5.36 KCAL/MOL
REMARK 923 INTER-LIGAND FREE ENERGY PREDICTED BY IDOCK:   -5.06 KCAL/MOL
REMARK 924 INTRA-LIGAND FREE ENERGY PREDICTED BY IDOCK:   -0.30 KCAL/MOL
REMARK 927      BINDING AFFINITY PREDICTED BY RF-SCORE:    0.00 PKD
ROOT
HETATM    1  O   UNL     1      -9.777   8.311  73.293  1.00  0.00    -0.227 OA 
HETATM    2  C   UNL     1     -10.668   7.296  73.237  1.00  0.00    -0.383 C  
HETATM    3  C   UNL     1     -11.690   7.356  72.112  1.00  0.00    -0.328 A  
HETATM    4  O   UNL     1     -10.600   6.350  74.012  1.00  0.00    -0.292 OA 
HETATM    5  C   UNL     1     -11.177   6.596  70.860  1.00  0.00    -0.352 A  
HETATM    6  C   UNL     1     -11.058   7.616  69.708  1.00  0.00    -0.106 A  
HETATM    7  N   UNL     1     -11.584   8.839  70.280  1.00  0.00    -0.100 NA 
HETATM    8  C   UNL     1     -11.935   8.725  71.591  1.00  0.00    -0.332 A  
HETATM    9  C   UNL     1     -12.432   9.928  72.014  1.00  0.00    -0.353 A  
HETATM   10  C   UNL     1     -12.296  10.809  70.904  1.00  0.00    -0.497 A  
HETATM   11  C   UNL     1     -11.723  10.119  69.838  1.00  0.00    -0.179 A  
ENDROOT
BRANCH  11  12
HETATM   12  C   UNL     1     -11.369  10.585  68.507  1.00  0.00    -0.257 C  
HETATM   13  O   UNL     1     -12.123  11.286  67.833  1.00  0.00    -0.634 OA 
BRANCH  12  14
HETATM   14  C   UNL     1     -10.064  10.176  67.908  1.00  0.00    -0.207 A  
HETATM   15  C   UNL     1      -8.868  10.533  68.546  1.00  0.00    -0.144 A  
HETATM   16  C   UNL     1      -7.637  10.227  67.955  1.00  0.00    -0.089 A  
HETATM   17  C   UNL     1      -7.596   9.574  66.724  1.00  0.00    -0.098 A  
HETATM   18  C   UNL     1      -8.781   9.212  66.085  1.00  0.00    -0.169 A  
HETATM   19  C   UNL     1     -10.012   9.514  66.673  1.00  0.00    -0.314 A  
ENDBRANCH  12  14
ENDBRANCH  11  12
TORSDOF 2
ENDMDL
MODEL      127
REMARK 921   NORMALIZED FREE ENERGY PREDICTED BY IDOCK:   -4.55 KCAL/MOL
REMARK 922        TOTAL FREE ENERGY PREDICTED BY IDOCK:   -5.35 KCAL/MOL
REMARK 923 INTER-LIGAND FREE ENERGY PREDICTED BY IDOCK:   -4.85 KCAL/MOL
REMARK 924 INTRA-LIGAND FREE ENERGY PREDICTED BY IDOCK:   -0.49 KCAL/MOL
REMARK 927      BINDING AFFINITY PREDICTED BY RF-SCORE:    0.00 PKD
ROOT
HETATM    1  O   UNL     1      -7.735   6.970  66.984  1.00  0.00    -0.103 OA 
HETATM    2  C   UNL     1      -8.497   7.546  66.027  1.00  0.00    -0.148 C  
HETATM    3  C   UNL     1      -9.876   8.022  66.456  1.00  0.00    -0.289 A  
HETATM    4  O   UNL     1      -8.061   7.732  64.897  1.00  0.00    -0.136 OA 
HETATM    5  C   UNL     1      -9.831   9.506  66.910  1.00  0.00    -0.262 A  
HETATM    6  C   UNL     1     -10.247   9.555  68.394  1.00  0.00    -0.194 A  
HETATM    7  N   UNL     1     -10.604   8.182  68.694  1.00  0.00    -0.159 NA 
HETATM    8  C   UNL     1     -10.410   7.325  67.654  1.00  0.00    -0.227 A  
HETATM    9  C   UNL     1     -10.796   6.073  68.046  1.00  0.00    -0.374 A  
HETATM   10  C   UNL     1     -11.170   6.198  69.414  1.00  0.00    -0.466 A  
HETATM   11  C   UNL     1     -11.002   7.521  69.816  1.00  0.00    -0.184 A  
ENDROOT
BRANCH  11  12
HETATM   12  C   UNL     1     -11.228   8.138  71.112  1.00  0.00    -0.257 C  
HETATM   13  O   UNL     1     -12.158   8.919  71.317  1.00  0.00    -0.294 OA 
BRANCH  12  14
HETATM   14  C   UNL     1     -10.286   7.855  72.235  1.00  0.00    -0.302 A  
HETATM   15  C   UNL     1     -10.737   7.138  73.352  1.00  0.00    -0.410 A  
HETATM   16  C   UNL     1      -9.889   6.936  74.447  1.00  0.00    -0.252 A  
HETATM   17  C   UNL     1      -8.596   7.455  74.435  1.00  0.00    -0.249 A  
HETATM   18  C   UNL     1      -8.139   8.166  73.326  1.00  0.00    -0.246 A  
HETATM   19  C   UNL     1      -8.981   8.370  72.230  1.00  0.00    -0.303 A  
ENDBRANCH  12  14
ENDBRANCH  11  12
TORSDOF 2
ENDMDL
MODEL      128
REMARK 921   NORMALIZED FREE ENERGY PREDICTED BY IDOCK:   -4.49 KCAL/MOL
REMARK 922        TOTAL FREE ENERGY PREDICTED BY IDOCK:   -5.28 KCAL/MOL
REMARK 923 INTER-LIGAND FREE ENERGY PREDICTED BY IDOCK:   -4.81 KCAL/MOL
REMARK 924 INTRA-LIGAND FREE ENERGY PREDICTED BY IDOCK:   -0.47 KCAL/MOL
REMARK 927      BINDING AFFINITY PREDICTED BY RF-SCORE:    0.00 PKD
ROOT
HETATM    1  O   UNL     1     -12.645   6.616  70.674  1.00  0.00    -0.223 OA 
HETATM    2  C   UNL     1     -11.558   6.577  71.477  1.00  0.00    -0.315 C  
HETATM    3  C   UNL     1     -10.466   7.594  71.187  1.00  0.00    -0.220 A  
HETATM    4  O   UNL     1     -11.501   5.806  72.428  1.00  0.00    -0.293 OA 
HETATM    5  C   UNL     1     -10.680   8.886  72.021  1.00  0.00    -0.389 A  
HETATM    6  C   UNL     1     -10.897  10.051  71.033  1.00  0.00    -0.116 A  
HETATM    7  N   UNL     1     -10.701   9.438  69.734  1.00  0.00    -0.228 NA 
HETATM    8  C   UNL     1     -10.465   8.097  69.790  1.00  0.00    -0.227 A  
HETATM    9  C   UNL     1     -10.278   7.636  68.516  1.00  0.00    -0.220 A  
HETATM   10  C   UNL     1     -10.486   8.760  67.667  1.00  0.00    -0.310 A  
HETATM   11  C   UNL     1     -10.793   9.873  68.447  1.00  0.00    -0.221 A  
ENDROOT
BRANCH  11  12
HETATM   12  C   UNL     1     -11.104  11.235  68.047  1.00  0.00    -0.266 C  
HETATM   13  O   UNL     1     -12.160  11.533  67.490  1.00  0.00    -0.614 OA 
BRANCH  12  14
HETATM   14  C   UNL     1     -10.100  12.316  68.279  1.00  0.00    -0.218 A  
HETATM   15  C   UNL     1     -10.539  13.620  68.550  1.00  0.00    -0.259 A  
HETATM   16  C   UNL     1      -9.612  14.659  68.688  1.00  0.00    -0.219 A  
HETATM   17  C   UNL     1      -8.249  14.403  68.548  1.00  0.00    -0.151 A  
HETATM   18  C   UNL     1      -7.805  13.109  68.283  1.00  0.00    -0.143 A  
HETATM   19  C   UNL     1      -8.727  12.068  68.145  1.00  0.00    -0.177 A  
ENDBRANCH  12  14
ENDBRANCH  11  12
TORSDOF 2
ENDMDL
MODEL      129
REMARK 921   NORMALIZED FREE ENERGY PREDICTED BY IDOCK:   -4.49 KCAL/MOL
REMARK 922        TOTAL FREE ENERGY PREDICTED BY IDOCK:   -5.28 KCAL/MOL
REMARK 923 INTER-LIGAND FREE ENERGY PREDICTED BY IDOCK:   -4.80 KCAL/MOL
REMARK 924 INTRA-LIGAND FREE ENERGY PREDICTED BY IDOCK:   -0.48 KCAL/MOL
REMARK 927      BINDING AFFINITY PREDICTED BY RF-SCORE:    0.00 PKD
ROOT
HETATM    1  O   UNL     1      -7.056   7.041  67.344  1.00  0.00    -0.082 OA 
HETATM    2  C   UNL     1      -7.688   6.169  68.161  1.00  0.00    -0.103 C  
HETATM    3  C   UNL     1      -8.966   6.665  68.821  1.00  0.00    -0.125 A  
HETATM    4  O   UNL     1      -7.281   5.021  68.297  1.00  0.00    -0.061 OA 
HETATM    5  C   UNL     1     -10.205   6.310  67.956  1.00  0.00    -0.205 A  
HETATM    6  C   UNL     1     -10.876   7.634  67.535  1.00  0.00    -0.135 A  
HETATM    7  N   UNL     1     -10.102   8.645  68.227  1.00  0.00    -0.185 NA 
HETATM    8  C   UNL     1      -9.052   8.142  68.935  1.00  0.00    -0.147 A  
HETATM    9  C   UNL     1      -8.411   9.179  69.556  1.00  0.00    -0.128 A  
HETATM   10  C   UNL     1      -9.086  10.357  69.128  1.00  0.00    -0.197 A  
HETATM   11  C   UNL     1     -10.117  10.006  68.260  1.00  0.00    -0.158 A  
ENDROOT
BRANCH  11  12
HETATM   12  C   UNL     1     -11.067  10.847  67.551  1.00  0.00    -0.310 C  
HETATM   13  O   UNL     1     -12.142  11.187  68.045  1.00  0.00    -0.635 OA 
BRANCH  12  14
HETATM   14  C   UNL     1     -10.760  11.290  66.159  1.00  0.00    -0.307 A  
HETATM   15  C   UNL     1     -11.173  12.559  65.731  1.00  0.00    -0.356 A  
HETATM   16  C   UNL     1     -10.965  12.957  64.405  1.00  0.00    -0.400 A  
HETATM   17  C   UNL     1     -10.353  12.088  63.503  1.00  0.00    -0.492 A  
HETATM   18  C   UNL     1      -9.936  10.825  63.922  1.00  0.00    -0.404 A  
HETATM   19  C   UNL     1     -10.141  10.425  65.245  1.00  0.00    -0.370 A  
ENDBRANCH  12  14
ENDBRANCH  11  12
TORSDOF 2
ENDMDL
MODEL      130
REMARK 921   NORMALIZED FREE ENERGY PREDICTED BY IDOCK:   -4.49 KCAL/MOL
REMARK 922        TOTAL FREE ENERGY PREDICTED BY IDOCK:   -5.28 KCAL/MOL
REMARK 923 INTER-LIGAND FREE ENERGY PREDICTED BY IDOCK:   -4.83 KCAL/MOL
REMARK 924 INTRA-LIGAND FREE ENERGY PREDICTED BY IDOCK:   -0.45 KCAL/MOL
REMARK 927      BINDING AFFINITY PREDICTED BY RF-SCORE:    0.00 PKD
ROOT
HETATM    1  O   UNL     1      -8.019  10.122  69.860  1.00  0.00    -0.169 OA 
HETATM    2  C   UNL     1      -7.719   9.670  68.622  1.00  0.00    -0.080 C  
HETATM    3  C   UNL     1      -8.596  10.176  67.487  1.00  0.00    -0.118 A  
HETATM    4  O   UNL     1      -6.746   8.950  68.429  1.00  0.00    -0.059 OA 
HETATM    5  C   UNL     1      -7.993  11.459  66.854  1.00  0.00    -0.158 A  
HETATM    6  C   UNL     1      -9.007  12.603  67.059  1.00  0.00    -0.216 A  
HETATM    7  N   UNL     1     -10.144  11.946  67.673  1.00  0.00    -0.189 NA 
HETATM    8  C   UNL     1      -9.945  10.621  67.919  1.00  0.00    -0.166 A  
HETATM    9  C   UNL     1     -11.083  10.108  68.477  1.00  0.00    -0.266 A  
HETATM   10  C   UNL     1     -11.968  11.213  68.628  1.00  0.00    -0.289 A  
HETATM   11  C   UNL     1     -11.344  12.367  68.158  1.00  0.00    -0.291 A  
ENDROOT
BRANCH  11  12
HETATM   12  C   UNL     1     -11.827  13.737  68.117  1.00  0.00    -0.376 C  
HETATM   13  O   UNL     1     -12.209  14.270  67.075  1.00  0.00    -0.424 OA 
BRANCH  12  14
HETATM   14  C   UNL     1     -11.830  14.553  69.367  1.00  0.00    -0.367 A  
HETATM   15  C   UNL     1     -10.945  15.633  69.489  1.00  0.00    -0.281 A  
HETATM   16  C   UNL     1     -10.878  16.356  70.686  1.00  0.00     0.021 A  
HETATM   17  C   UNL     1     -11.687  15.999  71.764  1.00  0.00    -0.593 A  
HETATM   18  C   UNL     1     -12.572  14.928  71.649  1.00  0.00    -0.396 A  
HETATM   19  C   UNL     1     -12.643  14.204  70.456  1.00  0.00    -0.410 A  
ENDBRANCH  12  14
ENDBRANCH  11  12
TORSDOF 2
ENDMDL
MODEL      131
REMARK 921   NORMALIZED FREE ENERGY PREDICTED BY IDOCK:   -4.48 KCAL/MOL
REMARK 922        TOTAL FREE ENERGY PREDICTED BY IDOCK:   -5.28 KCAL/MOL
REMARK 923 INTER-LIGAND FREE ENERGY PREDICTED BY IDOCK:   -4.76 KCAL/MOL
REMARK 924 INTRA-LIGAND FREE ENERGY PREDICTED BY IDOCK:   -0.52 KCAL/MOL
REMARK 927      BINDING AFFINITY PREDICTED BY RF-SCORE:    0.00 PKD
ROOT
HETATM    1  O   UNL     1     -12.484  12.228  65.155  1.00  0.00    -0.563 OA 
HETATM    2  C   UNL     1     -12.593  13.465  65.690  1.00  0.00    -0.438 C  
HETATM    3  C   UNL     1     -11.770  13.735  66.940  1.00  0.00    -0.424 A  
HETATM    4  O   UNL     1     -13.265  14.333  65.146  1.00  0.00    -0.686 OA 
HETATM    5  C   UNL     1     -10.384  14.329  66.571  1.00  0.00    -0.278 A  
HETATM    6  C   UNL     1      -9.306  13.341  67.062  1.00  0.00    -0.242 A  
HETATM    7  N   UNL     1     -10.067  12.322  67.758  1.00  0.00    -0.197 NA 
HETATM    8  C   UNL     1     -11.415  12.513  67.705  1.00  0.00    -0.321 A  
HETATM    9  C   UNL     1     -12.023  11.508  68.406  1.00  0.00    -0.268 A  
HETATM   10  C   UNL     1     -10.972  10.647  68.831  1.00  0.00    -0.296 A  
HETATM   11  C   UNL     1      -9.754  11.151  68.378  1.00  0.00    -0.191 A  
ENDROOT
BRANCH  11  12
HETATM   12  C   UNL     1      -8.409  10.624  68.537  1.00  0.00    -0.130 C  
HETATM   13  O   UNL     1      -7.601  11.109  69.328  1.00  0.00    -0.121 OA 
BRANCH  12  14
HETATM   14  C   UNL     1      -7.964   9.478  67.689  1.00  0.00    -0.106 A  
HETATM   15  C   UNL     1      -7.539   9.716  66.375  1.00  0.00    -0.101 A  
HETATM   16  C   UNL     1      -7.197   8.644  65.542  1.00  0.00    -0.084 A  
HETATM   17  C   UNL     1      -7.286   7.336  66.015  1.00  0.00    -0.074 A  
HETATM   18  C   UNL     1      -7.704   7.092  67.322  1.00  0.00    -0.109 A  
HETATM   19  C   UNL     1      -8.046   8.159  68.157  1.00  0.00    -0.128 A  
ENDBRANCH  12  14
ENDBRANCH  11  12
TORSDOF 2
ENDMDL
MODEL      132
REMARK 921   NORMALIZED FREE ENERGY PREDICTED BY IDOCK:   -4.48 KCAL/MOL
REMARK 922        TOTAL FREE ENERGY PREDICTED BY IDOCK:   -5.27 KCAL/MOL
REMARK 923 INTER-LIGAND FREE ENERGY PREDICTED BY IDOCK:   -5.02 KCAL/MOL
REMARK 924 INTRA-LIGAND FREE ENERGY PREDICTED BY IDOCK:   -0.25 KCAL/MOL
REMARK 927      BINDING AFFINITY PREDICTED BY RF-SCORE:    0.00 PKD
ROOT
HETATM    1  O   UNL     1     -12.738  13.591  65.339  1.00  0.00    -0.540 OA 
HETATM    2  C   UNL     1     -11.997  13.594  64.208  1.00  0.00    -0.445 C  
HETATM    3  C   UNL     1     -10.616  12.962  64.303  1.00  0.00    -0.430 A  
HETATM    4  O   UNL     1     -12.452  14.021  63.153  1.00  0.00    -0.733 OA 
HETATM    5  C   UNL     1     -10.671  11.458  63.921  1.00  0.00    -0.462 A  
HETATM    6  C   UNL     1     -10.233  10.645  65.158  1.00  0.00    -0.299 A  
HETATM    7  N   UNL     1      -9.857  11.663  66.119  1.00  0.00    -0.216 NA 
HETATM    8  C   UNL     1     -10.057  12.936  65.678  1.00  0.00    -0.272 A  
HETATM    9  C   UNL     1      -9.652  13.802  66.655  1.00  0.00    -0.295 A  
HETATM   10  C   UNL     1      -9.258  12.985  67.752  1.00  0.00    -0.200 A  
HETATM   11  C   UNL     1      -9.435  11.646  67.413  1.00  0.00    -0.167 A  
ENDROOT
BRANCH  11  12
HETATM   12  C   UNL     1      -9.195  10.446  68.197  1.00  0.00    -0.145 C  
HETATM   13  O   UNL     1      -9.530  10.353  69.378  1.00  0.00    -0.216 OA 
BRANCH  12  14
HETATM   14  C   UNL     1      -8.484   9.290  67.574  1.00  0.00    -0.115 A  
HETATM   15  C   UNL     1      -9.055   8.011  67.639  1.00  0.00    -0.144 A  
HETATM   16  C   UNL     1      -8.362   6.906  67.131  1.00  0.00    -0.121 A  
HETATM   17  C   UNL     1      -7.098   7.072  66.567  1.00  0.00    -0.077 A  
HETATM   18  C   UNL     1      -6.526   8.341  66.495  1.00  0.00    -0.055 A  
HETATM   19  C   UNL     1      -7.214   9.448  67.000  1.00  0.00    -0.087 A  
ENDBRANCH  12  14
ENDBRANCH  11  12
TORSDOF 2
ENDMDL
MODEL      133
REMARK 921   NORMALIZED FREE ENERGY PREDICTED BY IDOCK:   -4.43 KCAL/MOL
REMARK 922        TOTAL FREE ENERGY PREDICTED BY IDOCK:   -5.22 KCAL/MOL
REMARK 923 INTER-LIGAND FREE ENERGY PREDICTED BY IDOCK:   -4.73 KCAL/MOL
REMARK 924 INTRA-LIGAND FREE ENERGY PREDICTED BY IDOCK:   -0.49 KCAL/MOL
REMARK 927      BINDING AFFINITY PREDICTED BY RF-SCORE:    0.00 PKD
ROOT
HETATM    1  O   UNL     1      -8.142  11.365  69.004  1.00  0.00    -0.106 OA 
HETATM    2  C   UNL     1      -7.043  11.608  68.254  1.00  0.00    -0.078 C  
HETATM    3  C   UNL     1      -6.965  12.976  67.593  1.00  0.00    -0.154 A  
HETATM    4  O   UNL     1      -6.134  10.790  68.179  1.00  0.00    -0.050 OA 
HETATM    5  C   UNL     1      -6.217  13.986  68.503  1.00  0.00    -0.093 A  
HETATM    6  C   UNL     1      -7.205  15.118  68.857  1.00  0.00    -0.133 A  
HETATM    7  N   UNL     1      -8.389  14.790  68.088  1.00  0.00    -0.138 NA 
HETATM    8  C   UNL     1      -8.285  13.625  67.390  1.00  0.00    -0.179 A  
HETATM    9  C   UNL     1      -9.447  13.430  66.695  1.00  0.00    -0.264 A  
HETATM   10  C   UNL     1     -10.299  14.509  67.065  1.00  0.00    -0.263 A  
HETATM   11  C   UNL     1      -9.634  15.329  67.974  1.00  0.00    -0.203 A  
ENDROOT
BRANCH  11  12
HETATM   12  C   UNL     1     -10.088  16.532  68.650  1.00  0.00    -0.255 C  
HETATM   13  O   UNL     1     -10.709  16.497  69.712  1.00  0.00    -0.328 OA 
BRANCH  12  14
HETATM   14  C   UNL     1      -9.834  17.866  68.027  1.00  0.00    -0.320 A  
HETATM   15  C   UNL     1     -10.778  18.407  67.144  1.00  0.00    -0.366 A  
HETATM   16  C   UNL     1     -10.517  19.616  66.489  1.00  0.00    -0.612 A  
HETATM   17  C   UNL     1      -9.312  20.282  66.707  1.00  0.00    -0.489 A  
HETATM   18  C   UNL     1      -8.370  19.752  67.587  1.00  0.00    -0.355 A  
HETATM   19  C   UNL     1      -8.627  18.546  68.243  1.00  0.00    -0.341 A  
ENDBRANCH  12  14
ENDBRANCH  11  12
TORSDOF 2
ENDMDL
MODEL      134
REMARK 921   NORMALIZED FREE ENERGY PREDICTED BY IDOCK:   -4.42 KCAL/MOL
REMARK 922        TOTAL FREE ENERGY PREDICTED BY IDOCK:   -5.20 KCAL/MOL
REMARK 923 INTER-LIGAND FREE ENERGY PREDICTED BY IDOCK:   -4.75 KCAL/MOL
REMARK 924 INTRA-LIGAND FREE ENERGY PREDICTED BY IDOCK:   -0.45 KCAL/MOL
REMARK 927      BINDING AFFINITY PREDICTED BY RF-SCORE:    0.00 PKD
ROOT
HETATM    1  O   UNL     1     -10.559   7.773  73.341  1.00  0.00    -0.348 OA 
HETATM    2  C   UNL     1      -9.364   7.143  73.384  1.00  0.00    -0.180 C  
HETATM    3  C   UNL     1      -8.720   6.821  72.044  1.00  0.00    -0.126 A  
HETATM    4  O   UNL     1      -8.808   6.913  74.452  1.00  0.00    -0.165 OA 
HETATM    5  C   UNL     1      -7.776   7.969  71.597  1.00  0.00    -0.100 A  
HETATM    6  C   UNL     1      -8.326   8.540  70.274  1.00  0.00    -0.125 A  
HETATM    7  N   UNL     1      -9.447   7.673  69.968  1.00  0.00    -0.161 NA 
HETATM    8  C   UNL     1      -9.684   6.727  70.919  1.00  0.00    -0.178 A  
HETATM    9  C   UNL     1     -10.744   5.962  70.515  1.00  0.00    -0.363 A  
HETATM   10  C   UNL     1     -11.191   6.541  69.293  1.00  0.00    -0.390 A  
HETATM   11  C   UNL     1     -10.391   7.640  68.988  1.00  0.00    -0.213 A  
ENDROOT
BRANCH  11  12
HETATM   12  C   UNL     1     -10.461   8.561  67.865  1.00  0.00    -0.201 C  
HETATM   13  O   UNL     1     -10.159   8.227  66.720  1.00  0.00    -0.257 OA 
BRANCH  12  14
HETATM   14  C   UNL     1     -10.874   9.977  68.101  1.00  0.00    -0.303 A  
HETATM   15  C   UNL     1     -10.609  10.946  67.123  1.00  0.00    -0.302 A  
HETATM   16  C   UNL     1     -10.916  12.290  67.364  1.00  0.00    -0.298 A  
HETATM   17  C   UNL     1     -11.479  12.671  68.580  1.00  0.00    -0.347 A  
HETATM   18  C   UNL     1     -11.750  11.712  69.556  1.00  0.00    -0.410 A  
HETATM   19  C   UNL     1     -11.446  10.369  69.320  1.00  0.00    -0.281 A  
ENDBRANCH  12  14
ENDBRANCH  11  12
TORSDOF 2
ENDMDL
MODEL      135
REMARK 921   NORMALIZED FREE ENERGY PREDICTED BY IDOCK:   -4.42 KCAL/MOL
REMARK 922        TOTAL FREE ENERGY PREDICTED BY IDOCK:   -5.20 KCAL/MOL
REMARK 923 INTER-LIGAND FREE ENERGY PREDICTED BY IDOCK:   -4.83 KCAL/MOL
REMARK 924 INTRA-LIGAND FREE ENERGY PREDICTED BY IDOCK:   -0.38 KCAL/MOL
REMARK 927      BINDING AFFINITY PREDICTED BY RF-SCORE:    0.00 PKD
ROOT
HETATM    1  O   UNL     1      -9.351   2.408  68.761  1.00  0.00    -0.157 OA 
HETATM    2  C   UNL     1      -8.145   2.983  68.555  1.00  0.00    -0.060 C  
HETATM    3  C   UNL     1      -8.010   4.439  68.975  1.00  0.00    -0.069 A  
HETATM    4  O   UNL     1      -7.201   2.336  68.119  1.00  0.00    -0.047 OA 
HETATM    5  C   UNL     1      -7.492   4.546  70.434  1.00  0.00    -0.050 A  
HETATM    6  C   UNL     1      -8.580   5.256  71.267  1.00  0.00    -0.128 A  
HETATM    7  N   UNL     1      -9.585   5.610  70.284  1.00  0.00    -0.163 NA 
HETATM    8  C   UNL     1      -9.299   5.175  69.025  1.00  0.00    -0.121 A  
HETATM    9  C   UNL     1     -10.301   5.581  68.188  1.00  0.00    -0.236 A  
HETATM   10  C   UNL     1     -11.257   6.229  69.020  1.00  0.00    -0.415 A  
HETATM   11  C   UNL     1     -10.811   6.199  70.340  1.00  0.00    -0.310 A  
ENDROOT
BRANCH  11  12
HETATM   12  C   UNL     1     -11.438   6.708  71.548  1.00  0.00    -0.297 C  
HETATM   13  O   UNL     1     -11.597   6.012  72.551  1.00  0.00    -0.295 OA 
BRANCH  12  14
HETATM   14  C   UNL     1     -11.948   8.111  71.577  1.00  0.00    -0.334 A  
HETATM   15  C   UNL     1     -13.237   8.368  72.064  1.00  0.00    -0.372 A  
HETATM   16  C   UNL     1     -13.759   9.666  72.021  1.00  0.00    -0.396 A  
HETATM   17  C   UNL     1     -13.002  10.706  71.485  1.00  0.00    -0.566 A  
HETATM   18  C   UNL     1     -11.718  10.459  71.002  1.00  0.00    -0.430 A  
HETATM   19  C   UNL     1     -11.192   9.166  71.044  1.00  0.00    -0.380 A  
ENDBRANCH  12  14
ENDBRANCH  11  12
TORSDOF 2
ENDMDL
MODEL      136
REMARK 921   NORMALIZED FREE ENERGY PREDICTED BY IDOCK:   -4.40 KCAL/MOL
REMARK 922        TOTAL FREE ENERGY PREDICTED BY IDOCK:   -5.18 KCAL/MOL
REMARK 923 INTER-LIGAND FREE ENERGY PREDICTED BY IDOCK:   -4.66 KCAL/MOL
REMARK 924 INTRA-LIGAND FREE ENERGY PREDICTED BY IDOCK:   -0.52 KCAL/MOL
REMARK 927      BINDING AFFINITY PREDICTED BY RF-SCORE:    0.00 PKD
ROOT
HETATM    1  O   UNL     1     -11.082  13.859  64.786  1.00  0.00    -0.348 OA 
HETATM    2  C   UNL     1     -11.894  13.124  65.579  1.00  0.00    -0.380 C  
HETATM    3  C   UNL     1     -11.337  12.734  66.940  1.00  0.00    -0.371 A  
HETATM    4  O   UNL     1     -13.039  12.853  65.236  1.00  0.00    -0.682 OA 
HETATM    5  C   UNL     1     -11.719  13.788  68.014  1.00  0.00    -0.390 A  
HETATM    6  C   UNL     1     -10.410  14.395  68.560  1.00  0.00    -0.248 A  
HETATM    7  N   UNL     1      -9.375  13.630  67.894  1.00  0.00    -0.199 NA 
HETATM    8  C   UNL     1      -9.854  12.718  67.003  1.00  0.00    -0.231 A  
HETATM    9  C   UNL     1      -8.794  12.048  66.455  1.00  0.00    -0.172 A  
HETATM   10  C   UNL     1      -7.631  12.655  67.008  1.00  0.00     0.006 A  
HETATM   11  C   UNL     1      -8.014  13.675  67.876  1.00  0.00    -0.161 A  
ENDROOT
BRANCH  11  12
HETATM   12  C   UNL     1      -7.199  14.589  68.659  1.00  0.00    -0.124 C  
HETATM   13  O   UNL     1      -6.713  14.273  69.745  1.00  0.00    -0.136 OA 
BRANCH  12  14
HETATM   14  C   UNL     1      -6.966  15.977  68.160  1.00  0.00    -0.129 A  
HETATM   15  C   UNL     1      -7.780  17.022  68.620  1.00  0.00    -0.251 A  
HETATM   16  C   UNL     1      -7.627  18.313  68.100  1.00  0.00    -0.278 A  
HETATM   17  C   UNL     1      -6.670  18.562  67.118  1.00  0.00    -0.207 A  
HETATM   18  C   UNL     1      -5.854  17.529  66.659  1.00  0.00    -0.226 A  
HETATM   19  C   UNL     1      -6.003  16.239  67.175  1.00  0.00    -0.128 A  
ENDBRANCH  12  14
ENDBRANCH  11  12
TORSDOF 2
ENDMDL
MODEL      137
REMARK 921   NORMALIZED FREE ENERGY PREDICTED BY IDOCK:   -4.37 KCAL/MOL
REMARK 922        TOTAL FREE ENERGY PREDICTED BY IDOCK:   -5.15 KCAL/MOL
REMARK 923 INTER-LIGAND FREE ENERGY PREDICTED BY IDOCK:   -4.62 KCAL/MOL
REMARK 924 INTRA-LIGAND FREE ENERGY PREDICTED BY IDOCK:   -0.52 KCAL/MOL
REMARK 927      BINDING AFFINITY PREDICTED BY RF-SCORE:    0.00 PKD
ROOT
HETATM    1  O   UNL     1      -8.439   9.020  64.459  1.00  0.00    -0.167 OA 
HETATM    2  C   UNL     1      -8.385   8.075  65.425  1.00  0.00    -0.153 C  
HETATM    3  C   UNL     1      -8.609   8.554  66.851  1.00  0.00    -0.121 A  
HETATM    4  O   UNL     1      -8.236   6.892  65.145  1.00  0.00    -0.134 OA 
HETATM    5  C   UNL     1     -10.109   8.455  67.237  1.00  0.00    -0.321 A  
HETATM    6  C   UNL     1     -10.608   9.882  67.547  1.00  0.00    -0.275 A  
HETATM    7  N   UNL     1      -9.411  10.692  67.440  1.00  0.00    -0.153 NA 
HETATM    8  C   UNL     1      -8.306   9.992  67.060  1.00  0.00    -0.121 A  
HETATM    9  C   UNL     1      -7.243  10.852  67.011  1.00  0.00    -0.114 A  
HETATM   10  C   UNL     1      -7.776  12.137  67.313  1.00  0.00    -0.168 A  
HETATM   11  C   UNL     1      -9.147  12.024  67.536  1.00  0.00    -0.177 A  
ENDROOT
BRANCH  11  12
HETATM   12  C   UNL     1     -10.127  13.049  67.855  1.00  0.00    -0.235 C  
HETATM   13  O   UNL     1     -10.449  13.316  69.012  1.00  0.00    -0.151 OA 
BRANCH  12  14
HETATM   14  C   UNL     1     -10.806  13.786  66.747  1.00  0.00    -0.284 A  
HETATM   15  C   UNL     1     -12.103  13.416  66.365  1.00  0.00    -0.464 A  
HETATM   16  C   UNL     1     -12.721  14.042  65.276  1.00  0.00    -0.468 A  
HETATM   17  C   UNL     1     -12.044  15.030  64.563  1.00  0.00    -0.373 A  
HETATM   18  C   UNL     1     -10.755  15.406  64.939  1.00  0.00    -0.416 A  
HETATM   19  C   UNL     1     -10.135  14.784  66.026  1.00  0.00    -0.327 A  
ENDBRANCH  12  14
ENDBRANCH  11  12
TORSDOF 2
ENDMDL
MODEL      138
REMARK 921   NORMALIZED FREE ENERGY PREDICTED BY IDOCK:   -4.35 KCAL/MOL
REMARK 922        TOTAL FREE ENERGY PREDICTED BY IDOCK:   -5.12 KCAL/MOL
REMARK 923 INTER-LIGAND FREE ENERGY PREDICTED BY IDOCK:   -4.67 KCAL/MOL
REMARK 924 INTRA-LIGAND FREE ENERGY PREDICTED BY IDOCK:   -0.45 KCAL/MOL
REMARK 927      BINDING AFFINITY PREDICTED BY RF-SCORE:    0.00 PKD
ROOT
HETATM    1  O   UNL     1     -10.395  17.842  69.189  1.00  0.00    -0.350 OA 
HETATM    2  C   UNL     1      -9.953  18.560  68.133  1.00  0.00    -0.361 C  
HETATM    3  C   UNL     1      -8.981  17.857  67.197  1.00  0.00    -0.252 A  
HETATM    4  O   UNL     1     -10.376  19.689  67.913  1.00  0.00    -0.416 OA 
HETATM    5  C   UNL     1      -9.741  17.157  66.038  1.00  0.00    -0.213 A  
HETATM    6  C   UNL     1      -9.462  15.643  66.143  1.00  0.00    -0.341 A  
HETATM    7  N   UNL     1      -8.514  15.546  67.235  1.00  0.00    -0.178 NA 
HETATM    8  C   UNL     1      -8.236  16.740  67.828  1.00  0.00    -0.183 A  
HETATM    9  C   UNL     1      -7.323  16.527  68.825  1.00  0.00    -0.208 A  
HETATM   10  C   UNL     1      -7.113  15.119  68.857  1.00  0.00    -0.125 A  
HETATM   11  C   UNL     1      -7.902  14.515  67.880  1.00  0.00    -0.147 A  
ENDROOT
BRANCH  11  12
HETATM   12  C   UNL     1      -8.050  13.110  67.538  1.00  0.00    -0.181 C  
HETATM   13  O   UNL     1      -7.140  12.457  67.029  1.00  0.00    -0.116 OA 
BRANCH  12  14
HETATM   14  C   UNL     1      -9.360  12.432  67.770  1.00  0.00    -0.196 A  
HETATM   15  C   UNL     1     -10.260  12.968  68.701  1.00  0.00    -0.173 A  
HETATM   16  C   UNL     1     -11.455  12.299  68.989  1.00  0.00    -0.349 A  
HETATM   17  C   UNL     1     -11.750  11.092  68.356  1.00  0.00    -0.329 A  
HETATM   18  C   UNL     1     -10.862  10.555  67.426  1.00  0.00    -0.349 A  
HETATM   19  C   UNL     1      -9.668  11.220  67.135  1.00  0.00    -0.201 A  
ENDBRANCH  12  14
ENDBRANCH  11  12
TORSDOF 2
ENDMDL
MODEL      139
REMARK 921   NORMALIZED FREE ENERGY PREDICTED BY IDOCK:   -4.34 KCAL/MOL
REMARK 922        TOTAL FREE ENERGY PREDICTED BY IDOCK:   -5.12 KCAL/MOL
REMARK 923 INTER-LIGAND FREE ENERGY PREDICTED BY IDOCK:   -4.94 KCAL/MOL
REMARK 924 INTRA-LIGAND FREE ENERGY PREDICTED BY IDOCK:   -0.18 KCAL/MOL
REMARK 927      BINDING AFFINITY PREDICTED BY RF-SCORE:    0.00 PKD
ROOT
HETATM    1  O   UNL     1     -11.712  11.562  67.409  1.00  0.00    -0.567 OA 
HETATM    2  C   UNL     1     -10.573  11.454  66.690  1.00  0.00    -0.258 C  
HETATM    3  C   UNL     1      -9.630  10.326  67.083  1.00  0.00    -0.199 A  
HETATM    4  O   UNL     1     -10.357  12.186  65.731  1.00  0.00    -0.243 OA 
HETATM    5  C   UNL     1      -9.932   9.044  66.261  1.00  0.00    -0.352 A  
HETATM    6  C   UNL     1     -10.355   7.941  67.253  1.00  0.00    -0.307 A  
HETATM    7  N   UNL     1     -10.184   8.565  68.550  1.00  0.00    -0.195 NA 
HETATM    8  C   UNL     1      -9.790   9.867  68.485  1.00  0.00    -0.156 A  
HETATM    9  C   UNL     1      -9.645  10.341  69.760  1.00  0.00    -0.146 A  
HETATM   10  C   UNL     1     -10.043   9.273  70.613  1.00  0.00    -0.339 A  
HETATM   11  C   UNL     1     -10.420   8.180  69.835  1.00  0.00    -0.226 A  
ENDROOT
BRANCH  11  12
HETATM   12  C   UNL     1     -10.916   6.875  70.238  1.00  0.00    -0.281 C  
HETATM   13  O   UNL     1     -11.752   6.256  69.580  1.00  0.00    -0.360 OA 
BRANCH  12  14
HETATM   14  C   UNL     1     -10.432   6.266  71.513  1.00  0.00    -0.266 A  
HETATM   15  C   UNL     1     -10.932   6.736  72.735  1.00  0.00    -0.303 A  
HETATM   16  C   UNL     1     -10.429   6.233  73.941  1.00  0.00    -0.292 A  
HETATM   17  C   UNL     1      -9.422   5.269  73.929  1.00  0.00    -0.134 A  
HETATM   18  C   UNL     1      -8.923   4.794  72.717  1.00  0.00    -0.127 A  
HETATM   19  C   UNL     1      -9.423   5.293  71.512  1.00  0.00    -0.191 A  
ENDBRANCH  12  14
ENDBRANCH  11  12
TORSDOF 2
ENDMDL
MODEL      140
REMARK 921   NORMALIZED FREE ENERGY PREDICTED BY IDOCK:   -4.34 KCAL/MOL
REMARK 922        TOTAL FREE ENERGY PREDICTED BY IDOCK:   -5.11 KCAL/MOL
REMARK 923 INTER-LIGAND FREE ENERGY PREDICTED BY IDOCK:   -4.62 KCAL/MOL
REMARK 924 INTRA-LIGAND FREE ENERGY PREDICTED BY IDOCK:   -0.50 KCAL/MOL
REMARK 927      BINDING AFFINITY PREDICTED BY RF-SCORE:    0.00 PKD
ROOT
HETATM    1  O   UNL     1      -7.414   5.332  67.591  1.00  0.00    -0.081 OA 
HETATM    2  C   UNL     1      -7.846   4.803  66.424  1.00  0.00    -0.099 C  
HETATM    3  C   UNL     1      -8.708   5.704  65.553  1.00  0.00    -0.151 A  
HETATM    4  O   UNL     1      -7.496   3.684  66.068  1.00  0.00    -0.075 OA 
HETATM    5  C   UNL     1      -7.834   6.492  64.541  1.00  0.00    -0.112 A  
HETATM    6  C   UNL     1      -8.006   7.995  64.846  1.00  0.00    -0.138 A  
HETATM    7  N   UNL     1      -9.005   8.018  65.895  1.00  0.00    -0.163 NA 
HETATM    8  C   UNL     1      -9.405   6.780  66.300  1.00  0.00    -0.100 A  
HETATM    9  C   UNL     1     -10.355   6.928  67.273  1.00  0.00    -0.320 A  
HETATM   10  C   UNL     1     -10.463   8.330  67.493  1.00  0.00    -0.325 A  
HETATM   11  C   UNL     1      -9.577   8.997  66.650  1.00  0.00    -0.213 A  
ENDROOT
BRANCH  11  12
HETATM   12  C   UNL     1      -9.307  10.419  66.517  1.00  0.00    -0.163 C  
HETATM   13  O   UNL     1      -8.367  10.967  67.092  1.00  0.00    -0.126 OA 
BRANCH  12  14
HETATM   14  C   UNL     1     -10.215  11.265  65.687  1.00  0.00    -0.304 A  
HETATM   15  C   UNL     1     -11.075  12.176  66.316  1.00  0.00    -0.353 A  
HETATM   16  C   UNL     1     -11.990  12.917  65.558  1.00  0.00    -0.482 A  
HETATM   17  C   UNL     1     -12.054  12.744  64.176  1.00  0.00    -0.513 A  
HETATM   18  C   UNL     1     -11.199  11.843  63.544  1.00  0.00    -0.501 A  
HETATM   19  C   UNL     1     -10.284  11.102  64.296  1.00  0.00    -0.399 A  
ENDBRANCH  12  14
ENDBRANCH  11  12
TORSDOF 2
ENDMDL
MODEL      141
REMARK 921   NORMALIZED FREE ENERGY PREDICTED BY IDOCK:   -4.33 KCAL/MOL
REMARK 922        TOTAL FREE ENERGY PREDICTED BY IDOCK:   -5.11 KCAL/MOL
REMARK 923 INTER-LIGAND FREE ENERGY PREDICTED BY IDOCK:   -4.59 KCAL/MOL
REMARK 924 INTRA-LIGAND FREE ENERGY PREDICTED BY IDOCK:   -0.52 KCAL/MOL
REMARK 927      BINDING AFFINITY PREDICTED BY RF-SCORE:    0.00 PKD
ROOT
HETATM    1  O   UNL     1     -10.480  15.278  70.763  1.00  0.00    -0.176 OA 
HETATM    2  C   UNL     1     -11.757  14.951  71.064  1.00  0.00    -0.327 C  
HETATM    3  C   UNL     1     -12.434  13.951  70.139  1.00  0.00    -0.355 A  
HETATM    4  O   UNL     1     -12.303  15.390  72.069  1.00  0.00    -0.316 OA 
HETATM    5  C   UNL     1     -12.243  12.502  70.661  1.00  0.00    -0.365 A  
HETATM    6  C   UNL     1     -11.452  11.719  69.592  1.00  0.00    -0.270 A  
HETATM    7  N   UNL     1     -11.320  12.668  68.504  1.00  0.00    -0.272 NA 
HETATM    8  C   UNL     1     -11.847  13.894  68.777  1.00  0.00    -0.361 A  
HETATM    9  C   UNL     1     -11.681  14.692  67.679  1.00  0.00    -0.389 A  
HETATM   10  C   UNL     1     -10.956  13.905  66.740  1.00  0.00    -0.301 A  
HETATM   11  C   UNL     1     -10.700  12.652  67.292  1.00  0.00    -0.237 A  
ENDROOT
BRANCH  11  12
HETATM   12  C   UNL     1      -9.983  11.517  66.736  1.00  0.00    -0.208 C  
HETATM   13  O   UNL     1     -10.561  10.546  66.249  1.00  0.00    -0.212 OA 
BRANCH  12  14
HETATM   14  C   UNL     1      -8.490  11.495  66.786  1.00  0.00    -0.168 A  
HETATM   15  C   UNL     1      -7.819  12.292  67.724  1.00  0.00    -0.151 A  
HETATM   16  C   UNL     1      -6.420  12.344  67.729  1.00  0.00    -0.115 A  
HETATM   17  C   UNL     1      -5.690  11.611  66.795  1.00  0.00    -0.139 A  
HETATM   18  C   UNL     1      -6.351  10.813  65.862  1.00  0.00    -0.109 A  
HETATM   19  C   UNL     1      -7.747  10.757  65.854  1.00  0.00    -0.118 A  
ENDBRANCH  12  14
ENDBRANCH  11  12
TORSDOF 2
ENDMDL
MODEL      142
REMARK 921   NORMALIZED FREE ENERGY PREDICTED BY IDOCK:   -4.32 KCAL/MOL
REMARK 922        TOTAL FREE ENERGY PREDICTED BY IDOCK:   -5.09 KCAL/MOL
REMARK 923 INTER-LIGAND FREE ENERGY PREDICTED BY IDOCK:   -4.57 KCAL/MOL
REMARK 924 INTRA-LIGAND FREE ENERGY PREDICTED BY IDOCK:   -0.53 KCAL/MOL
REMARK 927      BINDING AFFINITY PREDICTED BY RF-SCORE:    0.00 PKD
ROOT
HETATM    1  O   UNL     1      -9.404   6.705  66.513  1.00  0.00    -0.157 OA 
HETATM    2  C   UNL     1      -9.302   6.524  67.849  1.00  0.00    -0.111 C  
HETATM    3  C   UNL     1      -9.117   7.778  68.689  1.00  0.00    -0.136 A  
HETATM    4  O   UNL     1      -9.426   5.411  68.348  1.00  0.00    -0.114 OA 
HETATM    5  C   UNL     1     -10.488   8.334  69.158  1.00  0.00    -0.217 A  
HETATM    6  C   UNL     1     -10.651   9.746  68.557  1.00  0.00    -0.221 A  
HETATM    7  N   UNL     1      -9.386   9.981  67.890  1.00  0.00    -0.140 NA 
HETATM    8  C   UNL     1      -8.531   8.922  67.946  1.00  0.00    -0.125 A  
HETATM    9  C   UNL     1      -7.373   9.264  67.304  1.00  0.00    -0.091 A  
HETATM   10  C   UNL     1      -7.595  10.572  66.786  1.00  0.00    -0.115 A  
HETATM   11  C   UNL     1      -8.880  10.988  67.127  1.00  0.00    -0.140 A  
ENDROOT
BRANCH  11  12
HETATM   12  C   UNL     1      -9.572  12.227  66.814  1.00  0.00    -0.218 C  
HETATM   13  O   UNL     1      -9.444  13.244  67.497  1.00  0.00    -0.206 OA 
BRANCH  12  14
HETATM   14  C   UNL     1     -10.506  12.274  65.650  1.00  0.00    -0.293 A  
HETATM   15  C   UNL     1     -11.866  12.538  65.865  1.00  0.00    -0.489 A  
HETATM   16  C   UNL     1     -12.767  12.503  64.794  1.00  0.00    -0.415 A  
HETATM   17  C   UNL     1     -12.315  12.198  63.511  1.00  0.00    -0.682 A  
HETATM   18  C   UNL     1     -10.964  11.939  63.289  1.00  0.00    -0.399 A  
HETATM   19  C   UNL     1     -10.061  11.973  64.355  1.00  0.00    -0.298 A  
ENDBRANCH  12  14
ENDBRANCH  11  12
TORSDOF 2
ENDMDL
MODEL      143
REMARK 921   NORMALIZED FREE ENERGY PREDICTED BY IDOCK:   -4.29 KCAL/MOL
REMARK 922        TOTAL FREE ENERGY PREDICTED BY IDOCK:   -5.06 KCAL/MOL
REMARK 923 INTER-LIGAND FREE ENERGY PREDICTED BY IDOCK:   -4.62 KCAL/MOL
REMARK 924 INTRA-LIGAND FREE ENERGY PREDICTED BY IDOCK:   -0.44 KCAL/MOL
REMARK 927      BINDING AFFINITY PREDICTED BY RF-SCORE:    0.00 PKD
ROOT
HETATM    1  O   UNL     1      -7.064   6.795  68.369  1.00  0.00    -0.077 OA 
HETATM    2  C   UNL     1      -6.951   5.465  68.582  1.00  0.00    -0.060 C  
HETATM    3  C   UNL     1      -7.904   4.860  69.602  1.00  0.00    -0.067 A  
HETATM    4  O   UNL     1      -6.169   4.783  67.930  1.00  0.00    -0.033 OA 
HETATM    5  C   UNL     1      -9.198   4.350  68.912  1.00  0.00    -0.199 A  
HETATM    6  C   UNL     1     -10.383   5.150  69.491  1.00  0.00    -0.222 A  
HETATM    7  N   UNL     1      -9.772   5.971  70.518  1.00  0.00    -0.171 NA 
HETATM    8  C   UNL     1      -8.419   5.833  70.598  1.00  0.00    -0.128 A  
HETATM    9  C   UNL     1      -7.960   6.636  71.605  1.00  0.00    -0.103 A  
HETATM   10  C   UNL     1      -9.103   7.332  72.091  1.00  0.00    -0.149 A  
HETATM   11  C   UNL     1     -10.224   6.934  71.367  1.00  0.00    -0.197 A  
ENDROOT
BRANCH  11  12
HETATM   12  C   UNL     1     -11.607   7.369  71.475  1.00  0.00    -0.275 C  
HETATM   13  O   UNL     1     -12.523   6.594  71.747  1.00  0.00    -0.352 OA 
BRANCH  12  14
HETATM   14  C   UNL     1     -11.949   8.799  71.211  1.00  0.00    -0.353 A  
HETATM   15  C   UNL     1     -11.266   9.499  70.207  1.00  0.00    -0.307 A  
HETATM   16  C   UNL     1     -11.518  10.860  70.003  1.00  0.00    -0.411 A  
HETATM   17  C   UNL     1     -12.445  11.527  70.803  1.00  0.00    -0.444 A  
HETATM   18  C   UNL     1     -13.132  10.836  71.800  1.00  0.00    -0.573 A  
HETATM   19  C   UNL     1     -12.883   9.477  72.007  1.00  0.00    -0.499 A  
ENDBRANCH  12  14
ENDBRANCH  11  12
TORSDOF 2
ENDMDL
MODEL      144
REMARK 921   NORMALIZED FREE ENERGY PREDICTED BY IDOCK:   -4.28 KCAL/MOL
REMARK 922        TOTAL FREE ENERGY PREDICTED BY IDOCK:   -5.05 KCAL/MOL
REMARK 923 INTER-LIGAND FREE ENERGY PREDICTED BY IDOCK:   -4.87 KCAL/MOL
REMARK 924 INTRA-LIGAND FREE ENERGY PREDICTED BY IDOCK:   -0.18 KCAL/MOL
REMARK 927      BINDING AFFINITY PREDICTED BY RF-SCORE:    0.00 PKD
ROOT
HETATM    1  O   UNL     1      -9.678  13.220  67.006  1.00  0.00    -0.226 OA 
HETATM    2  C   UNL     1     -10.507  13.128  68.069  1.00  0.00    -0.239 C  
HETATM    3  C   UNL     1     -10.495  14.301  69.038  1.00  0.00    -0.212 A  
HETATM    4  O   UNL     1     -11.273  12.180  68.195  1.00  0.00    -0.229 OA 
HETATM    5  C   UNL     1     -11.574  15.347  68.650  1.00  0.00    -0.373 A  
HETATM    6  C   UNL     1     -10.847  16.668  68.319  1.00  0.00    -0.356 A  
HETATM    7  N   UNL     1      -9.459  16.378  68.620  1.00  0.00    -0.229 NA 
HETATM    8  C   UNL     1      -9.240  15.092  69.013  1.00  0.00    -0.221 A  
HETATM    9  C   UNL     1      -7.907  14.943  69.285  1.00  0.00    -0.158 A  
HETATM   10  C   UNL     1      -7.309  16.195  68.964  1.00  0.00    -0.203 A  
HETATM   11  C   UNL     1      -8.292  17.070  68.507  1.00  0.00    -0.260 A  
ENDROOT
BRANCH  11  12
HETATM   12  C   UNL     1      -8.177  18.443  68.045  1.00  0.00    -0.271 C  
HETATM   13  O   UNL     1      -8.721  19.381  68.627  1.00  0.00    -0.361 OA 
BRANCH  12  14
HETATM   14  C   UNL     1      -7.408  18.737  66.800  1.00  0.00    -0.231 A  
HETATM   15  C   UNL     1      -6.555  17.760  66.268  1.00  0.00    -0.297 A  
HETATM   16  C   UNL     1      -5.766  18.049  65.148  1.00  0.00    -0.024 A  
HETATM   17  C   UNL     1      -5.819  19.313  64.564  1.00  0.00    -0.318 A  
HETATM   18  C   UNL     1      -6.668  20.289  65.085  1.00  0.00    -0.337 A  
HETATM   19  C   UNL     1      -7.458  20.004  66.201  1.00  0.00    -0.324 A  
ENDBRANCH  12  14
ENDBRANCH  11  12
TORSDOF 2
ENDMDL
MODEL      145
REMARK 921   NORMALIZED FREE ENERGY PREDICTED BY IDOCK:   -4.27 KCAL/MOL
REMARK 922        TOTAL FREE ENERGY PREDICTED BY IDOCK:   -5.04 KCAL/MOL
REMARK 923 INTER-LIGAND FREE ENERGY PREDICTED BY IDOCK:   -4.86 KCAL/MOL
REMARK 924 INTRA-LIGAND FREE ENERGY PREDICTED BY IDOCK:   -0.18 KCAL/MOL
REMARK 927      BINDING AFFINITY PREDICTED BY RF-SCORE:    0.00 PKD
ROOT
HETATM    1  O   UNL     1      -8.097   9.408  70.499  1.00  0.00    -0.161 OA 
HETATM    2  C   UNL     1      -8.811   8.271  70.655  1.00  0.00    -0.143 C  
HETATM    3  C   UNL     1      -9.980   8.072  69.702  1.00  0.00    -0.188 A  
HETATM    4  O   UNL     1      -8.481   7.422  71.474  1.00  0.00    -0.111 OA 
HETATM    5  C   UNL     1      -9.536   7.282  68.442  1.00  0.00    -0.139 A  
HETATM    6  C   UNL     1      -9.750   8.195  67.217  1.00  0.00    -0.178 A  
HETATM    7  N   UNL     1     -10.379   9.375  67.777  1.00  0.00    -0.223 NA 
HETATM    8  C   UNL     1     -10.515   9.334  69.131  1.00  0.00    -0.217 A  
HETATM    9  C   UNL     1     -11.133  10.484  69.540  1.00  0.00    -0.320 A  
HETATM   10  C   UNL     1     -11.303  11.267  68.363  1.00  0.00    -0.348 A  
HETATM   11  C   UNL     1     -10.784  10.573  67.272  1.00  0.00    -0.277 A  
ENDROOT
BRANCH  11  12
HETATM   12  C   UNL     1     -10.705  10.959  65.873  1.00  0.00    -0.124 C  
HETATM   13  O   UNL     1     -10.454  10.151  64.980  1.00  0.00    -0.168 OA 
BRANCH  12  14
HETATM   14  C   UNL     1     -10.894  12.391  65.494  1.00  0.00    -0.316 A  
HETATM   15  C   UNL     1      -9.873  13.315  65.756  1.00  0.00    -0.210 A  
HETATM   16  C   UNL     1     -10.068  14.674  65.482  1.00  0.00    -0.405 A  
HETATM   17  C   UNL     1     -11.282  15.114  64.955  1.00  0.00    -0.414 A  
HETATM   18  C   UNL     1     -12.300  14.200  64.689  1.00  0.00    -0.432 A  
HETATM   19  C   UNL     1     -12.110  12.842  64.960  1.00  0.00    -0.480 A  
ENDBRANCH  12  14
ENDBRANCH  11  12
TORSDOF 2
ENDMDL
MODEL      146
REMARK 921   NORMALIZED FREE ENERGY PREDICTED BY IDOCK:   -4.26 KCAL/MOL
REMARK 922        TOTAL FREE ENERGY PREDICTED BY IDOCK:   -5.03 KCAL/MOL
REMARK 923 INTER-LIGAND FREE ENERGY PREDICTED BY IDOCK:   -4.52 KCAL/MOL
REMARK 924 INTRA-LIGAND FREE ENERGY PREDICTED BY IDOCK:   -0.50 KCAL/MOL
REMARK 927      BINDING AFFINITY PREDICTED BY RF-SCORE:    0.00 PKD
ROOT
HETATM    1  O   UNL     1     -10.000  15.372  64.380  1.00  0.00     0.223 OA 
HETATM    2  C   UNL     1     -11.327  15.522  64.586  1.00  0.00    -0.357 C  
HETATM    3  C   UNL     1     -12.097  14.269  64.973  1.00  0.00    -0.428 A  
HETATM    4  O   UNL     1     -11.855  16.627  64.532  1.00  0.00    -0.357 OA 
HETATM    5  C   UNL     1     -12.165  14.118  66.517  1.00  0.00    -0.463 A  
HETATM    6  C   UNL     1     -11.445  12.806  66.891  1.00  0.00    -0.340 A  
HETATM    7  N   UNL     1     -11.104  12.225  65.607  1.00  0.00    -0.305 NA 
HETATM    8  C   UNL     1     -11.448  13.005  64.544  1.00  0.00    -0.347 A  
HETATM    9  C   UNL     1     -11.097  12.351  63.395  1.00  0.00    -0.465 A  
HETATM   10  C   UNL     1     -10.450  11.155  63.817  1.00  0.00    -0.444 A  
HETATM   11  C   UNL     1     -10.425  11.114  65.209  1.00  0.00    -0.263 A  
ENDROOT
BRANCH  11  12
HETATM   12  C   UNL     1      -9.862  10.116  66.103  1.00  0.00    -0.237 C  
HETATM   13  O   UNL     1     -10.565   9.369  66.783  1.00  0.00    -0.218 OA 
BRANCH  12  14
HETATM   14  C   UNL     1      -8.379  10.008  66.243  1.00  0.00    -0.127 A  
HETATM   15  C   UNL     1      -7.712  10.818  67.173  1.00  0.00    -0.120 A  
HETATM   16  C   UNL     1      -6.315  10.787  67.258  1.00  0.00    -0.065 A  
HETATM   17  C   UNL     1      -5.582   9.956  66.412  1.00  0.00    -0.049 A  
HETATM   18  C   UNL     1      -6.239   9.145  65.488  1.00  0.00    -0.063 A  
HETATM   19  C   UNL     1      -7.633   9.172  65.400  1.00  0.00    -0.097 A  
ENDBRANCH  12  14
ENDBRANCH  11  12
TORSDOF 2
ENDMDL
MODEL      147
REMARK 921   NORMALIZED FREE ENERGY PREDICTED BY IDOCK:   -4.26 KCAL/MOL
REMARK 922        TOTAL FREE ENERGY PREDICTED BY IDOCK:   -5.03 KCAL/MOL
REMARK 923 INTER-LIGAND FREE ENERGY PREDICTED BY IDOCK:   -4.50 KCAL/MOL
REMARK 924 INTRA-LIGAND FREE ENERGY PREDICTED BY IDOCK:   -0.53 KCAL/MOL
REMARK 927      BINDING AFFINITY PREDICTED BY RF-SCORE:    0.00 PKD
ROOT
HETATM    1  O   UNL     1      -7.789   8.717  68.095  1.00  0.00    -0.100 OA 
HETATM    2  C   UNL     1      -8.570   9.620  67.461  1.00  0.00    -0.126 C  
HETATM    3  C   UNL     1     -10.061   9.550  67.758  1.00  0.00    -0.244 A  
HETATM    4  O   UNL     1      -8.084  10.487  66.745  1.00  0.00    -0.118 OA 
HETATM    5  C   UNL     1     -10.431  10.486  68.940  1.00  0.00    -0.226 A  
HETATM    6  C   UNL     1     -10.992   9.607  70.076  1.00  0.00    -0.260 A  
HETATM    7  N   UNL     1     -11.025   8.279  69.496  1.00  0.00    -0.114 NA 
HETATM    8  C   UNL     1     -10.521   8.220  68.232  1.00  0.00    -0.161 A  
HETATM    9  C   UNL     1     -10.620   6.932  67.784  1.00  0.00    -0.305 A  
HETATM   10  C   UNL     1     -11.148   6.187  68.876  1.00  0.00    -0.417 A  
HETATM   11  C   UNL     1     -11.356   7.042  69.957  1.00  0.00    -0.249 A  
ENDROOT
BRANCH  11  12
HETATM   12  C   UNL     1     -11.857   6.754  71.290  1.00  0.00    -0.348 C  
HETATM   13  O   UNL     1     -13.014   7.005  71.628  1.00  0.00    -0.376 OA 
BRANCH  12  14
HETATM   14  C   UNL     1     -10.936   6.171  72.311  1.00  0.00    -0.302 A  
HETATM   15  C   UNL     1     -11.373   5.098  73.102  1.00  0.00    -0.385 A  
HETATM   16  C   UNL     1     -10.552   4.595  74.118  1.00  0.00    -0.348 A  
HETATM   17  C   UNL     1      -9.301   5.163  74.352  1.00  0.00    -0.128 A  
HETATM   18  C   UNL     1      -8.859   6.227  73.567  1.00  0.00    -0.127 A  
HETATM   19  C   UNL     1      -9.674   6.733  72.551  1.00  0.00    -0.166 A  
ENDBRANCH  12  14
ENDBRANCH  11  12
TORSDOF 2
ENDMDL
MODEL      148
REMARK 921   NORMALIZED FREE ENERGY PREDICTED BY IDOCK:   -4.26 KCAL/MOL
REMARK 922        TOTAL FREE ENERGY PREDICTED BY IDOCK:   -5.02 KCAL/MOL
REMARK 923 INTER-LIGAND FREE ENERGY PREDICTED BY IDOCK:   -4.52 KCAL/MOL
REMARK 924 INTRA-LIGAND FREE ENERGY PREDICTED BY IDOCK:   -0.50 KCAL/MOL
REMARK 927      BINDING AFFINITY PREDICTED BY RF-SCORE:    0.00 PKD
ROOT
HETATM    1  O   UNL     1      -8.995   8.726  65.305  1.00  0.00    -0.194 OA 
HETATM    2  C   UNL     1      -9.872   9.620  65.814  1.00  0.00    -0.302 C  
HETATM    3  C   UNL     1     -10.502   9.263  67.152  1.00  0.00    -0.319 A  
HETATM    4  O   UNL     1     -10.085  10.689  65.252  1.00  0.00    -0.267 OA 
HETATM    5  C   UNL     1      -9.669   9.844  68.325  1.00  0.00    -0.159 A  
HETATM    6  C   UNL     1      -9.161   8.658  69.171  1.00  0.00    -0.152 A  
HETATM    7  N   UNL     1      -9.780   7.505  68.548  1.00  0.00    -0.154 NA 
HETATM    8  C   UNL     1     -10.516   7.808  67.443  1.00  0.00    -0.292 A  
HETATM    9  C   UNL     1     -11.063   6.652  66.956  1.00  0.00    -0.395 A  
HETATM   10  C   UNL     1     -10.558   5.611  67.785  1.00  0.00    -0.274 A  
HETATM   11  C   UNL     1      -9.720   6.161  68.753  1.00  0.00    -0.129 A  
ENDROOT
BRANCH  11  12
HETATM   12  C   UNL     1      -8.960   5.510  69.807  1.00  0.00    -0.125 C  
HETATM   13  O   UNL     1      -7.767   5.232  69.683  1.00  0.00    -0.070 OA 
BRANCH  12  14
HETATM   14  C   UNL     1      -9.645   5.122  71.076  1.00  0.00    -0.229 A  
HETATM   15  C   UNL     1      -9.382   3.870  71.649  1.00  0.00    -0.202 A  
HETATM   16  C   UNL     1     -10.078   3.460  72.792  1.00  0.00    -0.232 A  
HETATM   17  C   UNL     1     -11.040   4.293  73.360  1.00  0.00    -0.371 A  
HETATM   18  C   UNL     1     -11.304   5.541  72.799  1.00  0.00    -0.359 A  
HETATM   19  C   UNL     1     -10.612   5.955  71.658  1.00  0.00    -0.295 A  
ENDBRANCH  12  14
ENDBRANCH  11  12
TORSDOF 2
ENDMDL
MODEL      149
REMARK 921   NORMALIZED FREE ENERGY PREDICTED BY IDOCK:   -4.26 KCAL/MOL
REMARK 922        TOTAL FREE ENERGY PREDICTED BY IDOCK:   -5.02 KCAL/MOL
REMARK 923 INTER-LIGAND FREE ENERGY PREDICTED BY IDOCK:   -4.60 KCAL/MOL
REMARK 924 INTRA-LIGAND FREE ENERGY PREDICTED BY IDOCK:   -0.42 KCAL/MOL
REMARK 927      BINDING AFFINITY PREDICTED BY RF-SCORE:    0.00 PKD
ROOT
HETATM    1  O   UNL     1      -8.132   4.309  73.442  1.00  0.00    -0.089 OA 
HETATM    2  C   UNL     1      -9.159   3.654  72.855  1.00  0.00    -0.099 C  
HETATM    3  C   UNL     1     -10.136   4.506  72.059  1.00  0.00    -0.264 A  
HETATM    4  O   UNL     1      -9.245   2.433  72.910  1.00  0.00    -0.076 OA 
HETATM    5  C   UNL     1      -9.710   4.585  70.568  1.00  0.00    -0.290 A  
HETATM    6  C   UNL     1      -9.419   6.065  70.242  1.00  0.00    -0.162 A  
HETATM    7  N   UNL     1      -9.776   6.760  71.463  1.00  0.00    -0.164 NA 
HETATM    8  C   UNL     1     -10.169   5.932  72.471  1.00  0.00    -0.187 A  
HETATM    9  C   UNL     1     -10.496   6.696  73.557  1.00  0.00    -0.335 A  
HETATM   10  C   UNL     1     -10.210   8.039  73.181  1.00  0.00    -0.287 A  
HETATM   11  C   UNL     1      -9.718   8.055  71.878  1.00  0.00    -0.190 A  
ENDROOT
BRANCH  11  12
HETATM   12  C   UNL     1      -9.271   9.173  71.064  1.00  0.00    -0.252 C  
HETATM   13  O   UNL     1      -8.101   9.555  71.055  1.00  0.00    -0.312 OA 
BRANCH  12  14
HETATM   14  C   UNL     1     -10.262   9.919  70.232  1.00  0.00    -0.322 A  
HETATM   15  C   UNL     1      -9.935  10.267  68.914  1.00  0.00    -0.209 A  
HETATM   16  C   UNL     1     -10.820  11.037  68.150  1.00  0.00    -0.274 A  
HETATM   17  C   UNL     1     -12.026  11.467  68.701  1.00  0.00    -0.312 A  
HETATM   18  C   UNL     1     -12.360  11.122  70.010  1.00  0.00    -0.351 A  
HETATM   19  C   UNL     1     -11.480  10.353  70.776  1.00  0.00    -0.422 A  
ENDBRANCH  12  14
ENDBRANCH  11  12
TORSDOF 2
ENDMDL
MODEL      150
REMARK 921   NORMALIZED FREE ENERGY PREDICTED BY IDOCK:   -4.24 KCAL/MOL
REMARK 922        TOTAL FREE ENERGY PREDICTED BY IDOCK:   -5.00 KCAL/MOL
REMARK 923 INTER-LIGAND FREE ENERGY PREDICTED BY IDOCK:   -4.51 KCAL/MOL
REMARK 924 INTRA-LIGAND FREE ENERGY PREDICTED BY IDOCK:   -0.49 KCAL/MOL
REMARK 927      BINDING AFFINITY PREDICTED BY RF-SCORE:    0.00 PKD
ROOT
HETATM    1  O   UNL     1     -10.276  15.094  64.462  1.00  0.00    -0.028 OA 
HETATM    2  C   UNL     1     -11.588  14.781  64.554  1.00  0.00    -0.361 C  
HETATM    3  C   UNL     1     -11.916  13.389  65.072  1.00  0.00    -0.405 A  
HETATM    4  O   UNL     1     -12.456  15.608  64.300  1.00  0.00    -0.423 OA 
HETATM    5  C   UNL     1     -12.104  13.404  66.613  1.00  0.00    -0.429 A  
HETATM    6  C   UNL     1     -11.023  12.490  67.226  1.00  0.00    -0.261 A  
HETATM    7  N   UNL     1     -10.356  11.926  66.069  1.00  0.00    -0.225 NA 
HETATM    8  C   UNL     1     -10.824  12.401  64.881  1.00  0.00    -0.297 A  
HETATM    9  C   UNL     1     -10.138  11.788  63.869  1.00  0.00    -0.399 A  
HETATM   10  C   UNL     1      -9.170  10.962  64.507  1.00  0.00    -0.226 A  
HETATM   11  C   UNL     1      -9.294  11.095  65.889  1.00  0.00    -0.212 A  
ENDROOT
BRANCH  11  12
HETATM   12  C   UNL     1      -8.527  10.476  66.957  1.00  0.00    -0.128 C  
HETATM   13  O   UNL     1      -7.430  10.906  67.315  1.00  0.00    -0.096 OA 
BRANCH  12  14
HETATM   14  C   UNL     1      -9.057   9.252  67.629  1.00  0.00    -0.136 A  
HETATM   15  C   UNL     1      -9.163   8.058  66.903  1.00  0.00    -0.191 A  
HETATM   16  C   UNL     1      -9.734   6.924  67.493  1.00  0.00    -0.162 A  
HETATM   17  C   UNL     1     -10.205   6.982  68.804  1.00  0.00    -0.181 A  
HETATM   18  C   UNL     1     -10.099   8.165  69.534  1.00  0.00    -0.193 A  
HETATM   19  C   UNL     1      -9.529   9.299  68.948  1.00  0.00    -0.154 A  
ENDBRANCH  12  14
ENDBRANCH  11  12
TORSDOF 2
ENDMDL
MODEL      151
REMARK 921   NORMALIZED FREE ENERGY PREDICTED BY IDOCK:   -4.23 KCAL/MOL
REMARK 922        TOTAL FREE ENERGY PREDICTED BY IDOCK:   -5.00 KCAL/MOL
REMARK 923 INTER-LIGAND FREE ENERGY PREDICTED BY IDOCK:   -4.54 KCAL/MOL
REMARK 924 INTRA-LIGAND FREE ENERGY PREDICTED BY IDOCK:   -0.46 KCAL/MOL
REMARK 927      BINDING AFFINITY PREDICTED BY RF-SCORE:    0.00 PKD
ROOT
HETATM    1  O   UNL     1      -6.659  11.771  67.112  1.00  0.00    -0.117 OA 
HETATM    2  C   UNL     1      -7.872  11.497  67.643  1.00  0.00    -0.125 C  
HETATM    3  C   UNL     1      -8.712  12.694  68.063  1.00  0.00    -0.190 A  
HETATM    4  O   UNL     1      -8.289  10.347  67.710  1.00  0.00    -0.113 OA 
HETATM    5  C   UNL     1      -9.639  13.150  66.905  1.00  0.00    -0.248 A  
HETATM    6  C   UNL     1      -9.243  14.593  66.528  1.00  0.00    -0.266 A  
HETATM    7  N   UNL     1      -8.229  14.935  67.506  1.00  0.00    -0.168 NA 
HETATM    8  C   UNL     1      -7.919  13.915  68.354  1.00  0.00    -0.144 A  
HETATM    9  C   UNL     1      -6.972  14.358  69.236  1.00  0.00    -0.129 A  
HETATM   10  C   UNL     1      -6.664  15.688  68.832  1.00  0.00    -0.123 A  
HETATM   11  C   UNL     1      -7.432  16.018  67.717  1.00  0.00    -0.136 A  
ENDROOT
BRANCH  11  12
HETATM   12  C   UNL     1      -7.463  17.243  66.935  1.00  0.00    -0.207 C  
HETATM   13  O   UNL     1      -6.660  17.466  66.030  1.00  0.00    -0.225 OA 
BRANCH  12  14
HETATM   14  C   UNL     1      -8.474  18.294  67.256  1.00  0.00    -0.250 A  
HETATM   15  C   UNL     1      -9.148  18.252  68.484  1.00  0.00    -0.328 A  
HETATM   16  C   UNL     1     -10.157  19.181  68.764  1.00  0.00    -0.445 A  
HETATM   17  C   UNL     1     -10.499  20.147  67.819  1.00  0.00    -0.397 A  
HETATM   18  C   UNL     1      -9.829  20.198  66.597  1.00  0.00    -0.588 A  
HETATM   19  C   UNL     1      -8.822  19.272  66.313  1.00  0.00    -0.341 A  
ENDBRANCH  12  14
ENDBRANCH  11  12
TORSDOF 2
ENDMDL
MODEL      152
REMARK 921   NORMALIZED FREE ENERGY PREDICTED BY IDOCK:   -4.23 KCAL/MOL
REMARK 922        TOTAL FREE ENERGY PREDICTED BY IDOCK:   -4.99 KCAL/MOL
REMARK 923 INTER-LIGAND FREE ENERGY PREDICTED BY IDOCK:   -4.53 KCAL/MOL
REMARK 924 INTRA-LIGAND FREE ENERGY PREDICTED BY IDOCK:   -0.47 KCAL/MOL
REMARK 927      BINDING AFFINITY PREDICTED BY RF-SCORE:    0.00 PKD
ROOT
HETATM    1  O   UNL     1     -12.990   9.295  70.956  1.00  0.00    -0.243 OA 
HETATM    2  C   UNL     1     -12.583   8.726  72.112  1.00  0.00    -0.399 C  
HETATM    3  C   UNL     1     -11.330   7.867  72.037  1.00  0.00    -0.343 A  
HETATM    4  O   UNL     1     -13.159   8.957  73.169  1.00  0.00    -0.201 OA 
HETATM    5  C   UNL     1     -10.063   8.711  72.340  1.00  0.00    -0.321 A  
HETATM    6  C   UNL     1      -9.171   8.683  71.081  1.00  0.00    -0.213 A  
HETATM    7  N   UNL     1      -9.869   7.781  70.187  1.00  0.00    -0.184 NA 
HETATM    8  C   UNL     1     -11.052   7.322  70.685  1.00  0.00    -0.264 A  
HETATM    9  C   UNL     1     -11.607   6.472  69.768  1.00  0.00    -0.392 A  
HETATM   10  C   UNL     1     -10.730   6.492  68.647  1.00  0.00    -0.323 A  
HETATM   11  C   UNL     1      -9.667   7.353  68.911  1.00  0.00    -0.150 A  
ENDROOT
BRANCH  11  12
HETATM   12  C   UNL     1      -8.536   7.722  68.077  1.00  0.00    -0.123 C  
HETATM   13  O   UNL     1      -7.439   7.172  68.174  1.00  0.00    -0.094 OA 
BRANCH  12  14
HETATM   14  C   UNL     1      -8.682   8.831  67.088  1.00  0.00    -0.127 A  
HETATM   15  C   UNL     1      -7.844   9.951  67.178  1.00  0.00    -0.099 A  
HETATM   16  C   UNL     1      -8.023  11.035  66.310  1.00  0.00    -0.148 A  
HETATM   17  C   UNL     1      -9.041  11.007  65.359  1.00  0.00    -0.213 A  
HETATM   18  C   UNL     1      -9.876   9.895  65.260  1.00  0.00    -0.373 A  
HETATM   19  C   UNL     1      -9.700   8.811  66.124  1.00  0.00    -0.320 A  
ENDBRANCH  12  14
ENDBRANCH  11  12
TORSDOF 2
ENDMDL
MODEL      153
REMARK 921   NORMALIZED FREE ENERGY PREDICTED BY IDOCK:   -4.21 KCAL/MOL
REMARK 922        TOTAL FREE ENERGY PREDICTED BY IDOCK:   -4.97 KCAL/MOL
REMARK 923 INTER-LIGAND FREE ENERGY PREDICTED BY IDOCK:   -4.55 KCAL/MOL
REMARK 924 INTRA-LIGAND FREE ENERGY PREDICTED BY IDOCK:   -0.43 KCAL/MOL
REMARK 927      BINDING AFFINITY PREDICTED BY RF-SCORE:    0.00 PKD
ROOT
HETATM    1  O   UNL     1      -9.574   8.603  66.783  1.00  0.00    -0.171 OA 
HETATM    2  C   UNL     1      -8.362   8.799  66.216  1.00  0.00    -0.118 C  
HETATM    3  C   UNL     1      -7.995  10.239  65.889  1.00  0.00    -0.137 A  
HETATM    4  O   UNL     1      -7.584   7.868  66.047  1.00  0.00    -0.082 OA 
HETATM    5  C   UNL     1      -7.230  10.894  67.071  1.00  0.00    -0.114 A  
HETATM    6  C   UNL     1      -8.076  12.083  67.573  1.00  0.00    -0.159 A  
HETATM    7  N   UNL     1      -9.184  12.132  66.641  1.00  0.00    -0.203 NA 
HETATM    8  C   UNL     1      -9.164  11.135  65.712  1.00  0.00    -0.215 A  
HETATM    9  C   UNL     1     -10.240  11.294  64.882  1.00  0.00    -0.341 A  
HETATM   10  C   UNL     1     -10.963  12.405  65.401  1.00  0.00    -0.335 A  
HETATM   11  C   UNL     1     -10.308  12.892  66.531  1.00  0.00    -0.264 A  
ENDROOT
BRANCH  11  12
HETATM   12  C   UNL     1     -10.663  13.991  67.413  1.00  0.00    -0.283 C  
HETATM   13  O   UNL     1     -11.436  13.852  68.361  1.00  0.00    -0.273 OA 
BRANCH  12  14
HETATM   14  C   UNL     1     -10.108  15.352  67.151  1.00  0.00    -0.245 A  
HETATM   15  C   UNL     1      -8.964  15.489  66.351  1.00  0.00    -0.359 A  
HETATM   16  C   UNL     1      -8.385  16.750  66.163  1.00  0.00    -0.301 A  
HETATM   17  C   UNL     1      -8.939  17.872  66.778  1.00  0.00    -0.272 A  
HETATM   18  C   UNL     1     -10.079  17.744  67.571  1.00  0.00    -0.340 A  
HETATM   19  C   UNL     1     -10.660  16.487  67.761  1.00  0.00    -0.332 A  
ENDBRANCH  12  14
ENDBRANCH  11  12
TORSDOF 2
ENDMDL
MODEL      154
REMARK 921   NORMALIZED FREE ENERGY PREDICTED BY IDOCK:   -4.20 KCAL/MOL
REMARK 922        TOTAL FREE ENERGY PREDICTED BY IDOCK:   -4.95 KCAL/MOL
REMARK 923 INTER-LIGAND FREE ENERGY PREDICTED BY IDOCK:   -4.44 KCAL/MOL
REMARK 924 INTRA-LIGAND FREE ENERGY PREDICTED BY IDOCK:   -0.51 KCAL/MOL
REMARK 927      BINDING AFFINITY PREDICTED BY RF-SCORE:    0.00 PKD
ROOT
HETATM    1  O   UNL     1      -9.646  14.178  66.949  1.00  0.00    -0.250 OA 
HETATM    2  C   UNL     1     -10.979  14.282  67.153  1.00  0.00    -0.302 C  
HETATM    3  C   UNL     1     -11.780  12.992  67.054  1.00  0.00    -0.441 A  
HETATM    4  O   UNL     1     -11.490  15.349  67.469  1.00  0.00    -0.318 OA 
HETATM    5  C   UNL     1     -11.909  12.316  68.446  1.00  0.00    -0.358 A  
HETATM    6  C   UNL     1     -11.221  10.937  68.362  1.00  0.00    -0.285 A  
HETATM    7  N   UNL     1     -10.839  10.831  66.968  1.00  0.00    -0.267 NA 
HETATM    8  C   UNL     1     -11.131  11.940  66.233  1.00  0.00    -0.314 A  
HETATM    9  C   UNL     1     -10.744  11.717  64.940  1.00  0.00    -0.352 A  
HETATM   10  C   UNL     1     -10.129  10.433  64.940  1.00  0.00    -0.382 A  
HETATM   11  C   UNL     1     -10.159   9.910  66.231  1.00  0.00    -0.241 A  
ENDROOT
BRANCH  11  12
HETATM   12  C   UNL     1      -9.644   8.649  66.739  1.00  0.00    -0.207 C  
HETATM   13  O   UNL     1     -10.264   7.592  66.628  1.00  0.00    -0.250 OA 
BRANCH  12  14
HETATM   14  C   UNL     1      -8.336   8.626  67.458  1.00  0.00    -0.120 A  
HETATM   15  C   UNL     1      -7.374   9.605  67.172  1.00  0.00    -0.087 A  
HETATM   16  C   UNL     1      -6.113   9.549  67.777  1.00  0.00    -0.052 A  
HETATM   17  C   UNL     1      -5.807   8.514  68.660  1.00  0.00    -0.044 A  
HETATM   18  C   UNL     1      -6.760   7.540  68.952  1.00  0.00    -0.049 A  
HETATM   19  C   UNL     1      -8.020   7.592  68.351  1.00  0.00    -0.123 A  
ENDBRANCH  12  14
ENDBRANCH  11  12
TORSDOF 2
ENDMDL
MODEL      155
REMARK 921   NORMALIZED FREE ENERGY PREDICTED BY IDOCK:   -4.20 KCAL/MOL
REMARK 922        TOTAL FREE ENERGY PREDICTED BY IDOCK:   -4.95 KCAL/MOL
REMARK 923 INTER-LIGAND FREE ENERGY PREDICTED BY IDOCK:   -4.52 KCAL/MOL
REMARK 924 INTRA-LIGAND FREE ENERGY PREDICTED BY IDOCK:   -0.43 KCAL/MOL
REMARK 927      BINDING AFFINITY PREDICTED BY RF-SCORE:    0.00 PKD
ROOT
HETATM    1  O   UNL     1     -11.419  15.893  72.023  1.00  0.00    -0.401 OA 
HETATM    2  C   UNL     1     -12.620  15.278  71.941  1.00  0.00    -0.353 C  
HETATM    3  C   UNL     1     -12.879  14.466  70.681  1.00  0.00    -0.390 A  
HETATM    4  O   UNL     1     -13.419  15.321  72.870  1.00  0.00    -0.471 OA 
HETATM    5  C   UNL     1     -12.456  12.986  70.882  1.00  0.00    -0.396 A  
HETATM    6  C   UNL     1     -11.334  12.679  69.869  1.00  0.00     0.036 A  
HETATM    7  N   UNL     1     -11.234  13.897  69.089  1.00  0.00    -0.262 NA 
HETATM    8  C   UNL     1     -12.066  14.888  69.513  1.00  0.00    -0.279 A  
HETATM    9  C   UNL     1     -11.899  15.973  68.697  1.00  0.00    -0.174 A  
HETATM   10  C   UNL     1     -10.861  15.615  67.791  1.00  0.00    -0.307 A  
HETATM   11  C   UNL     1     -10.426  14.323  68.080  1.00  0.00    -0.246 A  
ENDROOT
BRANCH  11  12
HETATM   12  C   UNL     1      -9.382  13.528  67.455  1.00  0.00    -0.228 C  
HETATM   13  O   UNL     1      -9.629  12.648  66.631  1.00  0.00    -0.236 OA 
BRANCH  12  14
HETATM   14  C   UNL     1      -7.958  13.749  67.844  1.00  0.00    -0.157 A  
HETATM   15  C   UNL     1      -7.378  15.011  67.658  1.00  0.00    -0.209 A  
HETATM   16  C   UNL     1      -6.022  15.211  67.941  1.00  0.00    -0.165 A  
HETATM   17  C   UNL     1      -5.241  14.153  68.402  1.00  0.00    -0.104 A  
HETATM   18  C   UNL     1      -5.811  12.895  68.594  1.00  0.00    -0.069 A  
HETATM   19  C   UNL     1      -7.165  12.691  68.313  1.00  0.00    -0.113 A  
ENDBRANCH  12  14
ENDBRANCH  11  12
TORSDOF 2
ENDMDL
MODEL      156
REMARK 921   NORMALIZED FREE ENERGY PREDICTED BY IDOCK:   -4.19 KCAL/MOL
REMARK 922        TOTAL FREE ENERGY PREDICTED BY IDOCK:   -4.95 KCAL/MOL
REMARK 923 INTER-LIGAND FREE ENERGY PREDICTED BY IDOCK:   -4.41 KCAL/MOL
REMARK 924 INTRA-LIGAND FREE ENERGY PREDICTED BY IDOCK:   -0.54 KCAL/MOL
REMARK 927      BINDING AFFINITY PREDICTED BY RF-SCORE:    0.00 PKD
ROOT
HETATM    1  O   UNL     1      -7.343  12.270  68.174  1.00  0.00    -0.088 OA 
HETATM    2  C   UNL     1      -6.581  11.472  67.392  1.00  0.00    -0.101 C  
HETATM    3  C   UNL     1      -6.736   9.973  67.602  1.00  0.00    -0.075 A  
HETATM    4  O   UNL     1      -5.863  11.942  66.517  1.00  0.00    -0.234 OA 
HETATM    5  C   UNL     1      -7.815   9.392  66.649  1.00  0.00    -0.104 A  
HETATM    6  C   UNL     1      -8.944   8.807  67.523  1.00  0.00    -0.134 A  
HETATM    7  N   UNL     1      -8.446   8.966  68.875  1.00  0.00    -0.129 NA 
HETATM    8  C   UNL     1      -7.244   9.601  68.946  1.00  0.00    -0.072 A  
HETATM    9  C   UNL     1      -6.869   9.676  70.260  1.00  0.00    -0.107 A  
HETATM   10  C   UNL     1      -7.949   9.114  70.998  1.00  0.00    -0.166 A  
HETATM   11  C   UNL     1      -8.949   8.713  70.115  1.00  0.00    -0.154 A  
ENDROOT
BRANCH  11  12
HETATM   12  C   UNL     1     -10.243   8.108  70.384  1.00  0.00    -0.201 C  
HETATM   13  O   UNL     1     -10.458   6.908  70.211  1.00  0.00    -0.196 OA 
BRANCH  12  14
HETATM   14  C   UNL     1     -11.373   8.966  70.848  1.00  0.00    -0.336 A  
HETATM   15  C   UNL     1     -11.459  10.294  70.406  1.00  0.00    -0.415 A  
HETATM   16  C   UNL     1     -12.466  11.134  70.897  1.00  0.00    -0.509 A  
HETATM   17  C   UNL     1     -13.381  10.655  71.832  1.00  0.00    -0.454 A  
HETATM   18  C   UNL     1     -13.305   9.335  72.273  1.00  0.00    -0.547 A  
HETATM   19  C   UNL     1     -12.302   8.492  71.786  1.00  0.00    -0.388 A  
ENDBRANCH  12  14
ENDBRANCH  11  12
TORSDOF 2
ENDMDL
MODEL      157
REMARK 921   NORMALIZED FREE ENERGY PREDICTED BY IDOCK:   -4.19 KCAL/MOL
REMARK 922        TOTAL FREE ENERGY PREDICTED BY IDOCK:   -4.94 KCAL/MOL
REMARK 923 INTER-LIGAND FREE ENERGY PREDICTED BY IDOCK:   -4.56 KCAL/MOL
REMARK 924 INTRA-LIGAND FREE ENERGY PREDICTED BY IDOCK:   -0.39 KCAL/MOL
REMARK 927      BINDING AFFINITY PREDICTED BY RF-SCORE:    0.00 PKD
ROOT
HETATM    1  O   UNL     1      -8.941   8.990  66.083  1.00  0.00    -0.154 OA 
HETATM    2  C   UNL     1      -8.049   9.977  66.322  1.00  0.00    -0.117 C  
HETATM    3  C   UNL     1      -8.340  10.877  67.514  1.00  0.00    -0.117 A  
HETATM    4  O   UNL     1      -7.029  10.085  65.652  1.00  0.00    -0.101 OA 
HETATM    5  C   UNL     1      -7.651  10.334  68.795  1.00  0.00    -0.093 A  
HETATM    6  C   UNL     1      -8.759   9.998  69.815  1.00  0.00    -0.179 A  
HETATM    7  N   UNL     1      -9.973  10.440  69.159  1.00  0.00    -0.213 NA 
HETATM    8  C   UNL     1      -9.772  10.922  67.901  1.00  0.00    -0.165 A  
HETATM    9  C   UNL     1     -10.977  11.322  67.392  1.00  0.00    -0.337 A  
HETATM   10  C   UNL     1     -11.942  10.989  68.385  1.00  0.00    -0.158 A  
HETATM   11  C   UNL     1     -11.298  10.396  69.469  1.00  0.00    -0.265 A  
ENDROOT
BRANCH  11  12
HETATM   12  C   UNL     1     -11.848   9.871  70.707  1.00  0.00    -0.330 C  
HETATM   13  O   UNL     1     -12.488  10.570  71.493  1.00  0.00    -0.380 OA 
BRANCH  12  14
HETATM   14  C   UNL     1     -11.603   8.444  71.073  1.00  0.00    -0.307 A  
HETATM   15  C   UNL     1     -11.456   8.092  72.422  1.00  0.00    -0.462 A  
HETATM   16  C   UNL     1     -11.145   6.774  72.775  1.00  0.00    -0.292 A  
HETATM   17  C   UNL     1     -10.973   5.808  71.785  1.00  0.00    -0.317 A  
HETATM   18  C   UNL     1     -11.122   6.149  70.442  1.00  0.00    -0.420 A  
HETATM   19  C   UNL     1     -11.433   7.464  70.085  1.00  0.00    -0.154 A  
ENDBRANCH  12  14
ENDBRANCH  11  12
TORSDOF 2
ENDMDL
MODEL      158
REMARK 921   NORMALIZED FREE ENERGY PREDICTED BY IDOCK:   -4.17 KCAL/MOL
REMARK 922        TOTAL FREE ENERGY PREDICTED BY IDOCK:   -4.92 KCAL/MOL
REMARK 923 INTER-LIGAND FREE ENERGY PREDICTED BY IDOCK:   -4.47 KCAL/MOL
REMARK 924 INTRA-LIGAND FREE ENERGY PREDICTED BY IDOCK:   -0.45 KCAL/MOL
REMARK 927      BINDING AFFINITY PREDICTED BY RF-SCORE:    0.00 PKD
ROOT
HETATM    1  O   UNL     1     -10.348   7.302  66.507  1.00  0.00    -0.179 OA 
HETATM    2  C   UNL     1      -9.023   7.558  66.435  1.00  0.00    -0.167 C  
HETATM    3  C   UNL     1      -8.581   8.954  66.849  1.00  0.00    -0.121 A  
HETATM    4  O   UNL     1      -8.225   6.683  66.121  1.00  0.00    -0.113 OA 
HETATM    5  C   UNL     1      -8.215   8.992  68.357  1.00  0.00    -0.116 A  
HETATM    6  C   UNL     1      -9.180   9.978  69.047  1.00  0.00    -0.178 A  
HETATM    7  N   UNL     1      -9.953  10.525  67.950  1.00  0.00    -0.166 NA 
HETATM    8  C   UNL     1      -9.646   9.982  66.739  1.00  0.00    -0.181 A  
HETATM    9  C   UNL     1     -10.420  10.584  65.785  1.00  0.00    -0.214 A  
HETATM   10  C   UNL     1     -11.272  11.479  66.492  1.00  0.00    -0.324 A  
HETATM   11  C   UNL     1     -10.995  11.396  67.855  1.00  0.00    -0.240 A  
ENDROOT
BRANCH  11  12
HETATM   12  C   UNL     1     -11.606  12.091  68.975  1.00  0.00    -0.313 C  
HETATM   13  O   UNL     1     -12.390  11.538  69.745  1.00  0.00    -0.240 OA 
BRANCH  12  14
HETATM   14  C   UNL     1     -11.313  13.540  69.190  1.00  0.00    -0.333 A  
HETATM   15  C   UNL     1     -12.238  14.337  69.877  1.00  0.00    -0.407 A  
HETATM   16  C   UNL     1     -12.016  15.712  70.015  1.00  0.00    -0.384 A  
HETATM   17  C   UNL     1     -10.877  16.295  69.460  1.00  0.00    -0.342 A  
HETATM   18  C   UNL     1      -9.951  15.507  68.779  1.00  0.00    -0.214 A  
HETATM   19  C   UNL     1     -10.168  14.134  68.640  1.00  0.00    -0.238 A  
ENDBRANCH  12  14
ENDBRANCH  11  12
TORSDOF 2
ENDMDL
MODEL      159
REMARK 921   NORMALIZED FREE ENERGY PREDICTED BY IDOCK:   -4.15 KCAL/MOL
REMARK 922        TOTAL FREE ENERGY PREDICTED BY IDOCK:   -4.90 KCAL/MOL
REMARK 923 INTER-LIGAND FREE ENERGY PREDICTED BY IDOCK:   -4.41 KCAL/MOL
REMARK 924 INTRA-LIGAND FREE ENERGY PREDICTED BY IDOCK:   -0.48 KCAL/MOL
REMARK 927      BINDING AFFINITY PREDICTED BY RF-SCORE:    0.00 PKD
ROOT
HETATM    1  O   UNL     1      -6.485  14.691  70.859  1.00  0.00    -0.054 OA 
HETATM    2  C   UNL     1      -6.477  13.731  69.907  1.00  0.00    -0.059 C  
HETATM    3  C   UNL     1      -7.155  14.080  68.590  1.00  0.00    -0.108 A  
HETATM    4  O   UNL     1      -5.890  12.670  70.082  1.00  0.00    -0.137 OA 
HETATM    5  C   UNL     1      -6.134  14.681  67.587  1.00  0.00    -0.078 A  
HETATM    6  C   UNL     1      -6.589  16.120  67.263  1.00  0.00    -0.196 A  
HETATM    7  N   UNL     1      -7.848  16.247  67.970  1.00  0.00    -0.147 NA 
HETATM    8  C   UNL     1      -8.179  15.148  68.703  1.00  0.00    -0.154 A  
HETATM    9  C   UNL     1      -9.386  15.377  69.305  1.00  0.00    -0.254 A  
HETATM   10  C   UNL     1      -9.741  16.711  68.957  1.00  0.00    -0.260 A  
HETATM   11  C   UNL     1      -8.743  17.257  68.154  1.00  0.00    -0.243 A  
ENDROOT
BRANCH  11  12
HETATM   12  C   UNL     1      -8.638  18.582  67.567  1.00  0.00    -0.262 C  
HETATM   13  O   UNL     1      -9.411  18.980  66.695  1.00  0.00    -0.307 OA 
BRANCH  12  14
HETATM   14  C   UNL     1      -7.536  19.492  67.999  1.00  0.00    -0.321 A  
HETATM   15  C   UNL     1      -6.955  20.365  67.068  1.00  0.00    -0.325 A  
HETATM   16  C   UNL     1      -5.867  21.164  67.437  1.00  0.00    -0.386 A  
HETATM   17  C   UNL     1      -5.352  21.089  68.730  1.00  0.00    -0.367 A  
HETATM   18  C   UNL     1      -5.927  20.227  69.663  1.00  0.00    -0.386 A  
HETATM   19  C   UNL     1      -7.013  19.427  69.299  1.00  0.00    -0.371 A  
ENDBRANCH  12  14
ENDBRANCH  11  12
TORSDOF 2
ENDMDL
MODEL      160
REMARK 921   NORMALIZED FREE ENERGY PREDICTED BY IDOCK:   -4.14 KCAL/MOL
REMARK 922        TOTAL FREE ENERGY PREDICTED BY IDOCK:   -4.90 KCAL/MOL
REMARK 923 INTER-LIGAND FREE ENERGY PREDICTED BY IDOCK:   -4.40 KCAL/MOL
REMARK 924 INTRA-LIGAND FREE ENERGY PREDICTED BY IDOCK:   -0.49 KCAL/MOL
REMARK 927      BINDING AFFINITY PREDICTED BY RF-SCORE:    0.00 PKD
ROOT
HETATM    1  O   UNL     1     -12.312  13.652  66.357  1.00  0.00    -0.424 OA 
HETATM    2  C   UNL     1     -11.631  14.198  65.325  1.00  0.00    -0.341 C  
HETATM    3  C   UNL     1     -10.452  13.397  64.793  1.00  0.00    -0.419 A  
HETATM    4  O   UNL     1     -11.997  15.248  64.809  1.00  0.00    -0.293 OA 
HETATM    5  C   UNL     1     -10.898  12.466  63.633  1.00  0.00    -0.509 A  
HETATM    6  C   UNL     1     -10.640  11.010  64.076  1.00  0.00    -0.324 A  
HETATM    7  N   UNL     1      -9.988  11.155  65.362  1.00  0.00    -0.245 NA 
HETATM    8  C   UNL     1      -9.874  12.448  65.778  1.00  0.00    -0.240 A  
HETATM    9  C   UNL     1      -9.232  12.460  66.985  1.00  0.00    -0.208 A  
HETATM   10  C   UNL     1      -9.023  11.093  67.322  1.00  0.00    -0.147 A  
HETATM   11  C   UNL     1      -9.543  10.287  66.312  1.00  0.00    -0.189 A  
ENDROOT
BRANCH  11  12
HETATM   12  C   UNL     1      -9.589   8.838  66.205  1.00  0.00    -0.259 C  
HETATM   13  O   UNL     1     -10.535   8.177  66.632  1.00  0.00    -0.303 OA 
BRANCH  12  14
HETATM   14  C   UNL     1      -8.438   8.109  65.595  1.00  0.00    -0.170 A  
HETATM   15  C   UNL     1      -7.519   7.452  66.423  1.00  0.00    -0.084 A  
HETATM   16  C   UNL     1      -6.391   6.834  65.871  1.00  0.00    -0.049 A  
HETATM   17  C   UNL     1      -6.174   6.877  64.495  1.00  0.00    -0.036 A  
HETATM   18  C   UNL     1      -7.086   7.525  63.664  1.00  0.00    -0.070 A  
HETATM   19  C   UNL     1      -8.214   8.143  64.211  1.00  0.00    -0.095 A  
ENDBRANCH  12  14
ENDBRANCH  11  12
TORSDOF 2
ENDMDL
MODEL      161
REMARK 921   NORMALIZED FREE ENERGY PREDICTED BY IDOCK:   -4.14 KCAL/MOL
REMARK 922        TOTAL FREE ENERGY PREDICTED BY IDOCK:   -4.89 KCAL/MOL
REMARK 923 INTER-LIGAND FREE ENERGY PREDICTED BY IDOCK:   -4.36 KCAL/MOL
REMARK 924 INTRA-LIGAND FREE ENERGY PREDICTED BY IDOCK:   -0.53 KCAL/MOL
REMARK 927      BINDING AFFINITY PREDICTED BY RF-SCORE:    0.00 PKD
ROOT
HETATM    1  O   UNL     1      -9.192   9.093  70.675  1.00  0.00    -0.216 OA 
HETATM    2  C   UNL     1      -8.056   8.418  70.388  1.00  0.00    -0.109 C  
HETATM    3  C   UNL     1      -7.725   8.248  68.913  1.00  0.00    -0.102 A  
HETATM    4  O   UNL     1      -7.307   8.033  71.278  1.00  0.00    -0.060 OA 
HETATM    5  C   UNL     1      -6.823   9.407  68.413  1.00  0.00    -0.063 A  
HETATM    6  C   UNL     1      -7.598  10.163  67.314  1.00  0.00    -0.095 A  
HETATM    7  N   UNL     1      -8.810   9.384  67.154  1.00  0.00    -0.127 NA 
HETATM    8  C   UNL     1      -8.905   8.334  68.016  1.00  0.00    -0.135 A  
HETATM    9  C   UNL     1     -10.072   7.667  67.760  1.00  0.00    -0.237 A  
HETATM   10  C   UNL     1     -10.724   8.414  66.739  1.00  0.00    -0.071 A  
HETATM   11  C   UNL     1      -9.937   9.513  66.401  1.00  0.00    -0.269 A  
ENDROOT
BRANCH  11  12
HETATM   12  C   UNL     1     -10.179  10.572  65.435  1.00  0.00    -0.270 C  
HETATM   13  O   UNL     1      -9.719  10.541  64.294  1.00  0.00    -0.279 OA 
BRANCH  12  14
HETATM   14  C   UNL     1     -10.980  11.766  65.840  1.00  0.00    -0.354 A  
HETATM   15  C   UNL     1     -11.912  12.308  64.944  1.00  0.00    -0.420 A  
HETATM   16  C   UNL     1     -12.610  13.475  65.277  1.00  0.00    -0.517 A  
HETATM   17  C   UNL     1     -12.375  14.106  66.497  1.00  0.00    -0.405 A  
HETATM   18  C   UNL     1     -11.452  13.571  67.394  1.00  0.00    -0.366 A  
HETATM   19  C   UNL     1     -10.753  12.406  67.067  1.00  0.00    -0.268 A  
ENDBRANCH  12  14
ENDBRANCH  11  12
TORSDOF 2
ENDMDL
MODEL      162
REMARK 921   NORMALIZED FREE ENERGY PREDICTED BY IDOCK:   -4.12 KCAL/MOL
REMARK 922        TOTAL FREE ENERGY PREDICTED BY IDOCK:   -4.87 KCAL/MOL
REMARK 923 INTER-LIGAND FREE ENERGY PREDICTED BY IDOCK:   -5.34 KCAL/MOL
REMARK 924 INTRA-LIGAND FREE ENERGY PREDICTED BY IDOCK:    0.47 KCAL/MOL
REMARK 927      BINDING AFFINITY PREDICTED BY RF-SCORE:    0.00 PKD
ROOT
HETATM    1  O   UNL     1      -8.815  18.220  67.556  1.00  0.00    -0.251 OA 
HETATM    2  C   UNL     1     -10.058  18.428  68.046  1.00  0.00    -0.368 C  
HETATM    3  C   UNL     1     -11.004  17.237  68.017  1.00  0.00    -0.194 A  
HETATM    4  O   UNL     1     -10.369  19.501  68.549  1.00  0.00    -0.419 OA 
HETATM    5  C   UNL     1     -10.924  16.437  69.344  1.00  0.00    -0.325 A  
HETATM    6  C   UNL     1     -10.429  15.015  69.006  1.00  0.00    -0.245 A  
HETATM    7  N   UNL     1     -10.352  15.017  67.558  1.00  0.00    -0.239 NA 
HETATM    8  C   UNL     1     -10.660  16.218  66.994  1.00  0.00    -0.284 A  
HETATM    9  C   UNL     1     -10.571  16.093  65.634  1.00  0.00    -0.377 A  
HETATM   10  C   UNL     1     -10.120  14.764  65.400  1.00  0.00    -0.406 A  
HETATM   11  C   UNL     1      -9.946  14.116  66.621  1.00  0.00    -0.277 A  
ENDROOT
BRANCH  11  12
HETATM   12  C   UNL     1      -9.486  12.767  66.905  1.00  0.00    -0.235 C  
HETATM   13  O   UNL     1      -9.198  12.395  68.042  1.00  0.00    -0.190 OA 
BRANCH  12  14
HETATM   14  C   UNL     1      -9.315  11.798  65.782  1.00  0.00    -0.197 A  
HETATM   15  C   UNL     1     -10.047  11.974  64.600  1.00  0.00    -0.291 A  
HETATM   16  C   UNL     1      -9.959  11.030  63.570  1.00  0.00    -0.421 A  
HETATM   17  C   UNL     1      -9.148   9.906  63.721  1.00  0.00    -0.293 A  
HETATM   18  C   UNL     1      -8.414   9.726  64.892  1.00  0.00    -0.165 A  
HETATM   19  C   UNL     1      -8.498  10.667  65.922  1.00  0.00    -0.167 A  
ENDBRANCH  12  14
ENDBRANCH  11  12
TORSDOF 2
ENDMDL
MODEL      163
REMARK 921   NORMALIZED FREE ENERGY PREDICTED BY IDOCK:   -4.10 KCAL/MOL
REMARK 922        TOTAL FREE ENERGY PREDICTED BY IDOCK:   -4.84 KCAL/MOL
REMARK 923 INTER-LIGAND FREE ENERGY PREDICTED BY IDOCK:   -4.38 KCAL/MOL
REMARK 924 INTRA-LIGAND FREE ENERGY PREDICTED BY IDOCK:   -0.46 KCAL/MOL
REMARK 927      BINDING AFFINITY PREDICTED BY RF-SCORE:    0.00 PKD
ROOT
HETATM    1  O   UNL     1      -7.675  11.879  68.755  1.00  0.00    -0.127 OA 
HETATM    2  C   UNL     1      -8.075  12.320  67.541  1.00  0.00    -0.170 C  
HETATM    3  C   UNL     1      -8.898  11.350  66.707  1.00  0.00    -0.179 A  
HETATM    4  O   UNL     1      -7.842  13.466  67.175  1.00  0.00    -0.128 OA 
HETATM    5  C   UNL     1     -10.416  11.553  66.963  1.00  0.00    -0.263 A  
HETATM    6  C   UNL     1     -10.971  10.241  67.555  1.00  0.00    -0.280 A  
HETATM    7  N   UNL     1      -9.834   9.342  67.518  1.00  0.00    -0.164 NA 
HETATM    8  C   UNL     1      -8.690   9.923  67.060  1.00  0.00    -0.131 A  
HETATM    9  C   UNL     1      -7.699   8.981  67.052  1.00  0.00    -0.098 A  
HETATM   10  C   UNL     1      -8.283   7.805  67.601  1.00  0.00    -0.125 A  
HETATM   11  C   UNL     1      -9.613   8.063  67.928  1.00  0.00    -0.155 A  
ENDROOT
BRANCH  11  12
HETATM   12  C   UNL     1     -10.611   7.195  68.529  1.00  0.00    -0.187 C  
HETATM   13  O   UNL     1     -11.237   6.360  67.876  1.00  0.00    -0.319 OA 
BRANCH  12  14
HETATM   14  C   UNL     1     -10.929   7.335  69.981  1.00  0.00    -0.273 A  
HETATM   15  C   UNL     1     -10.381   8.400  70.708  1.00  0.00    -0.228 A  
HETATM   16  C   UNL     1     -10.603   8.499  72.087  1.00  0.00    -0.419 A  
HETATM   17  C   UNL     1     -11.365   7.533  72.742  1.00  0.00    -0.388 A  
HETATM   18  C   UNL     1     -11.917   6.473  72.025  1.00  0.00    -0.372 A  
HETATM   19  C   UNL     1     -11.698   6.371  70.649  1.00  0.00    -0.377 A  
ENDBRANCH  12  14
ENDBRANCH  11  12
TORSDOF 2
ENDMDL
MODEL      164
REMARK 921   NORMALIZED FREE ENERGY PREDICTED BY IDOCK:   -4.06 KCAL/MOL
REMARK 922        TOTAL FREE ENERGY PREDICTED BY IDOCK:   -4.81 KCAL/MOL
REMARK 923 INTER-LIGAND FREE ENERGY PREDICTED BY IDOCK:   -4.60 KCAL/MOL
REMARK 924 INTRA-LIGAND FREE ENERGY PREDICTED BY IDOCK:   -0.21 KCAL/MOL
REMARK 927      BINDING AFFINITY PREDICTED BY RF-SCORE:    0.00 PKD
ROOT
HETATM    1  O   UNL     1     -14.384  15.456  70.985  1.00  0.00    -0.447 OA 
HETATM    2  C   UNL     1     -13.662  15.592  72.120  1.00  0.00    -0.515 C  
HETATM    3  C   UNL     1     -12.414  14.730  72.234  1.00  0.00    -0.408 A  
HETATM    4  O   UNL     1     -13.968  16.420  72.969  1.00  0.00    -0.212 OA 
HETATM    5  C   UNL     1     -11.171  15.485  71.693  1.00  0.00    -0.388 A  
HETATM    6  C   UNL     1     -10.623  14.686  70.492  1.00  0.00     0.361 A  
HETATM    7  N   UNL     1     -11.462  13.504  70.458  1.00  0.00     0.090 NA 
HETATM    8  C   UNL     1     -12.448  13.504  71.398  1.00  0.00    -0.255 A  
HETATM    9  C   UNL     1     -13.157  12.340  71.282  1.00  0.00    -0.208 A  
HETATM   10  C   UNL     1     -12.594  11.658  70.167  1.00  0.00    -0.106 A  
HETATM   11  C   UNL     1     -11.559  12.424  69.636  1.00  0.00    -0.260 A  
ENDROOT
BRANCH  11  12
HETATM   12  C   UNL     1     -10.700  12.166  68.492  1.00  0.00    -0.232 C  
HETATM   13  O   UNL     1     -10.136  11.085  68.322  1.00  0.00    -0.166 OA 
BRANCH  12  14
HETATM   14  C   UNL     1     -10.451  13.254  67.500  1.00  0.00    -0.237 A  
HETATM   15  C   UNL     1      -9.213  13.911  67.491  1.00  0.00    -0.205 A  
HETATM   16  C   UNL     1      -8.994  14.987  66.623  1.00  0.00    -0.313 A  
HETATM   17  C   UNL     1     -10.010  15.413  65.768  1.00  0.00    -0.393 A  
HETATM   18  C   UNL     1     -11.242  14.761  65.768  1.00  0.00    -0.337 A  
HETATM   19  C   UNL     1     -11.465  13.686  66.633  1.00  0.00    -0.365 A  
ENDBRANCH  12  14
ENDBRANCH  11  12
TORSDOF 2
ENDMDL
MODEL      165
REMARK 921   NORMALIZED FREE ENERGY PREDICTED BY IDOCK:   -4.03 KCAL/MOL
REMARK 922        TOTAL FREE ENERGY PREDICTED BY IDOCK:   -4.76 KCAL/MOL
REMARK 923 INTER-LIGAND FREE ENERGY PREDICTED BY IDOCK:   -4.31 KCAL/MOL
REMARK 924 INTRA-LIGAND FREE ENERGY PREDICTED BY IDOCK:   -0.45 KCAL/MOL
REMARK 927      BINDING AFFINITY PREDICTED BY RF-SCORE:    0.00 PKD
ROOT
HETATM    1  O   UNL     1     -10.843  13.857  69.302  1.00  0.00    -0.221 OA 
HETATM    2  C   UNL     1     -12.020  13.369  69.755  1.00  0.00    -0.330 C  
HETATM    3  C   UNL     1     -12.341  11.928  69.388  1.00  0.00    -0.056 A  
HETATM    4  O   UNL     1     -12.746  14.039  70.481  1.00  0.00    -0.327 OA 
HETATM    5  C   UNL     1     -11.842  10.955  70.489  1.00  0.00    -0.457 A  
HETATM    6  C   UNL     1     -10.789  10.026  69.849  1.00  0.00    -0.285 A  
HETATM    7  N   UNL     1     -10.801  10.407  68.451  1.00  0.00    -0.227 NA 
HETATM    8  C   UNL     1     -11.639  11.444  68.173  1.00  0.00    -0.294 A  
HETATM    9  C   UNL     1     -11.580  11.701  66.830  1.00  0.00    -0.246 A  
HETATM   10  C   UNL     1     -10.601  10.808  66.312  1.00  0.00    -0.257 A  
HETATM   11  C   UNL     1     -10.091  10.032  67.351  1.00  0.00    -0.208 A  
ENDROOT
BRANCH  11  12
HETATM   12  C   UNL     1      -9.066   9.002  67.331  1.00  0.00    -0.131 C  
HETATM   13  O   UNL     1      -7.885   9.253  67.094  1.00  0.00    -0.098 OA 
BRANCH  12  14
HETATM   14  C   UNL     1      -9.451   7.578  67.565  1.00  0.00    -0.165 A  
HETATM   15  C   UNL     1      -8.897   6.883  68.649  1.00  0.00    -0.124 A  
HETATM   16  C   UNL     1      -9.184   5.525  68.833  1.00  0.00    -0.141 A  
HETATM   17  C   UNL     1     -10.016   4.858  67.935  1.00  0.00    -0.181 A  
HETATM   18  C   UNL     1     -10.574   5.545  66.858  1.00  0.00    -0.348 A  
HETATM   19  C   UNL     1     -10.290   6.900  66.670  1.00  0.00    -0.214 A  
ENDBRANCH  12  14
ENDBRANCH  11  12
TORSDOF 2
ENDMDL
MODEL      166
REMARK 921   NORMALIZED FREE ENERGY PREDICTED BY IDOCK:   -4.02 KCAL/MOL
REMARK 922        TOTAL FREE ENERGY PREDICTED BY IDOCK:   -4.76 KCAL/MOL
REMARK 923 INTER-LIGAND FREE ENERGY PREDICTED BY IDOCK:   -4.41 KCAL/MOL
REMARK 924 INTRA-LIGAND FREE ENERGY PREDICTED BY IDOCK:   -0.35 KCAL/MOL
REMARK 927      BINDING AFFINITY PREDICTED BY RF-SCORE:    0.00 PKD
ROOT
HETATM    1  O   UNL     1      -8.451   6.435  70.223  1.00  0.00    -0.131 OA 
HETATM    2  C   UNL     1      -9.604   5.730  70.200  1.00  0.00    -0.166 C  
HETATM    3  C   UNL     1     -10.831   6.458  69.671  1.00  0.00    -0.380 A  
HETATM    4  O   UNL     1      -9.631   4.548  70.522  1.00  0.00    -0.168 OA 
HETATM    5  C   UNL     1     -10.993   6.227  68.145  1.00  0.00    -0.412 A  
HETATM    6  C   UNL     1     -10.886   7.601  67.450  1.00  0.00    -0.170 A  
HETATM    7  N   UNL     1     -10.781   8.534  68.554  1.00  0.00    -0.099 NA 
HETATM    8  C   UNL     1     -10.748   7.936  69.777  1.00  0.00    -0.233 A  
HETATM    9  C   UNL     1     -10.667   8.911  70.734  1.00  0.00    -0.287 A  
HETATM   10  C   UNL     1     -10.579  10.140  70.022  1.00  0.00    -0.338 A  
HETATM   11  C   UNL     1     -10.609   9.881  68.653  1.00  0.00    -0.217 A  
ENDROOT
BRANCH  11  12
HETATM   12  C   UNL     1     -10.528  10.798  67.528  1.00  0.00    -0.220 C  
HETATM   13  O   UNL     1     -11.229  11.807  67.449  1.00  0.00    -0.258 OA 
BRANCH  12  14
HETATM   14  C   UNL     1      -9.595  10.498  66.402  1.00  0.00    -0.220 A  
HETATM   15  C   UNL     1      -8.218  10.418  66.648  1.00  0.00    -0.128 A  
HETATM   16  C   UNL     1      -7.324  10.220  65.589  1.00  0.00    -0.149 A  
HETATM   17  C   UNL     1      -7.802  10.109  64.284  1.00  0.00    -0.140 A  
HETATM   18  C   UNL     1      -9.171  10.183  64.032  1.00  0.00    -0.315 A  
HETATM   19  C   UNL     1     -10.066  10.381  65.086  1.00  0.00    -0.379 A  
ENDBRANCH  12  14
ENDBRANCH  11  12
TORSDOF 2
ENDMDL
MODEL      167
REMARK 921   NORMALIZED FREE ENERGY PREDICTED BY IDOCK:   -3.93 KCAL/MOL
REMARK 922        TOTAL FREE ENERGY PREDICTED BY IDOCK:   -4.66 KCAL/MOL
REMARK 923 INTER-LIGAND FREE ENERGY PREDICTED BY IDOCK:   -4.30 KCAL/MOL
REMARK 924 INTRA-LIGAND FREE ENERGY PREDICTED BY IDOCK:   -0.37 KCAL/MOL
REMARK 927      BINDING AFFINITY PREDICTED BY RF-SCORE:    0.00 PKD
ROOT
HETATM    1  O   UNL     1      -7.634  13.483  68.777  1.00  0.00    -0.122 OA 
HETATM    2  C   UNL     1      -6.763  13.065  67.831  1.00  0.00    -0.129 C  
HETATM    3  C   UNL     1      -6.776  11.578  67.511  1.00  0.00    -0.087 A  
HETATM    4  O   UNL     1      -6.060  13.861  67.221  1.00  0.00    -0.314 OA 
HETATM    5  C   UNL     1      -7.750  11.273  66.342  1.00  0.00    -0.089 A  
HETATM    6  C   UNL     1      -8.851  10.336  66.881  1.00  0.00    -0.132 A  
HETATM    7  N   UNL     1      -8.429  10.062  68.241  1.00  0.00    -0.110 NA 
HETATM    8  C   UNL     1      -7.300  10.729  68.610  1.00  0.00    -0.097 A  
HETATM    9  C   UNL     1      -6.991  10.380  69.896  1.00  0.00    -0.149 A  
HETATM   10  C   UNL     1      -8.040   9.515  70.321  1.00  0.00    -0.200 A  
HETATM   11  C   UNL     1      -8.956   9.361  69.283  1.00  0.00    -0.154 A  
ENDROOT
BRANCH  11  12
HETATM   12  C   UNL     1     -10.193   8.600  69.235  1.00  0.00    -0.211 C  
HETATM   13  O   UNL     1     -10.458   7.829  68.312  1.00  0.00    -0.201 OA 
BRANCH  12  14
HETATM   14  C   UNL     1     -11.207   8.776  70.318  1.00  0.00    -0.212 A  
HETATM   15  C   UNL     1     -11.864   7.653  70.838  1.00  0.00    -0.272 A  
HETATM   16  C   UNL     1     -12.874   7.810  71.794  1.00  0.00    -0.352 A  
HETATM   17  C   UNL     1     -13.235   9.085  72.226  1.00  0.00    -0.519 A  
HETATM   18  C   UNL     1     -12.583  10.207  71.716  1.00  0.00    -0.500 A  
HETATM   19  C   UNL     1     -11.574  10.055  70.762  1.00  0.00    -0.444 A  
ENDBRANCH  12  14
ENDBRANCH  11  12
TORSDOF 2
ENDMDL
MODEL      168
REMARK 921   NORMALIZED FREE ENERGY PREDICTED BY IDOCK:   -3.93 KCAL/MOL
REMARK 922        TOTAL FREE ENERGY PREDICTED BY IDOCK:   -4.66 KCAL/MOL
REMARK 923 INTER-LIGAND FREE ENERGY PREDICTED BY IDOCK:   -4.28 KCAL/MOL
REMARK 924 INTRA-LIGAND FREE ENERGY PREDICTED BY IDOCK:   -0.38 KCAL/MOL
REMARK 927      BINDING AFFINITY PREDICTED BY RF-SCORE:    0.00 PKD
ROOT
HETATM    1  O   UNL     1      -7.551  10.685  69.459  1.00  0.00    -0.146 OA 
HETATM    2  C   UNL     1      -7.372   9.385  69.137  1.00  0.00    -0.071 C  
HETATM    3  C   UNL     1      -8.058   8.902  67.867  1.00  0.00    -0.106 A  
HETATM    4  O   UNL     1      -6.636   8.664  69.800  1.00  0.00    -0.041 OA 
HETATM    5  C   UNL     1      -7.112   9.039  66.644  1.00  0.00    -0.081 A  
HETATM    6  C   UNL     1      -7.769  10.021  65.652  1.00  0.00    -0.136 A  
HETATM    7  N   UNL     1      -9.053  10.313  66.260  1.00  0.00    -0.151 NA 
HETATM    8  C   UNL     1      -9.235   9.715  67.471  1.00  0.00    -0.133 A  
HETATM    9  C   UNL     1     -10.478  10.046  67.935  1.00  0.00    -0.276 A  
HETATM   10  C   UNL     1     -11.021  10.942  66.971  1.00  0.00    -0.310 A  
HETATM   11  C   UNL     1     -10.095  11.131  65.948  1.00  0.00    -0.247 A  
ENDROOT
BRANCH  11  12
HETATM   12  C   UNL     1     -10.175  11.963  64.758  1.00  0.00    -0.276 C  
HETATM   13  O   UNL     1      -9.861  11.549  63.643  1.00  0.00    -0.298 OA 
BRANCH  12  14
HETATM   14  C   UNL     1     -10.617  13.384  64.884  1.00  0.00    -0.398 A  
HETATM   15  C   UNL     1     -11.850  13.774  64.345  1.00  0.00    -0.458 A  
HETATM   16  C   UNL     1     -12.240  15.118  64.382  1.00  0.00    -0.289 A  
HETATM   17  C   UNL     1     -11.399  16.074  64.949  1.00  0.00    -0.232 A  
HETATM   18  C   UNL     1     -10.172  15.693  65.491  1.00  0.00    -0.414 A  
HETATM   19  C   UNL     1      -9.779  14.352  65.456  1.00  0.00    -0.214 A  
ENDBRANCH  12  14
ENDBRANCH  11  12
TORSDOF 2
ENDMDL
MODEL      169
REMARK 921   NORMALIZED FREE ENERGY PREDICTED BY IDOCK:   -3.92 KCAL/MOL
REMARK 922        TOTAL FREE ENERGY PREDICTED BY IDOCK:   -4.64 KCAL/MOL
REMARK 923 INTER-LIGAND FREE ENERGY PREDICTED BY IDOCK:   -4.46 KCAL/MOL
REMARK 924 INTRA-LIGAND FREE ENERGY PREDICTED BY IDOCK:   -0.18 KCAL/MOL
REMARK 927      BINDING AFFINITY PREDICTED BY RF-SCORE:    0.00 PKD
ROOT
HETATM    1  O   UNL     1      -7.333   5.787  69.072  1.00  0.00    -0.079 OA 
HETATM    2  C   UNL     1      -8.297   4.962  69.540  1.00  0.00    -0.084 C  
HETATM    3  C   UNL     1      -9.654   5.594  69.810  1.00  0.00    -0.206 A  
HETATM    4  O   UNL     1      -8.096   3.760  69.666  1.00  0.00    -0.054 OA 
HETATM    5  C   UNL     1     -10.570   5.488  68.561  1.00  0.00    -0.208 A  
HETATM    6  C   UNL     1     -10.904   6.923  68.103  1.00  0.00    -0.194 A  
HETATM    7  N   UNL     1     -10.290   7.757  69.117  1.00  0.00    -0.213 NA 
HETATM    8  C   UNL     1      -9.600   7.056  70.060  1.00  0.00    -0.164 A  
HETATM    9  C   UNL     1      -9.085   7.941  70.967  1.00  0.00    -0.155 A  
HETATM   10  C   UNL     1      -9.437   9.233  70.485  1.00  0.00    -0.317 A  
HETATM   11  C   UNL     1     -10.156   9.100  69.299  1.00  0.00    -0.194 A  
ENDROOT
BRANCH  11  12
HETATM   12  C   UNL     1     -10.712  10.120  68.426  1.00  0.00    -0.230 C  
HETATM   13  O   UNL     1     -10.634  10.051  67.199  1.00  0.00    -0.241 OA 
BRANCH  12  14
HETATM   14  C   UNL     1     -11.371  11.319  69.023  1.00  0.00    -0.344 A  
HETATM   15  C   UNL     1     -11.184  12.576  68.432  1.00  0.00    -0.313 A  
HETATM   16  C   UNL     1     -11.728  13.721  69.027  1.00  0.00    -0.372 A  
HETATM   17  C   UNL     1     -12.449  13.615  70.214  1.00  0.00    -0.335 A  
HETATM   18  C   UNL     1     -12.643  12.368  70.806  1.00  0.00    -0.298 A  
HETATM   19  C   UNL     1     -12.103  11.223  70.215  1.00  0.00    -0.459 A  
ENDBRANCH  12  14
ENDBRANCH  11  12
TORSDOF 2
ENDMDL
MODEL      170
REMARK 921   NORMALIZED FREE ENERGY PREDICTED BY IDOCK:   -3.86 KCAL/MOL
REMARK 922        TOTAL FREE ENERGY PREDICTED BY IDOCK:   -4.58 KCAL/MOL
REMARK 923 INTER-LIGAND FREE ENERGY PREDICTED BY IDOCK:   -4.06 KCAL/MOL
REMARK 924 INTRA-LIGAND FREE ENERGY PREDICTED BY IDOCK:   -0.52 KCAL/MOL
REMARK 927      BINDING AFFINITY PREDICTED BY RF-SCORE:    0.00 PKD
ROOT
HETATM    1  O   UNL     1     -11.644   8.335  70.895  1.00  0.00    -0.278 OA 
HETATM    2  C   UNL     1     -11.781   9.667  71.081  1.00  0.00    -0.372 C  
HETATM    3  C   UNL     1     -10.961  10.565  70.167  1.00  0.00    -0.338 A  
HETATM    4  O   UNL     1     -12.578  10.113  71.897  1.00  0.00    -0.396 OA 
HETATM    5  C   UNL     1     -11.772  10.949  68.900  1.00  0.00    -0.376 A  
HETATM    6  C   UNL     1     -11.019  10.390  67.675  1.00  0.00    -0.312 A  
HETATM    7  N   UNL     1      -9.809   9.830  68.245  1.00  0.00    -0.145 NA 
HETATM    8  C   UNL     1      -9.753   9.912  69.603  1.00  0.00    -0.229 A  
HETATM    9  C   UNL     1      -8.568   9.373  70.022  1.00  0.00    -0.218 A  
HETATM   10  C   UNL     1      -7.930   8.889  68.845  1.00  0.00    -0.104 A  
HETATM   11  C   UNL     1      -8.744   9.146  67.743  1.00  0.00    -0.121 A  
ENDROOT
BRANCH  11  12
HETATM   12  C   UNL     1      -8.542   8.828  66.340  1.00  0.00    -0.128 C  
HETATM   13  O   UNL     1      -8.241   9.684  65.507  1.00  0.00    -0.119 OA 
BRANCH  12  14
HETATM   14  C   UNL     1      -8.741   7.426  65.868  1.00  0.00    -0.161 A  
HETATM   15  C   UNL     1      -9.637   6.589  66.548  1.00  0.00    -0.184 A  
HETATM   16  C   UNL     1      -9.773   5.248  66.168  1.00  0.00    -0.179 A  
HETATM   17  C   UNL     1      -9.012   4.739  65.117  1.00  0.00    -0.152 A  
HETATM   18  C   UNL     1      -8.123   5.567  64.433  1.00  0.00    -0.124 A  
HETATM   19  C   UNL     1      -7.984   6.905  64.808  1.00  0.00    -0.119 A  
ENDBRANCH  12  14
ENDBRANCH  11  12
TORSDOF 2
ENDMDL
MODEL      171
REMARK 921   NORMALIZED FREE ENERGY PREDICTED BY IDOCK:   -3.85 KCAL/MOL
REMARK 922        TOTAL FREE ENERGY PREDICTED BY IDOCK:   -4.57 KCAL/MOL
REMARK 923 INTER-LIGAND FREE ENERGY PREDICTED BY IDOCK:   -4.10 KCAL/MOL
REMARK 924 INTRA-LIGAND FREE ENERGY PREDICTED BY IDOCK:   -0.47 KCAL/MOL
REMARK 927      BINDING AFFINITY PREDICTED BY RF-SCORE:    0.00 PKD
ROOT
HETATM    1  O   UNL     1      -7.147  10.663  65.589  1.00  0.00    -0.136 OA 
HETATM    2  C   UNL     1      -6.612  11.312  66.648  1.00  0.00    -0.135 C  
HETATM    3  C   UNL     1      -7.267  11.057  67.997  1.00  0.00    -0.086 A  
HETATM    4  O   UNL     1      -5.611  12.007  66.525  1.00  0.00    -0.297 OA 
HETATM    5  C   UNL     1      -6.573   9.879  68.732  1.00  0.00    -0.046 A  
HETATM    6  C   UNL     1      -7.623   8.766  68.928  1.00  0.00    -0.091 A  
HETATM    7  N   UNL     1      -8.846   9.358  68.423  1.00  0.00    -0.128 NA 
HETATM    8  C   UNL     1      -8.679  10.607  67.908  1.00  0.00    -0.127 A  
HETATM    9  C   UNL     1      -9.895  11.068  67.482  1.00  0.00    -0.190 A  
HETATM   10  C   UNL     1     -10.807   9.997  67.700  1.00  0.00    -0.336 A  
HETATM   11  C   UNL     1     -10.122   8.916  68.251  1.00  0.00    -0.187 A  
ENDROOT
BRANCH  11  12
HETATM   12  C   UNL     1     -10.608   7.599  68.629  1.00  0.00    -0.130 C  
HETATM   13  O   UNL     1     -10.829   6.716  67.801  1.00  0.00    -0.253 OA 
BRANCH  12  14
HETATM   14  C   UNL     1     -10.890   7.304  70.066  1.00  0.00    -0.271 A  
HETATM   15  C   UNL     1     -11.116   8.363  70.956  1.00  0.00    -0.298 A  
HETATM   16  C   UNL     1     -11.301   8.107  72.320  1.00  0.00    -0.429 A  
HETATM   17  C   UNL     1     -11.251   6.798  72.798  1.00  0.00    -0.267 A  
HETATM   18  C   UNL     1     -11.030   5.740  71.918  1.00  0.00    -0.318 A  
HETATM   19  C   UNL     1     -10.846   5.991  70.555  1.00  0.00    -0.382 A  
ENDBRANCH  12  14
ENDBRANCH  11  12
TORSDOF 2
ENDMDL
MODEL      172
REMARK 921   NORMALIZED FREE ENERGY PREDICTED BY IDOCK:   -3.85 KCAL/MOL
REMARK 922        TOTAL FREE ENERGY PREDICTED BY IDOCK:   -4.57 KCAL/MOL
REMARK 923 INTER-LIGAND FREE ENERGY PREDICTED BY IDOCK:   -4.88 KCAL/MOL
REMARK 924 INTRA-LIGAND FREE ENERGY PREDICTED BY IDOCK:    0.31 KCAL/MOL
REMARK 927      BINDING AFFINITY PREDICTED BY RF-SCORE:    0.00 PKD
ROOT
HETATM    1  O   UNL     1      -8.568   9.023  64.464  1.00  0.00    -0.176 OA 
HETATM    2  C   UNL     1      -8.442   8.069  65.413  1.00  0.00    -0.139 C  
HETATM    3  C   UNL     1      -8.814   8.474  66.832  1.00  0.00    -0.153 A  
HETATM    4  O   UNL     1      -8.114   6.925  65.122  1.00  0.00    -0.126 OA 
HETATM    5  C   UNL     1     -10.306   8.160  67.121  1.00  0.00    -0.391 A  
HETATM    6  C   UNL     1     -11.015   9.496  67.425  1.00  0.00    -0.033 A  
HETATM    7  N   UNL     1      -9.937  10.466  67.408  1.00  0.00    -0.181 NA 
HETATM    8  C   UNL     1      -8.726   9.934  67.086  1.00  0.00    -0.131 A  
HETATM    9  C   UNL     1      -7.791  10.932  67.120  1.00  0.00    -0.127 A  
HETATM   10  C   UNL     1      -8.513  12.123  67.411  1.00  0.00    -0.173 A  
HETATM   11  C   UNL     1      -9.866  11.818  67.546  1.00  0.00    -0.186 A  
ENDROOT
BRANCH  11  12
HETATM   12  C   UNL     1     -10.996  12.690  67.821  1.00  0.00    -0.234 C  
HETATM   13  O   UNL     1     -11.352  13.572  67.041  1.00  0.00    -0.302 OA 
BRANCH  12  14
HETATM   14  C   UNL     1     -11.736  12.549  69.110  1.00  0.00    -0.375 A  
HETATM   15  C   UNL     1     -12.082  13.696  69.838  1.00  0.00    -0.406 A  
HETATM   16  C   UNL     1     -12.703  13.576  71.087  1.00  0.00    -0.425 A  
HETATM   17  C   UNL     1     -12.972  12.314  71.615  1.00  0.00    -0.416 A  
HETATM   18  C   UNL     1     -12.635  11.169  70.895  1.00  0.00    -0.483 A  
HETATM   19  C   UNL     1     -12.016  11.284  69.648  1.00  0.00    -0.423 A  
ENDBRANCH  12  14
ENDBRANCH  11  12
TORSDOF 2
ENDMDL
MODEL      173
REMARK 921   NORMALIZED FREE ENERGY PREDICTED BY IDOCK:   -3.77 KCAL/MOL
REMARK 922        TOTAL FREE ENERGY PREDICTED BY IDOCK:   -4.48 KCAL/MOL
REMARK 923 INTER-LIGAND FREE ENERGY PREDICTED BY IDOCK:   -3.98 KCAL/MOL
REMARK 924 INTRA-LIGAND FREE ENERGY PREDICTED BY IDOCK:   -0.50 KCAL/MOL
REMARK 927      BINDING AFFINITY PREDICTED BY RF-SCORE:    0.00 PKD
ROOT
HETATM    1  O   UNL     1      -6.860  11.655  68.786  1.00  0.00    -0.076 OA 
HETATM    2  C   UNL     1      -6.744  11.740  67.441  1.00  0.00    -0.120 C  
HETATM    3  C   UNL     1      -7.346  10.597  66.638  1.00  0.00    -0.129 A  
HETATM    4  O   UNL     1      -6.241  12.723  66.910  1.00  0.00    -0.177 OA 
HETATM    5  C   UNL     1      -8.813  10.915  66.243  1.00  0.00    -0.187 A  
HETATM    6  C   UNL     1      -9.716   9.849  66.898  1.00  0.00    -0.186 A  
HETATM    7  N   UNL     1      -8.774   8.941  67.522  1.00  0.00    -0.123 NA 
HETATM    8  C   UNL     1      -7.474   9.327  67.395  1.00  0.00    -0.087 A  
HETATM    9  C   UNL     1      -6.682   8.391  68.002  1.00  0.00    -0.065 A  
HETATM   10  C   UNL     1      -7.578   7.444  68.573  1.00  0.00    -0.114 A  
HETATM   11  C   UNL     1      -8.889   7.828  68.298  1.00  0.00    -0.129 A  
ENDROOT
BRANCH  11  12
HETATM   12  C   UNL     1     -10.144   7.203  68.680  1.00  0.00    -0.173 C  
HETATM   13  O   UNL     1     -10.808   6.525  67.896  1.00  0.00    -0.256 OA 
BRANCH  12  14
HETATM   14  C   UNL     1     -10.681   7.414  70.057  1.00  0.00    -0.258 A  
HETATM   15  C   UNL     1     -11.753   6.632  70.508  1.00  0.00    -0.453 A  
HETATM   16  C   UNL     1     -12.320   6.873  71.765  1.00  0.00    -0.401 A  
HETATM   17  C   UNL     1     -11.824   7.898  72.569  1.00  0.00    -0.390 A  
HETATM   18  C   UNL     1     -10.755   8.678  72.130  1.00  0.00    -0.417 A  
HETATM   19  C   UNL     1     -10.186   8.440  70.876  1.00  0.00    -0.234 A  
ENDBRANCH  12  14
ENDBRANCH  11  12
TORSDOF 2
ENDMDL
MODEL      174
REMARK 921   NORMALIZED FREE ENERGY PREDICTED BY IDOCK:   -3.74 KCAL/MOL
REMARK 922        TOTAL FREE ENERGY PREDICTED BY IDOCK:   -4.44 KCAL/MOL
REMARK 923 INTER-LIGAND FREE ENERGY PREDICTED BY IDOCK:   -3.92 KCAL/MOL
REMARK 924 INTRA-LIGAND FREE ENERGY PREDICTED BY IDOCK:   -0.52 KCAL/MOL
REMARK 927      BINDING AFFINITY PREDICTED BY RF-SCORE:    0.00 PKD
ROOT
HETATM    1  O   UNL     1      -8.860  11.543  68.653  1.00  0.00    -0.163 OA 
HETATM    2  C   UNL     1     -10.122  11.981  68.446  1.00  0.00    -0.210 C  
HETATM    3  C   UNL     1     -11.238  10.987  68.729  1.00  0.00    -0.327 A  
HETATM    4  O   UNL     1     -10.343  13.141  68.116  1.00  0.00    -0.231 OA 
HETATM    5  C   UNL     1     -11.737  11.122  70.193  1.00  0.00    -0.439 A  
HETATM    6  C   UNL     1     -11.468   9.780  70.905  1.00  0.00    -0.369 A  
HETATM    7  N   UNL     1     -10.951   8.931  69.849  1.00  0.00    -0.217 NA 
HETATM    8  C   UNL     1     -10.814   9.566  68.652  1.00  0.00    -0.139 A  
HETATM    9  C   UNL     1     -10.340   8.668  67.736  1.00  0.00    -0.303 A  
HETATM   10  C   UNL     1     -10.124   7.461  68.460  1.00  0.00    -0.187 A  
HETATM   11  C   UNL     1     -10.472   7.658  69.795  1.00  0.00    -0.232 A  
ENDROOT
BRANCH  11  12
HETATM   12  C   UNL     1     -10.411   6.740  70.920  1.00  0.00    -0.213 C  
HETATM   13  O   UNL     1     -11.419   6.229  71.409  1.00  0.00    -0.294 OA 
BRANCH  12  14
HETATM   14  C   UNL     1      -9.090   6.427  71.541  1.00  0.00    -0.144 A  
HETATM   15  C   UNL     1      -8.483   7.367  72.385  1.00  0.00    -0.132 A  
HETATM   16  C   UNL     1      -7.208   7.122  72.909  1.00  0.00    -0.073 A  
HETATM   17  C   UNL     1      -6.535   5.945  72.587  1.00  0.00    -0.063 A  
HETATM   18  C   UNL     1      -7.134   5.003  71.752  1.00  0.00    -0.066 A  
HETATM   19  C   UNL     1      -8.407   5.243  71.227  1.00  0.00    -0.123 A  
ENDBRANCH  12  14
ENDBRANCH  11  12
TORSDOF 2
ENDMDL
MODEL      175
REMARK 921   NORMALIZED FREE ENERGY PREDICTED BY IDOCK:   -3.74 KCAL/MOL
REMARK 922        TOTAL FREE ENERGY PREDICTED BY IDOCK:   -4.44 KCAL/MOL
REMARK 923 INTER-LIGAND FREE ENERGY PREDICTED BY IDOCK:   -3.95 KCAL/MOL
REMARK 924 INTRA-LIGAND FREE ENERGY PREDICTED BY IDOCK:   -0.49 KCAL/MOL
REMARK 927      BINDING AFFINITY PREDICTED BY RF-SCORE:    0.00 PKD
ROOT
HETATM    1  O   UNL     1      -9.189   3.714  70.001  1.00  0.00    -0.119 OA 
HETATM    2  C   UNL     1      -9.518   3.702  68.690  1.00  0.00    -0.140 C  
HETATM    3  C   UNL     1      -9.915   5.038  68.080  1.00  0.00    -0.190 A  
HETATM    4  O   UNL     1      -9.427   2.678  68.024  1.00  0.00    -0.211 OA 
HETATM    5  C   UNL     1      -8.681   5.754  67.470  1.00  0.00    -0.107 A  
HETATM    6  C   UNL     1      -8.487   7.083  68.229  1.00  0.00    -0.123 A  
HETATM    7  N   UNL     1      -9.624   7.131  69.128  1.00  0.00    -0.154 NA 
HETATM    8  C   UNL     1     -10.418   6.026  69.067  1.00  0.00    -0.256 A  
HETATM    9  C   UNL     1     -11.459   6.192  69.939  1.00  0.00    -0.371 A  
HETATM   10  C   UNL     1     -11.217   7.433  70.592  1.00  0.00    -0.292 A  
HETATM   11  C   UNL     1     -10.037   7.988  70.101  1.00  0.00    -0.194 A  
ENDROOT
BRANCH  11  12
HETATM   12  C   UNL     1      -9.366   9.225  70.465  1.00  0.00    -0.264 C  
HETATM   13  O   UNL     1      -8.658   9.320  71.468  1.00  0.00    -0.320 OA 
BRANCH  12  14
HETATM   14  C   UNL     1      -9.563  10.443  69.624  1.00  0.00    -0.142 A  
HETATM   15  C   UNL     1     -10.862  10.902  69.368  1.00  0.00    -0.286 A  
HETATM   16  C   UNL     1     -11.067  11.993  68.515  1.00  0.00    -0.289 A  
HETATM   17  C   UNL     1      -9.979  12.622  67.912  1.00  0.00    -0.228 A  
HETATM   18  C   UNL     1      -8.683  12.173  68.166  1.00  0.00    -0.185 A  
HETATM   19  C   UNL     1      -8.475  11.085  69.017  1.00  0.00    -0.082 A  
ENDBRANCH  12  14
ENDBRANCH  11  12
TORSDOF 2
ENDMDL
MODEL      176
REMARK 921   NORMALIZED FREE ENERGY PREDICTED BY IDOCK:   -3.73 KCAL/MOL
REMARK 922        TOTAL FREE ENERGY PREDICTED BY IDOCK:   -4.43 KCAL/MOL
REMARK 923 INTER-LIGAND FREE ENERGY PREDICTED BY IDOCK:   -3.96 KCAL/MOL
REMARK 924 INTRA-LIGAND FREE ENERGY PREDICTED BY IDOCK:   -0.47 KCAL/MOL
REMARK 927      BINDING AFFINITY PREDICTED BY RF-SCORE:    0.00 PKD
ROOT
HETATM    1  O   UNL     1      -8.448   8.489  67.872  1.00  0.00    -0.128 OA 
HETATM    2  C   UNL     1      -9.517   9.296  67.690  1.00  0.00    -0.132 C  
HETATM    3  C   UNL     1     -10.684   9.096  68.645  1.00  0.00    -0.156 A  
HETATM    4  O   UNL     1      -9.504  10.185  66.846  1.00  0.00    -0.162 OA 
HETATM    5  C   UNL     1     -10.552  10.027  69.880  1.00  0.00    -0.324 A  
HETATM    6  C   UNL     1     -10.434   9.130  71.131  1.00  0.00    -0.315 A  
HETATM    7  N   UNL     1     -10.605   7.790  70.607  1.00  0.00    -0.218 NA 
HETATM    8  C   UNL     1     -10.742   7.743  69.252  1.00  0.00    -0.147 A  
HETATM    9  C   UNL     1     -10.914   6.439  68.878  1.00  0.00    -0.412 A  
HETATM   10  C   UNL     1     -10.801   5.679  70.077  1.00  0.00    -0.366 A  
HETATM   11  C   UNL     1     -10.564   6.540  71.146  1.00  0.00    -0.229 A  
ENDROOT
BRANCH  11  12
HETATM   12  C   UNL     1     -10.359   6.245  72.554  1.00  0.00    -0.192 C  
HETATM   13  O   UNL     1     -11.260   5.818  73.276  1.00  0.00    -0.246 OA 
BRANCH  12  14
HETATM   14  C   UNL     1      -9.023   6.500  73.171  1.00  0.00    -0.137 A  
HETATM   15  C   UNL     1      -8.852   7.608  74.013  1.00  0.00    -0.305 A  
HETATM   16  C   UNL     1      -7.587   7.907  74.533  1.00  0.00    -0.239 A  
HETATM   17  C   UNL     1      -6.492   7.107  74.209  1.00  0.00    -0.078 A  
HETATM   18  C   UNL     1      -6.656   6.001  73.376  1.00  0.00    -0.074 A  
HETATM   19  C   UNL     1      -7.917   5.699  72.855  1.00  0.00    -0.101 A  
ENDBRANCH  12  14
ENDBRANCH  11  12
TORSDOF 2
ENDMDL
MODEL      177
REMARK 921   NORMALIZED FREE ENERGY PREDICTED BY IDOCK:   -3.73 KCAL/MOL
REMARK 922        TOTAL FREE ENERGY PREDICTED BY IDOCK:   -4.43 KCAL/MOL
REMARK 923 INTER-LIGAND FREE ENERGY PREDICTED BY IDOCK:   -4.13 KCAL/MOL
REMARK 924 INTRA-LIGAND FREE ENERGY PREDICTED BY IDOCK:   -0.30 KCAL/MOL
REMARK 927      BINDING AFFINITY PREDICTED BY RF-SCORE:    0.00 PKD
ROOT
HETATM    1  O   UNL     1      -8.182  10.105  64.656  1.00  0.00    -0.155 OA 
HETATM    2  C   UNL     1      -8.225   8.908  65.284  1.00  0.00    -0.137 C  
HETATM    3  C   UNL     1      -8.737   8.915  66.716  1.00  0.00    -0.130 A  
HETATM    4  O   UNL     1      -7.931   7.874  64.697  1.00  0.00    -0.133 OA 
HETATM    5  C   UNL     1     -10.269   8.667  66.754  1.00  0.00    -0.361 A  
HETATM    6  C   UNL     1     -10.931   9.915  67.374  1.00  0.00    -0.145 A  
HETATM    7  N   UNL     1      -9.805  10.747  67.751  1.00  0.00    -0.164 NA 
HETATM    8  C   UNL     1      -8.596  10.224  67.402  1.00  0.00    -0.125 A  
HETATM    9  C   UNL     1      -7.616  11.081  67.822  1.00  0.00    -0.099 A  
HETATM   10  C   UNL     1      -8.298  12.197  68.385  1.00  0.00    -0.143 A  
HETATM   11  C   UNL     1      -9.673  11.988  68.292  1.00  0.00    -0.205 A  
ENDROOT
BRANCH  11  12
HETATM   12  C   UNL     1     -10.775  12.841  68.706  1.00  0.00    -0.214 C  
HETATM   13  O   UNL     1     -11.819  12.387  69.174  1.00  0.00    -0.301 OA 
BRANCH  12  14
HETATM   14  C   UNL     1     -10.668  14.319  68.526  1.00  0.00    -0.262 A  
HETATM   15  C   UNL     1     -10.795  15.162  69.639  1.00  0.00    -0.297 A  
HETATM   16  C   UNL     1     -10.780  16.552  69.474  1.00  0.00    -0.321 A  
HETATM   17  C   UNL     1     -10.646  17.103  68.201  1.00  0.00    -0.380 A  
HETATM   18  C   UNL     1     -10.515  16.271  67.090  1.00  0.00    -0.297 A  
HETATM   19  C   UNL     1     -10.529  14.883  67.249  1.00  0.00    -0.263 A  
ENDBRANCH  12  14
ENDBRANCH  11  12
TORSDOF 2
ENDMDL
MODEL      178
REMARK 921   NORMALIZED FREE ENERGY PREDICTED BY IDOCK:   -3.71 KCAL/MOL
REMARK 922        TOTAL FREE ENERGY PREDICTED BY IDOCK:   -4.41 KCAL/MOL
REMARK 923 INTER-LIGAND FREE ENERGY PREDICTED BY IDOCK:   -3.89 KCAL/MOL
REMARK 924 INTRA-LIGAND FREE ENERGY PREDICTED BY IDOCK:   -0.52 KCAL/MOL
REMARK 927      BINDING AFFINITY PREDICTED BY RF-SCORE:    0.00 PKD
ROOT
HETATM    1  O   UNL     1     -11.684  11.478  66.530  1.00  0.00    -0.455 OA 
HETATM    2  C   UNL     1     -11.264  12.674  67.000  1.00  0.00    -0.300 C  
HETATM    3  C   UNL     1     -10.485  12.650  68.306  1.00  0.00    -0.249 A  
HETATM    4  O   UNL     1     -11.447  13.704  66.364  1.00  0.00    -0.318 OA 
HETATM    5  C   UNL     1      -8.960  12.544  68.036  1.00  0.00    -0.192 A  
HETATM    6  C   UNL     1      -8.464  11.224  68.662  1.00  0.00    -0.143 A  
HETATM    7  N   UNL     1      -9.639  10.700  69.330  1.00  0.00    -0.182 NA 
HETATM    8  C   UNL     1     -10.756  11.459  69.150  1.00  0.00    -0.189 A  
HETATM    9  C   UNL     1     -11.788  10.880  69.836  1.00  0.00    -0.427 A  
HETATM   10  C   UNL     1     -11.257   9.680  70.388  1.00  0.00    -0.342 A  
HETATM   11  C   UNL     1      -9.917   9.562  70.023  1.00  0.00    -0.237 A  
ENDROOT
BRANCH  11  12
HETATM   12  C   UNL     1      -8.958   8.512  70.322  1.00  0.00    -0.149 C  
HETATM   13  O   UNL     1      -8.501   8.339  71.452  1.00  0.00    -0.115 OA 
BRANCH  12  14
HETATM   14  C   UNL     1      -8.470   7.627  69.223  1.00  0.00    -0.138 A  
HETATM   15  C   UNL     1      -7.092   7.460  69.031  1.00  0.00    -0.079 A  
HETATM   16  C   UNL     1      -6.619   6.700  67.954  1.00  0.00    -0.058 A  
HETATM   17  C   UNL     1      -7.518   6.114  67.065  1.00  0.00    -0.087 A  
HETATM   18  C   UNL     1      -8.890   6.272  67.252  1.00  0.00    -0.107 A  
HETATM   19  C   UNL     1      -9.367   7.029  68.326  1.00  0.00    -0.126 A  
ENDBRANCH  12  14
ENDBRANCH  11  12
TORSDOF 2
ENDMDL
MODEL      179
REMARK 921   NORMALIZED FREE ENERGY PREDICTED BY IDOCK:   -3.70 KCAL/MOL
REMARK 922        TOTAL FREE ENERGY PREDICTED BY IDOCK:   -4.41 KCAL/MOL
REMARK 923 INTER-LIGAND FREE ENERGY PREDICTED BY IDOCK:   -4.11 KCAL/MOL
REMARK 924 INTRA-LIGAND FREE ENERGY PREDICTED BY IDOCK:   -0.29 KCAL/MOL
REMARK 927      BINDING AFFINITY PREDICTED BY RF-SCORE:    0.00 PKD
ROOT
HETATM    1  O   UNL     1     -12.263  10.552  68.902  1.00  0.00    -0.282 OA 
HETATM    2  C   UNL     1     -11.457  11.205  69.768  1.00  0.00    -0.312 C  
HETATM    3  C   UNL     1     -10.747  10.350  70.806  1.00  0.00     0.165 A  
HETATM    4  O   UNL     1     -11.262  12.410  69.666  1.00  0.00    -0.166 OA 
HETATM    5  C   UNL     1      -9.352   9.902  70.291  1.00  0.00    -0.142 A  
HETATM    6  C   UNL     1      -9.355   8.361  70.214  1.00  0.00    -0.164 A  
HETATM    7  N   UNL     1     -10.645   7.994  70.763  1.00  0.00    -0.211 NA 
HETATM    8  C   UNL     1     -11.425   9.061  71.093  1.00  0.00    -0.308 A  
HETATM    9  C   UNL     1     -12.600   8.594  71.613  1.00  0.00    -0.381 A  
HETATM   10  C   UNL     1     -12.527   7.176  71.515  1.00  0.00    -0.418 A  
HETATM   11  C   UNL     1     -11.309   6.819  70.939  1.00  0.00    -0.315 A  
ENDROOT
BRANCH  11  12
HETATM   12  C   UNL     1     -10.781   5.504  70.615  1.00  0.00    -0.233 C  
HETATM   13  O   UNL     1     -10.735   5.079  69.461  1.00  0.00    -0.098 OA 
BRANCH  12  14
HETATM   14  C   UNL     1     -10.309   4.610  71.714  1.00  0.00    -0.208 A  
HETATM   15  C   UNL     1      -9.547   3.476  71.403  1.00  0.00    -0.239 A  
HETATM   16  C   UNL     1      -9.167   2.585  72.414  1.00  0.00    -0.134 A  
HETATM   17  C   UNL     1      -9.554   2.819  73.733  1.00  0.00    -0.122 A  
HETATM   18  C   UNL     1     -10.310   3.947  74.050  1.00  0.00    -0.244 A  
HETATM   19  C   UNL     1     -10.690   4.839  73.044  1.00  0.00    -0.302 A  
ENDBRANCH  12  14
ENDBRANCH  11  12
TORSDOF 2
ENDMDL
MODEL      180
REMARK 921   NORMALIZED FREE ENERGY PREDICTED BY IDOCK:   -3.67 KCAL/MOL
REMARK 922        TOTAL FREE ENERGY PREDICTED BY IDOCK:   -4.37 KCAL/MOL
REMARK 923 INTER-LIGAND FREE ENERGY PREDICTED BY IDOCK:   -3.87 KCAL/MOL
REMARK 924 INTRA-LIGAND FREE ENERGY PREDICTED BY IDOCK:   -0.49 KCAL/MOL
REMARK 927      BINDING AFFINITY PREDICTED BY RF-SCORE:    0.00 PKD
ROOT
HETATM    1  O   UNL     1     -12.106   8.776  71.318  1.00  0.00    -0.290 OA 
HETATM    2  C   UNL     1     -12.060  10.126  71.255  1.00  0.00    -0.394 C  
HETATM    3  C   UNL     1     -11.063  10.722  70.273  1.00  0.00    -0.248 A  
HETATM    4  O   UNL     1     -12.834  10.818  71.906  1.00  0.00    -0.436 OA 
HETATM    5  C   UNL     1     -11.728  10.966  68.892  1.00  0.00    -0.376 A  
HETATM    6  C   UNL     1     -10.989  10.095  67.855  1.00  0.00    -0.277 A  
HETATM    7  N   UNL     1      -9.911   9.497  68.618  1.00  0.00    -0.162 NA 
HETATM    8  C   UNL     1      -9.930   9.822  69.941  1.00  0.00    -0.245 A  
HETATM    9  C   UNL     1      -8.864   9.220  70.551  1.00  0.00    -0.285 A  
HETATM   10  C   UNL     1      -8.231   8.445  69.538  1.00  0.00    -0.118 A  
HETATM   11  C   UNL     1      -8.928   8.598  68.341  1.00  0.00    -0.142 A  
ENDROOT
BRANCH  11  12
HETATM   12  C   UNL     1      -8.687   8.000  67.038  1.00  0.00    -0.128 C  
HETATM   13  O   UNL     1      -9.099   6.879  66.741  1.00  0.00    -0.134 OA 
BRANCH  12  14
HETATM   14  C   UNL     1      -7.877   8.743  66.027  1.00  0.00    -0.105 A  
HETATM   15  C   UNL     1      -6.502   8.916  66.235  1.00  0.00    -0.065 A  
HETATM   16  C   UNL     1      -5.746   9.679  65.338  1.00  0.00    -0.060 A  
HETATM   17  C   UNL     1      -6.360  10.278  64.240  1.00  0.00    -0.096 A  
HETATM   18  C   UNL     1      -7.727  10.108  64.024  1.00  0.00    -0.136 A  
HETATM   19  C   UNL     1      -8.485   9.346  64.917  1.00  0.00    -0.176 A  
ENDBRANCH  12  14
ENDBRANCH  11  12
TORSDOF 2
ENDMDL
MODEL      181
REMARK 921   NORMALIZED FREE ENERGY PREDICTED BY IDOCK:   -3.63 KCAL/MOL
REMARK 922        TOTAL FREE ENERGY PREDICTED BY IDOCK:   -4.33 KCAL/MOL
REMARK 923 INTER-LIGAND FREE ENERGY PREDICTED BY IDOCK:   -3.84 KCAL/MOL
REMARK 924 INTRA-LIGAND FREE ENERGY PREDICTED BY IDOCK:   -0.49 KCAL/MOL
REMARK 927      BINDING AFFINITY PREDICTED BY RF-SCORE:    0.00 PKD
ROOT
HETATM    1  O   UNL     1      -7.493   6.215  67.554  1.00  0.00    -0.079 OA 
HETATM    2  C   UNL     1      -8.219   5.949  66.445  1.00  0.00    -0.112 C  
HETATM    3  C   UNL     1      -9.230   7.006  66.029  1.00  0.00    -0.066 A  
HETATM    4  O   UNL     1      -8.013   4.940  65.780  1.00  0.00    -0.104 OA 
HETATM    5  C   UNL     1      -8.598   8.009  65.026  1.00  0.00    -0.037 A  
HETATM    6  C   UNL     1      -8.627   9.406  65.680  1.00  0.00    -0.142 A  
HETATM    7  N   UNL     1      -9.338   9.186  66.924  1.00  0.00    -0.149 NA 
HETATM    8  C   UNL     1      -9.677   7.884  67.139  1.00  0.00    -0.191 A  
HETATM    9  C   UNL     1     -10.353   7.803  68.325  1.00  0.00    -0.239 A  
HETATM   10  C   UNL     1     -10.346   9.121  68.862  1.00  0.00    -0.232 A  
HETATM   11  C   UNL     1      -9.666   9.968  67.989  1.00  0.00    -0.139 A  
ENDROOT
BRANCH  11  12
HETATM   12  C   UNL     1      -9.377  11.388  68.103  1.00  0.00    -0.181 C  
HETATM   13  O   UNL     1      -8.305  11.810  68.535  1.00  0.00    -0.156 OA 
BRANCH  12  14
HETATM   14  C   UNL     1     -10.424  12.383  67.722  1.00  0.00    -0.231 A  
HETATM   15  C   UNL     1     -10.956  12.363  66.425  1.00  0.00    -0.315 A  
HETATM   16  C   UNL     1     -11.877  13.340  66.028  1.00  0.00    -0.440 A  
HETATM   17  C   UNL     1     -12.261  14.341  66.919  1.00  0.00    -0.366 A  
HETATM   18  C   UNL     1     -11.739  14.364  68.212  1.00  0.00    -0.376 A  
HETATM   19  C   UNL     1     -10.820  13.391  68.612  1.00  0.00    -0.287 A  
ENDBRANCH  12  14
ENDBRANCH  11  12
TORSDOF 2
ENDMDL
MODEL      182
REMARK 921   NORMALIZED FREE ENERGY PREDICTED BY IDOCK:   -3.63 KCAL/MOL
REMARK 922        TOTAL FREE ENERGY PREDICTED BY IDOCK:   -4.32 KCAL/MOL
REMARK 923 INTER-LIGAND FREE ENERGY PREDICTED BY IDOCK:   -4.50 KCAL/MOL
REMARK 924 INTRA-LIGAND FREE ENERGY PREDICTED BY IDOCK:    0.18 KCAL/MOL
REMARK 927      BINDING AFFINITY PREDICTED BY RF-SCORE:    0.00 PKD
ROOT
HETATM    1  O   UNL     1      -9.729  18.830  68.792  1.00  0.00    -0.369 OA 
HETATM    2  C   UNL     1      -9.436  19.474  67.640  1.00  0.00    -0.324 C  
HETATM    3  C   UNL     1      -9.185  18.598  66.422  1.00  0.00    -0.295 A  
HETATM    4  O   UNL     1      -9.448  20.698  67.578  1.00  0.00    -0.400 OA 
HETATM    5  C   UNL     1     -10.498  18.370  65.627  1.00  0.00    -0.120 A  
HETATM    6  C   UNL     1     -10.796  16.856  65.639  1.00  0.00    -0.079 A  
HETATM    7  N   UNL     1      -9.645  16.287  66.312  1.00  0.00    -0.287 NA 
HETATM    8  C   UNL     1      -8.751  17.217  66.751  1.00  0.00    -0.251 A  
HETATM    9  C   UNL     1      -7.706  16.567  67.348  1.00  0.00    -0.174 A  
HETATM   10  C   UNL     1      -8.047  15.185  67.316  1.00  0.00    -0.228 A  
HETATM   11  C   UNL     1      -9.287  15.033  66.700  1.00  0.00    -0.266 A  
ENDROOT
BRANCH  11  12
HETATM   12  C   UNL     1     -10.063  13.829  66.450  1.00  0.00    -0.295 C  
HETATM   13  O   UNL     1     -11.294  13.824  66.464  1.00  0.00    -0.309 OA 
BRANCH  12  14
HETATM   14  C   UNL     1      -9.356  12.537  66.204  1.00  0.00    -0.136 A  
HETATM   15  C   UNL     1      -9.833  11.666  65.214  1.00  0.00    -0.279 A  
HETATM   16  C   UNL     1      -9.230  10.417  65.028  1.00  0.00    -0.256 A  
HETATM   17  C   UNL     1      -8.159  10.030  65.832  1.00  0.00    -0.126 A  
HETATM   18  C   UNL     1      -7.677  10.893  66.815  1.00  0.00    -0.141 A  
HETATM   19  C   UNL     1      -8.274  12.142  67.004  1.00  0.00    -0.164 A  
ENDBRANCH  12  14
ENDBRANCH  11  12
TORSDOF 2
ENDMDL
MODEL      183
REMARK 921   NORMALIZED FREE ENERGY PREDICTED BY IDOCK:   -3.58 KCAL/MOL
REMARK 922        TOTAL FREE ENERGY PREDICTED BY IDOCK:   -4.26 KCAL/MOL
REMARK 923 INTER-LIGAND FREE ENERGY PREDICTED BY IDOCK:   -3.84 KCAL/MOL
REMARK 924 INTRA-LIGAND FREE ENERGY PREDICTED BY IDOCK:   -0.42 KCAL/MOL
REMARK 927      BINDING AFFINITY PREDICTED BY RF-SCORE:    0.00 PKD
ROOT
HETATM    1  O   UNL     1      -8.681   3.785  68.046  1.00  0.00    -0.094 OA 
HETATM    2  C   UNL     1      -9.243   3.564  66.836  1.00  0.00    -0.187 C  
HETATM    3  C   UNL     1      -9.800   4.783  66.117  1.00  0.00    -0.234 A  
HETATM    4  O   UNL     1      -9.233   2.449  66.328  1.00  0.00    -0.109 OA 
HETATM    5  C   UNL     1      -8.729   5.410  65.186  1.00  0.00    -0.133 A  
HETATM    6  C   UNL     1      -8.455   6.844  65.686  1.00  0.00    -0.136 A  
HETATM    7  N   UNL     1      -9.410   7.017  66.763  1.00  0.00    -0.151 NA 
HETATM    8  C   UNL     1     -10.155   5.906  67.020  1.00  0.00    -0.183 A  
HETATM    9  C   UNL     1     -11.026   6.193  68.035  1.00  0.00    -0.399 A  
HETATM   10  C   UNL     1     -10.721   7.525  68.436  1.00  0.00    -0.115 A  
HETATM   11  C   UNL     1      -9.674   8.011  67.656  1.00  0.00    -0.158 A  
ENDROOT
BRANCH  11  12
HETATM   12  C   UNL     1      -9.000   9.297  67.697  1.00  0.00    -0.119 C  
HETATM   13  O   UNL     1      -7.780   9.398  67.829  1.00  0.00    -0.088 OA 
BRANCH  12  14
HETATM   14  C   UNL     1      -9.805  10.552  67.616  1.00  0.00    -0.192 A  
HETATM   15  C   UNL     1     -10.154  11.226  68.794  1.00  0.00    -0.204 A  
HETATM   16  C   UNL     1     -10.976  12.357  68.740  1.00  0.00    -0.287 A  
HETATM   17  C   UNL     1     -11.459  12.812  67.514  1.00  0.00    -0.390 A  
HETATM   18  C   UNL     1     -11.113  12.150  66.338  1.00  0.00    -0.358 A  
HETATM   19  C   UNL     1     -10.292  11.021  66.387  1.00  0.00    -0.302 A  
ENDBRANCH  12  14
ENDBRANCH  11  12
TORSDOF 2
ENDMDL
MODEL      184
REMARK 921   NORMALIZED FREE ENERGY PREDICTED BY IDOCK:   -3.54 KCAL/MOL
REMARK 922        TOTAL FREE ENERGY PREDICTED BY IDOCK:   -4.22 KCAL/MOL
REMARK 923 INTER-LIGAND FREE ENERGY PREDICTED BY IDOCK:   -3.88 KCAL/MOL
REMARK 924 INTRA-LIGAND FREE ENERGY PREDICTED BY IDOCK:   -0.34 KCAL/MOL
REMARK 927      BINDING AFFINITY PREDICTED BY RF-SCORE:    0.00 PKD
ROOT
HETATM    1  O   UNL     1     -11.279   4.576  64.749  1.00  0.00    -0.167 OA 
HETATM    2  C   UNL     1     -10.222   3.785  64.456  1.00  0.00    -0.204 C  
HETATM    3  C   UNL     1      -9.070   3.801  65.450  1.00  0.00    -0.145 A  
HETATM    4  O   UNL     1     -10.235   3.047  63.478  1.00  0.00    -0.152 OA 
HETATM    5  C   UNL     1      -9.246   2.685  66.515  1.00  0.00    -0.082 A  
HETATM    6  C   UNL     1      -9.371   3.369  67.892  1.00  0.00    -0.191 A  
HETATM    7  N   UNL     1      -9.164   4.773  67.597  1.00  0.00    -0.122 NA 
HETATM    8  C   UNL     1      -8.999   5.036  66.271  1.00  0.00    -0.127 A  
HETATM    9  C   UNL     1      -8.794   6.380  66.118  1.00  0.00    -0.158 A  
HETATM   10  C   UNL     1      -8.917   6.937  67.422  1.00  0.00    -0.116 A  
HETATM   11  C   UNL     1      -9.192   5.918  68.332  1.00  0.00    -0.117 A  
ENDROOT
BRANCH  11  12
HETATM   12  C   UNL     1      -9.420   5.985  69.766  1.00  0.00    -0.149 C  
HETATM   13  O   UNL     1      -8.836   5.249  70.561  1.00  0.00    -0.127 OA 
BRANCH  12  14
HETATM   14  C   UNL     1     -10.425   6.948  70.306  1.00  0.00    -0.227 A  
HETATM   15  C   UNL     1     -10.039   8.268  70.580  1.00  0.00    -0.212 A  
HETATM   16  C   UNL     1     -10.947   9.159  71.163  1.00  0.00    -0.390 A  
HETATM   17  C   UNL     1     -12.237   8.735  71.480  1.00  0.00    -0.382 A  
HETATM   18  C   UNL     1     -12.629   7.426  71.207  1.00  0.00    -0.376 A  
HETATM   19  C   UNL     1     -11.726   6.533  70.624  1.00  0.00    -0.436 A  
ENDBRANCH  12  14
ENDBRANCH  11  12
TORSDOF 2
ENDMDL
MODEL      185
REMARK 921   NORMALIZED FREE ENERGY PREDICTED BY IDOCK:   -3.48 KCAL/MOL
REMARK 922        TOTAL FREE ENERGY PREDICTED BY IDOCK:   -4.15 KCAL/MOL
REMARK 923 INTER-LIGAND FREE ENERGY PREDICTED BY IDOCK:   -3.78 KCAL/MOL
REMARK 924 INTRA-LIGAND FREE ENERGY PREDICTED BY IDOCK:   -0.37 KCAL/MOL
REMARK 927      BINDING AFFINITY PREDICTED BY RF-SCORE:    0.00 PKD
ROOT
HETATM    1  O   UNL     1      -8.379  11.149  68.387  1.00  0.00    -0.134 OA 
HETATM    2  C   UNL     1      -8.140  10.442  67.261  1.00  0.00    -0.114 C  
HETATM    3  C   UNL     1      -8.379   8.942  67.341  1.00  0.00    -0.108 A  
HETATM    4  O   UNL     1      -7.817  11.000  66.218  1.00  0.00    -0.158 OA 
HETATM    5  C   UNL     1      -9.829   8.591  66.912  1.00  0.00    -0.310 A  
HETATM    6  C   UNL     1     -10.533   7.945  68.123  1.00  0.00    -0.173 A  
HETATM    7  N   UNL     1      -9.483   7.852  69.118  1.00  0.00    -0.155 NA 
HETATM    8  C   UNL     1      -8.298   8.390  68.717  1.00  0.00    -0.116 A  
HETATM    9  C   UNL     1      -7.386   8.229  69.724  1.00  0.00    -0.065 A  
HETATM   10  C   UNL     1      -8.102   7.626  70.796  1.00  0.00    -0.103 A  
HETATM   11  C   UNL     1      -9.428   7.436  70.413  1.00  0.00    -0.165 A  
ENDROOT
BRANCH  11  12
HETATM   12  C   UNL     1     -10.544   6.879  71.159  1.00  0.00    -0.222 C  
HETATM   13  O   UNL     1     -11.607   7.482  71.303  1.00  0.00    -0.267 OA 
BRANCH  12  14
HETATM   14  C   UNL     1     -10.397   5.544  71.814  1.00  0.00    -0.272 A  
HETATM   15  C   UNL     1      -9.752   4.506  71.128  1.00  0.00    -0.256 A  
HETATM   16  C   UNL     1      -9.680   3.228  71.694  1.00  0.00    -0.234 A  
HETATM   17  C   UNL     1     -10.255   2.982  72.939  1.00  0.00    -0.235 A  
HETATM   18  C   UNL     1     -10.895   4.011  73.629  1.00  0.00    -0.338 A  
HETATM   19  C   UNL     1     -10.969   5.288  73.068  1.00  0.00    -0.354 A  
ENDBRANCH  12  14
ENDBRANCH  11  12
TORSDOF 2
ENDMDL
MODEL      186
REMARK 921   NORMALIZED FREE ENERGY PREDICTED BY IDOCK:   -3.48 KCAL/MOL
REMARK 922        TOTAL FREE ENERGY PREDICTED BY IDOCK:   -4.15 KCAL/MOL
REMARK 923 INTER-LIGAND FREE ENERGY PREDICTED BY IDOCK:   -3.90 KCAL/MOL
REMARK 924 INTRA-LIGAND FREE ENERGY PREDICTED BY IDOCK:   -0.25 KCAL/MOL
REMARK 927      BINDING AFFINITY PREDICTED BY RF-SCORE:    0.00 PKD
ROOT
HETATM    1  O   UNL     1      -9.661   4.960  65.569  1.00  0.00    -0.162 OA 
HETATM    2  C   UNL     1      -9.051   3.903  66.151  1.00  0.00    -0.146 C  
HETATM    3  C   UNL     1      -8.522   4.119  67.560  1.00  0.00    -0.102 A  
HETATM    4  O   UNL     1      -8.999   2.815  65.589  1.00  0.00    -0.136 OA 
HETATM    5  C   UNL     1      -9.588   3.721  68.616  1.00  0.00    -0.173 A  
HETATM    6  C   UNL     1      -9.936   4.984  69.430  1.00  0.00    -0.220 A  
HETATM    7  N   UNL     1      -9.025   5.986  68.911  1.00  0.00    -0.123 NA 
HETATM    8  C   UNL     1      -8.243   5.540  67.889  1.00  0.00    -0.100 A  
HETATM    9  C   UNL     1      -7.419   6.558  67.497  1.00  0.00    -0.096 A  
HETATM   10  C   UNL     1      -7.792   7.680  68.291  1.00  0.00    -0.121 A  
HETATM   11  C   UNL     1      -8.831   7.313  69.143  1.00  0.00    -0.136 A  
ENDROOT
BRANCH  11  12
HETATM   12  C   UNL     1      -9.559   8.105  70.120  1.00  0.00    -0.168 C  
HETATM   13  O   UNL     1      -9.567   7.827  71.319  1.00  0.00    -0.156 OA 
BRANCH  12  14
HETATM   14  C   UNL     1     -10.364   9.278  69.664  1.00  0.00    -0.227 A  
HETATM   15  C   UNL     1     -11.112  10.008  70.598  1.00  0.00    -0.408 A  
HETATM   16  C   UNL     1     -11.934  11.058  70.173  1.00  0.00    -0.443 A  
HETATM   17  C   UNL     1     -12.018  11.376  68.819  1.00  0.00    -0.353 A  
HETATM   18  C   UNL     1     -11.273  10.657  67.884  1.00  0.00    -0.376 A  
HETATM   19  C   UNL     1     -10.451   9.609  68.304  1.00  0.00    -0.259 A  
ENDBRANCH  12  14
ENDBRANCH  11  12
TORSDOF 2
ENDMDL
MODEL      187
REMARK 921   NORMALIZED FREE ENERGY PREDICTED BY IDOCK:   -3.47 KCAL/MOL
REMARK 922        TOTAL FREE ENERGY PREDICTED BY IDOCK:   -4.15 KCAL/MOL
REMARK 923 INTER-LIGAND FREE ENERGY PREDICTED BY IDOCK:   -4.31 KCAL/MOL
REMARK 924 INTRA-LIGAND FREE ENERGY PREDICTED BY IDOCK:    0.17 KCAL/MOL
REMARK 927      BINDING AFFINITY PREDICTED BY RF-SCORE:    0.00 PKD
ROOT
HETATM    1  O   UNL     1      -8.224  10.919  65.589  1.00  0.00    -0.154 OA 
HETATM    2  C   UNL     1      -8.389  10.343  66.800  1.00  0.00    -0.126 C  
HETATM    3  C   UNL     1      -8.727  11.276  67.952  1.00  0.00    -0.138 A  
HETATM    4  O   UNL     1      -8.337   9.126  66.935  1.00  0.00    -0.117 OA 
HETATM    5  C   UNL     1     -10.265  11.407  68.123  1.00  0.00    -0.200 A  
HETATM    6  C   UNL     1     -10.638  12.885  67.888  1.00  0.00    -0.222 A  
HETATM    7  N   UNL     1      -9.355  13.537  67.708  1.00  0.00    -0.204 NA 
HETATM    8  C   UNL     1      -8.296  12.681  67.738  1.00  0.00    -0.172 A  
HETATM    9  C   UNL     1      -7.148  13.406  67.578  1.00  0.00    -0.154 A  
HETATM   10  C   UNL     1      -7.569  14.751  67.374  1.00  0.00    -0.228 A  
HETATM   11  C   UNL     1      -8.960  14.806  67.417  1.00  0.00    -0.192 A  
ENDROOT
BRANCH  11  12
HETATM   12  C   UNL     1      -9.854  15.940  67.245  1.00  0.00    -0.234 C  
HETATM   13  O   UNL     1     -10.877  15.875  66.564  1.00  0.00    -0.291 OA 
BRANCH  12  14
HETATM   14  C   UNL     1      -9.512  17.248  67.880  1.00  0.00    -0.266 A  
HETATM   15  C   UNL     1     -10.533  18.164  68.167  1.00  0.00    -0.365 A  
HETATM   16  C   UNL     1     -10.220  19.426  68.686  1.00  0.00    -0.462 A  
HETATM   17  C   UNL     1      -8.891  19.778  68.912  1.00  0.00    -0.154 A  
HETATM   18  C   UNL     1      -7.870  18.870  68.633  1.00  0.00    -0.375 A  
HETATM   19  C   UNL     1      -8.178  17.609  68.116  1.00  0.00    -0.257 A  
ENDBRANCH  12  14
ENDBRANCH  11  12
TORSDOF 2
ENDMDL
MODEL      188
REMARK 921   NORMALIZED FREE ENERGY PREDICTED BY IDOCK:   -3.46 KCAL/MOL
REMARK 922        TOTAL FREE ENERGY PREDICTED BY IDOCK:   -4.13 KCAL/MOL
REMARK 923 INTER-LIGAND FREE ENERGY PREDICTED BY IDOCK:   -3.73 KCAL/MOL
REMARK 924 INTRA-LIGAND FREE ENERGY PREDICTED BY IDOCK:   -0.40 KCAL/MOL
REMARK 927      BINDING AFFINITY PREDICTED BY RF-SCORE:    0.00 PKD
ROOT
HETATM    1  O   UNL     1      -9.782   9.524  64.935  1.00  0.00    -0.214 OA 
HETATM    2  C   UNL     1      -8.780  10.396  64.681  1.00  0.00    -0.187 C  
HETATM    3  C   UNL     1      -8.046  10.953  65.890  1.00  0.00    -0.120 A  
HETATM    4  O   UNL     1      -8.446  10.658  63.531  1.00  0.00    -0.159 OA 
HETATM    5  C   UNL     1      -6.811  10.078  66.237  1.00  0.00    -0.099 A  
HETATM    6  C   UNL     1      -7.027   9.505  67.653  1.00  0.00    -0.080 A  
HETATM    7  N   UNL     1      -8.261  10.128  68.089  1.00  0.00    -0.112 NA 
HETATM    8  C   UNL     1      -8.839  10.922  67.145  1.00  0.00    -0.135 A  
HETATM    9  C   UNL     1      -9.978  11.465  67.673  1.00  0.00    -0.196 A  
HETATM   10  C   UNL     1     -10.105  10.899  68.973  1.00  0.00    -0.212 A  
HETATM   11  C   UNL     1      -9.042  10.029  69.200  1.00  0.00    -0.184 A  
ENDROOT
BRANCH  11  12
HETATM   12  C   UNL     1      -8.742   9.205  70.360  1.00  0.00    -0.215 C  
HETATM   13  O   UNL     1      -7.897   9.526  71.195  1.00  0.00    -0.326 OA 
BRANCH  12  14
HETATM   14  C   UNL     1      -9.448   7.901  70.537  1.00  0.00    -0.162 A  
HETATM   15  C   UNL     1      -8.887   6.919  71.365  1.00  0.00    -0.133 A  
HETATM   16  C   UNL     1      -9.495   5.663  71.477  1.00  0.00    -0.177 A  
HETATM   17  C   UNL     1     -10.656   5.382  70.758  1.00  0.00    -0.293 A  
HETATM   18  C   UNL     1     -11.222   6.356  69.936  1.00  0.00    -0.485 A  
HETATM   19  C   UNL     1     -10.619   7.611  69.823  1.00  0.00    -0.245 A  
ENDBRANCH  12  14
ENDBRANCH  11  12
TORSDOF 2
ENDMDL
MODEL      189
REMARK 921   NORMALIZED FREE ENERGY PREDICTED BY IDOCK:   -3.46 KCAL/MOL
REMARK 922        TOTAL FREE ENERGY PREDICTED BY IDOCK:   -4.13 KCAL/MOL
REMARK 923 INTER-LIGAND FREE ENERGY PREDICTED BY IDOCK:   -3.69 KCAL/MOL
REMARK 924 INTRA-LIGAND FREE ENERGY PREDICTED BY IDOCK:   -0.44 KCAL/MOL
REMARK 927      BINDING AFFINITY PREDICTED BY RF-SCORE:    0.00 PKD
ROOT
HETATM    1  O   UNL     1     -12.327  10.684  70.429  1.00  0.00    -0.302 OA 
HETATM    2  C   UNL     1     -11.541  11.398  69.592  1.00  0.00    -0.330 C  
HETATM    3  C   UNL     1     -10.336  10.672  69.013  1.00  0.00    -0.237 A  
HETATM    4  O   UNL     1     -11.835  12.542  69.268  1.00  0.00    -0.304 OA 
HETATM    5  C   UNL     1     -10.691  10.009  67.656  1.00  0.00    -0.340 A  
HETATM    6  C   UNL     1     -10.506   8.485  67.816  1.00  0.00    -0.223 A  
HETATM    7  N   UNL     1      -9.974   8.345  69.157  1.00  0.00    -0.191 NA 
HETATM    8  C   UNL     1      -9.872   9.524  69.832  1.00  0.00    -0.226 A  
HETATM    9  C   UNL     1      -9.345   9.270  71.069  1.00  0.00    -0.298 A  
HETATM   10  C   UNL     1      -9.197   7.856  71.140  1.00  0.00    -0.165 A  
HETATM   11  C   UNL     1      -9.638   7.289  69.946  1.00  0.00    -0.163 A  
ENDROOT
BRANCH  11  12
HETATM   12  C   UNL     1      -9.705   5.893  69.546  1.00  0.00    -0.149 C  
HETATM   13  O   UNL     1     -10.595   5.138  69.937  1.00  0.00    -0.280 OA 
BRANCH  12  14
HETATM   14  C   UNL     1      -8.642   5.330  68.661  1.00  0.00    -0.087 A  
HETATM   15  C   UNL     1      -8.662   3.966  68.339  1.00  0.00    -0.129 A  
HETATM   16  C   UNL     1      -7.627   3.408  67.579  1.00  0.00    -0.069 A  
HETATM   17  C   UNL     1      -6.569   4.206  67.147  1.00  0.00    -0.046 A  
HETATM   18  C   UNL     1      -6.545   5.564  67.460  1.00  0.00    -0.053 A  
HETATM   19  C   UNL     1      -7.575   6.125  68.218  1.00  0.00    -0.098 A  
ENDBRANCH  12  14
ENDBRANCH  11  12
TORSDOF 2
ENDMDL
MODEL      190
REMARK 921   NORMALIZED FREE ENERGY PREDICTED BY IDOCK:   -3.44 KCAL/MOL
REMARK 922        TOTAL FREE ENERGY PREDICTED BY IDOCK:   -4.11 KCAL/MOL
REMARK 923 INTER-LIGAND FREE ENERGY PREDICTED BY IDOCK:   -3.71 KCAL/MOL
REMARK 924 INTRA-LIGAND FREE ENERGY PREDICTED BY IDOCK:   -0.40 KCAL/MOL
REMARK 927      BINDING AFFINITY PREDICTED BY RF-SCORE:    0.00 PKD
ROOT
HETATM    1  O   UNL     1      -8.673  12.365  68.214  1.00  0.00    -0.183 OA 
HETATM    2  C   UNL     1      -9.929  12.821  68.419  1.00  0.00    -0.210 C  
HETATM    3  C   UNL     1     -11.045  11.791  68.328  1.00  0.00    -0.291 A  
HETATM    4  O   UNL     1     -10.137  13.988  68.731  1.00  0.00    -0.229 OA 
HETATM    5  C   UNL     1     -11.346  11.180  69.723  1.00  0.00    -0.354 A  
HETATM    6  C   UNL     1     -11.051   9.668  69.645  1.00  0.00    -0.193 A  
HETATM    7  N   UNL     1     -10.714   9.457  68.251  1.00  0.00    -0.204 NA 
HETATM    8  C   UNL     1     -10.702  10.600  67.511  1.00  0.00    -0.272 A  
HETATM    9  C   UNL     1     -10.391  10.277  66.218  1.00  0.00    -0.256 A  
HETATM   10  C   UNL     1     -10.141   8.875  66.224  1.00  0.00    -0.284 A  
HETATM   11  C   UNL     1     -10.306   8.385  67.518  1.00  0.00    -0.265 A  
ENDROOT
BRANCH  11  12
HETATM   12  C   UNL     1     -10.144   7.035  68.031  1.00  0.00    -0.169 C  
HETATM   13  O   UNL     1     -11.092   6.373  68.454  1.00  0.00    -0.315 OA 
BRANCH  12  14
HETATM   14  C   UNL     1      -8.780   6.430  68.092  1.00  0.00    -0.116 A  
HETATM   15  C   UNL     1      -8.164   6.239  69.336  1.00  0.00    -0.114 A  
HETATM   16  C   UNL     1      -6.854   5.750  69.404  1.00  0.00    -0.062 A  
HETATM   17  C   UNL     1      -6.155   5.459  68.233  1.00  0.00    -0.026 A  
HETATM   18  C   UNL     1      -6.763   5.642  66.992  1.00  0.00    -0.062 A  
HETATM   19  C   UNL     1      -8.071   6.130  66.920  1.00  0.00    -0.109 A  
ENDBRANCH  12  14
ENDBRANCH  11  12
TORSDOF 2
ENDMDL
MODEL      191
REMARK 921   NORMALIZED FREE ENERGY PREDICTED BY IDOCK:   -3.41 KCAL/MOL
REMARK 922        TOTAL FREE ENERGY PREDICTED BY IDOCK:   -4.08 KCAL/MOL
REMARK 923 INTER-LIGAND FREE ENERGY PREDICTED BY IDOCK:   -3.68 KCAL/MOL
REMARK 924 INTRA-LIGAND FREE ENERGY PREDICTED BY IDOCK:   -0.39 KCAL/MOL
REMARK 927      BINDING AFFINITY PREDICTED BY RF-SCORE:    0.00 PKD
ROOT
HETATM    1  O   UNL     1     -12.991   9.295  70.955  1.00  0.00    -0.243 OA 
HETATM    2  C   UNL     1     -12.579   8.733  72.114  1.00  0.00    -0.399 C  
HETATM    3  C   UNL     1     -11.330   7.868  72.040  1.00  0.00    -0.343 A  
HETATM    4  O   UNL     1     -13.149   8.973  73.172  1.00  0.00    -0.176 OA 
HETATM    5  C   UNL     1     -10.059   8.711  72.329  1.00  0.00    -0.363 A  
HETATM    6  C   UNL     1      -9.173   8.671  71.067  1.00  0.00    -0.203 A  
HETATM    7  N   UNL     1      -9.878   7.764  70.183  1.00  0.00    -0.184 NA 
HETATM    8  C   UNL     1     -11.060   7.313  70.690  1.00  0.00    -0.264 A  
HETATM    9  C   UNL     1     -11.622   6.458  69.782  1.00  0.00    -0.397 A  
HETATM   10  C   UNL     1     -10.751   6.467  68.656  1.00  0.00    -0.323 A  
HETATM   11  C   UNL     1      -9.684   7.327  68.909  1.00  0.00    -0.148 A  
ENDROOT
BRANCH  11  12
HETATM   12  C   UNL     1      -8.555   7.685  68.066  1.00  0.00    -0.123 C  
HETATM   13  O   UNL     1      -8.247   8.855  67.840  1.00  0.00    -0.109 OA 
BRANCH  12  14
HETATM   14  C   UNL     1      -7.755   6.607  67.413  1.00  0.00    -0.109 A  
HETATM   15  C   UNL     1      -6.719   5.987  68.126  1.00  0.00    -0.064 A  
HETATM   16  C   UNL     1      -5.908   5.033  67.500  1.00  0.00    -0.022 A  
HETATM   17  C   UNL     1      -6.122   4.703  66.163  1.00  0.00    -0.031 A  
HETATM   18  C   UNL     1      -7.153   5.312  65.449  1.00  0.00    -0.066 A  
HETATM   19  C   UNL     1      -7.965   6.264  66.069  1.00  0.00    -0.114 A  
ENDBRANCH  12  14
ENDBRANCH  11  12
TORSDOF 2
ENDMDL
MODEL      192
REMARK 921   NORMALIZED FREE ENERGY PREDICTED BY IDOCK:   -3.40 KCAL/MOL
REMARK 922        TOTAL FREE ENERGY PREDICTED BY IDOCK:   -4.07 KCAL/MOL
REMARK 923 INTER-LIGAND FREE ENERGY PREDICTED BY IDOCK:   -3.88 KCAL/MOL
REMARK 924 INTRA-LIGAND FREE ENERGY PREDICTED BY IDOCK:   -0.19 KCAL/MOL
REMARK 927      BINDING AFFINITY PREDICTED BY RF-SCORE:    0.00 PKD
ROOT
HETATM    1  O   UNL     1      -6.536  13.946  70.608  1.00  0.00     0.042 OA 
HETATM    2  C   UNL     1      -6.584  14.704  69.490  1.00  0.00    -0.149 C  
HETATM    3  C   UNL     1      -7.467  14.190  68.362  1.00  0.00    -0.124 A  
HETATM    4  O   UNL     1      -6.001  15.780  69.429  1.00  0.00    -0.116 OA 
HETATM    5  C   UNL     1      -8.901  14.774  68.475  1.00  0.00    -0.176 A  
HETATM    6  C   UNL     1      -9.872  13.593  68.678  1.00  0.00    -0.138 A  
HETATM    7  N   UNL     1      -9.019  12.426  68.570  1.00  0.00    -0.115 NA 
HETATM    8  C   UNL     1      -7.701  12.725  68.399  1.00  0.00    -0.132 A  
HETATM    9  C   UNL     1      -7.001  11.554  68.292  1.00  0.00    -0.073 A  
HETATM   10  C   UNL     1      -7.958  10.518  68.481  1.00  0.00    -0.118 A  
HETATM   11  C   UNL     1      -9.212  11.085  68.698  1.00  0.00    -0.185 A  
ENDROOT
BRANCH  11  12
HETATM   12  C   UNL     1     -10.492  10.447  68.958  1.00  0.00    -0.219 C  
HETATM   13  O   UNL     1     -11.462  10.588  68.213  1.00  0.00    -0.296 OA 
BRANCH  12  14
HETATM   14  C   UNL     1     -10.664   9.621  70.190  1.00  0.00    -0.321 A  
HETATM   15  C   UNL     1     -11.816   9.780  70.973  1.00  0.00    -0.442 A  
HETATM   16  C   UNL     1     -11.954   9.073  72.173  1.00  0.00    -0.395 A  
HETATM   17  C   UNL     1     -10.942   8.215  72.598  1.00  0.00    -0.440 A  
HETATM   18  C   UNL     1      -9.795   8.048  71.823  1.00  0.00    -0.240 A  
HETATM   19  C   UNL     1      -9.654   8.751  70.624  1.00  0.00    -0.240 A  
ENDBRANCH  12  14
ENDBRANCH  11  12
TORSDOF 2
ENDMDL
MODEL      193
REMARK 921   NORMALIZED FREE ENERGY PREDICTED BY IDOCK:   -3.40 KCAL/MOL
REMARK 922        TOTAL FREE ENERGY PREDICTED BY IDOCK:   -4.06 KCAL/MOL
REMARK 923 INTER-LIGAND FREE ENERGY PREDICTED BY IDOCK:   -3.86 KCAL/MOL
REMARK 924 INTRA-LIGAND FREE ENERGY PREDICTED BY IDOCK:   -0.20 KCAL/MOL
REMARK 927      BINDING AFFINITY PREDICTED BY RF-SCORE:    0.00 PKD
ROOT
HETATM    1  O   UNL     1     -10.217  10.015  64.930  1.00  0.00    -0.261 OA 
HETATM    2  C   UNL     1      -8.867  10.004  64.987  1.00  0.00    -0.186 C  
HETATM    3  C   UNL     1      -8.249   9.454  66.264  1.00  0.00    -0.111 A  
HETATM    4  O   UNL     1      -8.189  10.355  64.028  1.00  0.00    -0.162 OA 
HETATM    5  C   UNL     1      -7.969   7.933  66.130  1.00  0.00    -0.104 A  
HETATM    6  C   UNL     1      -8.816   7.206  67.195  1.00  0.00    -0.121 A  
HETATM    7  N   UNL     1      -9.435   8.287  67.935  1.00  0.00    -0.144 NA 
HETATM    8  C   UNL     1      -9.143   9.525  67.447  1.00  0.00    -0.130 A  
HETATM    9  C   UNL     1      -9.763  10.458  68.231  1.00  0.00    -0.162 A  
HETATM   10  C   UNL     1     -10.514   9.718  69.187  1.00  0.00    -0.232 A  
HETATM   11  C   UNL     1     -10.330   8.356  68.959  1.00  0.00    -0.218 A  
ENDROOT
BRANCH  11  12
HETATM   12  C   UNL     1     -10.896   7.209  69.650  1.00  0.00    -0.234 C  
HETATM   13  O   UNL     1     -11.699   6.447  69.113  1.00  0.00    -0.217 OA 
BRANCH  12  14
HETATM   14  C   UNL     1     -10.531   6.957  71.076  1.00  0.00    -0.235 A  
HETATM   15  C   UNL     1     -10.462   8.033  71.972  1.00  0.00    -0.308 A  
HETATM   16  C   UNL     1     -10.041   7.824  73.291  1.00  0.00    -0.374 A  
HETATM   17  C   UNL     1      -9.682   6.546  73.715  1.00  0.00    -0.227 A  
HETATM   18  C   UNL     1      -9.752   5.471  72.831  1.00  0.00    -0.170 A  
HETATM   19  C   UNL     1     -10.172   5.675  71.514  1.00  0.00    -0.263 A  
ENDBRANCH  12  14
ENDBRANCH  11  12
TORSDOF 2
ENDMDL
MODEL      194
REMARK 921   NORMALIZED FREE ENERGY PREDICTED BY IDOCK:   -3.38 KCAL/MOL
REMARK 922        TOTAL FREE ENERGY PREDICTED BY IDOCK:   -4.05 KCAL/MOL
REMARK 923 INTER-LIGAND FREE ENERGY PREDICTED BY IDOCK:   -3.75 KCAL/MOL
REMARK 924 INTRA-LIGAND FREE ENERGY PREDICTED BY IDOCK:   -0.30 KCAL/MOL
REMARK 927      BINDING AFFINITY PREDICTED BY RF-SCORE:    0.00 PKD
ROOT
HETATM    1  O   UNL     1      -8.770   5.601  73.111  1.00  0.00    -0.121 OA 
HETATM    2  C   UNL     1      -9.296   4.363  72.976  1.00  0.00    -0.121 C  
HETATM    3  C   UNL     1     -10.214   4.144  71.784  1.00  0.00    -0.155 A  
HETATM    4  O   UNL     1      -8.985   3.456  73.740  1.00  0.00    -0.087 OA 
HETATM    5  C   UNL     1      -9.414   3.626  70.559  1.00  0.00    -0.255 A  
HETATM    6  C   UNL     1      -9.548   4.674  69.435  1.00  0.00    -0.187 A  
HETATM    7  N   UNL     1     -10.463   5.653  69.987  1.00  0.00    -0.272 NA 
HETATM    8  C   UNL     1     -10.841   5.388  71.269  1.00  0.00    -0.131 A  
HETATM    9  C   UNL     1     -11.712   6.362  71.674  1.00  0.00    -0.367 A  
HETATM   10  C   UNL     1     -11.790   7.281  70.590  1.00  0.00    -0.290 A  
HETATM   11  C   UNL     1     -10.965   6.842  69.556  1.00  0.00    -0.250 A  
ENDROOT
BRANCH  11  12
HETATM   12  C   UNL     1     -10.693   7.443  68.261  1.00  0.00    -0.099 C  
HETATM   13  O   UNL     1     -10.676   6.786  67.220  1.00  0.00    -0.267 OA 
BRANCH  12  14
HETATM   14  C   UNL     1     -10.382   8.901  68.178  1.00  0.00    -0.261 A  
HETATM   15  C   UNL     1      -9.522   9.479  69.123  1.00  0.00    -0.163 A  
HETATM   16  C   UNL     1      -9.285  10.858  69.108  1.00  0.00    -0.077 A  
HETATM   17  C   UNL     1      -9.911  11.664  68.158  1.00  0.00    -0.198 A  
HETATM   18  C   UNL     1     -10.765  11.096  67.213  1.00  0.00    -0.304 A  
HETATM   19  C   UNL     1     -11.003   9.720  67.224  1.00  0.00    -0.142 A  
ENDBRANCH  12  14
ENDBRANCH  11  12
TORSDOF 2
ENDMDL
MODEL      195
REMARK 921   NORMALIZED FREE ENERGY PREDICTED BY IDOCK:   -3.36 KCAL/MOL
REMARK 922        TOTAL FREE ENERGY PREDICTED BY IDOCK:   -4.02 KCAL/MOL
REMARK 923 INTER-LIGAND FREE ENERGY PREDICTED BY IDOCK:   -3.53 KCAL/MOL
REMARK 924 INTRA-LIGAND FREE ENERGY PREDICTED BY IDOCK:   -0.49 KCAL/MOL
REMARK 927      BINDING AFFINITY PREDICTED BY RF-SCORE:    0.00 PKD
ROOT
HETATM    1  O   UNL     1     -10.240   4.488  65.697  1.00  0.00    -0.237 OA 
HETATM    2  C   UNL     1      -9.312   3.659  66.225  1.00  0.00    -0.178 C  
HETATM    3  C   UNL     1      -8.682   4.098  67.539  1.00  0.00    -0.117 A  
HETATM    4  O   UNL     1      -9.054   2.582  65.701  1.00  0.00    -0.137 OA 
HETATM    5  C   UNL     1      -9.469   3.522  68.746  1.00  0.00    -0.208 A  
HETATM    6  C   UNL     1     -10.024   4.713  69.555  1.00  0.00    -0.196 A  
HETATM    7  N   UNL     1      -9.472   5.870  68.879  1.00  0.00    -0.125 NA 
HETATM    8  C   UNL     1      -8.737   5.562  67.775  1.00  0.00    -0.106 A  
HETATM    9  C   UNL     1      -8.257   6.724  67.236  1.00  0.00    -0.121 A  
HETATM   10  C   UNL     1      -8.801   7.770  68.033  1.00  0.00    -0.124 A  
HETATM   11  C   UNL     1      -9.597   7.217  69.034  1.00  0.00    -0.147 A  
ENDROOT
BRANCH  11  12
HETATM   12  C   UNL     1     -10.374   7.869  70.075  1.00  0.00    -0.221 C  
HETATM   13  O   UNL     1     -11.408   8.492  69.832  1.00  0.00    -0.114 OA 
BRANCH  12  14
HETATM   14  C   UNL     1      -9.894   7.825  71.488  1.00  0.00    -0.200 A  
HETATM   15  C   UNL     1      -8.547   8.093  71.768  1.00  0.00    -0.191 A  
HETATM   16  C   UNL     1      -8.064   7.975  73.077  1.00  0.00    -0.222 A  
HETATM   17  C   UNL     1      -8.920   7.583  74.105  1.00  0.00    -0.267 A  
HETATM   18  C   UNL     1     -10.262   7.319  73.834  1.00  0.00    -0.304 A  
HETATM   19  C   UNL     1     -10.748   7.436  72.529  1.00  0.00    -0.315 A  
ENDBRANCH  12  14
ENDBRANCH  11  12
TORSDOF 2
ENDMDL
MODEL      196
REMARK 921   NORMALIZED FREE ENERGY PREDICTED BY IDOCK:   -3.34 KCAL/MOL
REMARK 922        TOTAL FREE ENERGY PREDICTED BY IDOCK:   -3.99 KCAL/MOL
REMARK 923 INTER-LIGAND FREE ENERGY PREDICTED BY IDOCK:   -3.97 KCAL/MOL
REMARK 924 INTRA-LIGAND FREE ENERGY PREDICTED BY IDOCK:   -0.03 KCAL/MOL
REMARK 927      BINDING AFFINITY PREDICTED BY RF-SCORE:    0.00 PKD
ROOT
HETATM    1  O   UNL     1      -9.782   4.762  71.138  1.00  0.00    -0.159 OA 
HETATM    2  C   UNL     1     -10.564   4.712  72.239  1.00  0.00    -0.132 C  
HETATM    3  C   UNL     1     -11.092   6.043  72.753  1.00  0.00    -0.305 A  
HETATM    4  O   UNL     1     -10.880   3.641  72.744  1.00  0.00    -0.109 OA 
HETATM    5  C   UNL     1     -12.479   6.362  72.134  1.00  0.00    -0.173 A  
HETATM    6  C   UNL     1     -12.338   7.662  71.316  1.00  0.00    -0.309 A  
HETATM    7  N   UNL     1     -10.974   8.081  71.571  1.00  0.00    -0.230 NA 
HETATM    8  C   UNL     1     -10.272   7.213  72.353  1.00  0.00    -0.189 A  
HETATM    9  C   UNL     1      -9.014   7.719  72.539  1.00  0.00    -0.213 A  
HETATM   10  C   UNL     1      -8.962   8.913  71.766  1.00  0.00    -0.203 A  
HETATM   11  C   UNL     1     -10.188   9.101  71.130  1.00  0.00    -0.314 A  
ENDROOT
BRANCH  11  12
HETATM   12  C   UNL     1     -10.618  10.154  70.226  1.00  0.00    -0.264 C  
HETATM   13  O   UNL     1     -11.658  10.788  70.399  1.00  0.00    -0.304 OA 
BRANCH  12  14
HETATM   14  C   UNL     1      -9.798  10.464  69.017  1.00  0.00    -0.222 A  
HETATM   15  C   UNL     1      -8.402  10.527  69.126  1.00  0.00    -0.154 A  
HETATM   16  C   UNL     1      -7.626  10.897  68.021  1.00  0.00    -0.092 A  
HETATM   17  C   UNL     1      -8.240  11.211  66.810  1.00  0.00    -0.154 A  
HETATM   18  C   UNL     1      -9.627  11.146  66.692  1.00  0.00    -0.215 A  
HETATM   19  C   UNL     1     -10.406  10.777  67.792  1.00  0.00    -0.226 A  
ENDBRANCH  12  14
ENDBRANCH  11  12
TORSDOF 2
ENDMDL
MODEL      197
REMARK 921   NORMALIZED FREE ENERGY PREDICTED BY IDOCK:   -3.28 KCAL/MOL
REMARK 922        TOTAL FREE ENERGY PREDICTED BY IDOCK:   -3.93 KCAL/MOL
REMARK 923 INTER-LIGAND FREE ENERGY PREDICTED BY IDOCK:   -3.49 KCAL/MOL
REMARK 924 INTRA-LIGAND FREE ENERGY PREDICTED BY IDOCK:   -0.44 KCAL/MOL
REMARK 927      BINDING AFFINITY PREDICTED BY RF-SCORE:    0.00 PKD
ROOT
HETATM    1  O   UNL     1     -10.424   5.837  65.862  1.00  0.00     0.084 OA 
HETATM    2  C   UNL     1      -9.746   5.770  67.030  1.00  0.00    -0.142 C  
HETATM    3  C   UNL     1      -9.313   7.096  67.636  1.00  0.00    -0.135 A  
HETATM    4  O   UNL     1      -9.559   4.699  67.594  1.00  0.00    -0.144 OA 
HETATM    5  C   UNL     1     -10.388   7.629  68.621  1.00  0.00    -0.220 A  
HETATM    6  C   UNL     1     -10.898   8.978  68.074  1.00  0.00    -0.041 A  
HETATM    7  N   UNL     1     -10.063   9.212  66.912  1.00  0.00    -0.236 NA 
HETATM    8  C   UNL     1      -9.190   8.200  66.651  1.00  0.00    -0.180 A  
HETATM    9  C   UNL     1      -8.449   8.539  65.552  1.00  0.00    -0.183 A  
HETATM   10  C   UNL     1      -8.969   9.788  65.110  1.00  0.00    -0.237 A  
HETATM   11  C   UNL     1     -10.010  10.175  65.951  1.00  0.00    -0.267 A  
ENDROOT
BRANCH  11  12
HETATM   12  C   UNL     1     -10.861  11.352  65.901  1.00  0.00    -0.234 C  
HETATM   13  O   UNL     1     -11.890  11.394  65.228  1.00  0.00     0.003 OA 
BRANCH  12  14
HETATM   14  C   UNL     1     -10.465  12.577  66.658  1.00  0.00    -0.252 A  
HETATM   15  C   UNL     1     -11.456  13.385  67.232  1.00  0.00    -0.374 A  
HETATM   16  C   UNL     1     -11.106  14.579  67.874  1.00  0.00    -0.290 A  
HETATM   17  C   UNL     1      -9.770  14.972  67.937  1.00  0.00    -0.212 A  
HETATM   18  C   UNL     1      -8.778  14.171  67.372  1.00  0.00    -0.217 A  
HETATM   19  C   UNL     1      -9.123  12.979  66.732  1.00  0.00    -0.212 A  
ENDBRANCH  12  14
ENDBRANCH  11  12
TORSDOF 2
ENDMDL
MODEL      198
REMARK 921   NORMALIZED FREE ENERGY PREDICTED BY IDOCK:   -3.25 KCAL/MOL
REMARK 922        TOTAL FREE ENERGY PREDICTED BY IDOCK:   -3.90 KCAL/MOL
REMARK 923 INTER-LIGAND FREE ENERGY PREDICTED BY IDOCK:   -3.37 KCAL/MOL
REMARK 924 INTRA-LIGAND FREE ENERGY PREDICTED BY IDOCK:   -0.53 KCAL/MOL
REMARK 927      BINDING AFFINITY PREDICTED BY RF-SCORE:    0.00 PKD
ROOT
HETATM    1  O   UNL     1      -9.838   6.494  67.672  1.00  0.00    -0.120 OA 
HETATM    2  C   UNL     1     -10.247   7.778  67.565  1.00  0.00    -0.235 C  
HETATM    3  C   UNL     1     -10.575   8.493  68.866  1.00  0.00    -0.166 A  
HETATM    4  O   UNL     1     -10.278   8.344  66.478  1.00  0.00    -0.293 OA 
HETATM    5  C   UNL     1      -9.329   9.237  69.416  1.00  0.00    -0.164 A  
HETATM    6  C   UNL     1      -8.986   8.623  70.789  1.00  0.00    -0.175 A  
HETATM    7  N   UNL     1     -10.057   7.674  71.016  1.00  0.00    -0.190 NA 
HETATM    8  C   UNL     1     -10.938   7.583  69.981  1.00  0.00    -0.240 A  
HETATM    9  C   UNL     1     -11.907   6.677  70.315  1.00  0.00    -0.378 A  
HETATM   10  C   UNL     1     -11.529   6.163  71.587  1.00  0.00    -0.331 A  
HETATM   11  C   UNL     1     -10.342   6.769  71.992  1.00  0.00    -0.196 A  
ENDROOT
BRANCH  11  12
HETATM   12  C   UNL     1      -9.555   6.565  73.197  1.00  0.00    -0.151 C  
HETATM   13  O   UNL     1      -9.692   7.265  74.200  1.00  0.00    -0.268 OA 
BRANCH  12  14
HETATM   14  C   UNL     1      -8.511   5.497  73.221  1.00  0.00    -0.117 A  
HETATM   15  C   UNL     1      -7.895   5.107  72.024  1.00  0.00    -0.111 A  
HETATM   16  C   UNL     1      -6.975   4.052  72.018  1.00  0.00    -0.045 A  
HETATM   17  C   UNL     1      -6.675   3.381  73.202  1.00  0.00    -0.037 A  
HETATM   18  C   UNL     1      -7.280   3.766  74.397  1.00  0.00    -0.057 A  
HETATM   19  C   UNL     1      -8.199   4.819  74.408  1.00  0.00    -0.098 A  
ENDBRANCH  12  14
ENDBRANCH  11  12
TORSDOF 2
ENDMDL
MODEL      199
REMARK 921   NORMALIZED FREE ENERGY PREDICTED BY IDOCK:   -3.24 KCAL/MOL
REMARK 922        TOTAL FREE ENERGY PREDICTED BY IDOCK:   -3.89 KCAL/MOL
REMARK 923 INTER-LIGAND FREE ENERGY PREDICTED BY IDOCK:   -3.48 KCAL/MOL
REMARK 924 INTRA-LIGAND FREE ENERGY PREDICTED BY IDOCK:   -0.41 KCAL/MOL
REMARK 927      BINDING AFFINITY PREDICTED BY RF-SCORE:    0.00 PKD
ROOT
HETATM    1  O   UNL     1     -11.685  12.494  69.478  1.00  0.00    -0.290 OA 
HETATM    2  C   UNL     1     -11.674  13.307  68.397  1.00  0.00    -0.354 C  
HETATM    3  C   UNL     1     -10.640  12.993  67.326  1.00  0.00    -0.247 A  
HETATM    4  O   UNL     1     -12.504  14.199  68.267  1.00  0.00    -0.113 OA 
HETATM    5  C   UNL     1     -11.232  12.044  66.250  1.00  0.00    -0.394 A  
HETATM    6  C   UNL     1     -10.409  10.739  66.272  1.00  0.00    -0.244 A  
HETATM    7  N   UNL     1      -9.360  11.014  67.234  1.00  0.00    -0.156 NA 
HETATM    8  C   UNL     1      -9.464  12.237  67.825  1.00  0.00    -0.197 A  
HETATM    9  C   UNL     1      -8.418  12.390  68.692  1.00  0.00     0.019 A  
HETATM   10  C   UNL     1      -7.705  11.158  68.654  1.00  0.00    -0.135 A  
HETATM   11  C   UNL     1      -8.337  10.291  67.765  1.00  0.00    -0.110 A  
ENDROOT
BRANCH  11  12
HETATM   12  C   UNL     1      -8.004   8.924  67.401  1.00  0.00    -0.101 C  
HETATM   13  O   UNL     1      -6.891   8.607  66.980  1.00  0.00    -0.065 OA 
BRANCH  12  14
HETATM   14  C   UNL     1      -9.049   7.862  67.498  1.00  0.00    -0.141 A  
HETATM   15  C   UNL     1      -9.305   7.041  66.391  1.00  0.00    -0.182 A  
HETATM   16  C   UNL     1     -10.337   6.097  66.439  1.00  0.00    -0.102 A  
HETATM   17  C   UNL     1     -11.119   5.975  67.587  1.00  0.00    -0.217 A  
HETATM   18  C   UNL     1     -10.867   6.784  68.693  1.00  0.00    -0.277 A  
HETATM   19  C   UNL     1      -9.838   7.728  68.650  1.00  0.00    -0.174 A  
ENDBRANCH  12  14
ENDBRANCH  11  12
TORSDOF 2
ENDMDL
MODEL      200
REMARK 921   NORMALIZED FREE ENERGY PREDICTED BY IDOCK:   -3.19 KCAL/MOL
REMARK 922        TOTAL FREE ENERGY PREDICTED BY IDOCK:   -3.83 KCAL/MOL
REMARK 923 INTER-LIGAND FREE ENERGY PREDICTED BY IDOCK:   -3.44 KCAL/MOL
REMARK 924 INTRA-LIGAND FREE ENERGY PREDICTED BY IDOCK:   -0.38 KCAL/MOL
REMARK 927      BINDING AFFINITY PREDICTED BY RF-SCORE:    0.00 PKD
ROOT
HETATM    1  O   UNL     1      -7.481  12.935  68.716  1.00  0.00    -0.110 OA 
HETATM    2  C   UNL     1      -6.566  12.412  67.869  1.00  0.00    -0.097 C  
HETATM    3  C   UNL     1      -6.589  10.901  67.698  1.00  0.00    -0.065 A  
HETATM    4  O   UNL     1      -5.813  13.135  67.227  1.00  0.00    -0.343 OA 
HETATM    5  C   UNL     1      -7.500  10.495  66.508  1.00  0.00    -0.128 A  
HETATM    6  C   UNL     1      -8.647   9.631  67.071  1.00  0.00    -0.128 A  
HETATM    7  N   UNL     1      -8.310   9.488  68.474  1.00  0.00    -0.116 NA 
HETATM    8  C   UNL     1      -7.192  10.173  68.842  1.00  0.00    -0.079 A  
HETATM    9  C   UNL     1      -6.965   9.949  70.172  1.00  0.00    -0.138 A  
HETATM   10  C   UNL     1      -8.052   9.145  70.617  1.00  0.00    -0.198 A  
HETATM   11  C   UNL     1      -8.910   8.901  69.546  1.00  0.00    -0.144 A  
ENDROOT
BRANCH  11  12
HETATM   12  C   UNL     1     -10.156   8.156  69.501  1.00  0.00    -0.193 C  
HETATM   13  O   UNL     1     -11.168   8.527  70.095  1.00  0.00    -0.232 OA 
BRANCH  12  14
HETATM   14  C   UNL     1     -10.217   6.871  68.742  1.00  0.00    -0.179 A  
HETATM   15  C   UNL     1      -9.650   5.714  69.296  1.00  0.00    -0.181 A  
HETATM   16  C   UNL     1      -9.626   4.522  68.563  1.00  0.00    -0.212 A  
HETATM   17  C   UNL     1     -10.159   4.483  67.276  1.00  0.00    -0.138 A  
HETATM   18  C   UNL     1     -10.728   5.628  66.720  1.00  0.00    -0.358 A  
HETATM   19  C   UNL     1     -10.755   6.820  67.448  1.00  0.00    -0.405 A  
ENDBRANCH  12  14
ENDBRANCH  11  12
TORSDOF 2
ENDMDL
MODEL      201
REMARK 921   NORMALIZED FREE ENERGY PREDICTED BY IDOCK:   -3.17 KCAL/MOL
REMARK 922        TOTAL FREE ENERGY PREDICTED BY IDOCK:   -3.80 KCAL/MOL
REMARK 923 INTER-LIGAND FREE ENERGY PREDICTED BY IDOCK:   -3.31 KCAL/MOL
REMARK 924 INTRA-LIGAND FREE ENERGY PREDICTED BY IDOCK:   -0.50 KCAL/MOL
REMARK 927      BINDING AFFINITY PREDICTED BY RF-SCORE:    0.00 PKD
ROOT
HETATM    1  O   UNL     1      -7.423  10.861  66.458  1.00  0.00    -0.131 OA 
HETATM    2  C   UNL     1      -7.328  11.846  67.379  1.00  0.00    -0.145 C  
HETATM    3  C   UNL     1      -7.791  11.503  68.786  1.00  0.00    -0.117 A  
HETATM    4  O   UNL     1      -6.827  12.929  67.098  1.00  0.00    -0.107 OA 
HETATM    5  C   UNL     1      -6.608  10.979  69.643  1.00  0.00    -0.132 A  
HETATM    6  C   UNL     1      -6.937   9.530  70.059  1.00  0.00    -0.081 A  
HETATM    7  N   UNL     1      -8.276   9.323  69.545  1.00  0.00    -0.113 NA 
HETATM    8  C   UNL     1      -8.765  10.384  68.845  1.00  0.00    -0.157 A  
HETATM    9  C   UNL     1     -10.032  10.082  68.428  1.00  0.00    -0.178 A  
HETATM   10  C   UNL     1     -10.266   8.743  68.851  1.00  0.00    -0.221 A  
HETATM   11  C   UNL     1      -9.136   8.268  69.513  1.00  0.00    -0.154 A  
ENDROOT
BRANCH  11  12
HETATM   12  C   UNL     1      -8.880   6.965  70.106  1.00  0.00    -0.145 C  
HETATM   13  O   UNL     1      -8.271   6.078  69.509  1.00  0.00    -0.111 OA 
BRANCH  12  14
HETATM   14  C   UNL     1      -9.404   6.664  71.472  1.00  0.00    -0.153 A  
HETATM   15  C   UNL     1     -10.413   5.704  71.629  1.00  0.00    -0.286 A  
HETATM   16  C   UNL     1     -10.970   5.470  72.891  1.00  0.00    -0.332 A  
HETATM   17  C   UNL     1     -10.529   6.197  73.995  1.00  0.00    -0.272 A  
HETATM   18  C   UNL     1      -9.523   7.151  73.848  1.00  0.00    -0.297 A  
HETATM   19  C   UNL     1      -8.963   7.387  72.590  1.00  0.00    -0.173 A  
ENDBRANCH  12  14
ENDBRANCH  11  12
TORSDOF 2
ENDMDL
MODEL      202
REMARK 921   NORMALIZED FREE ENERGY PREDICTED BY IDOCK:   -3.15 KCAL/MOL
REMARK 922        TOTAL FREE ENERGY PREDICTED BY IDOCK:   -3.79 KCAL/MOL
REMARK 923 INTER-LIGAND FREE ENERGY PREDICTED BY IDOCK:   -3.34 KCAL/MOL
REMARK 924 INTRA-LIGAND FREE ENERGY PREDICTED BY IDOCK:   -0.45 KCAL/MOL
REMARK 927      BINDING AFFINITY PREDICTED BY RF-SCORE:    0.00 PKD
ROOT
HETATM    1  O   UNL     1      -7.959   4.649  71.872  1.00  0.00    -0.095 OA 
HETATM    2  C   UNL     1      -9.241   4.242  71.741  1.00  0.00    -0.127 C  
HETATM    3  C   UNL     1     -10.175   5.177  70.987  1.00  0.00    -0.295 A  
HETATM    4  O   UNL     1      -9.602   3.144  72.151  1.00  0.00    -0.119 OA 
HETATM    5  C   UNL     1     -10.209   4.821  69.477  1.00  0.00    -0.180 A  
HETATM    6  C   UNL     1      -9.679   6.042  68.696  1.00  0.00    -0.127 A  
HETATM    7  N   UNL     1      -9.474   7.042  69.725  1.00  0.00    -0.146 NA 
HETATM    8  C   UNL     1      -9.736   6.595  70.985  1.00  0.00    -0.175 A  
HETATM    9  C   UNL     1      -9.526   7.623  71.862  1.00  0.00    -0.183 A  
HETATM   10  C   UNL     1      -9.049   8.708  71.074  1.00  0.00    -0.248 A  
HETATM   11  C   UNL     1      -8.981   8.311  69.740  1.00  0.00    -0.146 A  
ENDROOT
BRANCH  11  12
HETATM   12  C   UNL     1      -8.541   9.049  68.568  1.00  0.00    -0.129 C  
HETATM   13  O   UNL     1      -7.357   9.114  68.236  1.00  0.00    -0.078 OA 
BRANCH  12  14
HETATM   14  C   UNL     1      -9.543   9.794  67.750  1.00  0.00    -0.157 A  
HETATM   15  C   UNL     1      -9.391   9.854  66.357  1.00  0.00    -0.213 A  
HETATM   16  C   UNL     1     -10.276  10.616  65.585  1.00  0.00    -0.319 A  
HETATM   17  C   UNL     1     -11.307  11.325  66.200  1.00  0.00    -0.035 A  
HETATM   18  C   UNL     1     -11.467  11.268  67.584  1.00  0.00    -0.341 A  
HETATM   19  C   UNL     1     -10.586  10.508  68.358  1.00  0.00    -0.230 A  
ENDBRANCH  12  14
ENDBRANCH  11  12
TORSDOF 2
ENDMDL
MODEL      203
REMARK 921   NORMALIZED FREE ENERGY PREDICTED BY IDOCK:   -3.07 KCAL/MOL
REMARK 922        TOTAL FREE ENERGY PREDICTED BY IDOCK:   -3.69 KCAL/MOL
REMARK 923 INTER-LIGAND FREE ENERGY PREDICTED BY IDOCK:   -3.22 KCAL/MOL
REMARK 924 INTRA-LIGAND FREE ENERGY PREDICTED BY IDOCK:   -0.47 KCAL/MOL
REMARK 927      BINDING AFFINITY PREDICTED BY RF-SCORE:    0.00 PKD
ROOT
HETATM    1  O   UNL     1      -9.112   9.699  64.907  1.00  0.00    -0.206 OA 
HETATM    2  C   UNL     1     -10.027  10.454  65.555  1.00  0.00    -0.282 C  
HETATM    3  C   UNL     1     -10.304  10.084  67.004  1.00  0.00    -0.305 A  
HETATM    4  O   UNL     1     -10.543  11.426  65.015  1.00  0.00    -0.286 OA 
HETATM    5  C   UNL     1      -9.384  10.885  67.964  1.00  0.00    -0.160 A  
HETATM    6  C   UNL     1      -8.506   9.871  68.726  1.00  0.00    -0.122 A  
HETATM    7  N   UNL     1      -9.004   8.585  68.279  1.00  0.00    -0.139 NA 
HETATM    8  C   UNL     1      -9.986   8.673  67.338  1.00  0.00    -0.210 A  
HETATM    9  C   UNL     1     -10.387   7.407  67.010  1.00  0.00    -0.384 A  
HETATM   10  C   UNL     1      -9.542   6.533  67.751  1.00  0.00    -0.125 A  
HETATM   11  C   UNL     1      -8.652   7.290  68.510  1.00  0.00    -0.124 A  
ENDROOT
BRANCH  11  12
HETATM   12  C   UNL     1      -7.592   6.861  69.406  1.00  0.00    -0.099 C  
HETATM   13  O   UNL     1      -6.590   6.268  69.006  1.00  0.00    -0.044 OA 
BRANCH  12  14
HETATM   14  C   UNL     1      -7.726   7.106  70.873  1.00  0.00    -0.094 A  
HETATM   15  C   UNL     1      -8.929   6.791  71.519  1.00  0.00    -0.137 A  
HETATM   16  C   UNL     1      -9.099   7.090  72.876  1.00  0.00    -0.157 A  
HETATM   17  C   UNL     1      -8.073   7.710  73.588  1.00  0.00    -0.200 A  
HETATM   18  C   UNL     1      -6.871   8.022  72.953  1.00  0.00    -0.104 A  
HETATM   19  C   UNL     1      -6.698   7.725  71.599  1.00  0.00    -0.046 A  
ENDBRANCH  12  14
ENDBRANCH  11  12
TORSDOF 2
ENDMDL
MODEL      204
REMARK 921   NORMALIZED FREE ENERGY PREDICTED BY IDOCK:   -3.06 KCAL/MOL
REMARK 922        TOTAL FREE ENERGY PREDICTED BY IDOCK:   -3.69 KCAL/MOL
REMARK 923 INTER-LIGAND FREE ENERGY PREDICTED BY IDOCK:   -3.17 KCAL/MOL
REMARK 924 INTRA-LIGAND FREE ENERGY PREDICTED BY IDOCK:   -0.51 KCAL/MOL
REMARK 927      BINDING AFFINITY PREDICTED BY RF-SCORE:    0.00 PKD
ROOT
HETATM    1  O   UNL     1      -7.688  12.682  67.677  1.00  0.00    -0.130 OA 
HETATM    2  C   UNL     1      -8.828  13.278  67.261  1.00  0.00    -0.216 C  
HETATM    3  C   UNL     1     -10.059  12.390  67.167  1.00  0.00    -0.221 A  
HETATM    4  O   UNL     1      -8.869  14.483  67.044  1.00  0.00    -0.215 OA 
HETATM    5  C   UNL     1     -10.864  12.422  68.493  1.00  0.00    -0.270 A  
HETATM    6  C   UNL     1     -10.879  10.990  69.067  1.00  0.00    -0.229 A  
HETATM    7  N   UNL     1     -10.210  10.207  68.047  1.00  0.00    -0.164 NA 
HETATM    8  C   UNL     1      -9.752  10.947  67.000  1.00  0.00    -0.176 A  
HETATM    9  C   UNL     1      -9.160  10.105  66.099  1.00  0.00    -0.184 A  
HETATM   10  C   UNL     1      -9.217   8.811  66.690  1.00  0.00    -0.223 A  
HETATM   11  C   UNL     1      -9.841   8.901  67.932  1.00  0.00    -0.169 A  
ENDROOT
BRANCH  11  12
HETATM   12  C   UNL     1     -10.115   7.867  68.916  1.00  0.00    -0.197 C  
HETATM   13  O   UNL     1     -11.156   7.210  68.909  1.00  0.00    -0.116 OA 
BRANCH  12  14
HETATM   14  C   UNL     1      -9.126   7.607  70.004  1.00  0.00    -0.151 A  
HETATM   15  C   UNL     1      -8.162   8.579  70.308  1.00  0.00    -0.115 A  
HETATM   16  C   UNL     1      -7.178   8.317  71.268  1.00  0.00    -0.073 A  
HETATM   17  C   UNL     1      -7.148   7.084  71.919  1.00  0.00    -0.069 A  
HETATM   18  C   UNL     1      -8.105   6.115  71.625  1.00  0.00    -0.110 A  
HETATM   19  C   UNL     1      -9.090   6.372  70.668  1.00  0.00    -0.148 A  
ENDBRANCH  12  14
ENDBRANCH  11  12
TORSDOF 2
ENDMDL
MODEL      205
REMARK 921   NORMALIZED FREE ENERGY PREDICTED BY IDOCK:   -3.01 KCAL/MOL
REMARK 922        TOTAL FREE ENERGY PREDICTED BY IDOCK:   -3.63 KCAL/MOL
REMARK 923 INTER-LIGAND FREE ENERGY PREDICTED BY IDOCK:   -3.31 KCAL/MOL
REMARK 924 INTRA-LIGAND FREE ENERGY PREDICTED BY IDOCK:   -0.33 KCAL/MOL
REMARK 927      BINDING AFFINITY PREDICTED BY RF-SCORE:    0.00 PKD
ROOT
HETATM    1  O   UNL     1      -8.572  12.934  67.773  1.00  0.00    -0.161 OA 
HETATM    2  C   UNL     1      -9.792  13.022  67.197  1.00  0.00    -0.230 C  
HETATM    3  C   UNL     1     -10.445  11.709  66.793  1.00  0.00    -0.265 A  
HETATM    4  O   UNL     1     -10.360  14.101  67.078  1.00  0.00    -0.264 OA 
HETATM    5  C   UNL     1     -11.340  11.164  67.938  1.00  0.00    -0.378 A  
HETATM    6  C   UNL     1     -10.764   9.801  68.375  1.00  0.00    -0.221 A  
HETATM    7  N   UNL     1      -9.679   9.574  67.441  1.00  0.00    -0.151 NA 
HETATM    8  C   UNL     1      -9.483  10.601  66.568  1.00  0.00    -0.169 A  
HETATM    9  C   UNL     1      -8.454  10.267  65.731  1.00  0.00    -0.161 A  
HETATM   10  C   UNL     1      -7.981   9.005  66.189  1.00  0.00    -0.103 A  
HETATM   11  C   UNL     1      -8.734   8.606  67.291  1.00  0.00    -0.129 A  
ENDROOT
BRANCH  11  12
HETATM   12  C   UNL     1      -8.624   7.412  68.113  1.00  0.00    -0.123 C  
HETATM   13  O   UNL     1      -8.110   7.428  69.231  1.00  0.00    -0.119 OA 
BRANCH  12  14
HETATM   14  C   UNL     1      -9.110   6.105  67.579  1.00  0.00    -0.109 A  
HETATM   15  C   UNL     1      -9.174   4.992  68.430  1.00  0.00    -0.150 A  
HETATM   16  C   UNL     1      -9.550   3.742  67.925  1.00  0.00    -0.187 A  
HETATM   17  C   UNL     1      -9.854   3.597  66.572  1.00  0.00     0.004 A  
HETATM   18  C   UNL     1      -9.796   4.700  65.721  1.00  0.00    -0.227 A  
HETATM   19  C   UNL     1      -9.422   5.950  66.221  1.00  0.00    -0.161 A  
ENDBRANCH  12  14
ENDBRANCH  11  12
TORSDOF 2
ENDMDL
MODEL      206
REMARK 921   NORMALIZED FREE ENERGY PREDICTED BY IDOCK:   -2.90 KCAL/MOL
REMARK 922        TOTAL FREE ENERGY PREDICTED BY IDOCK:   -3.51 KCAL/MOL
REMARK 923 INTER-LIGAND FREE ENERGY PREDICTED BY IDOCK:   -2.99 KCAL/MOL
REMARK 924 INTRA-LIGAND FREE ENERGY PREDICTED BY IDOCK:   -0.52 KCAL/MOL
REMARK 927      BINDING AFFINITY PREDICTED BY RF-SCORE:    0.00 PKD
ROOT
HETATM    1  O   UNL     1     -11.299   3.670  63.743  1.00  0.00    -0.207 OA 
HETATM    2  C   UNL     1     -10.498   2.651  63.361  1.00  0.00    -0.201 C  
HETATM    3  C   UNL     1      -9.086   2.651  63.928  1.00  0.00    -0.105 A  
HETATM    4  O   UNL     1     -10.920   1.745  62.652  1.00  0.00    -0.138 OA 
HETATM    5  C   UNL     1      -9.021   1.831  65.244  1.00  0.00    -0.123 A  
HETATM    6  C   UNL     1      -8.601   2.792  66.375  1.00  0.00    -0.110 A  
HETATM    7  N   UNL     1      -8.346   4.041  65.685  1.00  0.00    -0.108 NA 
HETATM    8  C   UNL     1      -8.605   3.991  64.348  1.00  0.00    -0.107 A  
HETATM    9  C   UNL     1      -8.313   5.212  63.805  1.00  0.00    -0.130 A  
HETATM   10  C   UNL     1      -7.929   6.037  64.900  1.00  0.00    -0.126 A  
HETATM   11  C   UNL     1      -7.997   5.296  66.078  1.00  0.00    -0.104 A  
ENDROOT
BRANCH  11  12
HETATM   12  C   UNL     1      -7.724   5.697  67.448  1.00  0.00    -0.100 C  
HETATM   13  O   UNL     1      -6.586   5.935  67.850  1.00  0.00    -0.048 OA 
BRANCH  12  14
HETATM   14  C   UNL     1      -8.850   5.788  68.425  1.00  0.00    -0.109 A  
HETATM   15  C   UNL     1      -8.679   5.289  69.724  1.00  0.00    -0.116 A  
HETATM   16  C   UNL     1      -9.751   5.293  70.625  1.00  0.00    -0.249 A  
HETATM   17  C   UNL     1     -10.993   5.787  70.231  1.00  0.00    -0.347 A  
HETATM   18  C   UNL     1     -11.169   6.289  68.942  1.00  0.00    -0.387 A  
HETATM   19  C   UNL     1     -10.102   6.287  68.039  1.00  0.00    -0.174 A  
ENDBRANCH  12  14
ENDBRANCH  11  12
TORSDOF 2
ENDMDL
MODEL      207
REMARK 921   NORMALIZED FREE ENERGY PREDICTED BY IDOCK:   -2.88 KCAL/MOL
REMARK 922        TOTAL FREE ENERGY PREDICTED BY IDOCK:   -3.48 KCAL/MOL
REMARK 923 INTER-LIGAND FREE ENERGY PREDICTED BY IDOCK:   -2.97 KCAL/MOL
REMARK 924 INTRA-LIGAND FREE ENERGY PREDICTED BY IDOCK:   -0.51 KCAL/MOL
REMARK 927      BINDING AFFINITY PREDICTED BY RF-SCORE:    0.00 PKD
ROOT
HETATM    1  O   UNL     1      -8.140   9.877  66.003  1.00  0.00    -0.115 OA 
HETATM    2  C   UNL     1      -7.316  10.463  66.900  1.00  0.00    -0.106 C  
HETATM    3  C   UNL     1      -7.418   9.970  68.336  1.00  0.00    -0.082 A  
HETATM    4  O   UNL     1      -6.486  11.294  66.550  1.00  0.00    -0.130 OA 
HETATM    5  C   UNL     1      -6.413   8.816  68.595  1.00  0.00    -0.054 A  
HETATM    6  C   UNL     1      -7.227   7.559  68.966  1.00  0.00    -0.085 A  
HETATM    7  N   UNL     1      -8.594   8.039  69.010  1.00  0.00    -0.136 NA 
HETATM    8  C   UNL     1      -8.726   9.352  68.669  1.00  0.00    -0.131 A  
HETATM    9  C   UNL     1     -10.047   9.694  68.765  1.00  0.00    -0.193 A  
HETATM   10  C   UNL     1     -10.729   8.494  69.115  1.00  0.00    -0.128 A  
HETATM   11  C   UNL     1      -9.806   7.456  69.222  1.00  0.00    -0.168 A  
ENDROOT
BRANCH  11  12
HETATM   12  C   UNL     1     -10.013   6.052  69.535  1.00  0.00    -0.178 C  
HETATM   13  O   UNL     1     -10.341   5.669  70.658  1.00  0.00    -0.220 OA 
BRANCH  12  14
HETATM   14  C   UNL     1      -9.787   5.022  68.477  1.00  0.00    -0.216 A  
HETATM   15  C   UNL     1      -9.216   3.790  68.824  1.00  0.00    -0.218 A  
HETATM   16  C   UNL     1      -8.922   2.847  67.832  1.00  0.00    -0.194 A  
HETATM   17  C   UNL     1      -9.189   3.134  66.495  1.00  0.00    -0.155 A  
HETATM   18  C   UNL     1      -9.761   4.356  66.143  1.00  0.00    -0.220 A  
HETATM   19  C   UNL     1     -10.057   5.300  67.130  1.00  0.00    -0.239 A  
ENDBRANCH  12  14
ENDBRANCH  11  12
TORSDOF 2
ENDMDL
MODEL      208
REMARK 921   NORMALIZED FREE ENERGY PREDICTED BY IDOCK:   -2.88 KCAL/MOL
REMARK 922        TOTAL FREE ENERGY PREDICTED BY IDOCK:   -3.48 KCAL/MOL
REMARK 923 INTER-LIGAND FREE ENERGY PREDICTED BY IDOCK:   -3.01 KCAL/MOL
REMARK 924 INTRA-LIGAND FREE ENERGY PREDICTED BY IDOCK:   -0.47 KCAL/MOL
REMARK 927      BINDING AFFINITY PREDICTED BY RF-SCORE:    0.00 PKD
ROOT
HETATM    1  O   UNL     1      -6.521   2.591  67.683  1.00  0.00    -0.031 OA 
HETATM    2  C   UNL     1      -7.424   2.512  68.686  1.00  0.00    -0.047 C  
HETATM    3  C   UNL     1      -8.325   3.722  68.880  1.00  0.00    -0.088 A  
HETATM    4  O   UNL     1      -7.547   1.489  69.349  1.00  0.00    -0.042 OA 
HETATM    5  C   UNL     1      -9.640   3.565  68.069  1.00  0.00    -0.166 A  
HETATM    6  C   UNL     1      -9.693   4.712  67.038  1.00  0.00    -0.195 A  
HETATM    7  N   UNL     1      -8.522   5.507  67.351  1.00  0.00    -0.110 NA 
HETATM    8  C   UNL     1      -7.758   4.988  68.352  1.00  0.00    -0.079 A  
HETATM    9  C   UNL     1      -6.700   5.828  68.569  1.00  0.00    -0.057 A  
HETATM   10  C   UNL     1      -6.820   6.857  67.593  1.00  0.00    -0.077 A  
HETATM   11  C   UNL     1      -7.946   6.615  66.809  1.00  0.00    -0.108 A  
ENDROOT
BRANCH  11  12
HETATM   12  C   UNL     1      -8.475   7.364  65.680  1.00  0.00    -0.130 C  
HETATM   13  O   UNL     1      -8.263   7.034  64.514  1.00  0.00    -0.097 OA 
BRANCH  12  14
HETATM   14  C   UNL     1      -9.273   8.601  65.928  1.00  0.00    -0.264 A  
HETATM   15  C   UNL     1      -9.396   9.559  64.912  1.00  0.00    -0.264 A  
HETATM   16  C   UNL     1     -10.072  10.760  65.156  1.00  0.00    -0.363 A  
HETATM   17  C   UNL     1     -10.618  11.011  66.414  1.00  0.00    -0.308 A  
HETATM   18  C   UNL     1     -10.503  10.062  67.428  1.00  0.00    -0.316 A  
HETATM   19  C   UNL     1      -9.830   8.861  67.189  1.00  0.00    -0.267 A  
ENDBRANCH  12  14
ENDBRANCH  11  12
TORSDOF 2
ENDMDL
MODEL      209
REMARK 921   NORMALIZED FREE ENERGY PREDICTED BY IDOCK:   -2.82 KCAL/MOL
REMARK 922        TOTAL FREE ENERGY PREDICTED BY IDOCK:   -3.41 KCAL/MOL
REMARK 923 INTER-LIGAND FREE ENERGY PREDICTED BY IDOCK:   -2.92 KCAL/MOL
REMARK 924 INTRA-LIGAND FREE ENERGY PREDICTED BY IDOCK:   -0.50 KCAL/MOL
REMARK 927      BINDING AFFINITY PREDICTED BY RF-SCORE:    0.00 PKD
ROOT
HETATM    1  O   UNL     1     -11.514   7.774  71.192  1.00  0.00    -0.266 OA 
HETATM    2  C   UNL     1     -11.697   9.112  71.260  1.00  0.00    -0.326 C  
HETATM    3  C   UNL     1     -10.604   9.975  70.649  1.00  0.00    -0.272 A  
HETATM    4  O   UNL     1     -12.725   9.588  71.727  1.00  0.00    -0.346 OA 
HETATM    5  C   UNL     1     -10.920  10.295  69.164  1.00  0.00    -0.280 A  
HETATM    6  C   UNL     1      -9.792   9.689  68.304  1.00  0.00    -0.150 A  
HETATM    7  N   UNL     1      -8.861   9.165  69.283  1.00  0.00    -0.140 NA 
HETATM    8  C   UNL     1      -9.280   9.307  70.571  1.00  0.00    -0.261 A  
HETATM    9  C   UNL     1      -8.319   8.797  71.399  1.00  0.00    -0.222 A  
HETATM   10  C   UNL     1      -7.316   8.266  70.540  1.00  0.00    -0.056 A  
HETATM   11  C   UNL     1      -7.693   8.468  69.214  1.00  0.00    -0.093 A  
ENDROOT
BRANCH  11  12
HETATM   12  C   UNL     1      -7.018   8.089  67.984  1.00  0.00    -0.074 C  
HETATM   13  O   UNL     1      -6.533   8.920  67.216  1.00  0.00    -0.059 OA 
BRANCH  12  14
HETATM   14  C   UNL     1      -6.936   6.647  67.604  1.00  0.00    -0.083 A  
HETATM   15  C   UNL     1      -7.988   6.061  66.887  1.00  0.00    -0.102 A  
HETATM   16  C   UNL     1      -7.963   4.692  66.596  1.00  0.00    -0.103 A  
HETATM   17  C   UNL     1      -6.895   3.906  67.025  1.00  0.00    -0.051 A  
HETATM   18  C   UNL     1      -5.843   4.483  67.734  1.00  0.00    -0.022 A  
HETATM   19  C   UNL     1      -5.864   5.849  68.027  1.00  0.00    -0.013 A  
ENDBRANCH  12  14
ENDBRANCH  11  12
TORSDOF 2
ENDMDL
MODEL      210
REMARK 921   NORMALIZED FREE ENERGY PREDICTED BY IDOCK:   -2.81 KCAL/MOL
REMARK 922        TOTAL FREE ENERGY PREDICTED BY IDOCK:   -3.40 KCAL/MOL
REMARK 923 INTER-LIGAND FREE ENERGY PREDICTED BY IDOCK:   -3.19 KCAL/MOL
REMARK 924 INTRA-LIGAND FREE ENERGY PREDICTED BY IDOCK:   -0.22 KCAL/MOL
REMARK 927      BINDING AFFINITY PREDICTED BY RF-SCORE:    0.00 PKD
ROOT
HETATM    1  O   UNL     1      -9.491   4.611  69.808  1.00  0.00    -0.133 OA 
HETATM    2  C   UNL     1      -9.796   4.929  71.086  1.00  0.00    -0.192 C  
HETATM    3  C   UNL     1      -9.748   6.406  71.445  1.00  0.00    -0.187 A  
HETATM    4  O   UNL     1     -10.159   4.071  71.883  1.00  0.00    -0.180 OA 
HETATM    5  C   UNL     1     -11.139   7.066  71.251  1.00  0.00    -0.282 A  
HETATM    6  C   UNL     1     -10.993   8.160  70.173  1.00  0.00    -0.223 A  
HETATM    7  N   UNL     1      -9.573   8.163  69.881  1.00  0.00    -0.174 NA 
HETATM    8  C   UNL     1      -8.871   7.214  70.561  1.00  0.00    -0.154 A  
HETATM    9  C   UNL     1      -7.550   7.324  70.221  1.00  0.00    -0.089 A  
HETATM   10  C   UNL     1      -7.493   8.350  69.235  1.00  0.00    -0.084 A  
HETATM   11  C   UNL     1      -8.779   8.835  69.003  1.00  0.00    -0.133 A  
ENDROOT
BRANCH  11  12
HETATM   12  C   UNL     1      -9.236   9.861  68.081  1.00  0.00    -0.128 C  
HETATM   13  O   UNL     1     -10.010  10.756  68.422  1.00  0.00    -0.153 OA 
BRANCH  12  14
HETATM   14  C   UNL     1      -8.791   9.820  66.656  1.00  0.00    -0.153 A  
HETATM   15  C   UNL     1      -7.467  10.150  66.336  1.00  0.00    -0.108 A  
HETATM   16  C   UNL     1      -7.057  10.195  64.998  1.00  0.00    -0.135 A  
HETATM   17  C   UNL     1      -7.967   9.920  63.979  1.00  0.00    -0.150 A  
HETATM   18  C   UNL     1      -9.285   9.587  64.290  1.00  0.00    -0.166 A  
HETATM   19  C   UNL     1      -9.698   9.540  65.624  1.00  0.00    -0.361 A  
ENDBRANCH  12  14
ENDBRANCH  11  12
TORSDOF 2
ENDMDL
MODEL      211
REMARK 921   NORMALIZED FREE ENERGY PREDICTED BY IDOCK:   -2.79 KCAL/MOL
REMARK 922        TOTAL FREE ENERGY PREDICTED BY IDOCK:   -3.38 KCAL/MOL
REMARK 923 INTER-LIGAND FREE ENERGY PREDICTED BY IDOCK:   -2.91 KCAL/MOL
REMARK 924 INTRA-LIGAND FREE ENERGY PREDICTED BY IDOCK:   -0.47 KCAL/MOL
REMARK 927      BINDING AFFINITY PREDICTED BY RF-SCORE:    0.00 PKD
ROOT
HETATM    1  O   UNL     1      -9.452   9.783  64.465  1.00  0.00    -0.282 OA 
HETATM    2  C   UNL     1     -10.193  10.890  64.694  1.00  0.00    -0.345 C  
HETATM    3  C   UNL     1     -10.433  11.253  66.152  1.00  0.00    -0.305 A  
HETATM    4  O   UNL     1     -10.585  11.592  63.770  1.00  0.00    -0.337 OA 
HETATM    5  C   UNL     1      -9.339  12.229  66.663  1.00  0.00    -0.228 A  
HETATM    6  C   UNL     1      -8.583  11.525  67.810  1.00  0.00    -0.138 A  
HETATM    7  N   UNL     1      -9.304  10.279  67.980  1.00  0.00    -0.138 NA 
HETATM    8  C   UNL     1     -10.317  10.105  67.086  1.00  0.00    -0.238 A  
HETATM    9  C   UNL     1     -10.932   8.913  67.355  1.00  0.00     0.079 A  
HETATM   10  C   UNL     1     -10.189   8.330  68.420  1.00  0.00    -0.242 A  
HETATM   11  C   UNL     1      -9.145   9.183  68.771  1.00  0.00    -0.136 A  
ENDROOT
BRANCH  11  12
HETATM   12  C   UNL     1      -8.109   9.024  69.778  1.00  0.00    -0.109 C  
HETATM   13  O   UNL     1      -7.989   9.799  70.727  1.00  0.00    -0.288 OA 
BRANCH  12  14
HETATM   14  C   UNL     1      -7.124   7.909  69.650  1.00  0.00    -0.061 A  
HETATM   15  C   UNL     1      -6.775   7.162  70.784  1.00  0.00    -0.052 A  
HETATM   16  C   UNL     1      -5.794   6.168  70.696  1.00  0.00    -0.018 A  
HETATM   17  C   UNL     1      -5.154   5.923  69.482  1.00  0.00    -0.004 A  
HETATM   18  C   UNL     1      -5.498   6.659  68.350  1.00  0.00    -0.016 A  
HETATM   19  C   UNL     1      -6.478   7.652  68.432  1.00  0.00    -0.052 A  
ENDBRANCH  12  14
ENDBRANCH  11  12
TORSDOF 2
ENDMDL
MODEL      212
REMARK 921   NORMALIZED FREE ENERGY PREDICTED BY IDOCK:   -2.76 KCAL/MOL
REMARK 922        TOTAL FREE ENERGY PREDICTED BY IDOCK:   -3.35 KCAL/MOL
REMARK 923 INTER-LIGAND FREE ENERGY PREDICTED BY IDOCK:   -3.56 KCAL/MOL
REMARK 924 INTRA-LIGAND FREE ENERGY PREDICTED BY IDOCK:    0.22 KCAL/MOL
REMARK 927      BINDING AFFINITY PREDICTED BY RF-SCORE:    0.00 PKD
ROOT
HETATM    1  O   UNL     1     -11.673  12.849  65.804  1.00  0.00    -0.348 OA 
HETATM    2  C   UNL     1     -10.979  12.481  64.704  1.00  0.00    -0.310 C  
HETATM    3  C   UNL     1      -9.766  11.593  64.936  1.00  0.00    -0.232 A  
HETATM    4  O   UNL     1     -11.359  12.793  63.582  1.00  0.00    -0.433 OA 
HETATM    5  C   UNL     1     -10.154  10.093  64.843  1.00  0.00    -0.277 A  
HETATM    6  C   UNL     1      -9.869   9.449  66.216  1.00  0.00    -0.281 A  
HETATM    7  N   UNL     1      -9.257  10.521  66.975  1.00  0.00    -0.150 NA 
HETATM    8  C   UNL     1      -9.189  11.703  66.300  1.00  0.00    -0.217 A  
HETATM    9  C   UNL     1      -8.581  12.627  67.104  1.00  0.00    -0.199 A  
HETATM   10  C   UNL     1      -8.344  11.963  68.340  1.00  0.00    -0.157 A  
HETATM   11  C   UNL     1      -8.814  10.654  68.255  1.00  0.00    -0.139 A  
ENDROOT
BRANCH  11  12
HETATM   12  C   UNL     1      -8.819   9.598  69.254  1.00  0.00    -0.164 C  
HETATM   13  O   UNL     1      -9.801   8.883  69.452  1.00  0.00    -0.175 OA 
BRANCH  12  14
HETATM   14  C   UNL     1      -7.611   9.386  70.106  1.00  0.00    -0.132 A  
HETATM   15  C   UNL     1      -6.651  10.403  70.207  1.00  0.00    -0.141 A  
HETATM   16  C   UNL     1      -5.474  10.189  70.935  1.00  0.00    -0.077 A  
HETATM   17  C   UNL     1      -5.250   8.960  71.554  1.00  0.00    -0.039 A  
HETATM   18  C   UNL     1      -6.202   7.946  71.461  1.00  0.00    -0.035 A  
HETATM   19  C   UNL     1      -7.378   8.156  70.736  1.00  0.00    -0.058 A  
ENDBRANCH  12  14
ENDBRANCH  11  12
TORSDOF 2
ENDMDL
MODEL      213
REMARK 921   NORMALIZED FREE ENERGY PREDICTED BY IDOCK:   -2.63 KCAL/MOL
REMARK 922        TOTAL FREE ENERGY PREDICTED BY IDOCK:   -3.21 KCAL/MOL
REMARK 923 INTER-LIGAND FREE ENERGY PREDICTED BY IDOCK:   -2.93 KCAL/MOL
REMARK 924 INTRA-LIGAND FREE ENERGY PREDICTED BY IDOCK:   -0.28 KCAL/MOL
REMARK 927      BINDING AFFINITY PREDICTED BY RF-SCORE:    0.00 PKD
ROOT
HETATM    1  O   UNL     1      -6.563  13.956  71.736  1.00  0.00     0.430 OA 
HETATM    2  C   UNL     1      -6.103  14.437  70.559  1.00  0.00    -0.185 C  
HETATM    3  C   UNL     1      -6.212  13.507  69.360  1.00  0.00    -0.107 A  
HETATM    4  O   UNL     1      -5.691  15.587  70.463  1.00  0.00    -0.150 OA 
HETATM    5  C   UNL     1      -7.549  13.736  68.605  1.00  0.00    -0.125 A  
HETATM    6  C   UNL     1      -8.353  12.421  68.667  1.00  0.00     0.006 A  
HETATM    7  N   UNL     1      -7.450  11.500  69.327  1.00  0.00    -0.028 NA 
HETATM    8  C   UNL     1      -6.275  12.068  69.717  1.00  0.00    -0.136 A  
HETATM    9  C   UNL     1      -5.502  11.105  70.306  1.00  0.00    -0.102 A  
HETATM   10  C   UNL     1      -6.303   9.928  70.322  1.00  0.00    -0.094 A  
HETATM   11  C   UNL     1      -7.538  10.206  69.742  1.00  0.00    -0.170 A  
ENDROOT
BRANCH  11  12
HETATM   12  C   UNL     1      -8.692   9.344  69.545  1.00  0.00    -0.161 C  
HETATM   13  O   UNL     1      -9.044   8.959  68.430  1.00  0.00    -0.137 OA 
BRANCH  12  14
HETATM   14  C   UNL     1      -9.512   8.933  70.723  1.00  0.00    -0.280 A  
HETATM   15  C   UNL     1      -8.872   8.543  71.908  1.00  0.00    -0.284 A  
HETATM   16  C   UNL     1      -9.625   8.078  72.993  1.00  0.00    -0.347 A  
HETATM   17  C   UNL     1     -11.013   7.994  72.896  1.00  0.00    -0.398 A  
HETATM   18  C   UNL     1     -11.656   8.385  71.722  1.00  0.00    -0.372 A  
HETATM   19  C   UNL     1     -10.909   8.850  70.637  1.00  0.00    -0.286 A  
ENDBRANCH  12  14
ENDBRANCH  11  12
TORSDOF 2
ENDMDL
MODEL      214
REMARK 921   NORMALIZED FREE ENERGY PREDICTED BY IDOCK:   -2.61 KCAL/MOL
REMARK 922        TOTAL FREE ENERGY PREDICTED BY IDOCK:   -3.18 KCAL/MOL
REMARK 923 INTER-LIGAND FREE ENERGY PREDICTED BY IDOCK:   -2.66 KCAL/MOL
REMARK 924 INTRA-LIGAND FREE ENERGY PREDICTED BY IDOCK:   -0.52 KCAL/MOL
REMARK 927      BINDING AFFINITY PREDICTED BY RF-SCORE:    0.00 PKD
ROOT
HETATM    1  O   UNL     1      -7.290  10.613  67.412  1.00  0.00    -0.090 OA 
HETATM    2  C   UNL     1      -6.105  10.088  67.027  1.00  0.00    -0.055 C  
HETATM    3  C   UNL     1      -5.504   9.032  67.942  1.00  0.00    -0.035 A  
HETATM    4  O   UNL     1      -5.589  10.402  65.961  1.00  0.00    -0.063 OA 
HETATM    5  C   UNL     1      -5.950   7.609  67.509  1.00  0.00    -0.044 A  
HETATM    6  C   UNL     1      -6.752   6.995  68.675  1.00  0.00    -0.063 A  
HETATM    7  N   UNL     1      -6.649   7.991  69.723  1.00  0.00    -0.037 NA 
HETATM    8  C   UNL     1      -5.974   9.114  69.348  1.00  0.00    -0.037 A  
HETATM    9  C   UNL     1      -5.926   9.967  70.416  1.00  0.00    -0.085 A  
HETATM   10  C   UNL     1      -6.675   9.334  71.447  1.00  0.00    -0.011 A  
HETATM   11  C   UNL     1      -7.158   8.113  70.980  1.00  0.00    -0.056 A  
ENDROOT
BRANCH  11  12
HETATM   12  C   UNL     1      -7.984   7.120  71.646  1.00  0.00    -0.097 C  
HETATM   13  O   UNL     1      -7.508   6.115  72.173  1.00  0.00    -0.092 OA 
BRANCH  12  14
HETATM   14  C   UNL     1      -9.467   7.291  71.665  1.00  0.00    -0.161 A  
HETATM   15  C   UNL     1     -10.226   6.861  70.568  1.00  0.00    -0.209 A  
HETATM   16  C   UNL     1     -11.607   7.089  70.537  1.00  0.00    -0.364 A  
HETATM   17  C   UNL     1     -12.230   7.751  71.593  1.00  0.00    -0.341 A  
HETATM   18  C   UNL     1     -11.482   8.177  72.690  1.00  0.00    -0.454 A  
HETATM   19  C   UNL     1     -10.104   7.951  72.726  1.00  0.00    -0.365 A  
ENDBRANCH  12  14
ENDBRANCH  11  12
TORSDOF 2
ENDMDL
MODEL      215
REMARK 921   NORMALIZED FREE ENERGY PREDICTED BY IDOCK:   -2.59 KCAL/MOL
REMARK 922        TOTAL FREE ENERGY PREDICTED BY IDOCK:   -3.17 KCAL/MOL
REMARK 923 INTER-LIGAND FREE ENERGY PREDICTED BY IDOCK:   -3.03 KCAL/MOL
REMARK 924 INTRA-LIGAND FREE ENERGY PREDICTED BY IDOCK:   -0.14 KCAL/MOL
REMARK 927      BINDING AFFINITY PREDICTED BY RF-SCORE:    0.00 PKD
ROOT
HETATM    1  O   UNL     1      -9.251   9.411  64.275  1.00  0.00    -0.186 OA 
HETATM    2  C   UNL     1      -9.624  10.531  64.934  1.00  0.00    -0.277 C  
HETATM    3  C   UNL     1      -9.672  10.437  66.452  1.00  0.00    -0.250 A  
HETATM    4  O   UNL     1      -9.839  11.577  64.334  1.00  0.00    -0.239 OA 
HETATM    5  C   UNL     1      -8.317  10.866  67.074  1.00  0.00    -0.132 A  
HETATM    6  C   UNL     1      -7.743   9.650  67.831  1.00  0.00    -0.087 A  
HETATM    7  N   UNL     1      -8.787   8.652  67.714  1.00  0.00    -0.136 NA 
HETATM    8  C   UNL     1      -9.851   9.055  66.965  1.00  0.00    -0.209 A  
HETATM    9  C   UNL     1     -10.773   8.045  66.943  1.00  0.00    -0.201 A  
HETATM   10  C   UNL     1     -10.181   6.969  67.661  1.00  0.00    -0.245 A  
HETATM   11  C   UNL     1      -8.916   7.353  68.102  1.00  0.00    -0.129 A  
ENDROOT
BRANCH  11  12
HETATM   12  C   UNL     1      -7.922   6.604  68.853  1.00  0.00    -0.112 C  
HETATM   13  O   UNL     1      -6.755   6.979  68.957  1.00  0.00    -0.052 OA 
BRANCH  12  14
HETATM   14  C   UNL     1      -8.308   5.312  69.496  1.00  0.00    -0.095 A  
HETATM   15  C   UNL     1      -9.149   5.323  70.617  1.00  0.00    -0.175 A  
HETATM   16  C   UNL     1      -9.453   4.127  71.279  1.00  0.00    -0.230 A  
HETATM   17  C   UNL     1      -8.912   2.923  70.830  1.00  0.00    -0.164 A  
HETATM   18  C   UNL     1      -8.077   2.905  69.714  1.00  0.00    -0.056 A  
HETATM   19  C   UNL     1      -7.772   4.096  69.049  1.00  0.00    -0.054 A  
ENDBRANCH  12  14
ENDBRANCH  11  12
TORSDOF 2
ENDMDL
MODEL      216
REMARK 921   NORMALIZED FREE ENERGY PREDICTED BY IDOCK:   -2.57 KCAL/MOL
REMARK 922        TOTAL FREE ENERGY PREDICTED BY IDOCK:   -3.14 KCAL/MOL
REMARK 923 INTER-LIGAND FREE ENERGY PREDICTED BY IDOCK:   -2.66 KCAL/MOL
REMARK 924 INTRA-LIGAND FREE ENERGY PREDICTED BY IDOCK:   -0.48 KCAL/MOL
REMARK 927      BINDING AFFINITY PREDICTED BY RF-SCORE:    0.00 PKD
ROOT
HETATM    1  O   UNL     1     -10.763   7.522  69.264  1.00  0.00    -0.226 OA 
HETATM    2  C   UNL     1     -10.509   8.847  69.187  1.00  0.00    -0.223 C  
HETATM    3  C   UNL     1      -9.383   9.267  68.255  1.00  0.00    -0.141 A  
HETATM    4  O   UNL     1     -11.203   9.661  69.786  1.00  0.00    -0.233 OA 
HETATM    5  C   UNL     1      -9.930   9.580  66.836  1.00  0.00    -0.278 A  
HETATM    6  C   UNL     1      -9.277   8.586  65.853  1.00  0.00    -0.182 A  
HETATM    7  N   UNL     1      -8.344   7.849  66.682  1.00  0.00    -0.121 NA 
HETATM    8  C   UNL     1      -8.383   8.200  67.997  1.00  0.00    -0.129 A  
HETATM    9  C   UNL     1      -7.455   7.457  68.673  1.00  0.00    -0.102 A  
HETATM   10  C   UNL     1      -6.894   6.575  67.706  1.00  0.00    -0.080 A  
HETATM   11  C   UNL     1      -7.495   6.806  66.471  1.00  0.00    -0.078 A  
ENDROOT
BRANCH  11  12
HETATM   12  C   UNL     1      -7.278   6.152  65.191  1.00  0.00    -0.070 C  
HETATM   13  O   UNL     1      -6.440   6.549  64.382  1.00  0.00    -0.039 OA 
BRANCH  12  14
HETATM   14  C   UNL     1      -8.122   4.979  64.813  1.00  0.00    -0.113 A  
HETATM   15  C   UNL     1      -8.728   4.943  63.549  1.00  0.00    -0.107 A  
HETATM   16  C   UNL     1      -9.587   3.891  63.211  1.00  0.00    -0.148 A  
HETATM   17  C   UNL     1      -9.849   2.879  64.134  1.00  0.00    -0.148 A  
HETATM   18  C   UNL     1      -9.247   2.906  65.391  1.00  0.00    -0.131 A  
HETATM   19  C   UNL     1      -8.388   3.955  65.732  1.00  0.00    -0.109 A  
ENDBRANCH  12  14
ENDBRANCH  11  12
TORSDOF 2
ENDMDL
MODEL      217
REMARK 921   NORMALIZED FREE ENERGY PREDICTED BY IDOCK:   -2.44 KCAL/MOL
REMARK 922        TOTAL FREE ENERGY PREDICTED BY IDOCK:   -2.99 KCAL/MOL
REMARK 923 INTER-LIGAND FREE ENERGY PREDICTED BY IDOCK:   -2.64 KCAL/MOL
REMARK 924 INTRA-LIGAND FREE ENERGY PREDICTED BY IDOCK:   -0.35 KCAL/MOL
REMARK 927      BINDING AFFINITY PREDICTED BY RF-SCORE:    0.00 PKD
ROOT
HETATM    1  O   UNL     1     -10.654   4.231  64.116  1.00  0.00    -0.113 OA 
HETATM    2  C   UNL     1      -9.806   3.455  64.828  1.00  0.00    -0.124 C  
HETATM    3  C   UNL     1      -8.970   4.161  65.885  1.00  0.00    -0.126 A  
HETATM    4  O   UNL     1      -9.776   2.240  64.671  1.00  0.00    -0.101 OA 
HETATM    5  C   UNL     1      -9.689   4.142  67.260  1.00  0.00    -0.214 A  
HETATM    6  C   UNL     1      -9.961   5.605  67.667  1.00  0.00    -0.150 A  
HETATM    7  N   UNL     1      -9.323   6.375  66.617  1.00  0.00    -0.149 NA 
HETATM    8  C   UNL     1      -8.776   5.611  65.632  1.00  0.00    -0.151 A  
HETATM    9  C   UNL     1      -8.192   6.440  64.714  1.00  0.00    -0.092 A  
HETATM   10  C   UNL     1      -8.476   7.763  65.157  1.00  0.00    -0.075 A  
HETATM   11  C   UNL     1      -9.224   7.702  66.331  1.00  0.00    -0.175 A  
ENDROOT
BRANCH  11  12
HETATM   12  C   UNL     1      -9.769   8.775  67.146  1.00  0.00    -0.191 C  
HETATM   13  O   UNL     1     -10.902   8.729  67.624  1.00  0.00    -0.190 OA 
BRANCH  12  14
HETATM   14  C   UNL     1      -8.951  10.001  67.389  1.00  0.00    -0.139 A  
HETATM   15  C   UNL     1      -7.773   9.906  68.143  1.00  0.00    -0.082 A  
HETATM   16  C   UNL     1      -7.040  11.059  68.449  1.00  0.00    -0.074 A  
HETATM   17  C   UNL     1      -7.484  12.306  68.011  1.00  0.00    -0.115 A  
HETATM   18  C   UNL     1      -8.652  12.407  67.257  1.00  0.00    -0.185 A  
HETATM   19  C   UNL     1      -9.387  11.259  66.949  1.00  0.00    -0.190 A  
ENDBRANCH  12  14
ENDBRANCH  11  12
TORSDOF 2
ENDMDL
MODEL      218
REMARK 921   NORMALIZED FREE ENERGY PREDICTED BY IDOCK:   -2.35 KCAL/MOL
REMARK 922        TOTAL FREE ENERGY PREDICTED BY IDOCK:   -2.89 KCAL/MOL
REMARK 923 INTER-LIGAND FREE ENERGY PREDICTED BY IDOCK:   -2.50 KCAL/MOL
REMARK 924 INTRA-LIGAND FREE ENERGY PREDICTED BY IDOCK:   -0.39 KCAL/MOL
REMARK 927      BINDING AFFINITY PREDICTED BY RF-SCORE:    0.00 PKD
ROOT
HETATM    1  O   UNL     1      -8.664   9.166  68.627  1.00  0.00    -0.127 OA 
HETATM    2  C   UNL     1      -9.179   8.972  67.392  1.00  0.00    -0.138 C  
HETATM    3  C   UNL     1      -9.278   7.529  66.921  1.00  0.00    -0.181 A  
HETATM    4  O   UNL     1      -9.604   9.910  66.728  1.00  0.00    -0.168 OA 
HETATM    5  C   UNL     1     -10.663   6.926  67.280  1.00  0.00    -0.421 A  
HETATM    6  C   UNL     1     -10.423   5.740  68.237  1.00  0.00    -0.220 A  
HETATM    7  N   UNL     1      -8.978   5.642  68.303  1.00  0.00    -0.114 NA 
HETATM    8  C   UNL     1      -8.329   6.607  67.594  1.00  0.00    -0.122 A  
HETATM    9  C   UNL     1      -6.982   6.402  67.714  1.00  0.00    -0.075 A  
HETATM   10  C   UNL     1      -6.840   5.297  68.600  1.00  0.00    -0.055 A  
HETATM   11  C   UNL     1      -8.103   4.859  68.993  1.00  0.00    -0.079 A  
ENDROOT
BRANCH  11  12
HETATM   12  C   UNL     1      -8.479   3.784  69.896  1.00  0.00    -0.056 C  
HETATM   13  O   UNL     1      -8.874   2.691  69.491  1.00  0.00    -0.073 OA 
BRANCH  12  14
HETATM   14  C   UNL     1      -8.426   4.011  71.371  1.00  0.00    -0.102 A  
HETATM   15  C   UNL     1      -9.198   3.208  72.222  1.00  0.00    -0.157 A  
HETATM   16  C   UNL     1      -9.222   3.461  73.598  1.00  0.00    -0.103 A  
HETATM   17  C   UNL     1      -8.484   4.519  74.127  1.00  0.00    -0.102 A  
HETATM   18  C   UNL     1      -7.710   5.319  73.287  1.00  0.00    -0.100 A  
HETATM   19  C   UNL     1      -7.683   5.069  71.913  1.00  0.00    -0.107 A  
ENDBRANCH  12  14
ENDBRANCH  11  12
TORSDOF 2
ENDMDL
MODEL      219
REMARK 921   NORMALIZED FREE ENERGY PREDICTED BY IDOCK:   -1.84 KCAL/MOL
REMARK 922        TOTAL FREE ENERGY PREDICTED BY IDOCK:   -2.33 KCAL/MOL
REMARK 923 INTER-LIGAND FREE ENERGY PREDICTED BY IDOCK:   -2.89 KCAL/MOL
REMARK 924 INTRA-LIGAND FREE ENERGY PREDICTED BY IDOCK:    0.57 KCAL/MOL
REMARK 927      BINDING AFFINITY PREDICTED BY RF-SCORE:    0.00 PKD
ROOT
HETATM    1  O   UNL     1     -11.305  16.572  66.421  1.00  0.00     0.286 OA 
HETATM    2  C   UNL     1     -11.101  16.217  65.133  1.00  0.00    -0.249 C  
HETATM    3  C   UNL     1     -10.159  15.046  64.896  1.00  0.00    -0.179 A  
HETATM    4  O   UNL     1     -11.703  16.770  64.220  1.00  0.00    -0.882 OA 
HETATM    5  C   UNL     1     -10.946  13.709  64.840  1.00  0.00    -0.372 A  
HETATM    6  C   UNL     1     -10.445  12.822  65.999  1.00  0.00    -0.274 A  
HETATM    7  N   UNL     1      -9.368  13.598  66.581  1.00  0.00    -0.267 NA 
HETATM    8  C   UNL     1      -9.192  14.816  65.998  1.00  0.00    -0.140 A  
HETATM    9  C   UNL     1      -8.145  15.445  66.614  1.00  0.00    -0.133 A  
HETATM   10  C   UNL     1      -7.734  14.570  67.659  1.00  0.00    -0.194 A  
HETATM   11  C   UNL     1      -8.542  13.435  67.651  1.00  0.00    -0.193 A  
ENDROOT
BRANCH  11  12
HETATM   12  C   UNL     1      -8.529  12.274  68.526  1.00  0.00    -0.077 C  
HETATM   13  O   UNL     1      -9.439  11.445  68.534  1.00  0.00    -0.182 OA 
BRANCH  12  14
HETATM   14  C   UNL     1      -7.398  12.089  69.484  1.00  0.00     0.337 A  
HETATM   15  C   UNL     1      -6.659  13.203  69.905  1.00  0.00     0.116 A  
HETATM   16  C   UNL     1      -5.546  13.035  70.737  1.00  0.00    -0.183 A  
HETATM   17  C   UNL     1      -5.164  11.758  71.143  1.00  0.00    -0.098 A  
HETATM   18  C   UNL     1      -5.896  10.645  70.731  1.00  0.00    -0.084 A  
HETATM   19  C   UNL     1      -7.008  10.808  69.901  1.00  0.00    -0.127 A  
ENDBRANCH  12  14
ENDBRANCH  11  12
TORSDOF 2
ENDMDL
MODEL      220
REMARK 921   NORMALIZED FREE ENERGY PREDICTED BY IDOCK:   -1.74 KCAL/MOL
REMARK 922        TOTAL FREE ENERGY PREDICTED BY IDOCK:   -2.21 KCAL/MOL
REMARK 923 INTER-LIGAND FREE ENERGY PREDICTED BY IDOCK:   -1.72 KCAL/MOL
REMARK 924 INTRA-LIGAND FREE ENERGY PREDICTED BY IDOCK:   -0.49 KCAL/MOL
REMARK 927      BINDING AFFINITY PREDICTED BY RF-SCORE:    0.00 PKD
ROOT
HETATM    1  O   UNL     1      -9.883   7.063  70.536  1.00  0.00    -0.179 OA 
HETATM    2  C   UNL     1     -10.000   8.359  70.169  1.00  0.00    -0.187 C  
HETATM    3  C   UNL     1      -9.017   8.856  69.121  1.00  0.00    -0.140 A  
HETATM    4  O   UNL     1     -10.900   9.064  70.612  1.00  0.00    -0.218 OA 
HETATM    5  C   UNL     1      -9.605   8.697  67.693  1.00  0.00    -0.190 A  
HETATM    6  C   UNL     1      -8.690   7.729  66.915  1.00  0.00    -0.132 A  
HETATM    7  N   UNL     1      -7.605   7.468  67.840  1.00  0.00    -0.108 NA 
HETATM    8  C   UNL     1      -7.760   8.070  69.052  1.00  0.00    -0.100 A  
HETATM    9  C   UNL     1      -6.674   7.769  69.827  1.00  0.00    -0.039 A  
HETATM   10  C   UNL     1      -5.878   6.885  69.045  1.00  0.00    -0.019 A  
HETATM   11  C   UNL     1      -6.500   6.673  67.817  1.00  0.00    -0.053 A  
ENDROOT
BRANCH  11  12
HETATM   12  C   UNL     1      -6.092   5.843  66.696  1.00  0.00    -0.026 C  
HETATM   13  O   UNL     1      -5.426   6.282  65.759  1.00  0.00    -0.013 OA 
BRANCH  12  14
HETATM   14  C   UNL     1      -6.522   4.413  66.646  1.00  0.00    -0.038 A  
HETATM   15  C   UNL     1      -7.309   3.966  65.576  1.00  0.00    -0.072 A  
HETATM   16  C   UNL     1      -7.787   2.651  65.556  1.00  0.00    -0.078 A  
HETATM   17  C   UNL     1      -7.489   1.784  66.606  1.00  0.00    -0.057 A  
HETATM   18  C   UNL     1      -6.704   2.220  67.672  1.00  0.00    -0.039 A  
HETATM   19  C   UNL     1      -6.223   3.532  67.695  1.00  0.00    -0.032 A  
ENDBRANCH  12  14
ENDBRANCH  11  12
TORSDOF 2
ENDMDL
MODEL      221
REMARK 921   NORMALIZED FREE ENERGY PREDICTED BY IDOCK:   -1.37 KCAL/MOL
REMARK 922        TOTAL FREE ENERGY PREDICTED BY IDOCK:   -1.80 KCAL/MOL
REMARK 923 INTER-LIGAND FREE ENERGY PREDICTED BY IDOCK:   -1.61 KCAL/MOL
REMARK 924 INTRA-LIGAND FREE ENERGY PREDICTED BY IDOCK:   -0.19 KCAL/MOL
REMARK 927      BINDING AFFINITY PREDICTED BY RF-SCORE:    0.00 PKD
ROOT
HETATM    1  O   UNL     1      -7.367   9.875  67.619  1.00  0.00    -0.088 OA 
HETATM    2  C   UNL     1      -6.800   9.648  66.413  1.00  0.00    -0.084 C  
HETATM    3  C   UNL     1      -6.520   8.194  66.062  1.00  0.00    -0.046 A  
HETATM    4  O   UNL     1      -6.594  10.565  65.627  1.00  0.00    -0.124 OA 
HETATM    5  C   UNL     1      -7.718   7.572  65.296  1.00  0.00    -0.112 A  
HETATM    6  C   UNL     1      -8.266   6.409  66.150  1.00  0.00    -0.122 A  
HETATM    7  N   UNL     1      -7.342   6.340  67.265  1.00  0.00    -0.082 NA 
HETATM    8  C   UNL     1      -6.380   7.304  67.242  1.00  0.00    -0.054 A  
HETATM    9  C   UNL     1      -5.563   7.128  68.324  1.00  0.00    -0.022 A  
HETATM   10  C   UNL     1      -6.123   6.042  69.055  1.00  0.00    -0.032 A  
HETATM   11  C   UNL     1      -7.265   5.588  68.397  1.00  0.00    -0.075 A  
ENDROOT
BRANCH  11  12
HETATM   12  C   UNL     1      -8.186   4.523  68.757  1.00  0.00    -0.081 C  
HETATM   13  O   UNL     1      -8.875   3.938  67.921  1.00  0.00    -0.098 OA 
BRANCH  12  14
HETATM   14  C   UNL     1      -8.343   4.140  70.191  1.00  0.00    -0.083 A  
HETATM   15  C   UNL     1      -8.068   2.824  70.589  1.00  0.00    -0.058 A  
HETATM   16  C   UNL     1      -8.289   2.429  71.914  1.00  0.00    -0.065 A  
HETATM   17  C   UNL     1      -8.791   3.342  72.840  1.00  0.00    -0.094 A  
HETATM   18  C   UNL     1      -9.063   4.653  72.453  1.00  0.00    -0.142 A  
HETATM   19  C   UNL     1      -8.843   5.052  71.132  1.00  0.00    -0.149 A  
ENDBRANCH  12  14
ENDBRANCH  11  12
TORSDOF 2
ENDMDL
MODEL      222
REMARK 921   NORMALIZED FREE ENERGY PREDICTED BY IDOCK:    3.23 KCAL/MOL
REMARK 922        TOTAL FREE ENERGY PREDICTED BY IDOCK:    3.33 KCAL/MOL
REMARK 923 INTER-LIGAND FREE ENERGY PREDICTED BY IDOCK:    3.78 KCAL/MOL
REMARK 924 INTRA-LIGAND FREE ENERGY PREDICTED BY IDOCK:   -0.44 KCAL/MOL
REMARK 927      BINDING AFFINITY PREDICTED BY RF-SCORE:    0.00 PKD
ROOT
HETATM    1  O   UNL     1      -9.088  19.639  70.204  1.00  0.00     0.606 OA 
HETATM    2  C   UNL     1      -7.994  19.578  69.412  1.00  0.00     0.033 C  
HETATM    3  C   UNL     1      -7.684  18.224  68.791  1.00  0.00    -0.286 A  
HETATM    4  O   UNL     1      -7.338  20.582  69.159  1.00  0.00     0.173 OA 
HETATM    5  C   UNL     1      -8.349  18.093  67.395  1.00  0.00    -0.239 A  
HETATM    6  C   UNL     1      -9.350  16.921  67.461  1.00  0.00    -0.232 A  
HETATM    7  N   UNL     1      -9.153  16.379  68.791  1.00  0.00    -0.235 NA 
HETATM    8  C   UNL     1      -8.250  17.073  69.538  1.00  0.00     0.505 A  
HETATM    9  C   UNL     1      -8.135  16.463  70.757  1.00  0.00     3.853 A  
HETATM   10  C   UNL     1      -9.076  15.395  70.741  1.00  0.00     1.848 A  
HETATM   11  C   UNL     1      -9.737  15.385  69.515  1.00  0.00    -0.257 A  
ENDROOT
BRANCH  11  12
HETATM   12  C   UNL     1     -10.789  14.507  69.029  1.00  0.00    -0.254 C  
HETATM   13  O   UNL     1     -11.977  14.696  69.290  1.00  0.00    -0.303 OA 
BRANCH  12  14
HETATM   14  C   UNL     1     -10.428  13.306  68.218  1.00  0.00    -0.257 A  
HETATM   15  C   UNL     1     -10.160  13.453  66.850  1.00  0.00    -0.255 A  
HETATM   16  C   UNL     1      -9.901  12.327  66.060  1.00  0.00    -0.263 A  
HETATM   17  C   UNL     1      -9.917  11.055  66.630  1.00  0.00    -0.249 A  
HETATM   18  C   UNL     1     -10.179  10.902  67.991  1.00  0.00    -0.202 A  
HETATM   19  C   UNL     1     -10.437  12.023  68.783  1.00  0.00    -0.207 A  
ENDBRANCH  12  14
ENDBRANCH  11  12
TORSDOF 2
ENDMDL
MODEL      223
REMARK 921   NORMALIZED FREE ENERGY PREDICTED BY IDOCK:   30.30 KCAL/MOL
REMARK 922        TOTAL FREE ENERGY PREDICTED BY IDOCK:   33.58 KCAL/MOL
REMARK 923 INTER-LIGAND FREE ENERGY PREDICTED BY IDOCK:   32.59 KCAL/MOL
REMARK 924 INTRA-LIGAND FREE ENERGY PREDICTED BY IDOCK:    0.98 KCAL/MOL
REMARK 927      BINDING AFFINITY PREDICTED BY RF-SCORE:    0.00 PKD
ROOT
HETATM    1  O   UNL     1     -10.777   4.796  70.812  1.00  0.00    -0.017 OA 
HETATM    2  C   UNL     1     -11.807   5.668  70.885  1.00  0.00     0.846 C  
HETATM    3  C   UNL     1     -11.518   7.000  71.561  1.00  0.00    -0.306 A  
HETATM    4  O   UNL     1     -12.888   5.416  70.367  1.00  0.00     4.612 OA 
HETATM    5  C   UNL     1     -11.067   8.060  70.520  1.00  0.00    -0.251 A  
HETATM    6  C   UNL     1      -9.631   8.492  70.883  1.00  0.00    -0.185 A  
HETATM    7  N   UNL     1      -9.364   7.783  72.119  1.00  0.00    -0.144 NA 
HETATM    8  C   UNL     1     -10.377   6.960  72.510  1.00  0.00    -0.196 A  
HETATM    9  C   UNL     1     -10.021   6.364  73.688  1.00  0.00    -0.232 A  
HETATM   10  C   UNL     1      -8.698   6.812  73.960  1.00  0.00    -0.172 A  
HETATM   11  C   UNL     1      -8.285   7.669  72.941  1.00  0.00    -0.120 A  
ENDROOT
BRANCH  11  12
HETATM   12  C   UNL     1      -7.020   8.360  72.759  1.00  0.00    -0.071 C  
HETATM   13  O   UNL     1      -5.937   7.829  73.006  1.00  0.00    -0.050 OA 
BRANCH  12  14
HETATM   14  C   UNL     1      -7.018   9.779  72.294  1.00  0.00     1.395 A  
HETATM   15  C   UNL     1      -8.219  10.501  72.274  1.00  0.00     7.959 A  
HETATM   16  C   UNL     1      -8.248  11.804  71.765  1.00  0.00    13.621 A  
HETATM   17  C   UNL     1      -7.083  12.386  71.267  1.00  0.00     5.070 A  
HETATM   18  C   UNL     1      -5.884  11.676  71.288  1.00  0.00     0.431 A  
HETATM   19  C   UNL     1      -5.850  10.375  71.796  1.00  0.00     0.400 A  
ENDBRANCH  12  14
ENDBRANCH  11  12
TORSDOF 2
ENDMDL
