MODEL        1
REMARK 921   NORMALIZED FREE ENERGY PREDICTED BY IDOCK:   -8.06 KCAL/MOL
REMARK 922        TOTAL FREE ENERGY PREDICTED BY IDOCK:  -11.79 KCAL/MOL
REMARK 923 INTER-LIGAND FREE ENERGY PREDICTED BY IDOCK:  -11.36 KCAL/MOL
REMARK 924 INTRA-LIGAND FREE ENERGY PREDICTED BY IDOCK:   -0.43 KCAL/MOL
REMARK 927      BINDING AFFINITY PREDICTED BY RF-SCORE:    0.00 PKD
ROOT
HETATM    1  C   UNL     1      -9.688   5.411  74.548  1.00  0.00    -0.199 C  
HETATM    2  C   UNL     1     -10.820   5.358  73.556  1.00  0.00    -0.293 C  
HETATM    3  O   UNL     1     -11.653   4.453  73.611  1.00  0.00    -0.213 OA 
HETATM    4  N   UNL     1     -10.921   6.414  72.668  1.00  0.00    -0.242 N  
HETATM    5  C   UNL     1     -12.104   6.495  71.803  1.00  0.00    -0.342 C  
HETATM    6  C   UNL     1     -12.535   7.955  71.591  1.00  0.00    -0.319 C  
HETATM    7  N   UNL     1     -11.388   8.735  71.073  1.00  0.00    -0.267 NA 
HETATM    8  C   UNL     1      -9.798   7.273  72.250  1.00  0.00    -0.154 C  
HETATM    9  C   UNL     1     -10.236   8.728  71.997  1.00  0.00    -0.331 C  
ENDROOT
BRANCH   7  10
HETATM   10  C   UNL     1     -11.642   9.936  70.415  1.00  0.00    -0.282 A  
HETATM   11  C   UNL     1     -11.279  10.152  69.089  1.00  0.00    -0.234 A  
HETATM   12  C   UNL     1     -11.431  11.399  68.485  1.00  0.00    -0.361 A  
HETATM   13  C   UNL     1     -11.942  12.489  69.193  1.00  0.00    -0.236 A  
HETATM   14  C   UNL     1     -12.208  11.022  71.108  1.00  0.00    -0.415 A  
HETATM   15  C   UNL     1     -12.353  12.284  70.509  1.00  0.00    -0.349 A  
BRANCH  13  16
HETATM   16  O   UNL     1     -12.059  13.767  68.684  1.00  0.00    -0.359 OA 
BRANCH  16  17
HETATM   17  C   UNL     1     -11.267  14.734  69.380  1.00  0.00    -0.284 C  
BRANCH  17  18
HETATM   18  C   UNL     1     -10.065  15.245  68.599  1.00  0.00    -0.222 C  
HETATM   19  C   UNL     1      -9.454  14.223  67.682  1.00  0.00    -0.211 C  
HETATM   20  O   UNL     1      -8.922  14.996  66.610  1.00  0.00    -0.254 OA 
HETATM   21  C   UNL     1      -9.752  16.181  66.497  1.00  0.00    -0.263 C  
HETATM   22  O   UNL     1     -10.509  16.290  67.719  1.00  0.00    -0.279 OA 
BRANCH  21  23
HETATM   23  C   UNL     1      -8.881  17.434  66.364  1.00  0.00    -0.273 A  
HETATM   24 CL   UNL     1     -11.000  19.110  66.965  1.00  0.00    -0.457 Cl 
HETATM   25  C   UNL     1      -9.361  18.747  66.550  1.00  0.00    -0.336 A  
HETATM   26  C   UNL     1      -7.512  17.288  66.050  1.00  0.00    -0.232 A  
HETATM   27  C   UNL     1      -6.664  18.391  65.935  1.00  0.00    -0.312 A  
HETATM   28  C   UNL     1      -8.508  19.854  66.423  1.00  0.00    -0.379 A  
HETATM   29 CL   UNL     1      -6.119  21.029  65.998  1.00  0.00    -0.297 Cl 
HETATM   30  C   UNL     1      -7.165  19.671  66.123  1.00  0.00    -0.278 A  
ENDBRANCH  21  23
BRANCH  21  31
HETATM   31  C   UNL     1     -10.757  15.966  65.335  1.00  0.00    -0.399 C  
BRANCH  31  32
HETATM   32  N   UNL     1     -11.331  14.645  65.212  1.00  0.00    -0.341 NA 
HETATM   33  N   UNL     1     -12.892  13.067  65.184  1.00  0.00    -0.748 NA 
HETATM   34  C   UNL     1     -10.807  13.597  64.498  1.00  0.00    -0.406 A  
HETATM   35  C   UNL     1     -12.584  14.272  65.618  1.00  0.00    -0.410 A  
HETATM   36  C   UNL     1     -11.798  12.647  64.474  1.00  0.00    -0.379 A  
ENDBRANCH  31  32
ENDBRANCH  21  31
ENDBRANCH  17  18
ENDBRANCH  16  17
ENDBRANCH  13  16
ENDBRANCH   7  10
TORSDOF 7
ENDMDL
MODEL        2
REMARK 921   NORMALIZED FREE ENERGY PREDICTED BY IDOCK:   -7.90 KCAL/MOL
REMARK 922        TOTAL FREE ENERGY PREDICTED BY IDOCK:  -11.56 KCAL/MOL
REMARK 923 INTER-LIGAND FREE ENERGY PREDICTED BY IDOCK:  -11.41 KCAL/MOL
REMARK 924 INTRA-LIGAND FREE ENERGY PREDICTED BY IDOCK:   -0.15 KCAL/MOL
REMARK 927      BINDING AFFINITY PREDICTED BY RF-SCORE:    0.00 PKD
ROOT
HETATM    1  C   UNL     1      -9.307   3.352  71.145  1.00  0.00    -0.208 C  
HETATM    2  C   UNL     1     -10.275   4.018  72.088  1.00  0.00    -0.140 C  
HETATM    3  O   UNL     1     -10.517   3.516  73.185  1.00  0.00    -0.155 OA 
HETATM    4  N   UNL     1     -10.782   5.243  71.697  1.00  0.00    -0.196 N  
HETATM    5  C   UNL     1     -11.587   6.008  72.656  1.00  0.00    -0.221 C  
HETATM    6  C   UNL     1     -11.330   7.517  72.515  1.00  0.00    -0.334 C  
HETATM    7  N   UNL     1     -11.562   7.926  71.111  1.00  0.00    -0.278 NA 
HETATM    8  C   UNL     1     -10.896   5.701  70.300  1.00  0.00    -0.266 C  
HETATM    9  C   UNL     1     -10.678   7.220  70.162  1.00  0.00    -0.244 C  
ENDROOT
BRANCH   7  10
HETATM   10  C   UNL     1     -11.807   9.270  70.841  1.00  0.00    -0.282 A  
HETATM   11  C   UNL     1     -11.176   9.950  69.803  1.00  0.00    -0.279 A  
HETATM   12  C   UNL     1     -11.341  11.322  69.624  1.00  0.00    -0.359 A  
HETATM   13  C   UNL     1     -12.136  12.076  70.490  1.00  0.00    -0.311 A  
HETATM   14  C   UNL     1     -12.652  10.023  71.677  1.00  0.00    -0.524 A  
HETATM   15  C   UNL     1     -12.813  11.408  71.510  1.00  0.00    -0.508 A  
BRANCH  13  16
HETATM   16  O   UNL     1     -12.294  13.445  70.415  1.00  0.00    -0.336 OA 
BRANCH  16  17
HETATM   17  C   UNL     1     -12.282  13.949  69.076  1.00  0.00    -0.239 C  
BRANCH  17  18
HETATM   18  C   UNL     1     -10.994  14.656  68.680  1.00  0.00    -0.256 C  
HETATM   19  C   UNL     1     -10.059  13.809  67.862  1.00  0.00    -0.246 C  
HETATM   20  O   UNL     1      -9.376  14.748  67.037  1.00  0.00    -0.214 OA 
HETATM   21  C   UNL     1     -10.286  15.857  66.822  1.00  0.00    -0.298 C  
HETATM   22  O   UNL     1     -11.329  15.752  67.812  1.00  0.00    -0.322 OA 
BRANCH  21  23
HETATM   23  C   UNL     1      -9.564  17.191  67.031  1.00  0.00    -0.262 A  
HETATM   24 CL   UNL     1      -7.971  16.146  69.038  1.00  0.00    -0.227 Cl 
HETATM   25  C   UNL     1      -8.545  17.392  67.985  1.00  0.00    -0.240 A  
HETATM   26  C   UNL     1      -9.915  18.295  66.223  1.00  0.00    -0.361 A  
HETATM   27  C   UNL     1      -9.280  19.531  66.353  1.00  0.00    -0.426 A  
HETATM   28  C   UNL     1      -7.916  18.638  68.121  1.00  0.00    -0.312 A  
HETATM   29 CL   UNL     1      -7.485  21.215  67.452  1.00  0.00    -0.287 Cl 
HETATM   30  C   UNL     1      -8.280  19.698  67.301  1.00  0.00    -0.296 A  
ENDBRANCH  21  23
BRANCH  21  31
HETATM   31  C   UNL     1     -10.942  15.688  65.426  1.00  0.00    -0.333 C  
BRANCH  31  32
HETATM   32  N   UNL     1     -11.489  14.385  65.121  1.00  0.00    -0.347 NA 
HETATM   33  N   UNL     1     -13.025  12.825  64.755  1.00  0.00    -0.844 NA 
HETATM   34  C   UNL     1     -10.868  13.392  64.405  1.00  0.00    -0.406 A  
HETATM   35  C   UNL     1     -12.784  13.990  65.320  1.00  0.00    -0.439 A  
HETATM   36  C   UNL     1     -11.842  12.454  64.170  1.00  0.00    -0.413 A  
ENDBRANCH  31  32
ENDBRANCH  21  31
ENDBRANCH  17  18
ENDBRANCH  16  17
ENDBRANCH  13  16
ENDBRANCH   7  10
TORSDOF 7
ENDMDL
MODEL        3
REMARK 921   NORMALIZED FREE ENERGY PREDICTED BY IDOCK:   -7.89 KCAL/MOL
REMARK 922        TOTAL FREE ENERGY PREDICTED BY IDOCK:  -11.55 KCAL/MOL
REMARK 923 INTER-LIGAND FREE ENERGY PREDICTED BY IDOCK:  -10.50 KCAL/MOL
REMARK 924 INTRA-LIGAND FREE ENERGY PREDICTED BY IDOCK:   -1.05 KCAL/MOL
REMARK 927      BINDING AFFINITY PREDICTED BY RF-SCORE:    0.00 PKD
ROOT
HETATM    1  C   UNL     1     -11.050   2.429  74.044  1.00  0.00    -0.222 C  
HETATM    2  C   UNL     1     -10.052   2.523  72.920  1.00  0.00    -0.137 C  
HETATM    3  O   UNL     1      -9.358   1.551  72.624  1.00  0.00    -0.071 OA 
HETATM    4  N   UNL     1     -10.037   3.702  72.197  1.00  0.00    -0.165 N  
HETATM    5  C   UNL     1      -9.209   3.773  70.987  1.00  0.00    -0.130 C  
HETATM    6  C   UNL     1      -9.890   4.620  69.900  1.00  0.00    -0.226 C  
HETATM    7  N   UNL     1     -10.222   5.953  70.451  1.00  0.00    -0.199 NA 
HETATM    8  C   UNL     1     -10.488   5.009  72.707  1.00  0.00    -0.211 C  
HETATM    9  C   UNL     1     -11.135   5.876  71.610  1.00  0.00    -0.258 C  
ENDROOT
BRANCH   7  10
HETATM   10  C   UNL     1     -10.440   7.005  69.565  1.00  0.00    -0.220 A  
HETATM   11  C   UNL     1     -10.405   6.837  68.184  1.00  0.00    -0.219 A  
HETATM   12  C   UNL     1     -10.505   7.922  67.315  1.00  0.00    -0.390 A  
HETATM   13  C   UNL     1     -10.630   9.227  67.796  1.00  0.00    -0.246 A  
HETATM   14  C   UNL     1     -10.623   8.315  70.045  1.00  0.00    -0.235 A  
HETATM   15  C   UNL     1     -10.712   9.414  69.175  1.00  0.00    -0.216 A  
BRANCH  13  16
HETATM   16  O   UNL     1     -10.667  10.354  67.000  1.00  0.00    -0.261 OA 
BRANCH  16  17
HETATM   17  C   UNL     1      -9.451  11.109  67.022  1.00  0.00    -0.177 C  
BRANCH  17  18
HETATM   18  C   UNL     1      -9.468  12.304  67.962  1.00  0.00    -0.206 C  
HETATM   19  C   UNL     1      -8.616  13.455  67.503  1.00  0.00    -0.200 C  
HETATM   20  O   UNL     1      -9.282  14.604  68.019  1.00  0.00    -0.187 OA 
HETATM   21  C   UNL     1     -10.693  14.274  68.090  1.00  0.00    -0.244 C  
HETATM   22  O   UNL     1     -10.802  12.840  67.988  1.00  0.00    -0.220 OA 
BRANCH  21  23
HETATM   23  C   UNL     1     -11.275  14.700  69.441  1.00  0.00    -0.307 A  
HETATM   24 CL   UNL     1     -10.379  17.301  69.136  1.00  0.00    -0.328 Cl 
HETATM   25  C   UNL     1     -11.172  16.006  69.964  1.00  0.00    -0.362 A  
HETATM   26  C   UNL     1     -11.971  13.749  70.219  1.00  0.00    -0.397 A  
HETATM   27  C   UNL     1     -12.541  14.083  71.449  1.00  0.00    -0.451 A  
HETATM   28  C   UNL     1     -11.736  16.335  71.206  1.00  0.00    -0.396 A  
HETATM   29 CL   UNL     1     -13.137  15.793  73.445  1.00  0.00    -0.659 Cl 
HETATM   30  C   UNL     1     -12.422  15.376  71.938  1.00  0.00    -0.377 A  
ENDBRANCH  21  23
BRANCH  21  31
HETATM   31  C   UNL     1     -11.403  14.891  66.856  1.00  0.00    -0.337 C  
BRANCH  31  32
HETATM   32  N   UNL     1     -11.685  13.996  65.756  1.00  0.00    -0.350 NA 
HETATM   33  N   UNL     1     -12.887  12.790  64.333  1.00  0.00    -0.735 NA 
HETATM   34  C   UNL     1     -10.882  13.775  64.666  1.00  0.00    -0.406 A  
HETATM   35  C   UNL     1     -12.878  13.370  65.515  1.00  0.00    -0.299 A  
HETATM   36  C   UNL     1     -11.655  13.051  63.792  1.00  0.00    -0.457 A  
ENDBRANCH  31  32
ENDBRANCH  21  31
ENDBRANCH  17  18
ENDBRANCH  16  17
ENDBRANCH  13  16
ENDBRANCH   7  10
TORSDOF 7
ENDMDL
MODEL        4
REMARK 921   NORMALIZED FREE ENERGY PREDICTED BY IDOCK:   -7.86 KCAL/MOL
REMARK 922        TOTAL FREE ENERGY PREDICTED BY IDOCK:  -11.51 KCAL/MOL
REMARK 923 INTER-LIGAND FREE ENERGY PREDICTED BY IDOCK:  -10.30 KCAL/MOL
REMARK 924 INTRA-LIGAND FREE ENERGY PREDICTED BY IDOCK:   -1.21 KCAL/MOL
REMARK 927      BINDING AFFINITY PREDICTED BY RF-SCORE:    0.00 PKD
ROOT
HETATM    1  C   UNL     1     -11.012   1.776  73.076  1.00  0.00    -0.248 C  
HETATM    2  C   UNL     1      -9.841   2.720  72.995  1.00  0.00    -0.114 C  
HETATM    3  O   UNL     1      -8.693   2.282  72.947  1.00  0.00    -0.066 OA 
HETATM    4  N   UNL     1     -10.134   4.067  72.881  1.00  0.00    -0.148 N  
HETATM    5  C   UNL     1      -9.034   5.005  72.622  1.00  0.00    -0.125 C  
HETATM    6  C   UNL     1      -9.486   6.145  71.696  1.00  0.00    -0.148 C  
HETATM    7  N   UNL     1     -10.682   6.802  72.271  1.00  0.00    -0.214 NA 
HETATM    8  C   UNL     1     -11.382   4.700  73.341  1.00  0.00    -0.305 C  
HETATM    9  C   UNL     1     -11.816   5.870  72.436  1.00  0.00    -0.207 C  
ENDROOT
BRANCH   7  10
HETATM   10  C   UNL     1     -11.001   8.090  71.851  1.00  0.00    -0.263 A  
HETATM   11  C   UNL     1     -12.191   8.718  72.207  1.00  0.00    -0.429 A  
HETATM   12  C   UNL     1     -12.548   9.958  71.678  1.00  0.00    -0.519 A  
HETATM   13  C   UNL     1     -11.730  10.615  70.757  1.00  0.00    -0.335 A  
HETATM   14  C   UNL     1     -10.154   8.782  70.965  1.00  0.00    -0.301 A  
HETATM   15  C   UNL     1     -10.513  10.025  70.419  1.00  0.00    -0.304 A  
BRANCH  13  16
HETATM   16  O   UNL     1     -12.047  11.810  70.142  1.00  0.00    -0.320 OA 
BRANCH  16  17
HETATM   17  C   UNL     1     -11.878  11.783  68.721  1.00  0.00    -0.320 C  
BRANCH  17  18
HETATM   18  C   UNL     1     -11.144  12.988  68.151  1.00  0.00    -0.256 C  
HETATM   19  C   UNL     1     -11.948  13.777  67.155  1.00  0.00    -0.405 C  
HETATM   20  O   UNL     1     -11.470  15.111  67.307  1.00  0.00    -0.345 OA 
HETATM   21  C   UNL     1     -11.034  15.245  68.684  1.00  0.00    -0.257 C  
HETATM   22  O   UNL     1     -10.896  13.914  69.221  1.00  0.00    -0.221 OA 
BRANCH  21  23
HETATM   23  C   UNL     1      -9.664  15.927  68.748  1.00  0.00    -0.216 A  
HETATM   24 CL   UNL     1     -10.632  18.238  67.572  1.00  0.00    -0.437 Cl 
HETATM   25  C   UNL     1      -9.414  17.233  68.276  1.00  0.00    -0.283 A  
HETATM   26  C   UNL     1      -8.577  15.232  69.320  1.00  0.00    -0.236 A  
HETATM   27  C   UNL     1      -7.309  15.808  69.425  1.00  0.00    -0.217 A  
HETATM   28  C   UNL     1      -8.137  17.805  68.373  1.00  0.00    -0.297 A  
HETATM   29 CL   UNL     1      -5.538  17.812  69.094  1.00  0.00    -0.188 Cl 
HETATM   30  C   UNL     1      -7.094  17.094  68.951  1.00  0.00    -0.242 A  
ENDBRANCH  21  23
BRANCH  21  31
HETATM   31  C   UNL     1     -12.152  15.964  69.483  1.00  0.00    -0.185 C  
BRANCH  31  32
HETATM   32  N   UNL     1     -12.362  15.524  70.844  1.00  0.00    -0.389 NA 
HETATM   33  N   UNL     1     -12.153  15.475  73.053  1.00  0.00    -0.427 NA 
HETATM   34  C   UNL     1     -13.466  14.863  71.321  1.00  0.00    -0.430 A  
HETATM   35  C   UNL     1     -11.592  15.860  71.925  1.00  0.00    -0.449 A  
HETATM   36  C   UNL     1     -13.326  14.868  72.687  1.00  0.00    -0.456 A  
ENDBRANCH  31  32
ENDBRANCH  21  31
ENDBRANCH  17  18
ENDBRANCH  16  17
ENDBRANCH  13  16
ENDBRANCH   7  10
TORSDOF 7
ENDMDL
MODEL        5
REMARK 921   NORMALIZED FREE ENERGY PREDICTED BY IDOCK:   -7.83 KCAL/MOL
REMARK 922        TOTAL FREE ENERGY PREDICTED BY IDOCK:  -11.46 KCAL/MOL
REMARK 923 INTER-LIGAND FREE ENERGY PREDICTED BY IDOCK:  -10.65 KCAL/MOL
REMARK 924 INTRA-LIGAND FREE ENERGY PREDICTED BY IDOCK:   -0.81 KCAL/MOL
REMARK 927      BINDING AFFINITY PREDICTED BY RF-SCORE:    0.00 PKD
ROOT
HETATM    1  C   UNL     1     -10.921   3.328  73.750  1.00  0.00    -0.310 C  
HETATM    2  C   UNL     1     -10.449   3.692  72.367  1.00  0.00    -0.042 C  
HETATM    3  O   UNL     1     -10.093   2.813  71.581  1.00  0.00    -0.136 OA 
HETATM    4  N   UNL     1     -10.533   5.025  72.010  1.00  0.00    -0.215 N  
HETATM    5  C   UNL     1     -10.252   5.399  70.619  1.00  0.00    -0.253 C  
HETATM    6  C   UNL     1     -11.163   6.550  70.161  1.00  0.00    -0.377 C  
HETATM    7  N   UNL     1     -11.031   7.685  71.102  1.00  0.00    -0.243 NA 
HETATM    8  C   UNL     1     -10.529   6.153  72.959  1.00  0.00    -0.226 C  
HETATM    9  C   UNL     1     -11.410   7.324  72.483  1.00  0.00    -0.296 C  
ENDROOT
BRANCH   7  10
HETATM   10  C   UNL     1     -11.412   8.954  70.672  1.00  0.00    -0.242 A  
HETATM   11  C   UNL     1     -10.968   9.499  69.471  1.00  0.00    -0.217 A  
HETATM   12  C   UNL     1     -11.260  10.815  69.115  1.00  0.00    -0.323 A  
HETATM   13  C   UNL     1     -12.000  11.646  69.958  1.00  0.00    -0.351 A  
HETATM   14  C   UNL     1     -12.204   9.777  71.493  1.00  0.00    -0.493 A  
HETATM   15  C   UNL     1     -12.492  11.108  71.147  1.00  0.00    -0.498 A  
BRANCH  13  16
HETATM   16  O   UNL     1     -12.272  12.976  69.705  1.00  0.00    -0.255 OA 
BRANCH  16  17
HETATM   17  C   UNL     1     -11.730  13.443  68.465  1.00  0.00    -0.357 C  
BRANCH  17  18
HETATM   18  C   UNL     1     -10.389  14.152  68.590  1.00  0.00    -0.243 C  
HETATM   19  C   UNL     1      -9.242  13.403  67.972  1.00  0.00    -0.209 C  
HETATM   20  O   UNL     1      -8.349  14.429  67.549  1.00  0.00    -0.161 OA 
HETATM   21  C   UNL     1      -9.162  15.591  67.243  1.00  0.00    -0.209 C  
HETATM   22  O   UNL     1     -10.455  15.378  67.843  1.00  0.00    -0.247 OA 
BRANCH  21  23
HETATM   23  C   UNL     1      -8.551  16.850  67.864  1.00  0.00    -0.208 A  
HETATM   24 CL   UNL     1     -10.763  18.382  67.215  1.00  0.00    -0.424 Cl 
HETATM   25  C   UNL     1      -9.192  18.107  67.884  1.00  0.00    -0.269 A  
HETATM   26  C   UNL     1      -7.277  16.769  68.468  1.00  0.00    -0.194 A  
HETATM   27  C   UNL     1      -6.677  17.878  69.068  1.00  0.00    -0.248 A  
HETATM   28  C   UNL     1      -8.582  19.222  68.477  1.00  0.00    -0.400 A  
HETATM   29 CL   UNL     1      -6.603  20.464  69.824  1.00  0.00    -0.208 Cl 
HETATM   30  C   UNL     1      -7.333  19.101  69.071  1.00  0.00    -0.325 A  
ENDBRANCH  21  23
BRANCH  21  31
HETATM   31  C   UNL     1      -9.360  15.659  65.705  1.00  0.00    -0.268 C  
BRANCH  31  32
HETATM   32  N   UNL     1     -10.582  15.089  65.184  1.00  0.00    -0.392 NA 
HETATM   33  N   UNL     1     -12.512  14.990  64.092  1.00  0.00    -0.763 NA 
HETATM   34  C   UNL     1     -10.811  13.760  64.926  1.00  0.00    -0.391 A  
HETATM   35  C   UNL     1     -11.643  15.789  64.675  1.00  0.00    -0.218 A  
HETATM   36  C   UNL     1     -11.995  13.728  64.230  1.00  0.00    -0.443 A  
ENDBRANCH  31  32
ENDBRANCH  21  31
ENDBRANCH  17  18
ENDBRANCH  16  17
ENDBRANCH  13  16
ENDBRANCH   7  10
TORSDOF 7
ENDMDL
MODEL        6
REMARK 921   NORMALIZED FREE ENERGY PREDICTED BY IDOCK:   -7.77 KCAL/MOL
REMARK 922        TOTAL FREE ENERGY PREDICTED BY IDOCK:  -11.38 KCAL/MOL
REMARK 923 INTER-LIGAND FREE ENERGY PREDICTED BY IDOCK:  -10.14 KCAL/MOL
REMARK 924 INTRA-LIGAND FREE ENERGY PREDICTED BY IDOCK:   -1.25 KCAL/MOL
REMARK 927      BINDING AFFINITY PREDICTED BY RF-SCORE:    0.00 PKD
ROOT
HETATM    1  C   UNL     1     -10.710   4.454  72.830  1.00  0.00    -0.263 C  
HETATM    2  C   UNL     1     -10.697   5.913  73.206  1.00  0.00    -0.265 C  
HETATM    3  O   UNL     1     -10.506   6.251  74.374  1.00  0.00    -0.293 OA 
HETATM    4  N   UNL     1     -10.809   6.824  72.172  1.00  0.00    -0.221 N  
HETATM    5  C   UNL     1     -10.625   8.249  72.468  1.00  0.00    -0.337 C  
HETATM    6  C   UNL     1      -9.916   8.967  71.309  1.00  0.00    -0.311 C  
HETATM    7  N   UNL     1     -10.663   8.731  70.053  1.00  0.00    -0.227 NA 
HETATM    8  C   UNL     1     -11.443   6.546  70.870  1.00  0.00    -0.351 C  
HETATM    9  C   UNL     1     -10.759   7.298  69.712  1.00  0.00    -0.239 C  
ENDROOT
BRANCH   7  10
HETATM   10  C   UNL     1     -10.467   9.605  68.987  1.00  0.00    -0.213 A  
HETATM   11  C   UNL     1     -10.582   9.202  67.660  1.00  0.00    -0.307 A  
HETATM   12  C   UNL     1     -10.263  10.058  66.607  1.00  0.00    -0.288 A  
HETATM   13  C   UNL     1      -9.800  11.354  66.842  1.00  0.00    -0.193 A  
HETATM   14  C   UNL     1     -10.054  10.930  69.218  1.00  0.00    -0.164 A  
HETATM   15  C   UNL     1      -9.719  11.794  68.162  1.00  0.00    -0.192 A  
BRANCH  13  16
HETATM   16  O   UNL     1      -9.403  12.234  65.855  1.00  0.00    -0.199 OA 
BRANCH  16  17
HETATM   17  C   UNL     1     -10.381  13.235  65.556  1.00  0.00    -0.291 C  
BRANCH  17  18
HETATM   18  C   UNL     1      -9.906  14.665  65.769  1.00  0.00    -0.328 C  
HETATM   19  C   UNL     1     -10.815  15.705  65.178  1.00  0.00    -0.431 C  
HETATM   20  O   UNL     1     -10.652  16.832  66.034  1.00  0.00    -0.307 OA 
HETATM   21  C   UNL     1     -10.325  16.314  67.350  1.00  0.00    -0.285 C  
HETATM   22  O   UNL     1      -9.922  14.940  67.180  1.00  0.00    -0.229 OA 
BRANCH  21  23
HETATM   23  C   UNL     1      -9.145  17.084  67.950  1.00  0.00    -0.232 A  
HETATM   24 CL   UNL     1     -10.444  19.513  67.677  1.00  0.00    -0.562 Cl 
HETATM   25  C   UNL     1      -9.126  18.485  68.119  1.00  0.00    -0.309 A  
HETATM   26  C   UNL     1      -8.004  16.370  68.377  1.00  0.00    -0.178 A  
HETATM   27  C   UNL     1      -6.907  17.014  68.950  1.00  0.00    -0.211 A  
HETATM   28  C   UNL     1      -8.016  19.131  68.685  1.00  0.00    -0.398 A  
HETATM   29 CL   UNL     1      -5.572  19.186  69.824  1.00  0.00    -0.229 Cl 
HETATM   30  C   UNL     1      -6.917  18.393  69.103  1.00  0.00    -0.223 A  
ENDBRANCH  21  23
BRANCH  21  31
HETATM   31  C   UNL     1     -11.612  16.326  68.215  1.00  0.00    -0.118 C  
BRANCH  31  32
HETATM   32  N   UNL     1     -11.580  15.552  69.435  1.00  0.00    -0.331 NA 
HETATM   33  N   UNL     1     -11.486  15.134  71.613  1.00  0.00    -0.390 NA 
HETATM   34  C   UNL     1     -12.092  14.290  69.608  1.00  0.00    -0.346 A  
HETATM   35  C   UNL     1     -11.214  16.013  70.671  1.00  0.00    -0.372 A  
HETATM   36  C   UNL     1     -12.046  14.066  70.962  1.00  0.00    -0.305 A  
ENDBRANCH  31  32
ENDBRANCH  21  31
ENDBRANCH  17  18
ENDBRANCH  16  17
ENDBRANCH  13  16
ENDBRANCH   7  10
TORSDOF 7
ENDMDL
MODEL        7
REMARK 921   NORMALIZED FREE ENERGY PREDICTED BY IDOCK:   -7.70 KCAL/MOL
REMARK 922        TOTAL FREE ENERGY PREDICTED BY IDOCK:  -11.28 KCAL/MOL
REMARK 923 INTER-LIGAND FREE ENERGY PREDICTED BY IDOCK:  -10.01 KCAL/MOL
REMARK 924 INTRA-LIGAND FREE ENERGY PREDICTED BY IDOCK:   -1.27 KCAL/MOL
REMARK 927      BINDING AFFINITY PREDICTED BY RF-SCORE:    0.00 PKD
ROOT
HETATM    1  C   UNL     1      -9.685   3.812  72.027  1.00  0.00    -0.236 C  
HETATM    2  C   UNL     1     -10.654   4.965  72.058  1.00  0.00    -0.140 C  
HETATM    3  O   UNL     1     -11.277   5.225  73.087  1.00  0.00    -0.299 OA 
HETATM    4  N   UNL     1     -10.721   5.752  70.922  1.00  0.00    -0.264 N  
HETATM    5  C   UNL     1     -11.516   6.985  70.969  1.00  0.00    -0.303 C  
HETATM    6  C   UNL     1     -10.857   8.098  70.139  1.00  0.00    -0.241 C  
HETATM    7  N   UNL     1     -10.626   7.613  68.760  1.00  0.00    -0.183 NA 
HETATM    8  C   UNL     1     -10.368   5.302  69.564  1.00  0.00    -0.263 C  
HETATM    9  C   UNL     1      -9.745   6.429  68.717  1.00  0.00    -0.128 C  
ENDROOT
BRANCH   7  10
HETATM   10  C   UNL     1     -10.448   8.549  67.745  1.00  0.00    -0.223 A  
HETATM   11  C   UNL     1      -9.778   8.250  66.562  1.00  0.00    -0.323 A  
HETATM   12  C   UNL     1      -9.503   9.231  65.611  1.00  0.00    -0.324 A  
HETATM   13  C   UNL     1      -9.876  10.562  65.814  1.00  0.00    -0.237 A  
HETATM   14  C   UNL     1     -10.871   9.880  67.920  1.00  0.00    -0.312 A  
HETATM   15  C   UNL     1     -10.586  10.876  66.972  1.00  0.00    -0.307 A  
BRANCH  13  16
HETATM   16  O   UNL     1      -9.580  11.598  64.951  1.00  0.00    -0.224 OA 
BRANCH  16  17
HETATM   17  C   UNL     1     -10.740  12.252  64.426  1.00  0.00    -0.331 C  
BRANCH  17  18
HETATM   18  C   UNL     1     -10.900  13.700  64.867  1.00  0.00    -0.375 C  
HETATM   19  C   UNL     1     -12.171  13.970  65.624  1.00  0.00    -0.442 C  
HETATM   20  O   UNL     1     -11.825  15.032  66.509  1.00  0.00    -0.215 OA 
HETATM   21  C   UNL     1     -10.411  14.890  66.801  1.00  0.00    -0.269 C  
HETATM   22  O   UNL     1      -9.856  14.004  65.808  1.00  0.00    -0.301 OA 
BRANCH  21  23
HETATM   23  C   UNL     1      -9.701  16.242  66.681  1.00  0.00    -0.266 A  
HETATM   24 CL   UNL     1      -7.220  15.109  67.154  1.00  0.00    -0.186 Cl 
HETATM   25  C   UNL     1      -8.308  16.413  66.829  1.00  0.00    -0.250 A  
HETATM   26  C   UNL     1     -10.464  17.395  66.395  1.00  0.00    -0.267 A  
HETATM   27  C   UNL     1      -9.871  18.651  66.255  1.00  0.00    -0.364 A  
HETATM   28  C   UNL     1      -7.717  17.679  66.699  1.00  0.00    -0.284 A  
HETATM   29 CL   UNL     1      -7.765  20.332  66.218  1.00  0.00    -0.269 Cl 
HETATM   30  C   UNL     1      -8.499  18.788  66.406  1.00  0.00    -0.284 A  
ENDBRANCH  21  23
BRANCH  21  31
HETATM   31  C   UNL     1     -10.263  14.202  68.183  1.00  0.00    -0.241 C  
BRANCH  31  32
HETATM   32  N   UNL     1     -11.293  14.481  69.159  1.00  0.00    -0.262 NA 
HETATM   33  N   UNL     1     -12.794  14.087  70.746  1.00  0.00    -0.311 NA 
HETATM   34  C   UNL     1     -11.502  15.677  69.797  1.00  0.00    -0.342 A  
HETATM   35  C   UNL     1     -12.106  13.556  69.757  1.00  0.00    -0.318 A  
HETATM   36  C   UNL     1     -12.412  15.403  70.788  1.00  0.00    -0.423 A  
ENDBRANCH  31  32
ENDBRANCH  21  31
ENDBRANCH  17  18
ENDBRANCH  16  17
ENDBRANCH  13  16
ENDBRANCH   7  10
TORSDOF 7
ENDMDL
MODEL        8
REMARK 921   NORMALIZED FREE ENERGY PREDICTED BY IDOCK:   -7.64 KCAL/MOL
REMARK 922        TOTAL FREE ENERGY PREDICTED BY IDOCK:  -11.19 KCAL/MOL
REMARK 923 INTER-LIGAND FREE ENERGY PREDICTED BY IDOCK:  -10.06 KCAL/MOL
REMARK 924 INTRA-LIGAND FREE ENERGY PREDICTED BY IDOCK:   -1.13 KCAL/MOL
REMARK 927      BINDING AFFINITY PREDICTED BY RF-SCORE:    0.00 PKD
ROOT
HETATM    1  C   UNL     1      -9.700  18.716  67.251  1.00  0.00    -0.326 C  
HETATM    2  C   UNL     1     -10.432  17.989  66.153  1.00  0.00    -0.331 C  
HETATM    3  O   UNL     1     -10.918  18.614  65.212  1.00  0.00    -0.536 OA 
HETATM    4  N   UNL     1     -10.434  16.607  66.216  1.00  0.00    -0.296 N  
HETATM    5  C   UNL     1     -10.979  15.854  65.080  1.00  0.00    -0.412 C  
HETATM    6  C   UNL     1     -10.187  14.559  64.845  1.00  0.00    -0.304 C  
HETATM    7  N   UNL     1     -10.152  13.769  66.097  1.00  0.00    -0.300 NA 
HETATM    8  C   UNL     1     -10.272  15.820  67.450  1.00  0.00    -0.270 C  
HETATM    9  C   UNL     1      -9.513  14.500  67.209  1.00  0.00    -0.217 C  
ENDROOT
BRANCH   7  10
HETATM   10  C   UNL     1      -9.877  12.407  66.017  1.00  0.00    -0.257 A  
HETATM   11  C   UNL     1      -8.828  11.815  66.716  1.00  0.00    -0.191 A  
HETATM   12  C   UNL     1      -8.493  10.475  66.530  1.00  0.00    -0.139 A  
HETATM   13  C   UNL     1      -9.187   9.673  65.622  1.00  0.00    -0.215 A  
HETATM   14  C   UNL     1     -10.610  11.581  65.146  1.00  0.00    -0.350 A  
HETATM   15  C   UNL     1     -10.269  10.233  64.944  1.00  0.00    -0.261 A  
BRANCH  13  16
HETATM   16  O   UNL     1      -8.871   8.360  65.337  1.00  0.00    -0.170 OA 
BRANCH  16  17
HETATM   17  C   UNL     1      -8.944   7.495  66.475  1.00  0.00    -0.162 C  
BRANCH  17  18
HETATM   18  C   UNL     1     -10.172   7.705  67.349  1.00  0.00    -0.251 C  
HETATM   19  C   UNL     1     -10.920   6.440  67.665  1.00  0.00    -0.349 C  
HETATM   20  O   UNL     1     -11.489   6.688  68.947  1.00  0.00    -0.192 OA 
HETATM   21  C   UNL     1     -10.599   7.608  69.629  1.00  0.00    -0.243 C  
HETATM   22  O   UNL     1      -9.738   8.190  68.630  1.00  0.00    -0.148 OA 
BRANCH  21  23
HETATM   23  C   UNL     1     -11.398   8.739  70.284  1.00  0.00    -0.162 A  
HETATM   24 CL   UNL     1     -12.864   6.967  71.824  1.00  0.00    -0.390 Cl 
HETATM   25  C   UNL     1     -12.407   8.532  71.248  1.00  0.00    -0.271 A  
HETATM   26  C   UNL     1     -11.116  10.076  69.926  1.00  0.00    -0.336 A  
HETATM   27  C   UNL     1     -11.796  11.150  70.502  1.00  0.00    -0.448 A  
HETATM   28  C   UNL     1     -13.097   9.613  71.818  1.00  0.00    -0.514 A  
HETATM   29 CL   UNL     1     -13.612  12.236  72.171  1.00  0.00    -0.493 Cl 
HETATM   30  C   UNL     1     -12.784  10.914  71.448  1.00  0.00    -0.434 A  
ENDBRANCH  21  23
BRANCH  21  31
HETATM   31  C   UNL     1      -9.709   6.796  70.606  1.00  0.00    -0.172 C  
BRANCH  31  32
HETATM   32  N   UNL     1      -8.802   7.553  71.439  1.00  0.00    -0.131 NA 
HETATM   33  N   UNL     1      -7.976   8.483  73.277  1.00  0.00    -0.398 NA 
HETATM   34  C   UNL     1      -7.469   7.772  71.194  1.00  0.00    -0.078 A  
HETATM   35  C   UNL     1      -9.063   8.012  72.702  1.00  0.00    -0.227 A  
HETATM   36  C   UNL     1      -6.977   8.323  72.352  1.00  0.00    -0.090 A  
ENDBRANCH  31  32
ENDBRANCH  21  31
ENDBRANCH  17  18
ENDBRANCH  16  17
ENDBRANCH  13  16
ENDBRANCH   7  10
TORSDOF 7
ENDMDL
MODEL        9
REMARK 921   NORMALIZED FREE ENERGY PREDICTED BY IDOCK:   -7.58 KCAL/MOL
REMARK 922        TOTAL FREE ENERGY PREDICTED BY IDOCK:  -11.11 KCAL/MOL
REMARK 923 INTER-LIGAND FREE ENERGY PREDICTED BY IDOCK:  -10.56 KCAL/MOL
REMARK 924 INTRA-LIGAND FREE ENERGY PREDICTED BY IDOCK:   -0.55 KCAL/MOL
REMARK 927      BINDING AFFINITY PREDICTED BY RF-SCORE:    0.00 PKD
ROOT
HETATM    1  C   UNL     1      -9.509   2.466  71.705  1.00  0.00    -0.196 C  
HETATM    2  C   UNL     1      -9.617   3.287  70.447  1.00  0.00    -0.141 C  
HETATM    3  O   UNL     1      -9.495   2.752  69.345  1.00  0.00    -0.142 OA 
HETATM    4  N   UNL     1      -9.952   4.620  70.599  1.00  0.00    -0.226 N  
HETATM    5  C   UNL     1     -10.240   5.413  69.399  1.00  0.00    -0.264 C  
HETATM    6  C   UNL     1     -11.360   6.432  69.666  1.00  0.00    -0.412 C  
HETATM    7  N   UNL     1     -10.999   7.265  70.835  1.00  0.00    -0.248 NA 
HETATM    8  C   UNL     1      -9.705   5.416  71.814  1.00  0.00    -0.162 C  
HETATM    9  C   UNL     1     -10.806   6.466  72.061  1.00  0.00    -0.239 C  
ENDROOT
BRANCH   7  10
HETATM   10  C   UNL     1     -11.629   8.496  70.995  1.00  0.00    -0.279 A  
HETATM   11  C   UNL     1     -11.189   9.649  70.352  1.00  0.00    -0.342 A  
HETATM   12  C   UNL     1     -11.756  10.895  70.619  1.00  0.00    -0.418 A  
HETATM   13  C   UNL     1     -12.781  11.039  71.556  1.00  0.00    -0.415 A  
HETATM   14  C   UNL     1     -12.699   8.637  71.897  1.00  0.00    -0.413 A  
HETATM   15  C   UNL     1     -13.266   9.890  72.180  1.00  0.00    -0.511 A  
BRANCH  13  16
HETATM   16  O   UNL     1     -13.344  12.245  71.920  1.00  0.00    -0.463 OA 
BRANCH  16  17
HETATM   17  C   UNL     1     -12.475  13.364  71.719  1.00  0.00    -0.023 C  
BRANCH  17  18
HETATM   18  C   UNL     1     -12.595  14.017  70.350  1.00  0.00    -0.308 C  
HETATM   19  C   UNL     1     -12.501  15.517  70.379  1.00  0.00    -0.402 C  
HETATM   20  O   UNL     1     -11.922  15.850  69.120  1.00  0.00    -0.380 OA 
HETATM   21  C   UNL     1     -11.087  14.729  68.734  1.00  0.00    -0.265 C  
HETATM   22  O   UNL     1     -11.471  13.607  69.554  1.00  0.00    -0.272 OA 
BRANCH  21  23
HETATM   23  C   UNL     1     -11.335  14.355  67.270  1.00  0.00    -0.357 A  
HETATM   24 CL   UNL     1     -10.480  16.830  66.373  1.00  0.00    -0.300 Cl 
HETATM   25  C   UNL     1     -11.097  15.225  66.185  1.00  0.00    -0.280 A  
HETATM   26  C   UNL     1     -11.820  13.064  66.963  1.00  0.00    -0.437 A  
HETATM   27  C   UNL     1     -12.047  12.659  65.647  1.00  0.00    -0.502 A  
HETATM   28  C   UNL     1     -11.337  14.819  64.864  1.00  0.00    -0.411 A  
HETATM   29 CL   UNL     1     -12.067  13.034  62.979  1.00  0.00    -0.343 Cl 
HETATM   30  C   UNL     1     -11.803  13.537  64.602  1.00  0.00    -0.394 A  
ENDBRANCH  21  23
BRANCH  21  31
HETATM   31  C   UNL     1      -9.613  15.078  69.071  1.00  0.00    -0.225 C  
BRANCH  31  32
HETATM   32  N   UNL     1      -8.594  14.362  68.337  1.00  0.00    -0.170 NA 
HETATM   33  N   UNL     1      -6.699  14.025  67.231  1.00  0.00    -0.192 NA 
HETATM   34  C   UNL     1      -8.344  13.014  68.404  1.00  0.00    -0.118 A  
HETATM   35  C   UNL     1      -7.582  14.926  67.607  1.00  0.00    -0.182 A  
HETATM   36  C   UNL     1      -7.157  12.835  67.736  1.00  0.00    -0.132 A  
ENDBRANCH  31  32
ENDBRANCH  21  31
ENDBRANCH  17  18
ENDBRANCH  16  17
ENDBRANCH  13  16
ENDBRANCH   7  10
TORSDOF 7
ENDMDL
MODEL       10
REMARK 921   NORMALIZED FREE ENERGY PREDICTED BY IDOCK:   -7.52 KCAL/MOL
REMARK 922        TOTAL FREE ENERGY PREDICTED BY IDOCK:  -11.02 KCAL/MOL
REMARK 923 INTER-LIGAND FREE ENERGY PREDICTED BY IDOCK:   -9.46 KCAL/MOL
REMARK 924 INTRA-LIGAND FREE ENERGY PREDICTED BY IDOCK:   -1.56 KCAL/MOL
REMARK 927      BINDING AFFINITY PREDICTED BY RF-SCORE:    0.00 PKD
ROOT
HETATM    1  C   UNL     1     -13.017  15.415  73.822  1.00  0.00    -0.546 C  
HETATM    2  C   UNL     1     -12.192  16.309  72.934  1.00  0.00    -0.514 C  
HETATM    3  O   UNL     1     -11.552  17.243  73.417  1.00  0.00     0.073 OA 
HETATM    4  N   UNL     1     -12.119  15.964  71.597  1.00  0.00    -0.448 N  
HETATM    5  C   UNL     1     -11.189  16.698  70.732  1.00  0.00     0.123 C  
HETATM    6  C   UNL     1     -10.563  15.770  69.679  1.00  0.00    -0.295 C  
HETATM    7  N   UNL     1     -11.638  15.088  68.923  1.00  0.00    -0.309 NA 
HETATM    8  C   UNL     1     -13.132  15.174  70.875  1.00  0.00    -0.441 C  
HETATM    9  C   UNL     1     -12.510  14.272  69.791  1.00  0.00    -0.216 C  
ENDROOT
BRANCH   7  10
HETATM   10  C   UNL     1     -11.336  14.550  67.675  1.00  0.00    -0.337 A  
HETATM   11  C   UNL     1     -12.271  13.850  66.918  1.00  0.00    -0.415 A  
HETATM   12  C   UNL     1     -11.919  13.216  65.728  1.00  0.00    -0.473 A  
HETATM   13  C   UNL     1     -10.605  13.243  65.253  1.00  0.00    -0.315 A  
HETATM   14  C   UNL     1     -10.027  14.623  67.164  1.00  0.00    -0.240 A  
HETATM   15  C   UNL     1      -9.662  13.975  65.973  1.00  0.00    -0.280 A  
BRANCH  13  16
HETATM   16  O   UNL     1     -10.168  12.585  64.122  1.00  0.00    -0.359 OA 
BRANCH  16  17
HETATM   17  C   UNL     1     -10.668  11.248  64.011  1.00  0.00    -0.377 C  
BRANCH  17  18
HETATM   18  C   UNL     1      -9.806  10.195  64.691  1.00  0.00    -0.291 C  
HETATM   19  C   UNL     1      -8.417  10.664  65.024  1.00  0.00    -0.133 C  
HETATM   20  O   UNL     1      -8.074   9.922  66.191  1.00  0.00    -0.115 OA 
HETATM   21  C   UNL     1      -9.314   9.651  66.895  1.00  0.00    -0.146 C  
HETATM   22  O   UNL     1     -10.392   9.887  65.967  1.00  0.00    -0.224 OA 
BRANCH  21  23
HETATM   23  C   UNL     1      -9.373   8.184  67.329  1.00  0.00    -0.174 A  
HETATM   24 CL   UNL     1      -6.821   8.278  68.396  1.00  0.00    -0.064 Cl 
HETATM   25  C   UNL     1      -8.318   7.516  67.987  1.00  0.00    -0.124 A  
HETATM   26  C   UNL     1     -10.547   7.441  67.079  1.00  0.00    -0.414 A  
HETATM   27  C   UNL     1     -10.668   6.106  67.469  1.00  0.00    -0.393 A  
HETATM   28  C   UNL     1      -8.439   6.171  68.367  1.00  0.00    -0.114 A  
HETATM   29 CL   UNL     1      -9.767   3.837  68.609  1.00  0.00    -0.164 Cl 
HETATM   30  C   UNL     1      -9.614   5.476  68.113  1.00  0.00    -0.119 A  
ENDBRANCH  21  23
BRANCH  21  31
HETATM   31  C   UNL     1      -9.453  10.675  68.053  1.00  0.00    -0.158 C  
BRANCH  31  32
HETATM   32  N   UNL     1     -10.411  10.356  69.087  1.00  0.00    -0.212 NA 
HETATM   33  N   UNL     1     -11.169   9.761  71.087  1.00  0.00    -0.370 NA 
HETATM   34  C   UNL     1     -11.707  10.802  69.157  1.00  0.00    -0.296 A  
HETATM   35  C   UNL     1     -10.137   9.722  70.269  1.00  0.00    -0.266 A  
HETATM   36  C   UNL     1     -12.144  10.445  70.409  1.00  0.00    -0.315 A  
ENDBRANCH  31  32
ENDBRANCH  21  31
ENDBRANCH  17  18
ENDBRANCH  16  17
ENDBRANCH  13  16
ENDBRANCH   7  10
TORSDOF 7
ENDMDL
MODEL       11
REMARK 921   NORMALIZED FREE ENERGY PREDICTED BY IDOCK:   -7.40 KCAL/MOL
REMARK 922        TOTAL FREE ENERGY PREDICTED BY IDOCK:  -10.86 KCAL/MOL
REMARK 923 INTER-LIGAND FREE ENERGY PREDICTED BY IDOCK:   -9.79 KCAL/MOL
REMARK 924 INTRA-LIGAND FREE ENERGY PREDICTED BY IDOCK:   -1.06 KCAL/MOL
REMARK 927      BINDING AFFINITY PREDICTED BY RF-SCORE:    0.00 PKD
ROOT
HETATM    1  C   UNL     1      -9.399   2.605  72.361  1.00  0.00    -0.151 C  
HETATM    2  C   UNL     1     -10.281   3.818  72.493  1.00  0.00    -0.161 C  
HETATM    3  O   UNL     1     -10.945   3.995  73.514  1.00  0.00    -0.223 OA 
HETATM    4  N   UNL     1     -10.223   4.745  71.468  1.00  0.00    -0.197 N  
HETATM    5  C   UNL     1     -10.928   6.022  71.635  1.00  0.00    -0.272 C  
HETATM    6  C   UNL     1     -10.142   7.175  70.992  1.00  0.00    -0.192 C  
HETATM    7  N   UNL     1      -9.864   6.851  69.574  1.00  0.00    -0.158 NA 
HETATM    8  C   UNL     1      -9.823   4.444  70.082  1.00  0.00    -0.217 C  
HETATM    9  C   UNL     1      -9.070   5.615  69.422  1.00  0.00    -0.117 C  
ENDROOT
BRANCH   7  10
HETATM   10  C   UNL     1      -9.558   7.891  68.701  1.00  0.00    -0.155 A  
HETATM   11  C   UNL     1      -8.323   8.532  68.708  1.00  0.00    -0.122 A  
HETATM   12  C   UNL     1      -8.077   9.650  67.911  1.00  0.00    -0.106 A  
HETATM   13  C   UNL     1      -9.067  10.181  67.082  1.00  0.00    -0.135 A  
HETATM   14  C   UNL     1     -10.534   8.395  67.822  1.00  0.00    -0.284 A  
HETATM   15  C   UNL     1     -10.298   9.527  67.026  1.00  0.00    -0.319 A  
BRANCH  13  16
HETATM   16  O   UNL     1      -8.919  11.320  66.317  1.00  0.00    -0.187 OA 
BRANCH  16  17
HETATM   17  C   UNL     1      -7.896  12.199  66.795  1.00  0.00     0.004 C  
BRANCH  17  18
HETATM   18  C   UNL     1      -8.377  13.242  67.794  1.00  0.00    -0.171 C  
HETATM   19  C   UNL     1      -7.870  14.630  67.519  1.00  0.00    -0.193 C  
HETATM   20  O   UNL     1      -8.904  15.478  68.010  1.00  0.00    -0.164 OA 
HETATM   21  C   UNL     1     -10.147  14.742  67.875  1.00  0.00    -0.221 C  
HETATM   22  O   UNL     1      -9.805  13.356  67.676  1.00  0.00    -0.217 OA 
BRANCH  21  23
HETATM   23  C   UNL     1     -10.974  14.847  69.160  1.00  0.00    -0.266 A  
HETATM   24 CL   UNL     1     -11.922  12.260  68.897  1.00  0.00    -0.335 Cl 
HETATM   25  C   UNL     1     -11.777  13.803  69.665  1.00  0.00    -0.318 A  
HETATM   26  C   UNL     1     -10.935  16.046  69.905  1.00  0.00    -0.353 A  
HETATM   27  C   UNL     1     -11.651  16.195  71.094  1.00  0.00    -0.453 A  
HETATM   28  C   UNL     1     -12.505  13.960  70.854  1.00  0.00    -0.447 A  
HETATM   29 CL   UNL     1     -13.303  15.325  73.038  1.00  0.00    -0.584 Cl 
HETATM   30  C   UNL     1     -12.433  15.150  71.566  1.00  0.00    -0.350 A  
ENDBRANCH  21  23
BRANCH  21  31
HETATM   31  C   UNL     1     -10.873  15.238  66.597  1.00  0.00    -0.310 C  
BRANCH  31  32
HETATM   32  N   UNL     1     -11.386  14.221  65.707  1.00  0.00    -0.320 NA 
HETATM   33  N   UNL     1     -12.881  12.964  64.652  1.00  0.00    -0.740 NA 
HETATM   34  C   UNL     1     -10.756  13.726  64.593  1.00  0.00    -0.414 A  
HETATM   35  C   UNL     1     -12.661  13.722  65.706  1.00  0.00    -0.480 A  
HETATM   36  C   UNL     1     -11.706  12.975  63.946  1.00  0.00    -0.468 A  
ENDBRANCH  31  32
ENDBRANCH  21  31
ENDBRANCH  17  18
ENDBRANCH  16  17
ENDBRANCH  13  16
ENDBRANCH   7  10
TORSDOF 7
ENDMDL
MODEL       12
REMARK 921   NORMALIZED FREE ENERGY PREDICTED BY IDOCK:   -7.39 KCAL/MOL
REMARK 922        TOTAL FREE ENERGY PREDICTED BY IDOCK:  -10.84 KCAL/MOL
REMARK 923 INTER-LIGAND FREE ENERGY PREDICTED BY IDOCK:   -9.84 KCAL/MOL
REMARK 924 INTRA-LIGAND FREE ENERGY PREDICTED BY IDOCK:   -1.01 KCAL/MOL
REMARK 927      BINDING AFFINITY PREDICTED BY RF-SCORE:    0.00 PKD
ROOT
HETATM    1  C   UNL     1      -9.160  20.612  67.318  1.00  0.00    -0.408 C  
HETATM    2  C   UNL     1      -8.699  19.468  66.453  1.00  0.00    -0.361 C  
HETATM    3  O   UNL     1      -7.766  19.622  65.666  1.00  0.00    -0.402 OA 
HETATM    4  N   UNL     1      -9.306  18.244  66.664  1.00  0.00    -0.295 N  
HETATM    5  C   UNL     1      -8.770  17.065  65.972  1.00  0.00    -0.132 C  
HETATM    6  C   UNL     1      -8.859  15.815  66.861  1.00  0.00    -0.245 C  
HETATM    7  N   UNL     1     -10.257  15.631  67.314  1.00  0.00    -0.260 NA 
HETATM    8  C   UNL     1     -10.652  18.058  67.235  1.00  0.00    -0.346 C  
HETATM    9  C   UNL     1     -10.754  16.782  68.093  1.00  0.00    -0.361 C  
ENDROOT
BRANCH   7  10
HETATM   10  C   UNL     1     -10.654  14.372  67.754  1.00  0.00    -0.246 A  
HETATM   11  C   UNL     1     -10.741  13.276  66.901  1.00  0.00    -0.274 A  
HETATM   12  C   UNL     1     -11.256  12.054  67.332  1.00  0.00    -0.368 A  
HETATM   13  C   UNL     1     -11.722  11.885  68.637  1.00  0.00    -0.323 A  
HETATM   14  C   UNL     1     -11.073  14.180  69.084  1.00  0.00    -0.295 A  
HETATM   15  C   UNL     1     -11.605  12.957  69.521  1.00  0.00    -0.348 A  
BRANCH  13  16
HETATM   16  O   UNL     1     -12.306  10.729  69.116  1.00  0.00    -0.400 OA 
BRANCH  16  17
HETATM   17  C   UNL     1     -12.879  10.877  70.419  1.00  0.00    -0.184 C  
BRANCH  17  18
HETATM   18  C   UNL     1     -12.179  10.077  71.509  1.00  0.00    -0.405 C  
HETATM   19  C   UNL     1     -13.113   9.276  72.373  1.00  0.00    -0.406 C  
HETATM   20  O   UNL     1     -12.337   8.147  72.764  1.00  0.00    -0.259 OA 
HETATM   21  C   UNL     1     -11.386   7.903  71.697  1.00  0.00    -0.258 C  
HETATM   22  O   UNL     1     -11.344   9.091  70.881  1.00  0.00    -0.267 OA 
BRANCH  21  23
HETATM   23  C   UNL     1      -9.985   7.670  72.270  1.00  0.00    -0.242 A  
HETATM   24 CL   UNL     1     -10.839   5.521  73.791  1.00  0.00    -0.299 Cl 
HETATM   25  C   UNL     1      -9.674   6.651  73.194  1.00  0.00    -0.160 A  
HETATM   26  C   UNL     1      -8.925   8.506  71.854  1.00  0.00    -0.301 A  
HETATM   27  C   UNL     1      -7.623   8.331  72.326  1.00  0.00    -0.160 A  
HETATM   28  C   UNL     1      -8.366   6.484  73.675  1.00  0.00    -0.125 A  
HETATM   29 CL   UNL     1      -5.742   7.091  73.806  1.00  0.00    -0.054 Cl 
HETATM   30  C   UNL     1      -7.348   7.319  73.235  1.00  0.00    -0.072 A  
ENDBRANCH  21  23
BRANCH  21  31
HETATM   31  C   UNL     1     -11.925   6.745  70.816  1.00  0.00    -0.378 C  
BRANCH  31  32
HETATM   32  N   UNL     1     -11.039   6.246  69.789  1.00  0.00    -0.372 NA 
HETATM   33  N   UNL     1      -9.652   4.854  68.756  1.00  0.00    -0.146 NA 
HETATM   34  C   UNL     1     -11.058   6.596  68.462  1.00  0.00    -0.206 A  
HETATM   35  C   UNL     1     -10.164   5.200  69.919  1.00  0.00    -0.291 A  
HETATM   36  C   UNL     1     -10.215   5.707  67.843  1.00  0.00    -0.187 A  
ENDBRANCH  31  32
ENDBRANCH  21  31
ENDBRANCH  17  18
ENDBRANCH  16  17
ENDBRANCH  13  16
ENDBRANCH   7  10
TORSDOF 7
ENDMDL
MODEL       13
REMARK 921   NORMALIZED FREE ENERGY PREDICTED BY IDOCK:   -7.37 KCAL/MOL
REMARK 922        TOTAL FREE ENERGY PREDICTED BY IDOCK:  -10.81 KCAL/MOL
REMARK 923 INTER-LIGAND FREE ENERGY PREDICTED BY IDOCK:   -9.67 KCAL/MOL
REMARK 924 INTRA-LIGAND FREE ENERGY PREDICTED BY IDOCK:   -1.14 KCAL/MOL
REMARK 927      BINDING AFFINITY PREDICTED BY RF-SCORE:    0.00 PKD
ROOT
HETATM    1  C   UNL     1      -8.602   2.838  72.484  1.00  0.00    -0.081 C  
HETATM    2  C   UNL     1      -9.674   3.734  73.045  1.00  0.00    -0.127 C  
HETATM    3  O   UNL     1     -10.073   3.577  74.198  1.00  0.00    -0.123 OA 
HETATM    4  N   UNL     1     -10.098   4.776  72.241  1.00  0.00    -0.181 N  
HETATM    5  C   UNL     1     -11.010   5.776  72.810  1.00  0.00    -0.272 C  
HETATM    6  C   UNL     1     -10.703   7.179  72.261  1.00  0.00    -0.221 C  
HETATM    7  N   UNL     1     -10.734   7.146  70.782  1.00  0.00    -0.227 NA 
HETATM    8  C   UNL     1     -10.012   4.795  70.770  1.00  0.00    -0.221 C  
HETATM    9  C   UNL     1      -9.745   6.207  70.216  1.00  0.00    -0.164 C  
ENDROOT
BRANCH   7  10
HETATM   10  C   UNL     1     -10.912   8.342  70.092  1.00  0.00    -0.215 A  
HETATM   11  C   UNL     1     -10.520   8.506  68.767  1.00  0.00    -0.208 A  
HETATM   12  C   UNL     1     -10.594   9.745  68.132  1.00  0.00    -0.276 A  
HETATM   13  C   UNL     1     -11.051  10.879  68.806  1.00  0.00    -0.256 A  
HETATM   14  C   UNL     1     -11.425   9.475  70.751  1.00  0.00    -0.378 A  
HETATM   15  C   UNL     1     -11.490  10.729  70.121  1.00  0.00    -0.415 A  
BRANCH  13  16
HETATM   16  O   UNL     1     -11.090  12.148  68.265  1.00  0.00    -0.212 OA 
BRANCH  16  17
HETATM   17  C   UNL     1     -10.202  12.323  67.157  1.00  0.00    -0.211 C  
BRANCH  17  18
HETATM   18  C   UNL     1      -9.804  13.767  66.890  1.00  0.00    -0.264 C  
HETATM   19  C   UNL     1     -10.708  14.480  65.922  1.00  0.00    -0.305 C  
HETATM   20  O   UNL     1     -10.659  15.841  66.344  1.00  0.00    -0.306 OA 
HETATM   21  C   UNL     1     -10.413  15.827  67.774  1.00  0.00    -0.283 C  
HETATM   22  O   UNL     1      -9.941  14.508  68.114  1.00  0.00    -0.211 OA 
BRANCH  21  23
HETATM   23  C   UNL     1      -9.316  16.832  68.138  1.00  0.00    -0.234 A  
HETATM   24 CL   UNL     1     -10.904  18.990  67.441  1.00  0.00    -0.543 Cl 
HETATM   25  C   UNL     1      -9.460  18.230  68.014  1.00  0.00    -0.290 A  
HETATM   26  C   UNL     1      -8.086  16.355  68.641  1.00  0.00    -0.218 A  
HETATM   27  C   UNL     1      -7.057  17.222  69.009  1.00  0.00    -0.233 A  
HETATM   28  C   UNL     1      -8.419  19.099  68.374  1.00  0.00    -0.384 A  
HETATM   29 CL   UNL     1      -5.966  19.664  69.342  1.00  0.00    -0.289 Cl 
HETATM   30  C   UNL     1      -7.227  18.593  68.875  1.00  0.00    -0.285 A  
ENDBRANCH  21  23
BRANCH  21  31
HETATM   31  C   UNL     1     -11.763  16.050  68.505  1.00  0.00    -0.241 C  
BRANCH  31  32
HETATM   32  N   UNL     1     -11.889  15.469  69.823  1.00  0.00    -0.338 NA 
HETATM   33  N   UNL     1     -11.881  15.359  72.040  1.00  0.00    -0.401 NA 
HETATM   34  C   UNL     1     -12.649  14.376  70.157  1.00  0.00    -0.286 A  
HETATM   35  C   UNL     1     -11.436  16.019  70.991  1.00  0.00    -0.417 A  
HETATM   36  C   UNL     1     -12.650  14.345  71.530  1.00  0.00    -0.350 A  
ENDBRANCH  31  32
ENDBRANCH  21  31
ENDBRANCH  17  18
ENDBRANCH  16  17
ENDBRANCH  13  16
ENDBRANCH   7  10
TORSDOF 7
ENDMDL
MODEL       14
REMARK 921   NORMALIZED FREE ENERGY PREDICTED BY IDOCK:   -7.34 KCAL/MOL
REMARK 922        TOTAL FREE ENERGY PREDICTED BY IDOCK:  -10.78 KCAL/MOL
REMARK 923 INTER-LIGAND FREE ENERGY PREDICTED BY IDOCK:   -9.29 KCAL/MOL
REMARK 924 INTRA-LIGAND FREE ENERGY PREDICTED BY IDOCK:   -1.49 KCAL/MOL
REMARK 927      BINDING AFFINITY PREDICTED BY RF-SCORE:    0.00 PKD
ROOT
HETATM    1  C   UNL     1     -12.659  15.266  73.886  1.00  0.00    -0.731 C  
HETATM    2  C   UNL     1     -12.021  16.077  72.788  1.00  0.00    -0.518 C  
HETATM    3  O   UNL     1     -11.577  17.200  73.024  1.00  0.00    -0.010 OA 
HETATM    4  N   UNL     1     -11.878  15.458  71.560  1.00  0.00    -0.346 N  
HETATM    5  C   UNL     1     -11.107  16.140  70.515  1.00  0.00    -0.322 C  
HETATM    6  C   UNL     1     -10.308  15.134  69.671  1.00  0.00    -0.227 C  
HETATM    7  N   UNL     1     -11.227  14.107  69.131  1.00  0.00    -0.262 NA 
HETATM    8  C   UNL     1     -12.716  14.346  71.075  1.00  0.00    -0.346 C  
HETATM    9  C   UNL     1     -11.927  13.358  70.195  1.00  0.00    -0.326 C  
ENDROOT
BRANCH   7  10
HETATM   10  C   UNL     1     -10.823  13.368  68.023  1.00  0.00    -0.247 A  
HETATM   11  C   UNL     1     -11.727  12.718  67.188  1.00  0.00    -0.443 A  
HETATM   12  C   UNL     1     -11.299  11.884  66.156  1.00  0.00    -0.383 A  
HETATM   13  C   UNL     1      -9.941  11.654  65.927  1.00  0.00    -0.231 A  
HETATM   14  C   UNL     1      -9.455  13.177  67.753  1.00  0.00    -0.209 A  
HETATM   15  C   UNL     1      -9.016  12.329  66.724  1.00  0.00    -0.209 A  
BRANCH  13  16
HETATM   16  O   UNL     1      -9.443  10.792  64.970  1.00  0.00    -0.210 OA 
BRANCH  16  17
HETATM   17  C   UNL     1      -8.819   9.628  65.520  1.00  0.00    -0.172 C  
BRANCH  17  18
HETATM   18  C   UNL     1      -9.700   8.829  66.470  1.00  0.00    -0.259 C  
HETATM   19  C   UNL     1      -9.522   7.340  66.361  1.00  0.00    -0.127 C  
HETATM   20  O   UNL     1      -9.798   6.864  67.675  1.00  0.00    -0.127 OA 
HETATM   21  C   UNL     1      -9.428   7.926  68.592  1.00  0.00    -0.149 C  
HETATM   22  O   UNL     1      -9.306   9.136  67.818  1.00  0.00    -0.136 OA 
BRANCH  21  23
HETATM   23  C   UNL     1     -10.527   8.139  69.637  1.00  0.00    -0.224 A  
HETATM   24 CL   UNL     1     -10.651   5.437  70.224  1.00  0.00    -0.353 Cl 
HETATM   25  C   UNL     1     -11.112   7.096  70.385  1.00  0.00    -0.280 A  
HETATM   26  C   UNL     1     -10.989   9.449  69.890  1.00  0.00    -0.251 A  
HETATM   27  C   UNL     1     -11.974   9.708  70.844  1.00  0.00    -0.391 A  
HETATM   28  C   UNL     1     -12.110   7.358  71.335  1.00  0.00    -0.357 A  
HETATM   29 CL   UNL     1     -13.734   8.981  72.752  1.00  0.00    -0.412 Cl 
HETATM   30  C   UNL     1     -12.531   8.662  71.565  1.00  0.00    -0.323 A  
ENDBRANCH  21  23
BRANCH  21  31
HETATM   31  C   UNL     1      -8.030   7.599  69.181  1.00  0.00    -0.120 C  
BRANCH  31  32
HETATM   32  N   UNL     1      -7.363   8.664  69.895  1.00  0.00    -0.051 NA 
HETATM   33  N   UNL     1      -6.474   9.761  71.608  1.00  0.00    -0.298 NA 
HETATM   34  C   UNL     1      -6.493   9.579  69.357  1.00  0.00    -0.044 A  
HETATM   35  C   UNL     1      -7.328   8.822  71.255  1.00  0.00    -0.098 A  
HETATM   36  C   UNL     1      -5.939  10.225  70.435  1.00  0.00    -0.096 A  
ENDBRANCH  31  32
ENDBRANCH  21  31
ENDBRANCH  17  18
ENDBRANCH  16  17
ENDBRANCH  13  16
ENDBRANCH   7  10
TORSDOF 7
ENDMDL
MODEL       15
REMARK 921   NORMALIZED FREE ENERGY PREDICTED BY IDOCK:   -7.33 KCAL/MOL
REMARK 922        TOTAL FREE ENERGY PREDICTED BY IDOCK:  -10.76 KCAL/MOL
REMARK 923 INTER-LIGAND FREE ENERGY PREDICTED BY IDOCK:   -9.60 KCAL/MOL
REMARK 924 INTRA-LIGAND FREE ENERGY PREDICTED BY IDOCK:   -1.16 KCAL/MOL
REMARK 927      BINDING AFFINITY PREDICTED BY RF-SCORE:    0.00 PKD
ROOT
HETATM    1  C   UNL     1     -10.423  20.090  65.830  1.00  0.00    -0.469 C  
HETATM    2  C   UNL     1     -10.358  19.440  67.187  1.00  0.00    -0.438 C  
HETATM    3  O   UNL     1     -10.443  20.122  68.207  1.00  0.00    -0.373 OA 
HETATM    4  N   UNL     1     -10.300  18.058  67.213  1.00  0.00    -0.364 N  
HETATM    5  C   UNL     1     -10.412  17.375  68.507  1.00  0.00    -0.370 C  
HETATM    6  C   UNL     1     -11.189  16.056  68.370  1.00  0.00    -0.364 C  
HETATM    7  N   UNL     1     -10.554  15.217  67.328  1.00  0.00    -0.284 NA 
HETATM    8  C   UNL     1      -9.783  17.216  66.120  1.00  0.00    -0.242 C  
HETATM    9  C   UNL     1     -10.534  15.875  66.006  1.00  0.00    -0.345 C  
ENDROOT
BRANCH   7  10
HETATM   10  C   UNL     1     -10.807  13.848  67.330  1.00  0.00    -0.285 A  
HETATM   11  C   UNL     1     -11.753  13.265  68.167  1.00  0.00    -0.397 A  
HETATM   12  C   UNL     1     -11.907  11.881  68.243  1.00  0.00    -0.343 A  
HETATM   13  C   UNL     1     -11.104  11.021  67.490  1.00  0.00    -0.302 A  
HETATM   14  C   UNL     1     -10.039  12.980  66.532  1.00  0.00    -0.270 A  
HETATM   15  C   UNL     1     -10.180  11.585  66.612  1.00  0.00    -0.254 A  
BRANCH  13  16
HETATM   16  O   UNL     1     -11.153   9.644  67.561  1.00  0.00    -0.206 OA 
BRANCH  16  17
HETATM   17  C   UNL     1      -9.972   9.005  67.065  1.00  0.00    -0.230 C  
BRANCH  17  18
HETATM   18  C   UNL     1      -9.218   8.183  68.101  1.00  0.00    -0.133 C  
HETATM   19  C   UNL     1      -8.014   8.878  68.673  1.00  0.00    -0.103 C  
HETATM   20  O   UNL     1      -7.914   8.360  69.996  1.00  0.00    -0.103 OA 
HETATM   21  C   UNL     1      -9.262   8.024  70.417  1.00  0.00    -0.155 C  
HETATM   22  O   UNL     1     -10.081   7.980  69.232  1.00  0.00    -0.188 OA 
BRANCH  21  23
HETATM   23  C   UNL     1      -9.290   6.637  71.066  1.00  0.00    -0.161 A  
HETATM   24 CL   UNL     1      -7.636   7.445  73.133  1.00  0.00    -0.101 Cl 
HETATM   25  C   UNL     1      -8.599   6.311  72.252  1.00  0.00    -0.118 A  
HETATM   26  C   UNL     1     -10.055   5.613  70.466  1.00  0.00    -0.280 A  
HETATM   27  C   UNL     1     -10.136   4.335  71.021  1.00  0.00    -0.165 A  
HETATM   28  C   UNL     1      -8.672   5.022  72.801  1.00  0.00    -0.119 A  
HETATM   29 CL   UNL     1      -9.555   2.475  72.883  1.00  0.00    -0.138 Cl 
HETATM   30  C   UNL     1      -9.445   4.044  72.188  1.00  0.00    -0.134 A  
ENDBRANCH  21  23
BRANCH  21  31
HETATM   31  C   UNL     1      -9.794   9.170  71.317  1.00  0.00    -0.293 C  
BRANCH  31  32
HETATM   32  N   UNL     1     -11.213   9.175  71.589  1.00  0.00    -0.357 NA 
HETATM   33  N   UNL     1     -13.107   8.796  72.683  1.00  0.00    -0.341 NA 
HETATM   34  C   UNL     1     -12.130  10.066  71.092  1.00  0.00    -0.380 A  
HETATM   35  C   UNL     1     -11.854   8.420  72.535  1.00  0.00    -0.358 A  
HETATM   36  C   UNL     1     -13.283   9.830  71.800  1.00  0.00    -0.436 A  
ENDBRANCH  31  32
ENDBRANCH  21  31
ENDBRANCH  17  18
ENDBRANCH  16  17
ENDBRANCH  13  16
ENDBRANCH   7  10
TORSDOF 7
ENDMDL
MODEL       16
REMARK 921   NORMALIZED FREE ENERGY PREDICTED BY IDOCK:   -7.29 KCAL/MOL
REMARK 922        TOTAL FREE ENERGY PREDICTED BY IDOCK:  -10.71 KCAL/MOL
REMARK 923 INTER-LIGAND FREE ENERGY PREDICTED BY IDOCK:   -9.49 KCAL/MOL
REMARK 924 INTRA-LIGAND FREE ENERGY PREDICTED BY IDOCK:   -1.21 KCAL/MOL
REMARK 927      BINDING AFFINITY PREDICTED BY RF-SCORE:    0.00 PKD
ROOT
HETATM    1  C   UNL     1     -10.760  18.482  65.943  1.00  0.00    -0.237 C  
HETATM    2  C   UNL     1     -10.530  18.361  67.427  1.00  0.00    -0.415 C  
HETATM    3  O   UNL     1     -10.317  19.366  68.105  1.00  0.00    -0.408 OA 
HETATM    4  N   UNL     1     -10.668  17.101  67.978  1.00  0.00    -0.383 N  
HETATM    5  C   UNL     1     -10.628  16.965  69.439  1.00  0.00    -0.292 C  
HETATM    6  C   UNL     1     -11.599  15.875  69.920  1.00  0.00    -0.336 C  
HETATM    7  N   UNL     1     -11.303  14.607  69.215  1.00  0.00    -0.271 NA 
HETATM    8  C   UNL     1     -10.497  15.836  67.242  1.00  0.00    -0.308 C  
HETATM    9  C   UNL     1     -11.442  14.729  67.750  1.00  0.00    -0.345 C  
ENDROOT
BRANCH   7  10
HETATM   10  C   UNL     1     -11.746  13.414  69.777  1.00  0.00    -0.286 A  
HETATM   11  C   UNL     1     -11.596  12.186  69.138  1.00  0.00    -0.374 A  
HETATM   12  C   UNL     1     -12.153  11.020  69.660  1.00  0.00    -0.411 A  
HETATM   13  C   UNL     1     -12.899  11.037  70.840  1.00  0.00    -0.301 A  
HETATM   14  C   UNL     1     -12.450  13.417  70.996  1.00  0.00    -0.437 A  
HETATM   15  C   UNL     1     -13.025  12.248  71.520  1.00  0.00    -0.390 A  
BRANCH  13  16
HETATM   16  O   UNL     1     -13.535   9.938  71.380  1.00  0.00    -0.364 OA 
BRANCH  16  17
HETATM   17  C   UNL     1     -12.856   9.385  72.512  1.00  0.00    -0.235 C  
BRANCH  17  18
HETATM   18  C   UNL     1     -12.222   8.024  72.263  1.00  0.00    -0.318 C  
HETATM   19  C   UNL     1     -12.932   7.200  71.225  1.00  0.00    -0.324 C  
HETATM   20  O   UNL     1     -11.897   6.413  70.642  1.00  0.00    -0.367 OA 
HETATM   21  C   UNL     1     -10.674   7.187  70.748  1.00  0.00    -0.231 C  
HETATM   22  O   UNL     1     -10.909   8.229  71.715  1.00  0.00    -0.235 OA 
BRANCH  21  23
HETATM   23  C   UNL     1      -9.529   6.310  71.263  1.00  0.00    -0.171 A  
HETATM   24 CL   UNL     1      -7.909   8.504  71.734  1.00  0.00    -0.160 Cl 
HETATM   25  C   UNL     1      -8.289   6.817  71.707  1.00  0.00    -0.110 A  
HETATM   26  C   UNL     1      -9.707   4.910  71.318  1.00  0.00    -0.241 A  
HETATM   27  C   UNL     1      -8.708   4.061  71.796  1.00  0.00    -0.132 A  
HETATM   28  C   UNL     1      -7.283   5.961  72.176  1.00  0.00    -0.089 A  
HETATM   29 CL   UNL     1      -6.273   3.547  72.830  1.00  0.00    -0.009 Cl 
HETATM   30  C   UNL     1      -7.499   4.590  72.225  1.00  0.00    -0.081 A  
ENDBRANCH  21  23
BRANCH  21  31
HETATM   31  C   UNL     1     -10.404   7.864  69.378  1.00  0.00    -0.220 C  
BRANCH  31  32
HETATM   32  N   UNL     1     -10.110   6.987  68.268  1.00  0.00    -0.160 NA 
HETATM   33  N   UNL     1     -10.477   5.742  66.467  1.00  0.00    -0.234 NA 
HETATM   34  C   UNL     1      -8.899   6.859  67.635  1.00  0.00    -0.118 A  
HETATM   35  C   UNL     1     -11.027   6.283  67.534  1.00  0.00    -0.350 A  
HETATM   36  C   UNL     1      -9.157   6.108  66.514  1.00  0.00    -0.148 A  
ENDBRANCH  31  32
ENDBRANCH  21  31
ENDBRANCH  17  18
ENDBRANCH  16  17
ENDBRANCH  13  16
ENDBRANCH   7  10
TORSDOF 7
ENDMDL
MODEL       17
REMARK 921   NORMALIZED FREE ENERGY PREDICTED BY IDOCK:   -7.29 KCAL/MOL
REMARK 922        TOTAL FREE ENERGY PREDICTED BY IDOCK:  -10.70 KCAL/MOL
REMARK 923 INTER-LIGAND FREE ENERGY PREDICTED BY IDOCK:   -9.83 KCAL/MOL
REMARK 924 INTRA-LIGAND FREE ENERGY PREDICTED BY IDOCK:   -0.86 KCAL/MOL
REMARK 927      BINDING AFFINITY PREDICTED BY RF-SCORE:    0.00 PKD
ROOT
HETATM    1  C   UNL     1     -10.087  19.458  67.966  1.00  0.00    -0.516 C  
HETATM    2  C   UNL     1     -10.347  18.654  66.718  1.00  0.00    -0.407 C  
HETATM    3  O   UNL     1     -10.398  19.210  65.622  1.00  0.00    -0.511 OA 
HETATM    4  N   UNL     1     -10.421  17.281  66.866  1.00  0.00    -0.303 N  
HETATM    5  C   UNL     1     -10.496  16.448  65.660  1.00  0.00    -0.347 C  
HETATM    6  C   UNL     1      -9.721  15.135  65.846  1.00  0.00    -0.350 C  
HETATM    7  N   UNL     1     -10.213  14.441  67.058  1.00  0.00    -0.260 NA 
HETATM    8  C   UNL     1     -10.789  16.587  68.113  1.00  0.00    -0.345 C  
HETATM    9  C   UNL     1     -10.043  15.250  68.282  1.00  0.00    -0.225 C  
ENDROOT
BRANCH   7  10
HETATM   10  C   UNL     1      -9.975  13.075  67.186  1.00  0.00    -0.235 A  
HETATM   11  C   UNL     1      -8.733  12.505  66.924  1.00  0.00    -0.182 A  
HETATM   12  C   UNL     1      -8.546  11.124  66.939  1.00  0.00    -0.148 A  
HETATM   13  C   UNL     1      -9.605  10.252  67.203  1.00  0.00    -0.168 A  
HETATM   14  C   UNL     1     -11.026  12.196  67.507  1.00  0.00    -0.304 A  
HETATM   15  C   UNL     1     -10.848  10.802  67.511  1.00  0.00    -0.342 A  
BRANCH  13  16
HETATM   16  O   UNL     1      -9.511   8.875  67.170  1.00  0.00    -0.146 OA 
BRANCH  16  17
HETATM   17  C   UNL     1     -10.475   8.218  68.000  1.00  0.00    -0.181 C  
BRANCH  17  18
HETATM   18  C   UNL     1      -9.877   7.286  69.043  1.00  0.00    -0.165 C  
HETATM   19  C   UNL     1      -8.598   7.790  69.650  1.00  0.00    -0.135 C  
HETATM   20  O   UNL     1      -8.608   7.252  70.970  1.00  0.00    -0.127 OA 
HETATM   21  C   UNL     1     -10.000   7.117  71.356  1.00  0.00    -0.187 C  
HETATM   22  O   UNL     1     -10.788   7.204  70.152  1.00  0.00    -0.243 OA 
BRANCH  21  23
HETATM   23  C   UNL     1     -10.249   5.745  71.989  1.00  0.00    -0.245 A  
HETATM   24 CL   UNL     1      -8.808   4.445  70.015  1.00  0.00    -0.116 Cl 
HETATM   25  C   UNL     1      -9.762   4.533  71.454  1.00  0.00    -0.179 A  
HETATM   26  C   UNL     1     -10.997   5.665  73.184  1.00  0.00    -0.326 A  
HETATM   27  C   UNL     1     -11.241   4.446  73.818  1.00  0.00    -0.272 A  
HETATM   28  C   UNL     1     -10.018   3.308  72.088  1.00  0.00    -0.231 A  
HETATM   29 CL   UNL     1     -11.034   1.770  74.056  1.00  0.00    -0.222 Cl 
HETATM   30  C   UNL     1     -10.749   3.271  73.268  1.00  0.00    -0.189 A  
ENDBRANCH  21  23
BRANCH  21  31
HETATM   31  C   UNL     1     -10.378   8.323  72.257  1.00  0.00    -0.316 C  
BRANCH  31  32
HETATM   32  N   UNL     1     -11.569   9.056  71.891  1.00  0.00    -0.365 NA 
HETATM   33  N   UNL     1     -13.639   9.840  72.048  1.00  0.00    -0.386 NA 
HETATM   34  C   UNL     1     -11.622  10.167  71.088  1.00  0.00    -0.346 A  
HETATM   35  C   UNL     1     -12.814   8.891  72.436  1.00  0.00    -0.380 A  
HETATM   36  C   UNL     1     -12.901  10.647  71.221  1.00  0.00    -0.434 A  
ENDBRANCH  31  32
ENDBRANCH  21  31
ENDBRANCH  17  18
ENDBRANCH  16  17
ENDBRANCH  13  16
ENDBRANCH   7  10
TORSDOF 7
ENDMDL
MODEL       18
REMARK 921   NORMALIZED FREE ENERGY PREDICTED BY IDOCK:   -7.28 KCAL/MOL
REMARK 922        TOTAL FREE ENERGY PREDICTED BY IDOCK:  -10.69 KCAL/MOL
REMARK 923 INTER-LIGAND FREE ENERGY PREDICTED BY IDOCK:   -9.32 KCAL/MOL
REMARK 924 INTRA-LIGAND FREE ENERGY PREDICTED BY IDOCK:   -1.38 KCAL/MOL
REMARK 927      BINDING AFFINITY PREDICTED BY RF-SCORE:    0.00 PKD
ROOT
HETATM    1  C   UNL     1     -10.744   4.793  73.128  1.00  0.00    -0.309 C  
HETATM    2  C   UNL     1     -10.566   6.287  73.200  1.00  0.00    -0.250 C  
HETATM    3  O   UNL     1     -10.369   6.836  74.284  1.00  0.00    -0.369 OA 
HETATM    4  N   UNL     1     -10.536   6.970  71.998  1.00  0.00    -0.209 N  
HETATM    5  C   UNL     1     -10.189   8.396  72.009  1.00  0.00    -0.294 C  
HETATM    6  C   UNL     1      -9.364   8.774  70.769  1.00  0.00    -0.208 C  
HETATM    7  N   UNL     1     -10.097   8.368  69.548  1.00  0.00    -0.195 NA 
HETATM    8  C   UNL     1     -11.160   6.502  70.748  1.00  0.00    -0.300 C  
HETATM    9  C   UNL     1     -10.356   6.915  69.500  1.00  0.00    -0.207 C  
ENDROOT
BRANCH   7  10
HETATM   10  C   UNL     1      -9.765   8.974  68.340  1.00  0.00    -0.156 A  
HETATM   11  C   UNL     1      -8.779   9.951  68.240  1.00  0.00    -0.119 A  
HETATM   12  C   UNL     1      -8.545  10.632  67.047  1.00  0.00    -0.128 A  
HETATM   13  C   UNL     1      -9.303  10.373  65.903  1.00  0.00    -0.182 A  
HETATM   14  C   UNL     1     -10.489   8.676  67.170  1.00  0.00    -0.360 A  
HETATM   15  C   UNL     1     -10.267   9.368  65.968  1.00  0.00    -0.204 A  
BRANCH  13  16
HETATM   16  O   UNL     1      -9.174  11.051  64.708  1.00  0.00    -0.205 OA 
BRANCH  16  17
HETATM   17  C   UNL     1     -10.407  11.589  64.222  1.00  0.00    -0.323 C  
BRANCH  17  18
HETATM   18  C   UNL     1     -10.497  13.108  64.274  1.00  0.00    -0.389 C  
HETATM   19  C   UNL     1     -11.787  13.662  63.737  1.00  0.00    -0.329 C  
HETATM   20  O   UNL     1     -11.987  14.857  64.487  1.00  0.00    -0.447 OA 
HETATM   21  C   UNL     1     -11.363  14.649  65.780  1.00  0.00    -0.340 C  
HETATM   22  O   UNL     1     -10.483  13.514  65.653  1.00  0.00    -0.280 OA 
BRANCH  21  23
HETATM   23  C   UNL     1     -10.517  15.865  66.167  1.00  0.00    -0.336 A  
HETATM   24 CL   UNL     1      -8.792  14.324  67.687  1.00  0.00    -0.185 Cl 
HETATM   25  C   UNL     1      -9.381  15.798  67.002  1.00  0.00    -0.220 A  
HETATM   26  C   UNL     1     -10.868  17.136  65.661  1.00  0.00    -0.050 A  
HETATM   27  C   UNL     1     -10.124  18.278  65.963  1.00  0.00    -0.278 A  
HETATM   28  C   UNL     1      -8.642  16.949  67.312  1.00  0.00    -0.212 A  
HETATM   29 CL   UNL     1      -8.085  19.583  67.147  1.00  0.00    -0.290 Cl 
HETATM   30  C   UNL     1      -9.012  18.180  66.787  1.00  0.00    -0.282 A  
ENDBRANCH  21  23
BRANCH  21  31
HETATM   31  C   UNL     1     -12.469  14.278  66.803  1.00  0.00    -0.101 C  
BRANCH  31  32
HETATM   32  N   UNL     1     -12.057  13.496  67.947  1.00  0.00    -0.323 NA 
HETATM   33  N   UNL     1     -11.751  12.959  70.079  1.00  0.00    -0.261 NA 
HETATM   34  C   UNL     1     -11.902  12.133  67.983  1.00  0.00    -0.285 A  
HETATM   35  C   UNL     1     -11.943  13.950  69.233  1.00  0.00    -0.357 A  
HETATM   36  C   UNL     1     -11.740  11.824  69.311  1.00  0.00    -0.335 A  
ENDBRANCH  31  32
ENDBRANCH  21  31
ENDBRANCH  17  18
ENDBRANCH  16  17
ENDBRANCH  13  16
ENDBRANCH   7  10
TORSDOF 7
ENDMDL
MODEL       19
REMARK 921   NORMALIZED FREE ENERGY PREDICTED BY IDOCK:   -7.23 KCAL/MOL
REMARK 922        TOTAL FREE ENERGY PREDICTED BY IDOCK:  -10.61 KCAL/MOL
REMARK 923 INTER-LIGAND FREE ENERGY PREDICTED BY IDOCK:   -9.40 KCAL/MOL
REMARK 924 INTRA-LIGAND FREE ENERGY PREDICTED BY IDOCK:   -1.21 KCAL/MOL
REMARK 927      BINDING AFFINITY PREDICTED BY RF-SCORE:    0.00 PKD
ROOT
HETATM    1  C   UNL     1      -8.775  20.329  67.271  1.00  0.00    -0.441 C  
HETATM    2  C   UNL     1      -8.609  19.122  66.385  1.00  0.00    -0.328 C  
HETATM    3  O   UNL     1      -7.764  19.121  65.490  1.00  0.00    -0.432 OA 
HETATM    4  N   UNL     1      -9.372  18.012  66.697  1.00  0.00    -0.284 N  
HETATM    5  C   UNL     1      -9.116  16.759  65.975  1.00  0.00    -0.190 C  
HETATM    6  C   UNL     1      -9.294  15.543  66.898  1.00  0.00    -0.233 C  
HETATM    7  N   UNL     1     -10.638  15.588  67.518  1.00  0.00    -0.290 NA 
HETATM    8  C   UNL     1     -10.651  18.047  67.427  1.00  0.00    -0.365 C  
HETATM    9  C   UNL     1     -10.850  16.808  68.322  1.00  0.00    -0.366 C  
ENDROOT
BRANCH   7  10
HETATM   10  C   UNL     1     -11.174  14.411  68.032  1.00  0.00    -0.280 A  
HETATM   11  C   UNL     1     -11.706  14.332  69.316  1.00  0.00    -0.363 A  
HETATM   12  C   UNL     1     -12.126  13.118  69.858  1.00  0.00    -0.357 A  
HETATM   13  C   UNL     1     -12.016  11.926  69.138  1.00  0.00    -0.276 A  
HETATM   14  C   UNL     1     -11.116  13.217  67.290  1.00  0.00    -0.305 A  
HETATM   15  C   UNL     1     -11.526  11.989  67.834  1.00  0.00    -0.396 A  
BRANCH  13  16
HETATM   16  O   UNL     1     -12.348  10.681  69.632  1.00  0.00    -0.277 OA 
BRANCH  16  17
HETATM   17  C   UNL     1     -12.668  10.686  71.026  1.00  0.00    -0.415 C  
BRANCH  17  18
HETATM   18  C   UNL     1     -12.160   9.476  71.795  1.00  0.00    -0.384 C  
HETATM   19  C   UNL     1     -13.119   8.318  71.816  1.00  0.00    -0.344 C  
HETATM   20  O   UNL     1     -12.275   7.173  71.887  1.00  0.00    -0.310 OA 
HETATM   21  C   UNL     1     -11.032   7.527  71.227  1.00  0.00    -0.242 C  
HETATM   22  O   UNL     1     -11.001   8.964  71.116  1.00  0.00    -0.245 OA 
BRANCH  21  23
HETATM   23  C   UNL     1      -9.833   7.089  72.072  1.00  0.00    -0.171 A  
HETATM   24 CL   UNL     1     -10.372   4.406  71.655  1.00  0.00    -0.178 Cl 
HETATM   25  C   UNL     1      -9.486   5.741  72.306  1.00  0.00    -0.144 A  
HETATM   26  C   UNL     1      -9.004   8.075  72.651  1.00  0.00    -0.280 A  
HETATM   27  C   UNL     1      -7.885   7.738  73.415  1.00  0.00    -0.184 A  
HETATM   28  C   UNL     1      -8.368   5.406  73.084  1.00  0.00    -0.118 A  
HETATM   29 CL   UNL     1      -6.184   5.986  74.555  1.00  0.00    -0.068 Cl 
HETATM   30  C   UNL     1      -7.570   6.404  73.628  1.00  0.00    -0.089 A  
ENDBRANCH  21  23
BRANCH  21  31
HETATM   31  C   UNL     1     -11.058   6.942  69.790  1.00  0.00    -0.271 C  
BRANCH  31  32
HETATM   32  N   UNL     1     -10.246   7.616  68.802  1.00  0.00    -0.196 NA 
HETATM   33  N   UNL     1      -8.453   8.103  67.588  1.00  0.00    -0.130 NA 
HETATM   34  C   UNL     1     -10.704   8.263  67.681  1.00  0.00    -0.125 A  
HETATM   35  C   UNL     1      -8.882   7.557  68.707  1.00  0.00    -0.131 A  
HETATM   36  C   UNL     1      -9.581   8.530  66.937  1.00  0.00    -0.197 A  
ENDBRANCH  31  32
ENDBRANCH  21  31
ENDBRANCH  17  18
ENDBRANCH  16  17
ENDBRANCH  13  16
ENDBRANCH   7  10
TORSDOF 7
ENDMDL
MODEL       20
REMARK 921   NORMALIZED FREE ENERGY PREDICTED BY IDOCK:   -7.20 KCAL/MOL
REMARK 922        TOTAL FREE ENERGY PREDICTED BY IDOCK:  -10.58 KCAL/MOL
REMARK 923 INTER-LIGAND FREE ENERGY PREDICTED BY IDOCK:   -9.43 KCAL/MOL
REMARK 924 INTRA-LIGAND FREE ENERGY PREDICTED BY IDOCK:   -1.15 KCAL/MOL
REMARK 927      BINDING AFFINITY PREDICTED BY RF-SCORE:    0.00 PKD
ROOT
HETATM    1  C   UNL     1      -6.811  21.081  67.812  1.00  0.00    -0.315 C  
HETATM    2  C   UNL     1      -7.023  19.852  68.656  1.00  0.00    -0.318 C  
HETATM    3  O   UNL     1      -6.664  19.839  69.833  1.00  0.00    -0.331 OA 
HETATM    4  N   UNL     1      -7.715  18.807  68.072  1.00  0.00    -0.257 N  
HETATM    5  C   UNL     1      -8.098  17.664  68.909  1.00  0.00    -0.162 C  
HETATM    6  C   UNL     1      -9.469  17.108  68.492  1.00  0.00    -0.282 C  
HETATM    7  N   UNL     1      -9.450  16.784  67.048  1.00  0.00    -0.227 NA 
HETATM    8  C   UNL     1      -7.800  18.559  66.622  1.00  0.00    -0.252 C  
HETATM    9  C   UNL     1      -9.159  17.964  66.207  1.00  0.00    -0.176 C  
ENDROOT
BRANCH   7  10
HETATM   10  C   UNL     1     -10.399  15.894  66.552  1.00  0.00    -0.300 A  
HETATM   11  C   UNL     1     -11.171  15.088  67.382  1.00  0.00    -0.337 A  
HETATM   12  C   UNL     1     -12.028  14.117  66.865  1.00  0.00    -0.479 A  
HETATM   13  C   UNL     1     -12.134  13.904  65.489  1.00  0.00    -0.407 A  
HETATM   14  C   UNL     1     -10.551  15.714  65.165  1.00  0.00    -0.449 A  
HETATM   15  C   UNL     1     -11.402  14.730  64.637  1.00  0.00    -0.370 A  
BRANCH  13  16
HETATM   16  O   UNL     1     -12.909  12.920  64.907  1.00  0.00    -0.701 OA 
BRANCH  16  17
HETATM   17  C   UNL     1     -12.374  12.428  63.674  1.00  0.00    -0.548 C  
BRANCH  17  18
HETATM   18  C   UNL     1     -11.314  11.348  63.833  1.00  0.00    -0.216 C  
HETATM   19  C   UNL     1      -9.960  11.741  63.309  1.00  0.00    -0.410 C  
HETATM   20  O   UNL     1      -9.050  11.023  64.137  1.00  0.00    -0.176 OA 
HETATM   21  C   UNL     1      -9.697  10.858  65.426  1.00  0.00    -0.238 C  
HETATM   22  O   UNL     1     -11.100  11.127  65.237  1.00  0.00    -0.147 OA 
BRANCH  21  23
HETATM   23  C   UNL     1      -9.551   9.415  65.917  1.00  0.00    -0.338 A  
HETATM   24 CL   UNL     1     -11.217   9.863  68.082  1.00  0.00    -0.213 Cl 
HETATM   25  C   UNL     1     -10.183   8.911  67.073  1.00  0.00    -0.275 A  
HETATM   26  C   UNL     1      -8.753   8.515  65.178  1.00  0.00    -0.156 A  
HETATM   27  C   UNL     1      -8.598   7.183  65.564  1.00  0.00    -0.093 A  
HETATM   28  C   UNL     1     -10.017   7.575  67.466  1.00  0.00    -0.228 A  
HETATM   29 CL   UNL     1      -9.055   5.072  67.176  1.00  0.00    -0.113 Cl 
HETATM   30  C   UNL     1      -9.232   6.717  66.707  1.00  0.00    -0.149 A  
ENDBRANCH  21  23
BRANCH  21  31
HETATM   31  C   UNL     1      -9.136  11.931  66.396  1.00  0.00    -0.208 C  
BRANCH  31  32
HETATM   32  N   UNL     1      -8.022  11.534  67.227  1.00  0.00    -0.145 NA 
HETATM   33  N   UNL     1      -5.918  11.350  67.908  1.00  0.00    -0.043 NA 
HETATM   34  C   UNL     1      -8.075  11.239  68.566  1.00  0.00    -0.148 A  
HETATM   35  C   UNL     1      -6.700  11.576  66.874  1.00  0.00    -0.139 A  
HETATM   36  C   UNL     1      -6.765  11.155  68.968  1.00  0.00    -0.085 A  
ENDBRANCH  31  32
ENDBRANCH  21  31
ENDBRANCH  17  18
ENDBRANCH  16  17
ENDBRANCH  13  16
ENDBRANCH   7  10
TORSDOF 7
ENDMDL
MODEL       21
REMARK 921   NORMALIZED FREE ENERGY PREDICTED BY IDOCK:   -7.19 KCAL/MOL
REMARK 922        TOTAL FREE ENERGY PREDICTED BY IDOCK:  -10.56 KCAL/MOL
REMARK 923 INTER-LIGAND FREE ENERGY PREDICTED BY IDOCK:   -9.52 KCAL/MOL
REMARK 924 INTRA-LIGAND FREE ENERGY PREDICTED BY IDOCK:   -1.04 KCAL/MOL
REMARK 927      BINDING AFFINITY PREDICTED BY RF-SCORE:    0.00 PKD
ROOT
HETATM    1  C   UNL     1     -11.166   5.008  73.126  1.00  0.00    -0.408 C  
HETATM    2  C   UNL     1     -10.450   4.676  71.843  1.00  0.00    -0.102 C  
HETATM    3  O   UNL     1     -10.154   3.510  71.581  1.00  0.00    -0.153 OA 
HETATM    4  N   UNL     1     -10.241   5.718  70.959  1.00  0.00    -0.207 N  
HETATM    5  C   UNL     1      -9.709   5.412  69.626  1.00  0.00    -0.177 C  
HETATM    6  C   UNL     1     -10.325   6.332  68.560  1.00  0.00    -0.203 C  
HETATM    7  N   UNL     1     -10.121   7.745  68.952  1.00  0.00    -0.190 NA 
HETATM    8  C   UNL     1     -10.165   7.141  71.337  1.00  0.00    -0.192 C  
HETATM    9  C   UNL     1     -10.745   8.068  70.251  1.00  0.00    -0.239 C  
ENDROOT
BRANCH   7  10
HETATM   10  C   UNL     1     -10.203   8.728  67.970  1.00  0.00    -0.213 A  
HETATM   11  C   UNL     1      -9.828   8.496  66.650  1.00  0.00    -0.342 A  
HETATM   12  C   UNL     1      -9.801   9.524  65.708  1.00  0.00    -0.363 A  
HETATM   13  C   UNL     1     -10.136  10.834  66.056  1.00  0.00    -0.249 A  
HETATM   14  C   UNL     1     -10.593  10.038  68.302  1.00  0.00    -0.264 A  
HETATM   15  C   UNL     1     -10.557  11.081  67.362  1.00  0.00    -0.276 A  
BRANCH  13  16
HETATM   16  O   UNL     1     -10.070  11.913  65.197  1.00  0.00    -0.250 OA 
BRANCH  16  17
HETATM   17  C   UNL     1     -10.922  12.998  65.576  1.00  0.00    -0.274 C  
BRANCH  17  18
HETATM   18  C   UNL     1     -10.196  14.311  65.830  1.00  0.00    -0.334 C  
HETATM   19  C   UNL     1     -10.885  15.512  65.244  1.00  0.00    -0.411 C  
HETATM   20  O   UNL     1     -10.536  16.574  66.128  1.00  0.00    -0.303 OA 
HETATM   21  C   UNL     1     -10.339  15.981  67.438  1.00  0.00    -0.294 C  
HETATM   22  O   UNL     1     -10.193  14.560  67.246  1.00  0.00    -0.252 OA 
BRANCH  21  23
HETATM   23  C   UNL     1      -9.052  16.509  68.076  1.00  0.00    -0.209 A  
HETATM   24 CL   UNL     1     -10.053  19.085  68.239  1.00  0.00    -0.436 Cl 
HETATM   25  C   UNL     1      -8.854  17.856  68.449  1.00  0.00    -0.289 A  
HETATM   26  C   UNL     1      -7.991  15.611  68.328  1.00  0.00    -0.129 A  
HETATM   27  C   UNL     1      -6.801  16.029  68.926  1.00  0.00    -0.143 A  
HETATM   28  C   UNL     1      -7.653  18.275  69.039  1.00  0.00    -0.161 A  
HETATM   29 CL   UNL     1      -5.178  17.874  70.032  1.00  0.00    -0.205 Cl 
HETATM   30  C   UNL     1      -6.637  17.360  69.281  1.00  0.00    -0.240 A  
ENDBRANCH  21  23
BRANCH  21  31
HETATM   31  C   UNL     1     -11.622  16.215  68.279  1.00  0.00    -0.181 C  
BRANCH  31  32
HETATM   32  N   UNL     1     -11.727  15.478  69.518  1.00  0.00    -0.343 NA 
HETATM   33  N   UNL     1     -11.857  15.127  71.706  1.00  0.00    -0.377 NA 
HETATM   34  C   UNL     1     -12.280  14.233  69.676  1.00  0.00    -0.323 A  
HETATM   35  C   UNL     1     -11.475  15.972  70.770  1.00  0.00    -0.414 A  
HETATM   36  C   UNL     1     -12.373  14.050  71.034  1.00  0.00    -0.369 A  
ENDBRANCH  31  32
ENDBRANCH  21  31
ENDBRANCH  17  18
ENDBRANCH  16  17
ENDBRANCH  13  16
ENDBRANCH   7  10
TORSDOF 7
ENDMDL
MODEL       22
REMARK 921   NORMALIZED FREE ENERGY PREDICTED BY IDOCK:   -7.13 KCAL/MOL
REMARK 922        TOTAL FREE ENERGY PREDICTED BY IDOCK:  -10.48 KCAL/MOL
REMARK 923 INTER-LIGAND FREE ENERGY PREDICTED BY IDOCK:   -9.22 KCAL/MOL
REMARK 924 INTRA-LIGAND FREE ENERGY PREDICTED BY IDOCK:   -1.26 KCAL/MOL
REMARK 927      BINDING AFFINITY PREDICTED BY RF-SCORE:    0.00 PKD
ROOT
HETATM    1  C   UNL     1      -9.661   4.110  70.790  1.00  0.00    -0.260 C  
HETATM    2  C   UNL     1     -10.195   5.438  71.258  1.00  0.00    -0.223 C  
HETATM    3  O   UNL     1     -10.894   5.505  72.269  1.00  0.00    -0.226 OA 
HETATM    4  N   UNL     1      -9.780   6.557  70.559  1.00  0.00    -0.172 N  
HETATM    5  C   UNL     1     -10.131   7.883  71.084  1.00  0.00    -0.184 C  
HETATM    6  C   UNL     1      -8.999   8.892  70.835  1.00  0.00    -0.222 C  
HETATM    7  N   UNL     1      -8.666   8.913  69.392  1.00  0.00    -0.139 NA 
HETATM    8  C   UNL     1      -9.327   6.555  69.157  1.00  0.00    -0.133 C  
HETATM    9  C   UNL     1      -8.221   7.595  68.896  1.00  0.00    -0.128 C  
ENDROOT
BRANCH   7  10
HETATM   10  C   UNL     1      -8.000  10.022  68.878  1.00  0.00    -0.101 A  
HETATM   11  C   UNL     1      -7.209  10.850  69.669  1.00  0.00    -0.098 A  
HETATM   12  C   UNL     1      -6.648  12.022  69.164  1.00  0.00    -0.107 A  
HETATM   13  C   UNL     1      -6.872  12.422  67.845  1.00  0.00    -0.099 A  
HETATM   14  C   UNL     1      -8.176  10.399  67.534  1.00  0.00    -0.114 A  
HETATM   15  C   UNL     1      -7.625  11.586  67.023  1.00  0.00    -0.154 A  
BRANCH  13  16
HETATM   16  O   UNL     1      -6.407  13.600  67.295  1.00  0.00    -0.300 OA 
BRANCH  16  17
HETATM   17  C   UNL     1      -7.351  14.673  67.363  1.00  0.00    -0.168 C  
BRANCH  17  18
HETATM   18  C   UNL     1      -8.362  14.553  68.494  1.00  0.00    -0.160 C  
HETATM   19  C   UNL     1      -8.837  15.874  69.031  1.00  0.00    -0.243 C  
HETATM   20  O   UNL     1     -10.167  15.609  69.469  1.00  0.00    -0.239 OA 
HETATM   21  C   UNL     1     -10.680  14.544  68.628  1.00  0.00    -0.253 C  
HETATM   22  O   UNL     1      -9.550  13.934  67.974  1.00  0.00    -0.205 OA 
BRANCH  21  23
HETATM   23  C   UNL     1     -11.371  13.475  69.480  1.00  0.00    -0.265 A  
HETATM   24 CL   UNL     1     -12.764  15.373  70.937  1.00  0.00    -0.479 Cl 
HETATM   25  C   UNL     1     -12.291  13.765  70.510  1.00  0.00    -0.359 A  
HETATM   26  C   UNL     1     -11.096  12.113  69.229  1.00  0.00    -0.229 A  
HETATM   27  C   UNL     1     -11.709  11.093  69.958  1.00  0.00    -0.438 A  
HETATM   28  C   UNL     1     -12.897  12.738  71.249  1.00  0.00    -0.355 A  
HETATM   29 CL   UNL     1     -13.378  10.154  71.854  1.00  0.00    -0.518 Cl 
HETATM   30  C   UNL     1     -12.609  11.409  70.965  1.00  0.00    -0.386 A  
ENDBRANCH  21  23
BRANCH  21  31
HETATM   31  C   UNL     1     -11.577  15.176  67.531  1.00  0.00    -0.257 C  
BRANCH  31  32
HETATM   32  N   UNL     1     -11.713  14.434  66.298  1.00  0.00    -0.381 NA 
HETATM   33  N   UNL     1     -12.668  13.169  64.745  1.00  0.00    -0.700 NA 
HETATM   34  C   UNL     1     -11.015  14.657  65.138  1.00  0.00    -0.386 A  
HETATM   35  C   UNL     1     -12.690  13.518  66.014  1.00  0.00    -0.245 A  
HETATM   36  C   UNL     1     -11.639  13.884  64.189  1.00  0.00    -0.298 A  
ENDBRANCH  31  32
ENDBRANCH  21  31
ENDBRANCH  17  18
ENDBRANCH  16  17
ENDBRANCH  13  16
ENDBRANCH   7  10
TORSDOF 7
ENDMDL
MODEL       23
REMARK 921   NORMALIZED FREE ENERGY PREDICTED BY IDOCK:   -7.12 KCAL/MOL
REMARK 922        TOTAL FREE ENERGY PREDICTED BY IDOCK:  -10.46 KCAL/MOL
REMARK 923 INTER-LIGAND FREE ENERGY PREDICTED BY IDOCK:  -10.08 KCAL/MOL
REMARK 924 INTRA-LIGAND FREE ENERGY PREDICTED BY IDOCK:   -0.38 KCAL/MOL
REMARK 927      BINDING AFFINITY PREDICTED BY RF-SCORE:    0.00 PKD
ROOT
HETATM    1  C   UNL     1      -9.715   2.254  71.955  1.00  0.00    -0.210 C  
HETATM    2  C   UNL     1      -9.682   3.114  70.719  1.00  0.00    -0.087 C  
HETATM    3  O   UNL     1      -9.444   2.612  69.621  1.00  0.00    -0.134 OA 
HETATM    4  N   UNL     1     -10.025   4.444  70.876  1.00  0.00    -0.194 N  
HETATM    5  C   UNL     1     -10.178   5.276  69.677  1.00  0.00    -0.278 C  
HETATM    6  C   UNL     1     -11.315   6.295  69.853  1.00  0.00    -0.434 C  
HETATM    7  N   UNL     1     -11.079   7.089  71.080  1.00  0.00    -0.254 NA 
HETATM    8  C   UNL     1      -9.908   5.201  72.135  1.00  0.00    -0.174 C  
HETATM    9  C   UNL     1     -11.024   6.251  72.294  1.00  0.00    -0.259 C  
ENDROOT
BRANCH   7  10
HETATM   10  C   UNL     1     -11.717   8.320  71.210  1.00  0.00    -0.283 A  
HETATM   11  C   UNL     1     -11.190   9.493  70.678  1.00  0.00    -0.364 A  
HETATM   12  C   UNL     1     -11.779  10.733  70.922  1.00  0.00    -0.334 A  
HETATM   13  C   UNL     1     -12.916  10.850  71.724  1.00  0.00    -0.451 A  
HETATM   14  C   UNL     1     -12.894   8.436  71.971  1.00  0.00    -0.389 A  
HETATM   15  C   UNL     1     -13.486   9.683  72.231  1.00  0.00    -0.488 A  
BRANCH  13  16
HETATM   16  O   UNL     1     -13.514  12.047  72.064  1.00  0.00    -0.447 OA 
BRANCH  16  17
HETATM   17  C   UNL     1     -12.696  13.190  71.797  1.00  0.00    -0.168 C  
BRANCH  17  18
HETATM   18  C   UNL     1     -12.773  13.701  70.366  1.00  0.00    -0.141 C  
HETATM   19  C   UNL     1     -12.997  15.183  70.258  1.00  0.00    -0.183 C  
HETATM   20  O   UNL     1     -12.345  15.542  69.043  1.00  0.00    -0.190 OA 
HETATM   21  C   UNL     1     -11.252  14.605  68.862  1.00  0.00    -0.267 C  
HETATM   22  O   UNL     1     -11.497  13.488  69.740  1.00  0.00    -0.248 OA 
BRANCH  21  23
HETATM   23  C   UNL     1     -11.229  14.081  67.423  1.00  0.00    -0.328 A  
HETATM   24 CL   UNL     1      -8.745  12.909  67.767  1.00  0.00    -0.176 Cl 
HETATM   25  C   UNL     1     -10.164  13.336  66.875  1.00  0.00    -0.250 A  
HETATM   26  C   UNL     1     -12.335  14.336  66.582  1.00  0.00    -0.320 A  
HETATM   27  C   UNL     1     -12.381  13.867  65.267  1.00  0.00    -0.485 A  
HETATM   28  C   UNL     1     -10.208  12.876  65.550  1.00  0.00    -0.299 A  
HETATM   29 CL   UNL     1     -11.378  12.546  63.143  1.00  0.00    -0.345 Cl 
HETATM   30  C   UNL     1     -11.317  13.138  64.756  1.00  0.00    -0.324 A  
ENDBRANCH  21  23
BRANCH  21  31
HETATM   31  C   UNL     1      -9.938  15.290  69.321  1.00  0.00    -0.251 C  
BRANCH  31  32
HETATM   32  N   UNL     1      -9.576  16.515  68.645  1.00  0.00    -0.232 NA 
HETATM   33  N   UNL     1      -9.385  18.698  68.289  1.00  0.00    -0.316 NA 
HETATM   34  C   UNL     1      -8.554  16.670  67.742  1.00  0.00    -0.192 A  
HETATM   35  C   UNL     1     -10.055  17.765  68.934  1.00  0.00    -0.350 A  
HETATM   36  C   UNL     1      -8.440  18.026  67.558  1.00  0.00    -0.237 A  
ENDBRANCH  31  32
ENDBRANCH  21  31
ENDBRANCH  17  18
ENDBRANCH  16  17
ENDBRANCH  13  16
ENDBRANCH   7  10
TORSDOF 7
ENDMDL
MODEL       24
REMARK 921   NORMALIZED FREE ENERGY PREDICTED BY IDOCK:   -7.06 KCAL/MOL
REMARK 922        TOTAL FREE ENERGY PREDICTED BY IDOCK:  -10.39 KCAL/MOL
REMARK 923 INTER-LIGAND FREE ENERGY PREDICTED BY IDOCK:   -9.31 KCAL/MOL
REMARK 924 INTRA-LIGAND FREE ENERGY PREDICTED BY IDOCK:   -1.08 KCAL/MOL
REMARK 927      BINDING AFFINITY PREDICTED BY RF-SCORE:    0.00 PKD
ROOT
HETATM    1  C   UNL     1      -9.190  20.477  67.265  1.00  0.00    -0.500 C  
HETATM    2  C   UNL     1      -8.769  19.258  66.486  1.00  0.00    -0.345 C  
HETATM    3  O   UNL     1      -7.832  19.323  65.691  1.00  0.00    -0.445 OA 
HETATM    4  N   UNL     1      -9.415  18.073  66.787  1.00  0.00    -0.283 N  
HETATM    5  C   UNL     1      -8.919  16.830  66.184  1.00  0.00    -0.260 C  
HETATM    6  C   UNL     1      -9.047  15.652  67.162  1.00  0.00    -0.210 C  
HETATM    7  N   UNL     1     -10.449  15.548  67.627  1.00  0.00    -0.273 NA 
HETATM    8  C   UNL     1     -10.765  17.974  67.369  1.00  0.00    -0.318 C  
HETATM    9  C   UNL     1     -10.907  16.769  68.319  1.00  0.00    -0.366 C  
ENDROOT
BRANCH   7  10
HETATM   10  C   UNL     1     -10.886  14.338  68.158  1.00  0.00    -0.244 A  
HETATM   11  C   UNL     1     -10.882  13.155  67.425  1.00  0.00    -0.269 A  
HETATM   12  C   UNL     1     -11.436  11.981  67.932  1.00  0.00    -0.396 A  
HETATM   13  C   UNL     1     -12.034  11.947  69.193  1.00  0.00    -0.276 A  
HETATM   14  C   UNL     1     -11.439  14.286  69.451  1.00  0.00    -0.337 A  
HETATM   15  C   UNL     1     -12.011  13.109  69.963  1.00  0.00    -0.391 A  
BRANCH  13  16
HETATM   16  O   UNL     1     -12.660  10.842  69.733  1.00  0.00    -0.264 OA 
BRANCH  16  17
HETATM   17  C   UNL     1     -12.030  10.352  70.921  1.00  0.00    -0.377 C  
BRANCH  17  18
HETATM   18  C   UNL     1     -10.730   9.598  70.680  1.00  0.00    -0.322 C  
HETATM   19  C   UNL     1     -10.191   8.905  71.900  1.00  0.00    -0.333 C  
HETATM   20  O   UNL     1      -9.506   7.770  71.377  1.00  0.00    -0.147 OA 
HETATM   21  C   UNL     1     -10.179   7.406  70.145  1.00  0.00    -0.205 C  
HETATM   22  O   UNL     1     -10.992   8.531  69.753  1.00  0.00    -0.219 OA 
BRANCH  21  23
HETATM   23  C   UNL     1      -9.159   7.147  69.033  1.00  0.00    -0.132 A  
HETATM   24 CL   UNL     1     -11.143   6.642  67.171  1.00  0.00    -0.470 Cl 
HETATM   25  C   UNL     1      -9.508   6.804  67.710  1.00  0.00    -0.118 A  
HETATM   26  C   UNL     1      -7.782   7.265  69.324  1.00  0.00    -0.107 A  
HETATM   27  C   UNL     1      -6.805   7.060  68.348  1.00  0.00    -0.074 A  
HETATM   28  C   UNL     1      -8.524   6.588  66.734  1.00  0.00    -0.113 A  
HETATM   29 CL   UNL     1      -5.979   6.486  65.848  1.00  0.00    -0.028 Cl 
HETATM   30  C   UNL     1      -7.180   6.723  67.055  1.00  0.00    -0.081 A  
ENDBRANCH  21  23
BRANCH  21  31
HETATM   31  C   UNL     1     -11.130   6.216  70.440  1.00  0.00    -0.352 C  
BRANCH  31  32
HETATM   32  N   UNL     1     -10.848   5.440  71.627  1.00  0.00    -0.203 NA 
HETATM   33  N   UNL     1     -11.204   4.465  73.589  1.00  0.00    -0.282 NA 
HETATM   34  C   UNL     1      -9.903   4.451  71.743  1.00  0.00    -0.185 A  
HETATM   35  C   UNL     1     -11.599   5.419  72.771  1.00  0.00    -0.226 A  
HETATM   36  C   UNL     1     -10.160   3.849  72.949  1.00  0.00    -0.156 A  
ENDBRANCH  31  32
ENDBRANCH  21  31
ENDBRANCH  17  18
ENDBRANCH  16  17
ENDBRANCH  13  16
ENDBRANCH   7  10
TORSDOF 7
ENDMDL
MODEL       25
REMARK 921   NORMALIZED FREE ENERGY PREDICTED BY IDOCK:   -7.06 KCAL/MOL
REMARK 922        TOTAL FREE ENERGY PREDICTED BY IDOCK:  -10.38 KCAL/MOL
REMARK 923 INTER-LIGAND FREE ENERGY PREDICTED BY IDOCK:   -9.36 KCAL/MOL
REMARK 924 INTRA-LIGAND FREE ENERGY PREDICTED BY IDOCK:   -1.02 KCAL/MOL
REMARK 927      BINDING AFFINITY PREDICTED BY RF-SCORE:    0.00 PKD
ROOT
HETATM    1  C   UNL     1     -10.593  17.559  65.777  1.00  0.00    -0.176 C  
HETATM    2  C   UNL     1     -11.097  16.404  64.952  1.00  0.00    -0.239 C  
HETATM    3  O   UNL     1     -11.585  16.602  63.840  1.00  0.00    -1.204 OA 
HETATM    4  N   UNL     1     -10.892  15.136  65.464  1.00  0.00    -0.343 N  
HETATM    5  C   UNL     1     -11.205  13.978  64.619  1.00  0.00    -0.374 C  
HETATM    6  C   UNL     1     -10.204  12.836  64.853  1.00  0.00    -0.272 C  
HETATM    7  N   UNL     1     -10.164  12.503  66.295  1.00  0.00    -0.243 NA 
HETATM    8  C   UNL     1     -10.726  14.822  66.895  1.00  0.00    -0.308 C  
HETATM    9  C   UNL     1      -9.753  13.651  67.129  1.00  0.00    -0.245 C  
ENDROOT
BRANCH   7  10
HETATM   10  C   UNL     1      -9.675  11.257  66.678  1.00  0.00    -0.196 A  
HETATM   11  C   UNL     1      -8.329  11.036  66.953  1.00  0.00    -0.138 A  
HETATM   12  C   UNL     1      -7.839   9.758  67.216  1.00  0.00    -0.098 A  
HETATM   13  C   UNL     1      -8.679   8.642  67.199  1.00  0.00    -0.128 A  
HETATM   14  C   UNL     1     -10.528  10.139  66.718  1.00  0.00    -0.270 A  
HETATM   15  C   UNL     1     -10.039   8.846  66.970  1.00  0.00    -0.331 A  
BRANCH  13  16
HETATM   16  O   UNL     1      -8.256   7.341  67.384  1.00  0.00    -0.114 OA 
BRANCH  16  17
HETATM   17  C   UNL     1      -7.222   7.212  68.365  1.00  0.00    -0.091 C  
BRANCH  17  18
HETATM   18  C   UNL     1      -7.722   6.929  69.774  1.00  0.00    -0.113 C  
HETATM   19  C   UNL     1      -8.045   8.165  70.567  1.00  0.00    -0.104 C  
HETATM   20  O   UNL     1      -9.091   7.751  71.441  1.00  0.00    -0.131 OA 
HETATM   21  C   UNL     1      -9.813   6.694  70.757  1.00  0.00    -0.183 C  
HETATM   22  O   UNL     1      -8.976   6.233  69.678  1.00  0.00    -0.134 OA 
BRANCH  21  23
HETATM   23  C   UNL     1     -10.062   5.516  71.703  1.00  0.00    -0.249 A  
HETATM   24 CL   UNL     1     -10.634   7.195  73.828  1.00  0.00    -0.387 Cl 
HETATM   25  C   UNL     1     -10.419   5.660  73.060  1.00  0.00    -0.216 A  
HETATM   26  C   UNL     1      -9.944   4.200  71.206  1.00  0.00    -0.216 A  
HETATM   27  C   UNL     1     -10.177   3.086  72.014  1.00  0.00    -0.108 A  
HETATM   28  C   UNL     1     -10.642   4.539  73.873  1.00  0.00    -0.335 A  
HETATM   29 CL   UNL     1     -10.831   1.889  74.339  1.00  0.00    -0.183 Cl 
HETATM   30  C   UNL     1     -10.527   3.259  73.346  1.00  0.00    -0.174 A  
ENDBRANCH  21  23
BRANCH  21  31
HETATM   31  C   UNL     1     -11.096   7.304  70.132  1.00  0.00    -0.258 C  
BRANCH  31  32
HETATM   32  N   UNL     1     -11.782   8.309  70.913  1.00  0.00    -0.269 NA 
HETATM   33  N   UNL     1     -12.475  10.325  71.530  1.00  0.00    -0.405 NA 
HETATM   34  C   UNL     1     -12.899   8.112  71.685  1.00  0.00    -0.326 A  
HETATM   35  C   UNL     1     -11.558   9.658  70.861  1.00  0.00    -0.344 A  
HETATM   36  C   UNL     1     -13.322   9.372  72.033  1.00  0.00    -0.450 A  
ENDBRANCH  31  32
ENDBRANCH  21  31
ENDBRANCH  17  18
ENDBRANCH  16  17
ENDBRANCH  13  16
ENDBRANCH   7  10
TORSDOF 7
ENDMDL
MODEL       26
REMARK 921   NORMALIZED FREE ENERGY PREDICTED BY IDOCK:   -7.05 KCAL/MOL
REMARK 922        TOTAL FREE ENERGY PREDICTED BY IDOCK:  -10.36 KCAL/MOL
REMARK 923 INTER-LIGAND FREE ENERGY PREDICTED BY IDOCK:   -9.58 KCAL/MOL
REMARK 924 INTRA-LIGAND FREE ENERGY PREDICTED BY IDOCK:   -0.78 KCAL/MOL
REMARK 927      BINDING AFFINITY PREDICTED BY RF-SCORE:    0.00 PKD
ROOT
HETATM    1  C   UNL     1      -9.666   2.911  72.555  1.00  0.00    -0.204 C  
HETATM    2  C   UNL     1     -10.417   4.217  72.541  1.00  0.00    -0.133 C  
HETATM    3  O   UNL     1     -11.013   4.601  73.547  1.00  0.00    -0.263 OA 
HETATM    4  N   UNL     1     -10.315   4.981  71.393  1.00  0.00    -0.203 N  
HETATM    5  C   UNL     1     -10.881   6.335  71.398  1.00  0.00    -0.261 C  
HETATM    6  C   UNL     1     -10.015   7.300  70.573  1.00  0.00    -0.190 C  
HETATM    7  N   UNL     1      -9.835   6.755  69.208  1.00  0.00    -0.154 NA 
HETATM    8  C   UNL     1     -10.010   4.451  70.052  1.00  0.00    -0.175 C  
HETATM    9  C   UNL     1      -9.175   5.434  69.208  1.00  0.00    -0.116 C  
ENDROOT
BRANCH   7  10
HETATM   10  C   UNL     1      -9.468   7.626  68.186  1.00  0.00    -0.145 A  
HETATM   11  C   UNL     1      -8.195   8.183  68.102  1.00  0.00    -0.129 A  
HETATM   12  C   UNL     1      -7.882   9.146  67.143  1.00  0.00    -0.102 A  
HETATM   13  C   UNL     1      -8.840   9.603  66.236  1.00  0.00    -0.151 A  
HETATM   14  C   UNL     1     -10.414   8.048  67.234  1.00  0.00    -0.384 A  
HETATM   15  C   UNL     1     -10.110   9.027  66.274  1.00  0.00    -0.311 A  
BRANCH  13  16
HETATM   16  O   UNL     1      -8.624  10.599  65.305  1.00  0.00    -0.174 OA 
BRANCH  16  17
HETATM   17  C   UNL     1      -9.067  11.889  65.736  1.00  0.00    -0.038 C  
BRANCH  17  18
HETATM   18  C   UNL     1      -9.392  11.981  67.220  1.00  0.00    -0.180 C  
HETATM   19  C   UNL     1      -8.912  13.248  67.873  1.00  0.00    -0.199 C  
HETATM   20  O   UNL     1      -9.858  13.478  68.913  1.00  0.00    -0.098 OA 
HETATM   21  C   UNL     1     -11.117  12.909  68.468  1.00  0.00    -0.267 C  
HETATM   22  O   UNL     1     -10.821  12.025  67.368  1.00  0.00    -0.224 OA 
BRANCH  21  23
HETATM   23  C   UNL     1     -11.754  12.079  69.586  1.00  0.00    -0.405 A  
HETATM   24 CL   UNL     1     -12.553  14.342  70.966  1.00  0.00    -0.405 Cl 
HETATM   25  C   UNL     1     -12.395  12.639  70.712  1.00  0.00    -0.283 A  
HETATM   26  C   UNL     1     -11.720  10.670  69.501  1.00  0.00    -0.356 A  
HETATM   27  C   UNL     1     -12.301   9.861  70.478  1.00  0.00    -0.229 A  
HETATM   28  C   UNL     1     -12.968  11.822  71.698  1.00  0.00    -0.467 A  
HETATM   29 CL   UNL     1     -13.655   9.445  72.771  1.00  0.00    -0.322 Cl 
HETATM   30  C   UNL     1     -12.925  10.440  71.574  1.00  0.00    -0.458 A  
ENDBRANCH  21  23
BRANCH  21  31
HETATM   31  C   UNL     1     -12.009  14.056  67.925  1.00  0.00    -0.351 C  
BRANCH  31  32
HETATM   32  N   UNL     1     -11.856  14.389  66.527  1.00  0.00    -0.396 NA 
HETATM   33  N   UNL     1     -12.419  14.666  64.398  1.00  0.00    -0.653 NA 
HETATM   34  C   UNL     1     -10.942  15.265  65.998  1.00  0.00    -0.317 A  
HETATM   35  C   UNL     1     -12.717  14.044  65.520  1.00  0.00    -0.486 A  
HETATM   36  C   UNL     1     -11.326  15.439  64.691  1.00  0.00    -0.355 A  
ENDBRANCH  31  32
ENDBRANCH  21  31
ENDBRANCH  17  18
ENDBRANCH  16  17
ENDBRANCH  13  16
ENDBRANCH   7  10
TORSDOF 7
ENDMDL
MODEL       27
REMARK 921   NORMALIZED FREE ENERGY PREDICTED BY IDOCK:   -7.03 KCAL/MOL
REMARK 922        TOTAL FREE ENERGY PREDICTED BY IDOCK:  -10.33 KCAL/MOL
REMARK 923 INTER-LIGAND FREE ENERGY PREDICTED BY IDOCK:  -10.05 KCAL/MOL
REMARK 924 INTRA-LIGAND FREE ENERGY PREDICTED BY IDOCK:   -0.28 KCAL/MOL
REMARK 927      BINDING AFFINITY PREDICTED BY RF-SCORE:    0.00 PKD
ROOT
HETATM    1  C   UNL     1     -10.548   1.978  73.139  1.00  0.00    -0.235 C  
HETATM    2  C   UNL     1     -10.000   2.675  71.921  1.00  0.00    -0.142 C  
HETATM    3  O   UNL     1      -9.450   2.028  71.031  1.00  0.00    -0.121 OA 
HETATM    4  N   UNL     1     -10.237   4.034  71.823  1.00  0.00    -0.120 N  
HETATM    5  C   UNL     1      -9.878   4.721  70.576  1.00  0.00    -0.230 C  
HETATM    6  C   UNL     1     -10.894   5.824  70.241  1.00  0.00    -0.303 C  
HETATM    7  N   UNL     1     -11.016   6.747  71.393  1.00  0.00    -0.236 NA 
HETATM    8  C   UNL     1     -10.484   4.931  72.966  1.00  0.00    -0.199 C  
HETATM    9  C   UNL     1     -11.472   6.063  72.620  1.00  0.00    -0.253 C  
ENDROOT
BRANCH   7  10
HETATM   10  C   UNL     1     -11.528   8.023  71.174  1.00  0.00    -0.276 A  
HETATM   11  C   UNL     1     -10.961   8.907  70.261  1.00  0.00    -0.266 A  
HETATM   12  C   UNL     1     -11.412  10.221  70.143  1.00  0.00    -0.383 A  
HETATM   13  C   UNL     1     -12.443  10.709  70.948  1.00  0.00    -0.397 A  
HETATM   14  C   UNL     1     -12.604   8.501  71.944  1.00  0.00    -0.400 A  
HETATM   15  C   UNL     1     -13.055   9.827  71.839  1.00  0.00    -0.544 A  
BRANCH  13  16
HETATM   16  O   UNL     1     -12.897  12.012  70.935  1.00  0.00    -0.238 OA 
BRANCH  16  17
HETATM   17  C   UNL     1     -11.923  12.951  70.467  1.00  0.00    -0.198 C  
BRANCH  17  18
HETATM   18  C   UNL     1     -11.917  13.154  68.958  1.00  0.00    -0.285 C  
HETATM   19  C   UNL     1     -12.228  14.561  68.531  1.00  0.00    -0.128 C  
HETATM   20  O   UNL     1     -11.504  14.718  67.313  1.00  0.00    -0.350 OA 
HETATM   21  C   UNL     1     -10.342  13.854  67.403  1.00  0.00    -0.252 C  
HETATM   22  O   UNL     1     -10.583  12.923  68.476  1.00  0.00    -0.245 OA 
BRANCH  21  23
HETATM   23  C   UNL     1     -10.168  13.054  66.109  1.00  0.00    -0.288 A  
HETATM   24 CL   UNL     1     -11.450  14.992  64.604  1.00  0.00    -0.401 Cl 
HETATM   25  C   UNL     1     -10.632  13.488  64.849  1.00  0.00    -0.397 A  
HETATM   26  C   UNL     1      -9.497  11.813  66.154  1.00  0.00    -0.240 A  
HETATM   27  C   UNL     1      -9.291  11.047  65.005  1.00  0.00    -0.250 A  
HETATM   28  C   UNL     1     -10.433  12.711  63.698  1.00  0.00    -0.348 A  
HETATM   29 CL   UNL     1      -9.492  10.566  62.361  1.00  0.00    -0.269 Cl 
HETATM   30  C   UNL     1      -9.759  11.500  63.780  1.00  0.00    -0.276 A  
ENDBRANCH  21  23
BRANCH  21  31
HETATM   31  C   UNL     1      -9.117  14.721  67.796  1.00  0.00    -0.186 C  
BRANCH  31  32
HETATM   32  N   UNL     1      -9.166  16.118  67.427  1.00  0.00    -0.206 NA 
HETATM   33  N   UNL     1      -9.177  17.906  66.112  1.00  0.00    -0.501 NA 
HETATM   34  C   UNL     1      -9.738  17.130  68.157  1.00  0.00    -0.276 A  
HETATM   35  C   UNL     1      -8.831  16.639  66.206  1.00  0.00    -0.312 A  
HETATM   36  C   UNL     1      -9.756  18.215  67.316  1.00  0.00    -0.297 A  
ENDBRANCH  31  32
ENDBRANCH  21  31
ENDBRANCH  17  18
ENDBRANCH  16  17
ENDBRANCH  13  16
ENDBRANCH   7  10
TORSDOF 7
ENDMDL
MODEL       28
REMARK 921   NORMALIZED FREE ENERGY PREDICTED BY IDOCK:   -7.02 KCAL/MOL
REMARK 922        TOTAL FREE ENERGY PREDICTED BY IDOCK:  -10.32 KCAL/MOL
REMARK 923 INTER-LIGAND FREE ENERGY PREDICTED BY IDOCK:   -9.79 KCAL/MOL
REMARK 924 INTRA-LIGAND FREE ENERGY PREDICTED BY IDOCK:   -0.53 KCAL/MOL
REMARK 927      BINDING AFFINITY PREDICTED BY RF-SCORE:    0.00 PKD
ROOT
HETATM    1  C   UNL     1     -10.372  20.042  66.736  1.00  0.00    -0.564 C  
HETATM    2  C   UNL     1      -8.958  19.559  66.546  1.00  0.00    -0.361 C  
HETATM    3  O   UNL     1      -8.030  20.364  66.479  1.00  0.00    -0.245 OA 
HETATM    4  N   UNL     1      -8.762  18.190  66.552  1.00  0.00    -0.275 N  
HETATM    5  C   UNL     1      -7.386  17.677  66.548  1.00  0.00    -0.261 C  
HETATM    6  C   UNL     1      -7.269  16.402  67.398  1.00  0.00    -0.160 C  
HETATM    7  N   UNL     1      -8.257  15.405  66.929  1.00  0.00    -0.238 NA 
HETATM    8  C   UNL     1      -9.788  17.190  66.206  1.00  0.00    -0.291 C  
HETATM    9  C   UNL     1      -9.647  15.895  67.029  1.00  0.00    -0.223 C  
ENDROOT
BRANCH   7  10
HETATM   10  C   UNL     1      -8.053  14.065  67.246  1.00  0.00    -0.156 A  
HETATM   11  C   UNL     1      -8.541  13.028  66.456  1.00  0.00     0.131 A  
HETATM   12  C   UNL     1      -8.433  11.696  66.852  1.00  0.00    -0.168 A  
HETATM   13  C   UNL     1      -7.842  11.347  68.068  1.00  0.00    -0.121 A  
HETATM   14  C   UNL     1      -7.408  13.706  68.444  1.00  0.00    -0.118 A  
HETATM   15  C   UNL     1      -7.307  12.367  68.855  1.00  0.00    -0.031 A  
BRANCH  13  16
HETATM   16  O   UNL     1      -7.758  10.059  68.556  1.00  0.00    -0.085 OA 
BRANCH  16  17
HETATM   17  C   UNL     1      -8.988   9.576  69.106  1.00  0.00    -0.148 C  
BRANCH  17  18
HETATM   18  C   UNL     1     -10.120  10.594  69.109  1.00  0.00    -0.216 C  
HETATM   19  C   UNL     1     -11.246  10.258  68.172  1.00  0.00    -0.229 C  
HETATM   20  O   UNL     1     -12.396  10.817  68.801  1.00  0.00    -0.435 OA 
HETATM   21  C   UNL     1     -12.144  10.794  70.229  1.00  0.00    -0.348 C  
HETATM   22  O   UNL     1     -10.729  10.589  70.411  1.00  0.00    -0.217 OA 
BRANCH  21  23
HETATM   23  C   UNL     1     -12.515  12.139  70.860  1.00  0.00    -0.374 A  
HETATM   24 CL   UNL     1     -11.231  13.560  68.861  1.00  0.00    -0.297 Cl 
HETATM   25  C   UNL     1     -12.145  13.389  70.319  1.00  0.00    -0.349 A  
HETATM   26  C   UNL     1     -13.281  12.153  72.046  1.00  0.00    -0.496 A  
HETATM   27  C   UNL     1     -13.666  13.348  72.657  1.00  0.00    -0.512 A  
HETATM   28  C   UNL     1     -12.525  14.587  70.942  1.00  0.00    -0.415 A  
HETATM   29 CL   UNL     1     -13.775  16.034  72.843  1.00  0.00    -0.590 Cl 
HETATM   30  C   UNL     1     -13.288  14.561  72.101  1.00  0.00    -0.381 A  
ENDBRANCH  21  23
BRANCH  21  31
HETATM   31  C   UNL     1     -12.880   9.570  70.836  1.00  0.00    -0.141 C  
BRANCH  31  32
HETATM   32  N   UNL     1     -12.051   8.489  71.319  1.00  0.00    -0.292 NA 
HETATM   33  N   UNL     1     -11.038   7.157  72.777  1.00  0.00    -0.293 NA 
HETATM   34  C   UNL     1     -11.749   7.334  70.641  1.00  0.00    -0.275 A  
HETATM   35  C   UNL     1     -11.589   8.340  72.599  1.00  0.00    -0.349 A  
HETATM   36  C   UNL     1     -11.148   6.520  71.568  1.00  0.00    -0.265 A  
ENDBRANCH  31  32
ENDBRANCH  21  31
ENDBRANCH  17  18
ENDBRANCH  16  17
ENDBRANCH  13  16
ENDBRANCH   7  10
TORSDOF 7
ENDMDL
MODEL       29
REMARK 921   NORMALIZED FREE ENERGY PREDICTED BY IDOCK:   -6.99 KCAL/MOL
REMARK 922        TOTAL FREE ENERGY PREDICTED BY IDOCK:  -10.27 KCAL/MOL
REMARK 923 INTER-LIGAND FREE ENERGY PREDICTED BY IDOCK:   -9.09 KCAL/MOL
REMARK 924 INTRA-LIGAND FREE ENERGY PREDICTED BY IDOCK:   -1.18 KCAL/MOL
REMARK 927      BINDING AFFINITY PREDICTED BY RF-SCORE:    0.00 PKD
ROOT
HETATM    1  C   UNL     1      -9.098   3.428  69.985  1.00  0.00    -0.199 C  
HETATM    2  C   UNL     1      -8.545   3.908  68.669  1.00  0.00    -0.094 C  
HETATM    3  O   UNL     1      -7.978   3.121  67.911  1.00  0.00    -0.073 OA 
HETATM    4  N   UNL     1      -8.795   5.225  68.332  1.00  0.00    -0.101 N  
HETATM    5  C   UNL     1      -8.430   5.687  66.987  1.00  0.00    -0.110 C  
HETATM    6  C   UNL     1      -9.454   6.702  66.455  1.00  0.00    -0.152 C  
HETATM    7  N   UNL     1      -9.597   7.811  67.426  1.00  0.00    -0.145 NA 
HETATM    8  C   UNL     1      -9.064   6.305  69.297  1.00  0.00    -0.134 C  
HETATM    9  C   UNL     1     -10.059   7.347  68.750  1.00  0.00    -0.179 C  
ENDROOT
BRANCH   7  10
HETATM   10  C   UNL     1     -10.121   9.022  66.982  1.00  0.00    -0.250 A  
HETATM   11  C   UNL     1      -9.887   9.511  65.700  1.00  0.00    -0.343 A  
HETATM   12  C   UNL     1     -10.316  10.779  65.313  1.00  0.00    -0.327 A  
HETATM   13  C   UNL     1     -10.987  11.620  66.204  1.00  0.00    -0.288 A  
HETATM   14  C   UNL     1     -10.846   9.850  67.858  1.00  0.00    -0.312 A  
HETATM   15  C   UNL     1     -11.270  11.134  67.480  1.00  0.00    -0.369 A  
BRANCH  13  16
HETATM   16  O   UNL     1     -11.382  12.911  65.915  1.00  0.00    -0.293 OA 
BRANCH  16  17
HETATM   17  C   UNL     1     -10.595  13.534  64.896  1.00  0.00    -0.397 C  
BRANCH  17  18
HETATM   18  C   UNL     1     -10.121  14.939  65.236  1.00  0.00    -0.345 C  
HETATM   19  C   UNL     1     -11.053  16.026  64.776  1.00  0.00    -0.365 C  
HETATM   20  O   UNL     1     -10.871  17.064  65.735  1.00  0.00    -0.209 OA 
HETATM   21  C   UNL     1     -10.503  16.421  66.983  1.00  0.00    -0.291 C  
HETATM   22  O   UNL     1     -10.098  15.074  66.667  1.00  0.00    -0.250 OA 
BRANCH  21  23
HETATM   23  C   UNL     1      -9.311  17.139  67.623  1.00  0.00    -0.239 A  
HETATM   24 CL   UNL     1     -10.686  19.536  67.771  1.00  0.00    -0.540 Cl 
HETATM   25  C   UNL     1      -9.319  18.501  67.990  1.00  0.00    -0.301 A  
HETATM   26  C   UNL     1      -8.130  16.410  67.882  1.00  0.00    -0.164 A  
HETATM   27  C   UNL     1      -7.018  17.003  68.481  1.00  0.00    -0.197 A  
HETATM   28  C   UNL     1      -8.195  19.097  68.582  1.00  0.00    -0.404 A  
HETATM   29 CL   UNL     1      -5.692  19.074  69.584  1.00  0.00    -0.238 Cl 
HETATM   30  C   UNL     1      -7.055  18.345  68.831  1.00  0.00    -0.276 A  
ENDBRANCH  21  23
BRANCH  21  31
HETATM   31  C   UNL     1     -11.766  16.337  67.881  1.00  0.00     0.201 C  
BRANCH  31  32
HETATM   32  N   UNL     1     -11.625  15.626  69.131  1.00  0.00    -0.361 NA 
HETATM   33  N   UNL     1     -11.362  15.321  71.314  1.00  0.00    -0.363 NA 
HETATM   34  C   UNL     1     -12.089  14.363  69.402  1.00  0.00    -0.297 A  
HETATM   35  C   UNL     1     -11.183  16.158  70.313  1.00  0.00    -0.381 A  
HETATM   36  C   UNL     1     -11.940  14.209  70.759  1.00  0.00    -0.306 A  
ENDBRANCH  31  32
ENDBRANCH  21  31
ENDBRANCH  17  18
ENDBRANCH  16  17
ENDBRANCH  13  16
ENDBRANCH   7  10
TORSDOF 7
ENDMDL
MODEL       30
REMARK 921   NORMALIZED FREE ENERGY PREDICTED BY IDOCK:   -6.93 KCAL/MOL
REMARK 922        TOTAL FREE ENERGY PREDICTED BY IDOCK:  -10.20 KCAL/MOL
REMARK 923 INTER-LIGAND FREE ENERGY PREDICTED BY IDOCK:   -9.34 KCAL/MOL
REMARK 924 INTRA-LIGAND FREE ENERGY PREDICTED BY IDOCK:   -0.86 KCAL/MOL
REMARK 927      BINDING AFFINITY PREDICTED BY RF-SCORE:    0.00 PKD
ROOT
HETATM    1  C   UNL     1     -10.654  18.785  65.905  1.00  0.00    -0.405 C  
HETATM    2  C   UNL     1     -10.443  18.577  67.382  1.00  0.00    -0.419 C  
HETATM    3  O   UNL     1     -10.265  19.541  68.125  1.00  0.00    -0.403 OA 
HETATM    4  N   UNL     1     -10.560  17.281  67.851  1.00  0.00    -0.379 N  
HETATM    5  C   UNL     1     -10.539  17.055  69.301  1.00  0.00    -0.276 C  
HETATM    6  C   UNL     1     -11.491  15.915  69.697  1.00  0.00    -0.346 C  
HETATM    7  N   UNL     1     -11.155  14.701  68.919  1.00  0.00    -0.243 NA 
HETATM    8  C   UNL     1     -10.349  16.069  67.040  1.00  0.00    -0.292 C  
HETATM    9  C   UNL     1     -11.275  14.912  67.462  1.00  0.00    -0.328 C  
ENDROOT
BRANCH   7  10
HETATM   10  C   UNL     1     -11.578  13.465  69.398  1.00  0.00    -0.307 A  
HETATM   11  C   UNL     1     -11.472  12.297  68.648  1.00  0.00    -0.355 A  
HETATM   12  C   UNL     1     -12.011  11.092  69.095  1.00  0.00    -0.394 A  
HETATM   13  C   UNL     1     -12.695  11.010  70.310  1.00  0.00    -0.183 A  
HETATM   14  C   UNL     1     -12.220  13.366  70.647  1.00  0.00    -0.427 A  
HETATM   15  C   UNL     1     -12.776  12.157  71.097  1.00  0.00    -0.351 A  
BRANCH  13  16
HETATM   16  O   UNL     1     -13.311   9.870  70.785  1.00  0.00    -0.313 OA 
BRANCH  16  17
HETATM   17  C   UNL     1     -12.762   9.396  72.019  1.00  0.00    -0.403 C  
BRANCH  17  18
HETATM   18  C   UNL     1     -11.326   8.901  71.921  1.00  0.00    -0.376 C  
HETATM   19  C   UNL     1     -11.013   7.752  72.838  1.00  0.00    -0.407 C  
HETATM   20  O   UNL     1     -10.010   7.019  72.141  1.00  0.00    -0.166 OA 
HETATM   21  C   UNL     1     -10.246   7.229  70.725  1.00  0.00    -0.197 C  
HETATM   22  O   UNL     1     -11.121   8.368  70.602  1.00  0.00    -0.251 OA 
BRANCH  21  23
HETATM   23  C   UNL     1      -8.934   7.559  70.007  1.00  0.00    -0.144 A  
HETATM   24 CL   UNL     1      -7.663   5.340  71.066  1.00  0.00    -0.094 Cl 
HETATM   25  C   UNL     1      -7.762   6.780  70.114  1.00  0.00    -0.101 A  
HETATM   26  C   UNL     1      -8.874   8.698  69.173  1.00  0.00    -0.137 A  
HETATM   27  C   UNL     1      -7.713   9.039  68.478  1.00  0.00    -0.097 A  
HETATM   28  C   UNL     1      -6.594   7.132  69.422  1.00  0.00    -0.044 A  
HETATM   29 CL   UNL     1      -5.150   8.662  67.734  1.00  0.00    -0.034 Cl 
HETATM   30  C   UNL     1      -6.577   8.253  68.603  1.00  0.00    -0.054 A  
ENDBRANCH  21  23
BRANCH  21  31
HETATM   31  C   UNL     1     -10.996   5.992  70.164  1.00  0.00    -0.359 C  
BRANCH  31  32
HETATM   32  N   UNL     1     -10.748   5.656  68.780  1.00  0.00    -0.229 NA 
HETATM   33  N   UNL     1     -10.588   5.937  66.584  1.00  0.00    -0.274 NA 
HETATM   34  C   UNL     1      -9.919   4.662  68.324  1.00  0.00    -0.062 A  
HETATM   35  C   UNL     1     -11.138   6.389  67.692  1.00  0.00    -0.289 A  
HETATM   36  C   UNL     1      -9.816   4.873  66.971  1.00  0.00    -0.193 A  
ENDBRANCH  31  32
ENDBRANCH  21  31
ENDBRANCH  17  18
ENDBRANCH  16  17
ENDBRANCH  13  16
ENDBRANCH   7  10
TORSDOF 7
ENDMDL
MODEL       31
REMARK 921   NORMALIZED FREE ENERGY PREDICTED BY IDOCK:   -6.91 KCAL/MOL
REMARK 922        TOTAL FREE ENERGY PREDICTED BY IDOCK:  -10.16 KCAL/MOL
REMARK 923 INTER-LIGAND FREE ENERGY PREDICTED BY IDOCK:   -9.07 KCAL/MOL
REMARK 924 INTRA-LIGAND FREE ENERGY PREDICTED BY IDOCK:   -1.09 KCAL/MOL
REMARK 927      BINDING AFFINITY PREDICTED BY RF-SCORE:    0.00 PKD
ROOT
HETATM    1  C   UNL     1      -9.658   3.085  70.520  1.00  0.00    -0.187 C  
HETATM    2  C   UNL     1      -9.327   3.061  69.050  1.00  0.00    -0.156 C  
HETATM    3  O   UNL     1      -9.310   1.995  68.436  1.00  0.00    -0.167 OA 
HETATM    4  N   UNL     1      -9.149   4.285  68.432  1.00  0.00    -0.119 N  
HETATM    5  C   UNL     1      -9.001   4.319  66.972  1.00  0.00    -0.123 C  
HETATM    6  C   UNL     1      -9.675   5.565  66.377  1.00  0.00    -0.163 C  
HETATM    7  N   UNL     1      -9.141   6.777  67.040  1.00  0.00    -0.127 NA 
HETATM    8  C   UNL     1      -8.739   5.523  69.118  1.00  0.00    -0.103 C  
HETATM    9  C   UNL     1      -9.382   6.778  68.497  1.00  0.00    -0.126 C  
ENDROOT
BRANCH   7  10
HETATM   10  C   UNL     1      -9.273   8.003  66.393  1.00  0.00    -0.194 A  
HETATM   11  C   UNL     1     -10.181   8.972  66.810  1.00  0.00    -0.341 A  
HETATM   12  C   UNL     1     -10.386  10.141  66.079  1.00  0.00    -0.234 A  
HETATM   13  C   UNL     1      -9.697  10.382  64.888  1.00  0.00    -0.309 A  
HETATM   14  C   UNL     1      -8.541   8.275  65.223  1.00  0.00    -0.159 A  
HETATM   15  C   UNL     1      -8.751   9.445  64.475  1.00  0.00    -0.233 A  
BRANCH  13  16
HETATM   16  O   UNL     1      -9.895  11.482  64.079  1.00  0.00    -0.255 OA 
BRANCH  16  17
HETATM   17  C   UNL     1     -11.217  12.025  64.166  1.00  0.00    -0.373 C  
BRANCH  17  18
HETATM   18  C   UNL     1     -11.283  13.433  64.737  1.00  0.00    -0.345 C  
HETATM   19  C   UNL     1     -12.443  13.661  65.667  1.00  0.00    -0.496 C  
HETATM   20  O   UNL     1     -11.963  14.641  66.583  1.00  0.00    -0.368 OA 
HETATM   21  C   UNL     1     -10.528  14.453  66.682  1.00  0.00    -0.274 C  
HETATM   22  O   UNL     1     -10.124  13.643  65.560  1.00  0.00    -0.298 OA 
BRANCH  21  23
HETATM   23  C   UNL     1      -9.803  15.798  66.582  1.00  0.00    -0.266 A  
HETATM   24 CL   UNL     1      -7.371  14.670  67.269  1.00  0.00    -0.191 Cl 
HETATM   25  C   UNL     1      -8.425  15.969  66.830  1.00  0.00    -0.260 A  
HETATM   26  C   UNL     1     -10.536  16.947  66.210  1.00  0.00    -0.263 A  
HETATM   27  C   UNL     1      -9.927  18.197  66.083  1.00  0.00    -0.301 A  
HETATM   28  C   UNL     1      -7.818  17.228  66.712  1.00  0.00    -0.278 A  
HETATM   29 CL   UNL     1      -7.815  19.868  66.162  1.00  0.00    -0.337 Cl 
HETATM   30  C   UNL     1      -8.570  18.333  66.334  1.00  0.00    -0.242 A  
ENDBRANCH  21  23
BRANCH  21  31
HETATM   31  C   UNL     1     -10.227  13.651  67.976  1.00  0.00    -0.248 C  
BRANCH  31  32
HETATM   32  N   UNL     1     -11.151  13.825  69.075  1.00  0.00    -0.256 NA 
HETATM   33  N   UNL     1     -12.483  13.266  70.759  1.00  0.00    -0.349 NA 
HETATM   34  C   UNL     1     -11.288  14.951  69.848  1.00  0.00    -0.277 A  
HETATM   35  C   UNL     1     -11.902  12.840  69.657  1.00  0.00    -0.317 A  
HETATM   36  C   UNL     1     -12.093  14.573  70.893  1.00  0.00    -0.336 A  
ENDBRANCH  31  32
ENDBRANCH  21  31
ENDBRANCH  17  18
ENDBRANCH  16  17
ENDBRANCH  13  16
ENDBRANCH   7  10
TORSDOF 7
ENDMDL
MODEL       32
REMARK 921   NORMALIZED FREE ENERGY PREDICTED BY IDOCK:   -6.89 KCAL/MOL
REMARK 922        TOTAL FREE ENERGY PREDICTED BY IDOCK:  -10.14 KCAL/MOL
REMARK 923 INTER-LIGAND FREE ENERGY PREDICTED BY IDOCK:   -9.19 KCAL/MOL
REMARK 924 INTRA-LIGAND FREE ENERGY PREDICTED BY IDOCK:   -0.95 KCAL/MOL
REMARK 927      BINDING AFFINITY PREDICTED BY RF-SCORE:    0.00 PKD
ROOT
HETATM    1  C   UNL     1     -10.514  19.851  65.935  1.00  0.00    -0.567 C  
HETATM    2  C   UNL     1     -10.350  19.294  67.325  1.00  0.00    -0.436 C  
HETATM    3  O   UNL     1     -10.424  20.037  68.303  1.00  0.00    -0.406 OA 
HETATM    4  N   UNL     1     -10.217  17.922  67.434  1.00  0.00    -0.344 N  
HETATM    5  C   UNL     1     -10.232  17.320  68.773  1.00  0.00    -0.353 C  
HETATM    6  C   UNL     1     -10.942  15.957  68.758  1.00  0.00    -0.301 C  
HETATM    7  N   UNL     1     -10.312  15.085  67.740  1.00  0.00    -0.243 NA 
HETATM    8  C   UNL     1      -9.707  17.038  66.372  1.00  0.00    -0.293 C  
HETATM    9  C   UNL     1     -10.389  15.656  66.380  1.00  0.00    -0.296 C  
ENDROOT
BRANCH   7  10
HETATM   10  C   UNL     1     -10.491  13.708  67.840  1.00  0.00    -0.247 A  
HETATM   11  C   UNL     1      -9.842  12.808  67.001  1.00  0.00    -0.231 A  
HETATM   12  C   UNL     1     -10.125  11.444  67.035  1.00  0.00    -0.237 A  
HETATM   13  C   UNL     1     -11.086  10.925  67.906  1.00  0.00    -0.302 A  
HETATM   14  C   UNL     1     -11.417  13.174  68.755  1.00  0.00    -0.348 A  
HETATM   15  C   UNL     1     -11.717  11.802  68.786  1.00  0.00    -0.389 A  
BRANCH  13  16
HETATM   16  O   UNL     1     -11.467   9.599  67.950  1.00  0.00     0.073 OA 
BRANCH  16  17
HETATM   17  C   UNL     1     -10.521   8.713  67.343  1.00  0.00    -0.281 C  
BRANCH  17  18
HETATM   18  C   UNL     1      -9.984   7.632  68.270  1.00  0.00    -0.176 C  
HETATM   19  C   UNL     1      -8.490   7.659  68.438  1.00  0.00    -0.125 C  
HETATM   20  O   UNL     1      -8.284   7.161  69.758  1.00  0.00    -0.127 OA 
HETATM   21  C   UNL     1      -9.458   7.522  70.530  1.00  0.00    -0.164 C  
HETATM   22  O   UNL     1     -10.494   7.877  69.592  1.00  0.00    -0.219 OA 
BRANCH  21  23
HETATM   23  C   UNL     1      -9.948   6.325  71.349  1.00  0.00    -0.210 A  
HETATM   24 CL   UNL     1     -11.876   7.844  72.629  1.00  0.00    -0.387 Cl 
HETATM   25  C   UNL     1     -10.998   6.393  72.289  1.00  0.00    -0.254 A  
HETATM   26  C   UNL     1      -9.337   5.066  71.160  1.00  0.00    -0.199 A  
HETATM   27  C   UNL     1      -9.753   3.934  71.862  1.00  0.00    -0.239 A  
HETATM   28  C   UNL     1     -11.407   5.256  73.002  1.00  0.00    -0.376 A  
HETATM   29 CL   UNL     1     -11.313   2.637  73.636  1.00  0.00    -0.323 Cl 
HETATM   30  C   UNL     1     -10.788   4.033  72.781  1.00  0.00    -0.048 A  
ENDBRANCH  21  23
BRANCH  21  31
HETATM   31  C   UNL     1      -9.124   8.785  71.366  1.00  0.00    -0.243 C  
BRANCH  31  32
HETATM   32  N   UNL     1      -8.152   8.624  72.423  1.00  0.00    -0.367 NA 
HETATM   33  N   UNL     1      -7.331   8.047  74.403  1.00  0.00    -0.164 NA 
HETATM   34  C   UNL     1      -6.791   8.536  72.266  1.00  0.00    -0.077 A  
HETATM   35  C   UNL     1      -8.427   8.335  73.733  1.00  0.00    -0.190 A  
HETATM   36  C   UNL     1      -6.311   8.155  73.494  1.00  0.00    -0.099 A  
ENDBRANCH  31  32
ENDBRANCH  21  31
ENDBRANCH  17  18
ENDBRANCH  16  17
ENDBRANCH  13  16
ENDBRANCH   7  10
TORSDOF 7
ENDMDL
MODEL       33
REMARK 921   NORMALIZED FREE ENERGY PREDICTED BY IDOCK:   -6.87 KCAL/MOL
REMARK 922        TOTAL FREE ENERGY PREDICTED BY IDOCK:  -10.11 KCAL/MOL
REMARK 923 INTER-LIGAND FREE ENERGY PREDICTED BY IDOCK:   -9.20 KCAL/MOL
REMARK 924 INTRA-LIGAND FREE ENERGY PREDICTED BY IDOCK:   -0.92 KCAL/MOL
REMARK 927      BINDING AFFINITY PREDICTED BY RF-SCORE:    0.00 PKD
ROOT
HETATM    1  C   UNL     1     -11.100   4.736  73.696  1.00  0.00    -0.380 C  
HETATM    2  C   UNL     1      -9.747   5.348  73.440  1.00  0.00    -0.150 C  
HETATM    3  O   UNL     1      -8.735   4.839  73.921  1.00  0.00    -0.106 OA 
HETATM    4  N   UNL     1      -9.705   6.426  72.575  1.00  0.00    -0.162 N  
HETATM    5  C   UNL     1      -8.395   6.941  72.159  1.00  0.00    -0.105 C  
HETATM    6  C   UNL     1      -8.426   7.414  70.697  1.00  0.00    -0.136 C  
HETATM    7  N   UNL     1      -9.516   8.400  70.522  1.00  0.00    -0.166 NA 
HETATM    8  C   UNL     1     -10.833   7.334  72.305  1.00  0.00    -0.238 C  
HETATM    9  C   UNL     1     -10.843   7.842  70.850  1.00  0.00    -0.237 C  
ENDROOT
BRANCH   7  10
HETATM   10  C   UNL     1      -9.464   9.263  69.430  1.00  0.00    -0.168 A  
HETATM   11  C   UNL     1     -10.519   9.393  68.531  1.00  0.00    -0.239 A  
HETATM   12  C   UNL     1     -10.403  10.169  67.378  1.00  0.00    -0.289 A  
HETATM   13  C   UNL     1      -9.216  10.837  67.071  1.00  0.00    -0.152 A  
HETATM   14  C   UNL     1      -8.289   9.983  69.145  1.00  0.00    -0.146 A  
HETATM   15  C   UNL     1      -8.161  10.756  67.979  1.00  0.00    -0.115 A  
BRANCH  13  16
HETATM   16  O   UNL     1      -9.005  11.567  65.918  1.00  0.00    -0.204 OA 
BRANCH  16  17
HETATM   17  C   UNL     1     -10.214  11.934  65.246  1.00  0.00    -0.272 C  
BRANCH  17  18
HETATM   18  C   UNL     1     -10.724  13.327  65.583  1.00  0.00    -0.282 C  
HETATM   19  C   UNL     1     -12.070  13.340  66.253  1.00  0.00    -0.414 C  
HETATM   20  O   UNL     1     -12.030  14.497  67.083  1.00  0.00    -0.406 OA 
HETATM   21  C   UNL     1     -10.642  14.697  67.456  1.00  0.00    -0.257 C  
HETATM   22  O   UNL     1      -9.839  13.911  66.553  1.00  0.00    -0.273 OA 
BRANCH  21  23
HETATM   23  C   UNL     1     -10.248  16.167  67.286  1.00  0.00    -0.277 A  
HETATM   24 CL   UNL     1     -11.235  16.250  64.701  1.00  0.00    -0.385 Cl 
HETATM   25  C   UNL     1     -10.473  16.908  66.107  1.00  0.00    -0.272 A  
HETATM   26  C   UNL     1      -9.635  16.843  68.363  1.00  0.00    -0.255 A  
HETATM   27  C   UNL     1      -9.271  18.187  68.275  1.00  0.00    -0.307 A  
HETATM   28  C   UNL     1     -10.096  18.257  66.017  1.00  0.00    -0.278 A  
HETATM   29 CL   UNL     1      -9.072  20.551  66.997  1.00  0.00    -0.446 Cl 
HETATM   30  C   UNL     1      -9.504  18.891  67.102  1.00  0.00    -0.304 A  
ENDBRANCH  21  23
BRANCH  21  31
HETATM   31  C   UNL     1     -10.434  14.133  68.887  1.00  0.00    -0.222 C  
BRANCH  31  32
HETATM   32  N   UNL     1     -11.581  14.158  69.766  1.00  0.00    -0.284 NA 
HETATM   33  N   UNL     1     -13.085  13.412  71.218  1.00  0.00    -0.281 NA 
HETATM   34  C   UNL     1     -12.112  15.267  70.375  1.00  0.00    -0.348 A  
HETATM   35  C   UNL     1     -12.210  13.064  70.298  1.00  0.00    -0.296 A  
HETATM   36  C   UNL     1     -13.019  14.780  71.283  1.00  0.00    -0.346 A  
ENDBRANCH  31  32
ENDBRANCH  21  31
ENDBRANCH  17  18
ENDBRANCH  16  17
ENDBRANCH  13  16
ENDBRANCH   7  10
TORSDOF 7
ENDMDL
MODEL       34
REMARK 921   NORMALIZED FREE ENERGY PREDICTED BY IDOCK:   -6.87 KCAL/MOL
REMARK 922        TOTAL FREE ENERGY PREDICTED BY IDOCK:  -10.11 KCAL/MOL
REMARK 923 INTER-LIGAND FREE ENERGY PREDICTED BY IDOCK:   -9.49 KCAL/MOL
REMARK 924 INTRA-LIGAND FREE ENERGY PREDICTED BY IDOCK:   -0.62 KCAL/MOL
REMARK 927      BINDING AFFINITY PREDICTED BY RF-SCORE:    0.00 PKD
ROOT
HETATM    1  C   UNL     1      -9.020   1.798  65.635  1.00  0.00    -0.109 C  
HETATM    2  C   UNL     1      -8.056   2.948  65.766  1.00  0.00    -0.087 C  
HETATM    3  O   UNL     1      -6.949   2.894  65.230  1.00  0.00    -0.050 OA 
HETATM    4  N   UNL     1      -8.517   4.075  66.421  1.00  0.00    -0.108 N  
HETATM    5  C   UNL     1      -7.679   5.281  66.419  1.00  0.00    -0.092 C  
HETATM    6  C   UNL     1      -8.539   6.551  66.334  1.00  0.00    -0.136 C  
HETATM    7  N   UNL     1      -9.536   6.544  67.429  1.00  0.00    -0.122 NA 
HETATM    8  C   UNL     1      -9.599   4.085  67.421  1.00  0.00    -0.177 C  
HETATM    9  C   UNL     1     -10.438   5.377  67.365  1.00  0.00    -0.189 C  
ENDROOT
BRANCH   7  10
HETATM   10  C   UNL     1     -10.118   7.751  67.807  1.00  0.00    -0.189 A  
HETATM   11  C   UNL     1     -10.408   8.759  66.893  1.00  0.00    -0.344 A  
HETATM   12  C   UNL     1     -10.877  10.006  67.306  1.00  0.00    -0.284 A  
HETATM   13  C   UNL     1     -11.061  10.299  68.659  1.00  0.00    -0.239 A  
HETATM   14  C   UNL     1     -10.358   8.032  69.165  1.00  0.00    -0.226 A  
HETATM   15  C   UNL     1     -10.818   9.289  69.589  1.00  0.00    -0.228 A  
BRANCH  13  16
HETATM   16  O   UNL     1     -11.457  11.528  69.146  1.00  0.00    -0.243 OA 
BRANCH  16  17
HETATM   17  C   UNL     1     -11.744  12.483  68.120  1.00  0.00    -0.348 C  
BRANCH  17  18
HETATM   18  C   UNL     1     -10.797  13.674  68.084  1.00  0.00    -0.246 C  
HETATM   19  C   UNL     1      -9.421  13.344  67.578  1.00  0.00    -0.219 C  
HETATM   20  O   UNL     1      -8.984  14.549  66.958  1.00  0.00    -0.217 OA 
HETATM   21  C   UNL     1     -10.172  15.225  66.473  1.00  0.00    -0.275 C  
HETATM   22  O   UNL     1     -11.305  14.626  67.135  1.00  0.00    -0.332 OA 
BRANCH  21  23
HETATM   23  C   UNL     1     -10.134  16.710  66.847  1.00  0.00    -0.280 A  
HETATM   24 CL   UNL     1      -9.343  16.154  69.441  1.00  0.00    -0.230 Cl 
HETATM   25  C   UNL     1      -9.785  17.189  68.128  1.00  0.00    -0.276 A  
HETATM   26  C   UNL     1     -10.451  17.674  65.865  1.00  0.00    -0.247 A  
HETATM   27  C   UNL     1     -10.415  19.042  66.140  1.00  0.00    -0.541 A  
HETATM   28  C   UNL     1      -9.760  18.564  68.404  1.00  0.00    -0.395 A  
HETATM   29 CL   UNL     1     -10.006  21.168  67.746  1.00  0.00    -0.070 Cl 
HETATM   30  C   UNL     1     -10.068  19.483  67.409  1.00  0.00    -0.406 A  
ENDBRANCH  21  23
BRANCH  21  31
HETATM   31  C   UNL     1     -10.310  14.945  64.953  1.00  0.00    -0.313 C  
BRANCH  31  32
HETATM   32  N   UNL     1     -11.096  13.792  64.576  1.00  0.00    -0.385 NA 
HETATM   33  N   UNL     1     -12.853  12.631  63.874  1.00  0.00    -0.732 NA 
HETATM   34  C   UNL     1     -10.609  12.592  64.121  1.00  0.00    -0.407 A  
HETATM   35  C   UNL     1     -12.456  13.762  64.421  1.00  0.00    -0.270 A  
HETATM   36  C   UNL     1     -11.709  11.905  63.670  1.00  0.00    -0.474 A  
ENDBRANCH  31  32
ENDBRANCH  21  31
ENDBRANCH  17  18
ENDBRANCH  16  17
ENDBRANCH  13  16
ENDBRANCH   7  10
TORSDOF 7
ENDMDL
MODEL       35
REMARK 921   NORMALIZED FREE ENERGY PREDICTED BY IDOCK:   -6.83 KCAL/MOL
REMARK 922        TOTAL FREE ENERGY PREDICTED BY IDOCK:  -10.06 KCAL/MOL
REMARK 923 INTER-LIGAND FREE ENERGY PREDICTED BY IDOCK:   -9.54 KCAL/MOL
REMARK 924 INTRA-LIGAND FREE ENERGY PREDICTED BY IDOCK:   -0.52 KCAL/MOL
REMARK 927      BINDING AFFINITY PREDICTED BY RF-SCORE:    0.00 PKD
ROOT
HETATM    1  C   UNL     1      -9.526  17.989  66.907  1.00  0.00    -0.288 C  
HETATM    2  C   UNL     1     -10.352  16.873  66.324  1.00  0.00    -0.308 C  
HETATM    3  O   UNL     1     -10.417  16.720  65.105  1.00  0.00    -0.658 OA 
HETATM    4  N   UNL     1     -10.933  15.995  67.221  1.00  0.00    -0.261 N  
HETATM    5  C   UNL     1     -11.597  14.794  66.698  1.00  0.00    -0.313 C  
HETATM    6  C   UNL     1     -11.389  13.595  67.637  1.00  0.00    -0.300 C  
HETATM    7  N   UNL     1     -11.837  13.955  69.001  1.00  0.00    -0.338 NA 
HETATM    8  C   UNL     1     -11.263  16.316  68.621  1.00  0.00    -0.354 C  
HETATM    9  C   UNL     1     -11.094  15.104  69.557  1.00  0.00    -0.277 C  
ENDROOT
BRANCH   7  10
HETATM   10  C   UNL     1     -12.143  12.931  69.894  1.00  0.00    -0.265 A  
HETATM   11  C   UNL     1     -12.037  11.586  69.551  1.00  0.00    -0.351 A  
HETATM   12  C   UNL     1     -12.463  10.578  70.414  1.00  0.00    -0.392 A  
HETATM   13  C   UNL     1     -13.027  10.877  71.656  1.00  0.00    -0.464 A  
HETATM   14  C   UNL     1     -12.660  13.226  71.168  1.00  0.00    -0.412 A  
HETATM   15  C   UNL     1     -13.102  12.216  72.038  1.00  0.00    -0.462 A  
BRANCH  13  16
HETATM   16  O   UNL     1     -13.531   9.938  72.534  1.00  0.00    -0.316 OA 
BRANCH  16  17
HETATM   17  C   UNL     1     -13.106   8.602  72.246  1.00  0.00    -0.372 C  
BRANCH  17  18
HETATM   18  C   UNL     1     -11.598   8.399  72.281  1.00  0.00    -0.383 C  
HETATM   19  C   UNL     1     -11.152   7.290  73.192  1.00  0.00    -0.292 C  
HETATM   20  O   UNL     1      -9.963   6.799  72.581  1.00  0.00    -0.168 OA 
HETATM   21  C   UNL     1     -10.100   7.027  71.154  1.00  0.00    -0.187 C  
HETATM   22  O   UNL     1     -11.168   7.980  70.975  1.00  0.00    -0.256 OA 
BRANCH  21  23
HETATM   23  C   UNL     1      -8.817   7.638  70.584  1.00  0.00    -0.145 A  
HETATM   24 CL   UNL     1      -7.284   5.494  71.427  1.00  0.00    -0.071 Cl 
HETATM   25  C   UNL     1      -7.549   7.026  70.671  1.00  0.00    -0.093 A  
HETATM   26  C   UNL     1      -8.886   8.881  69.917  1.00  0.00    -0.154 A  
HETATM   27  C   UNL     1      -7.755   9.479  69.359  1.00  0.00    -0.094 A  
HETATM   28  C   UNL     1      -6.412   7.634  70.118  1.00  0.00    -0.034 A  
HETATM   29 CL   UNL     1      -5.130   9.579  68.760  1.00  0.00    -0.034 Cl 
HETATM   30  C   UNL     1      -6.521   8.852  69.460  1.00  0.00    -0.043 A  
ENDBRANCH  21  23
BRANCH  21  31
HETATM   31  C   UNL     1     -10.536   5.697  70.485  1.00  0.00    -0.284 C  
BRANCH  31  32
HETATM   32  N   UNL     1     -10.396   5.618  69.049  1.00  0.00    -0.224 NA 
HETATM   33  N   UNL     1     -10.000   4.716  67.060  1.00  0.00    -0.204 NA 
HETATM   34  C   UNL     1     -11.015   6.427  68.129  1.00  0.00    -0.307 A  
HETATM   35  C   UNL     1      -9.785   4.609  68.354  1.00  0.00    -0.134 A  
HETATM   36  C   UNL     1     -10.777   5.836  66.913  1.00  0.00    -0.305 A  
ENDBRANCH  31  32
ENDBRANCH  21  31
ENDBRANCH  17  18
ENDBRANCH  16  17
ENDBRANCH  13  16
ENDBRANCH   7  10
TORSDOF 7
ENDMDL
MODEL       36
REMARK 921   NORMALIZED FREE ENERGY PREDICTED BY IDOCK:   -6.80 KCAL/MOL
REMARK 922        TOTAL FREE ENERGY PREDICTED BY IDOCK:  -10.01 KCAL/MOL
REMARK 923 INTER-LIGAND FREE ENERGY PREDICTED BY IDOCK:   -9.06 KCAL/MOL
REMARK 924 INTRA-LIGAND FREE ENERGY PREDICTED BY IDOCK:   -0.95 KCAL/MOL
REMARK 927      BINDING AFFINITY PREDICTED BY RF-SCORE:    0.00 PKD
ROOT
HETATM    1  C   UNL     1      -6.507   5.049  66.002  1.00  0.00    -0.040 C  
HETATM    2  C   UNL     1      -6.216   6.207  65.083  1.00  0.00    -0.033 C  
HETATM    3  O   UNL     1      -5.340   6.113  64.224  1.00  0.00    -0.017 OA 
HETATM    4  N   UNL     1      -7.038   7.313  65.197  1.00  0.00    -0.062 N  
HETATM    5  C   UNL     1      -6.906   8.390  64.208  1.00  0.00    -0.066 C  
HETATM    6  C   UNL     1      -8.273   9.011  63.881  1.00  0.00    -0.172 C  
HETATM    7  N   UNL     1      -8.925   9.455  65.134  1.00  0.00    -0.201 NA 
HETATM    8  C   UNL     1      -7.788   7.685  66.410  1.00  0.00    -0.094 C  
HETATM    9  C   UNL     1      -9.142   8.344  66.083  1.00  0.00    -0.189 C  
ENDROOT
BRANCH   7  10
HETATM   10  C   UNL     1      -9.939  10.405  65.057  1.00  0.00    -0.330 A  
HETATM   11  C   UNL     1     -10.323  10.992  63.855  1.00  0.00    -0.436 A  
HETATM   12  C   UNL     1     -11.254  12.028  63.813  1.00  0.00    -0.516 A  
HETATM   13  C   UNL     1     -11.831  12.532  64.981  1.00  0.00    -0.396 A  
HETATM   14  C   UNL     1     -10.564  10.877  66.226  1.00  0.00    -0.276 A  
HETATM   15  C   UNL     1     -11.494  11.930  66.193  1.00  0.00    -0.352 A  
BRANCH  13  16
HETATM   16  O   UNL     1     -12.707  13.597  65.025  1.00  0.00    -0.622 OA 
BRANCH  16  17
HETATM   17  C   UNL     1     -12.169  14.802  64.473  1.00  0.00    -0.428 C  
BRANCH  17  18
HETATM   18  C   UNL     1     -10.894  15.289  65.146  1.00  0.00    -0.426 C  
HETATM   19  C   UNL     1     -10.778  16.786  65.225  1.00  0.00    -0.169 C  
HETATM   20  O   UNL     1     -10.023  17.010  66.412  1.00  0.00    -0.280 OA 
HETATM   21  C   UNL     1     -10.312  15.906  67.308  1.00  0.00    -0.293 C  
HETATM   22  O   UNL     1     -10.915  14.862  66.518  1.00  0.00    -0.318 OA 
BRANCH  21  23
HETATM   23  C   UNL     1      -9.019  15.356  67.915  1.00  0.00    -0.173 A  
HETATM   24 CL   UNL     1      -8.247  17.854  68.822  1.00  0.00    -0.270 Cl 
HETATM   25  C   UNL     1      -8.066  16.150  68.588  1.00  0.00    -0.203 A  
HETATM   26  C   UNL     1      -8.749  13.973  67.818  1.00  0.00    -0.185 A  
HETATM   27  C   UNL     1      -7.596  13.409  68.369  1.00  0.00    -0.133 A  
HETATM   28  C   UNL     1      -6.904  15.583  69.131  1.00  0.00    -0.155 A  
HETATM   29 CL   UNL     1      -5.266  13.522  69.718  1.00  0.00    -0.086 Cl 
HETATM   30  C   UNL     1      -6.678  14.217  69.025  1.00  0.00    -0.107 A  
ENDBRANCH  21  23
BRANCH  21  31
HETATM   31  C   UNL     1     -11.363  16.380  68.346  1.00  0.00    -0.268 C  
BRANCH  31  32
HETATM   32  N   UNL     1     -11.523  15.562  69.527  1.00  0.00    -0.307 NA 
HETATM   33  N   UNL     1     -11.748  15.063  71.678  1.00  0.00    -0.368 NA 
HETATM   34  C   UNL     1     -12.084  14.310  69.575  1.00  0.00    -0.330 A  
HETATM   35  C   UNL     1     -11.325  15.967  70.819  1.00  0.00    -0.398 A  
HETATM   36  C   UNL     1     -12.236  14.036  70.912  1.00  0.00    -0.362 A  
ENDBRANCH  31  32
ENDBRANCH  21  31
ENDBRANCH  17  18
ENDBRANCH  16  17
ENDBRANCH  13  16
ENDBRANCH   7  10
TORSDOF 7
ENDMDL
MODEL       37
REMARK 921   NORMALIZED FREE ENERGY PREDICTED BY IDOCK:   -6.75 KCAL/MOL
REMARK 922        TOTAL FREE ENERGY PREDICTED BY IDOCK:   -9.94 KCAL/MOL
REMARK 923 INTER-LIGAND FREE ENERGY PREDICTED BY IDOCK:   -8.57 KCAL/MOL
REMARK 924 INTRA-LIGAND FREE ENERGY PREDICTED BY IDOCK:   -1.37 KCAL/MOL
REMARK 927      BINDING AFFINITY PREDICTED BY RF-SCORE:    0.00 PKD
ROOT
HETATM    1  C   UNL     1     -12.844  15.073  73.690  1.00  0.00    -0.583 C  
HETATM    2  C   UNL     1     -12.134  15.949  72.692  1.00  0.00    -0.511 C  
HETATM    3  O   UNL     1     -11.573  16.981  73.060  1.00  0.00    -0.110 OA 
HETATM    4  N   UNL     1     -12.066  15.483  71.392  1.00  0.00    -0.352 N  
HETATM    5  C   UNL     1     -11.235  16.213  70.426  1.00  0.00    -0.381 C  
HETATM    6  C   UNL     1     -10.553  15.248  69.444  1.00  0.00    -0.256 C  
HETATM    7  N   UNL     1     -11.578  14.399  68.796  1.00  0.00    -0.296 NA 
HETATM    8  C   UNL     1     -13.019  14.536  70.786  1.00  0.00    -0.343 C  
HETATM    9  C   UNL     1     -12.344  13.594  69.770  1.00  0.00    -0.228 C  
ENDROOT
BRANCH   7  10
HETATM   10  C   UNL     1     -11.262  13.772  67.594  1.00  0.00    -0.293 A  
HETATM   11  C   UNL     1     -12.234  13.252  66.745  1.00  0.00    -0.340 A  
HETATM   12  C   UNL     1     -11.893  12.521  65.607  1.00  0.00    -0.493 A  
HETATM   13  C   UNL     1     -10.559  12.269  65.280  1.00  0.00    -0.287 A  
HETATM   14  C   UNL     1      -9.918  13.564  67.231  1.00  0.00    -0.236 A  
HETATM   15  C   UNL     1      -9.568  12.818  66.093  1.00  0.00    -0.214 A  
BRANCH  13  16
HETATM   16  O   UNL     1     -10.147  11.500  64.210  1.00  0.00    -0.253 OA 
BRANCH  16  17
HETATM   17  C   UNL     1      -9.046  10.639  64.517  1.00  0.00    -0.217 C  
BRANCH  17  18
HETATM   18  C   UNL     1      -9.413   9.421  65.353  1.00  0.00    -0.253 C  
HETATM   19  C   UNL     1      -8.628   8.186  65.009  1.00  0.00    -0.050 C  
HETATM   20  O   UNL     1      -8.554   7.472  66.240  1.00  0.00    -0.130 OA 
HETATM   21  C   UNL     1      -8.589   8.461  67.301  1.00  0.00    -0.123 C  
HETATM   22  O   UNL     1      -9.066   9.692  66.721  1.00  0.00    -0.142 OA 
BRANCH  21  23
HETATM   23  C   UNL     1      -9.575   8.038  68.394  1.00  0.00    -0.157 A  
HETATM   24 CL   UNL     1      -9.913  10.646  69.258  1.00  0.00    -0.233 Cl 
HETATM   25  C   UNL     1     -10.189   8.939  69.290  1.00  0.00    -0.209 A  
HETATM   26  C   UNL     1      -9.912   6.673  68.524  1.00  0.00    -0.152 A  
HETATM   27  C   UNL     1     -10.818   6.229  69.488  1.00  0.00    -0.404 A  
HETATM   28  C   UNL     1     -11.091   8.488  70.265  1.00  0.00    -0.222 A  
HETATM   29 CL   UNL     1     -12.535   6.596  71.533  1.00  0.00    -0.375 Cl 
HETATM   30  C   UNL     1     -11.406   7.139  70.355  1.00  0.00    -0.289 A  
ENDBRANCH  21  23
BRANCH  21  31
HETATM   31  C   UNL     1      -7.138   8.701  67.795  1.00  0.00    -0.079 C  
BRANCH  31  32
HETATM   32  N   UNL     1      -6.631  10.050  67.683  1.00  0.00    -0.067 NA 
HETATM   33  N   UNL     1      -5.944  12.058  68.335  1.00  0.00    -0.049 NA 
HETATM   34  C   UNL     1      -5.860  10.544  66.661  1.00  0.00    -0.066 A  
HETATM   35  C   UNL     1      -6.665  11.005  68.663  1.00  0.00    -0.061 A  
HETATM   36  C   UNL     1      -5.427  11.772  67.098  1.00  0.00    -0.118 A  
ENDBRANCH  31  32
ENDBRANCH  21  31
ENDBRANCH  17  18
ENDBRANCH  16  17
ENDBRANCH  13  16
ENDBRANCH   7  10
TORSDOF 7
ENDMDL
MODEL       38
REMARK 921   NORMALIZED FREE ENERGY PREDICTED BY IDOCK:   -6.74 KCAL/MOL
REMARK 922        TOTAL FREE ENERGY PREDICTED BY IDOCK:   -9.93 KCAL/MOL
REMARK 923 INTER-LIGAND FREE ENERGY PREDICTED BY IDOCK:   -9.13 KCAL/MOL
REMARK 924 INTRA-LIGAND FREE ENERGY PREDICTED BY IDOCK:   -0.80 KCAL/MOL
REMARK 927      BINDING AFFINITY PREDICTED BY RF-SCORE:    0.00 PKD
ROOT
HETATM    1  C   UNL     1      -9.397   1.903  64.099  1.00  0.00    -0.126 C  
HETATM    2  C   UNL     1      -8.351   2.945  64.398  1.00  0.00    -0.086 C  
HETATM    3  O   UNL     1      -7.262   2.913  63.825  1.00  0.00    -0.050 OA 
HETATM    4  N   UNL     1      -8.717   3.967  65.255  1.00  0.00    -0.113 N  
HETATM    5  C   UNL     1      -7.796   5.095  65.436  1.00  0.00    -0.089 C  
HETATM    6  C   UNL     1      -8.565   6.415  65.603  1.00  0.00    -0.133 C  
HETATM    7  N   UNL     1      -9.537   6.281  66.711  1.00  0.00    -0.149 NA 
HETATM    8  C   UNL     1      -9.776   3.872  66.275  1.00  0.00    -0.160 C  
HETATM    9  C   UNL     1     -10.521   5.206  66.473  1.00  0.00    -0.294 C  
ENDROOT
BRANCH   7  10
HETATM   10  C   UNL     1     -10.024   7.438  67.314  1.00  0.00    -0.198 A  
HETATM   11  C   UNL     1     -10.186   8.631  66.616  1.00  0.00    -0.343 A  
HETATM   12  C   UNL     1     -10.558   9.809  67.263  1.00  0.00    -0.320 A  
HETATM   13  C   UNL     1     -10.769   9.843  68.643  1.00  0.00    -0.226 A  
HETATM   14  C   UNL     1     -10.292   7.464  68.695  1.00  0.00    -0.215 A  
HETATM   15  C   UNL     1     -10.655   8.649  69.355  1.00  0.00    -0.207 A  
BRANCH  13  16
HETATM   16  O   UNL     1     -11.074  10.982  69.360  1.00  0.00    -0.228 OA 
BRANCH  16  17
HETATM   17  C   UNL     1     -11.890  11.910  68.638  1.00  0.00    -0.308 C  
BRANCH  17  18
HETATM   18  C   UNL     1     -11.139  13.115  68.090  1.00  0.00    -0.255 C  
HETATM   19  C   UNL     1     -11.928  13.928  67.102  1.00  0.00    -0.420 C  
HETATM   20  O   UNL     1     -11.437  15.254  67.276  1.00  0.00    -0.319 OA 
HETATM   21  C   UNL     1     -11.008  15.363  68.658  1.00  0.00    -0.273 C  
HETATM   22  O   UNL     1     -10.888  14.023  69.176  1.00  0.00    -0.245 OA 
BRANCH  21  23
HETATM   23  C   UNL     1      -9.632  16.030  68.741  1.00  0.00    -0.221 A  
HETATM   24 CL   UNL     1     -10.587  18.398  67.672  1.00  0.00    -0.442 Cl 
HETATM   25  C   UNL     1      -9.373  17.352  68.324  1.00  0.00    -0.278 A  
HETATM   26  C   UNL     1      -8.547  15.300  69.275  1.00  0.00    -0.236 A  
HETATM   27  C   UNL     1      -7.274  15.860  69.394  1.00  0.00    -0.214 A  
HETATM   28  C   UNL     1      -8.090  17.908  68.435  1.00  0.00    -0.302 A  
HETATM   29 CL   UNL     1      -5.486  17.860  69.136  1.00  0.00    -0.186 Cl 
HETATM   30  C   UNL     1      -7.050  17.163  68.975  1.00  0.00    -0.232 A  
ENDBRANCH  21  23
BRANCH  21  31
HETATM   31  C   UNL     1     -12.124  16.082  69.461  1.00  0.00    -0.097 C  
BRANCH  31  32
HETATM   32  N   UNL     1     -12.393  15.580  70.790  1.00  0.00    -0.385 NA 
HETATM   33  N   UNL     1     -12.183  15.336  72.986  1.00  0.00    -0.392 NA 
HETATM   34  C   UNL     1     -13.584  15.064  71.236  1.00  0.00    -0.453 A  
HETATM   35  C   UNL     1     -11.575  15.712  71.880  1.00  0.00    -0.461 A  
HETATM   36  C   UNL     1     -13.438  14.947  72.596  1.00  0.00    -0.471 A  
ENDBRANCH  31  32
ENDBRANCH  21  31
ENDBRANCH  17  18
ENDBRANCH  16  17
ENDBRANCH  13  16
ENDBRANCH   7  10
TORSDOF 7
ENDMDL
MODEL       39
REMARK 921   NORMALIZED FREE ENERGY PREDICTED BY IDOCK:   -6.73 KCAL/MOL
REMARK 922        TOTAL FREE ENERGY PREDICTED BY IDOCK:   -9.92 KCAL/MOL
REMARK 923 INTER-LIGAND FREE ENERGY PREDICTED BY IDOCK:   -8.71 KCAL/MOL
REMARK 924 INTRA-LIGAND FREE ENERGY PREDICTED BY IDOCK:   -1.21 KCAL/MOL
REMARK 927      BINDING AFFINITY PREDICTED BY RF-SCORE:    0.00 PKD
ROOT
HETATM    1  C   UNL     1      -8.892   2.350  66.042  1.00  0.00    -0.125 C  
HETATM    2  C   UNL     1      -9.336   3.109  67.265  1.00  0.00    -0.179 C  
HETATM    3  O   UNL     1      -9.634   2.506  68.295  1.00  0.00    -0.201 OA 
HETATM    4  N   UNL     1      -9.292   4.489  67.192  1.00  0.00    -0.136 N  
HETATM    5  C   UNL     1      -9.544   5.266  68.412  1.00  0.00    -0.134 C  
HETATM    6  C   UNL     1      -8.664   6.525  68.457  1.00  0.00    -0.122 C  
HETATM    7  N   UNL     1      -8.867   7.312  67.220  1.00  0.00    -0.123 NA 
HETATM    8  C   UNL     1      -9.367   5.269  65.944  1.00  0.00    -0.155 C  
HETATM    9  C   UNL     1      -8.517   6.553  66.003  1.00  0.00    -0.145 C  
ENDROOT
BRANCH   7  10
HETATM   10  C   UNL     1      -8.522   8.661  67.225  1.00  0.00    -0.115 A  
HETATM   11  C   UNL     1      -8.860   9.521  66.185  1.00  0.00    -0.177 A  
HETATM   12  C   UNL     1      -8.402  10.838  66.149  1.00  0.00    -0.166 A  
HETATM   13  C   UNL     1      -7.572  11.343  67.151  1.00  0.00    -0.145 A  
HETATM   14  C   UNL     1      -7.732   9.191  68.261  1.00  0.00    -0.091 A  
HETATM   15  C   UNL     1      -7.256  10.512  68.225  1.00  0.00    -0.083 A  
BRANCH  13  16
HETATM   16  O   UNL     1      -7.027  12.612  67.149  1.00  0.00    -0.130 OA 
BRANCH  16  17
HETATM   17  C   UNL     1      -8.006  13.654  67.213  1.00  0.00    -0.114 C  
BRANCH  17  18
HETATM   18  C   UNL     1      -8.881  13.621  68.457  1.00  0.00    -0.099 C  
HETATM   19  C   UNL     1      -9.235  14.981  68.990  1.00  0.00    -0.205 C  
HETATM   20  O   UNL     1     -10.514  14.794  69.590  1.00  0.00    -0.201 OA 
HETATM   21  C   UNL     1     -11.166  13.724  68.858  1.00  0.00    -0.272 C  
HETATM   22  O   UNL     1     -10.147  13.038  68.104  1.00  0.00    -0.225 OA 
BRANCH  21  23
HETATM   23  C   UNL     1     -11.796  12.719  69.828  1.00  0.00    -0.380 A  
HETATM   24 CL   UNL     1     -13.032  14.724  71.282  1.00  0.00    -0.386 Cl 
HETATM   25  C   UNL     1     -12.620  13.085  70.913  1.00  0.00    -0.280 A  
HETATM   26  C   UNL     1     -11.563  11.340  69.635  1.00  0.00    -0.401 A  
HETATM   27  C   UNL     1     -12.126  10.376  70.473  1.00  0.00    -0.423 A  
HETATM   28  C   UNL     1     -13.175  12.115  71.760  1.00  0.00    -0.423 A  
HETATM   29 CL   UNL     1     -13.638   9.580  72.556  1.00  0.00    -0.457 Cl 
HETATM   30  C   UNL     1     -12.931  10.767  71.533  1.00  0.00    -0.456 A  
ENDBRANCH  21  23
BRANCH  21  31
HETATM   31  C   UNL     1     -12.159  14.356  67.847  1.00  0.00    -0.245 C  
BRANCH  31  32
HETATM   32  N   UNL     1     -11.902  14.108  66.446  1.00  0.00    -0.405 NA 
HETATM   33  N   UNL     1     -10.900  14.266  64.471  1.00  0.00    -0.350 NA 
HETATM   34  C   UNL     1     -12.252  12.981  65.745  1.00  0.00    -0.453 A  
HETATM   35  C   UNL     1     -11.098  14.859  65.631  1.00  0.00    -0.348 A  
HETATM   36  C   UNL     1     -11.602  13.091  64.540  1.00  0.00    -0.360 A  
ENDBRANCH  31  32
ENDBRANCH  21  31
ENDBRANCH  17  18
ENDBRANCH  16  17
ENDBRANCH  13  16
ENDBRANCH   7  10
TORSDOF 7
ENDMDL
MODEL       40
REMARK 921   NORMALIZED FREE ENERGY PREDICTED BY IDOCK:   -6.70 KCAL/MOL
REMARK 922        TOTAL FREE ENERGY PREDICTED BY IDOCK:   -9.87 KCAL/MOL
REMARK 923 INTER-LIGAND FREE ENERGY PREDICTED BY IDOCK:   -9.02 KCAL/MOL
REMARK 924 INTRA-LIGAND FREE ENERGY PREDICTED BY IDOCK:   -0.86 KCAL/MOL
REMARK 927      BINDING AFFINITY PREDICTED BY RF-SCORE:    0.00 PKD
ROOT
HETATM    1  C   UNL     1      -9.855  19.821  69.511  1.00  0.00    -0.100 C  
HETATM    2  C   UNL     1     -10.086  19.682  68.029  1.00  0.00    -0.437 C  
HETATM    3  O   UNL     1      -9.888  20.637  67.279  1.00  0.00    -0.471 OA 
HETATM    4  N   UNL     1     -10.427  18.424  67.567  1.00  0.00    -0.403 N  
HETATM    5  C   UNL     1     -10.489  18.201  66.118  1.00  0.00    -0.364 C  
HETATM    6  C   UNL     1      -9.996  16.792  65.754  1.00  0.00    -0.215 C  
HETATM    7  N   UNL     1     -10.764  15.788  66.525  1.00  0.00    -0.308 NA 
HETATM    8  C   UNL     1     -11.079  17.378  68.375  1.00  0.00     0.029 C  
HETATM    9  C   UNL     1     -10.616  15.961  67.984  1.00  0.00    -0.287 C  
ENDROOT
BRANCH   7  10
HETATM   10  C   UNL     1     -10.797  14.475  66.062  1.00  0.00    -0.310 A  
HETATM   11  C   UNL     1     -11.080  13.397  66.895  1.00  0.00    -0.309 A  
HETATM   12  C   UNL     1     -10.989  12.081  66.441  1.00  0.00    -0.337 A  
HETATM   13  C   UNL     1     -10.596  11.792  65.133  1.00  0.00    -0.283 A  
HETATM   14  C   UNL     1     -10.456  14.181  64.729  1.00  0.00    -0.432 A  
HETATM   15  C   UNL     1     -10.351  12.858  64.268  1.00  0.00    -0.396 A  
BRANCH  13  16
HETATM   16  O   UNL     1     -10.420  10.517  64.633  1.00  0.00    -0.311 OA 
BRANCH  16  17
HETATM   17  C   UNL     1      -9.529   9.715  65.414  1.00  0.00    -0.278 C  
BRANCH  17  18
HETATM   18  C   UNL     1     -10.214   8.844  66.456  1.00  0.00    -0.249 C  
HETATM   19  C   UNL     1      -9.784   7.403  66.426  1.00  0.00    -0.093 C  
HETATM   20  O   UNL     1      -9.915   6.976  67.779  1.00  0.00    -0.140 OA 
HETATM   21  C   UNL     1      -9.695   8.145  68.610  1.00  0.00    -0.153 C  
HETATM   22  O   UNL     1      -9.820   9.303  67.760  1.00  0.00    -0.158 OA 
BRANCH  21  23
HETATM   23  C   UNL     1     -10.768   8.237  69.699  1.00  0.00    -0.196 A  
HETATM   24 CL   UNL     1     -10.659   5.516  70.195  1.00  0.00    -0.372 Cl 
HETATM   25  C   UNL     1     -11.241   7.128  70.431  1.00  0.00    -0.287 A  
HETATM   26  C   UNL     1     -11.320   9.498  70.015  1.00  0.00    -0.204 A  
HETATM   27  C   UNL     1     -12.286   9.648  71.011  1.00  0.00    -0.409 A  
HETATM   28  C   UNL     1     -12.220   7.280  71.424  1.00  0.00    -0.384 A  
HETATM   29 CL   UNL     1     -13.910   8.723  72.953  1.00  0.00    -0.242 Cl 
HETATM   30  C   UNL     1     -12.732   8.538  71.714  1.00  0.00    -0.349 A  
ENDBRANCH  21  23
BRANCH  21  31
HETATM   31  C   UNL     1      -8.238   8.103  69.139  1.00  0.00    -0.123 C  
BRANCH  31  32
HETATM   32  N   UNL     1      -7.484   9.334  69.063  1.00  0.00    -0.072 NA 
HETATM   33  N   UNL     1      -6.419  11.048  68.139  1.00  0.00    -0.057 NA 
HETATM   34  C   UNL     1      -7.452  10.324  70.012  1.00  0.00    -0.132 A  
HETATM   35  C   UNL     1      -6.835   9.812  67.956  1.00  0.00    -0.072 A  
HETATM   36  C   UNL     1      -6.812  11.379  69.410  1.00  0.00    -0.112 A  
ENDBRANCH  31  32
ENDBRANCH  21  31
ENDBRANCH  17  18
ENDBRANCH  16  17
ENDBRANCH  13  16
ENDBRANCH   7  10
TORSDOF 7
ENDMDL
MODEL       41
REMARK 921   NORMALIZED FREE ENERGY PREDICTED BY IDOCK:   -6.70 KCAL/MOL
REMARK 922        TOTAL FREE ENERGY PREDICTED BY IDOCK:   -9.87 KCAL/MOL
REMARK 923 INTER-LIGAND FREE ENERGY PREDICTED BY IDOCK:   -8.85 KCAL/MOL
REMARK 924 INTRA-LIGAND FREE ENERGY PREDICTED BY IDOCK:   -1.02 KCAL/MOL
REMARK 927      BINDING AFFINITY PREDICTED BY RF-SCORE:    0.00 PKD
ROOT
HETATM    1  C   UNL     1     -10.999  16.203  64.983  1.00  0.00    -0.357 C  
HETATM    2  C   UNL     1     -11.695  14.912  64.639  1.00  0.00    -0.404 C  
HETATM    3  O   UNL     1     -12.627  14.905  63.836  1.00  0.00    -0.831 OA 
HETATM    4  N   UNL     1     -11.171  13.756  65.188  1.00  0.00    -0.306 N  
HETATM    5  C   UNL     1     -11.704  12.463  64.743  1.00  0.00    -0.368 C  
HETATM    6  C   UNL     1     -10.595  11.401  64.678  1.00  0.00    -0.318 C  
HETATM    7  N   UNL     1      -9.911  11.323  65.989  1.00  0.00    -0.222 NA 
HETATM    8  C   UNL     1     -10.380  13.697  66.430  1.00  0.00    -0.286 C  
HETATM    9  C   UNL     1      -9.294  12.605  66.383  1.00  0.00    -0.198 C  
ENDROOT
BRANCH   7  10
HETATM   10  C   UNL     1      -9.190  10.173  66.297  1.00  0.00    -0.157 A  
HETATM   11  C   UNL     1      -7.982  10.211  66.987  1.00  0.00    -0.110 A  
HETATM   12  C   UNL     1      -7.214   9.064  67.179  1.00  0.00    -0.083 A  
HETATM   13  C   UNL     1      -7.620   7.827  66.672  1.00  0.00    -0.097 A  
HETATM   14  C   UNL     1      -9.622   8.915  65.836  1.00  0.00    -0.293 A  
HETATM   15  C   UNL     1      -8.848   7.757  66.015  1.00  0.00    -0.189 A  
BRANCH  13  16
HETATM   16  O   UNL     1      -6.883   6.664  66.764  1.00  0.00    -0.061 OA 
BRANCH  16  17
HETATM   17  C   UNL     1      -7.038   5.988  68.016  1.00  0.00    -0.078 C  
BRANCH  17  18
HETATM   18  C   UNL     1      -8.410   6.150  68.654  1.00  0.00    -0.114 C  
HETATM   19  C   UNL     1      -9.036   4.856  69.094  1.00  0.00    -0.103 C  
HETATM   20  O   UNL     1      -9.836   5.223  70.214  1.00  0.00    -0.181 OA 
HETATM   21  C   UNL     1      -9.193   6.369  70.830  1.00  0.00    -0.158 C  
HETATM   22  O   UNL     1      -8.257   6.901  69.870  1.00  0.00    -0.123 OA 
BRANCH  21  23
HETATM   23  C   UNL     1     -10.223   7.457  71.143  1.00  0.00    -0.199 A  
HETATM   24 CL   UNL     1     -11.693   5.761  72.762  1.00  0.00    -0.274 Cl 
HETATM   25  C   UNL     1     -11.345   7.261  71.976  1.00  0.00    -0.260 A  
HETATM   26  C   UNL     1     -10.054   8.744  70.585  1.00  0.00    -0.248 A  
HETATM   27  C   UNL     1     -10.949   9.782  70.850  1.00  0.00    -0.411 A  
HETATM   28  C   UNL     1     -12.248   8.304  72.231  1.00  0.00    -0.428 A  
HETATM   29 CL   UNL     1     -13.137  10.840  72.013  1.00  0.00    -0.569 Cl 
HETATM   30  C   UNL     1     -12.043   9.559  71.673  1.00  0.00    -0.398 A  
ENDBRANCH  21  23
BRANCH  21  31
HETATM   31  C   UNL     1      -8.382   5.874  72.056  1.00  0.00    -0.115 C  
BRANCH  31  32
HETATM   32  N   UNL     1      -7.870   6.891  72.948  1.00  0.00    -0.093 NA 
HETATM   33  N   UNL     1      -6.814   8.736  73.584  1.00  0.00    -0.344 NA 
HETATM   34  C   UNL     1      -8.382   7.223  74.177  1.00  0.00    -0.177 A  
HETATM   35  C   UNL     1      -6.917   7.824  72.640  1.00  0.00    -0.075 A  
HETATM   36  C   UNL     1      -7.733   8.379  74.536  1.00  0.00    -0.219 A  
ENDBRANCH  31  32
ENDBRANCH  21  31
ENDBRANCH  17  18
ENDBRANCH  16  17
ENDBRANCH  13  16
ENDBRANCH   7  10
TORSDOF 7
ENDMDL
MODEL       42
REMARK 921   NORMALIZED FREE ENERGY PREDICTED BY IDOCK:   -6.64 KCAL/MOL
REMARK 922        TOTAL FREE ENERGY PREDICTED BY IDOCK:   -9.79 KCAL/MOL
REMARK 923 INTER-LIGAND FREE ENERGY PREDICTED BY IDOCK:   -9.02 KCAL/MOL
REMARK 924 INTRA-LIGAND FREE ENERGY PREDICTED BY IDOCK:   -0.77 KCAL/MOL
REMARK 927      BINDING AFFINITY PREDICTED BY RF-SCORE:    0.00 PKD
ROOT
HETATM    1  C   UNL     1     -10.014   3.969  72.050  1.00  0.00    -0.246 C  
HETATM    2  C   UNL     1     -10.813   5.092  72.659  1.00  0.00    -0.226 C  
HETATM    3  O   UNL     1     -11.158   5.038  73.839  1.00  0.00    -0.285 OA 
HETATM    4  N   UNL     1     -11.039   6.199  71.862  1.00  0.00    -0.261 N  
HETATM    5  C   UNL     1     -11.657   7.385  72.467  1.00  0.00    -0.275 C  
HETATM    6  C   UNL     1     -11.075   8.676  71.870  1.00  0.00    -0.346 C  
HETATM    7  N   UNL     1     -11.213   8.642  70.396  1.00  0.00    -0.245 NA 
HETATM    8  C   UNL     1     -11.050   6.188  70.388  1.00  0.00    -0.352 C  
HETATM    9  C   UNL     1     -10.505   7.498  69.788  1.00  0.00    -0.230 C  
ENDROOT
BRANCH   7  10
HETATM   10  C   UNL     1     -11.157   9.843  69.694  1.00  0.00    -0.241 A  
HETATM   11  C   UNL     1     -11.746  11.012  70.167  1.00  0.00    -0.442 A  
HETATM   12  C   UNL     1     -11.785  12.173  69.396  1.00  0.00    -0.391 A  
HETATM   13  C   UNL     1     -11.248  12.205  68.107  1.00  0.00    -0.267 A  
HETATM   14  C   UNL     1     -10.568   9.897  68.417  1.00  0.00    -0.258 A  
HETATM   15  C   UNL     1     -10.616  11.058  67.630  1.00  0.00    -0.255 A  
BRANCH  13  16
HETATM   16  O   UNL     1     -11.309  13.295  67.262  1.00  0.00    -0.288 OA 
BRANCH  16  17
HETATM   17  C   UNL     1     -12.237  14.298  67.689  1.00  0.00    -0.179 C  
BRANCH  17  18
HETATM   18  C   UNL     1     -11.602  15.637  68.034  1.00  0.00    -0.239 C  
HETATM   19  C   UNL     1     -11.745  16.025  69.479  1.00  0.00    -0.272 C  
HETATM   20  O   UNL     1     -10.581  16.803  69.744  1.00  0.00    -0.287 OA 
HETATM   21  C   UNL     1      -9.540  16.310  68.862  1.00  0.00    -0.243 C  
HETATM   22  O   UNL     1     -10.183  15.529  67.835  1.00  0.00    -0.233 OA 
BRANCH  21  23
HETATM   23  C   UNL     1      -8.814  17.478  68.186  1.00  0.00    -0.263 A  
HETATM   24 CL   UNL     1      -8.757  16.179  65.743  1.00  0.00    -0.115 Cl 
HETATM   25  C   UNL     1      -8.436  17.487  66.827  1.00  0.00    -0.250 A  
HETATM   26  C   UNL     1      -8.505  18.627  68.947  1.00  0.00    -0.209 A  
HETATM   27  C   UNL     1      -7.862  19.730  68.383  1.00  0.00    -0.329 A  
HETATM   28  C   UNL     1      -7.780  18.593  66.266  1.00  0.00    -0.290 A  
HETATM   29 CL   UNL     1      -6.726  21.074  66.342  1.00  0.00    -0.278 Cl 
HETATM   30  C   UNL     1      -7.503  19.710  67.043  1.00  0.00    -0.232 A  
ENDBRANCH  21  23
BRANCH  21  31
HETATM   31  C   UNL     1      -8.621  15.359  69.673  1.00  0.00    -0.124 C  
BRANCH  31  32
HETATM   32  N   UNL     1      -7.321  15.076  69.107  1.00  0.00    -0.151 NA 
HETATM   33  N   UNL     1      -5.822  14.337  67.647  1.00  0.00    -0.338 NA 
HETATM   34  C   UNL     1      -6.156  15.749  69.378  1.00  0.00    -0.138 A  
HETATM   35  C   UNL     1      -7.065  14.225  68.066  1.00  0.00    -0.140 A  
HETATM   36  C   UNL     1      -5.254  15.294  68.448  1.00  0.00    -0.107 A  
ENDBRANCH  31  32
ENDBRANCH  21  31
ENDBRANCH  17  18
ENDBRANCH  16  17
ENDBRANCH  13  16
ENDBRANCH   7  10
TORSDOF 7
ENDMDL
MODEL       43
REMARK 921   NORMALIZED FREE ENERGY PREDICTED BY IDOCK:   -6.64 KCAL/MOL
REMARK 922        TOTAL FREE ENERGY PREDICTED BY IDOCK:   -9.78 KCAL/MOL
REMARK 923 INTER-LIGAND FREE ENERGY PREDICTED BY IDOCK:   -8.81 KCAL/MOL
REMARK 924 INTRA-LIGAND FREE ENERGY PREDICTED BY IDOCK:   -0.97 KCAL/MOL
REMARK 927      BINDING AFFINITY PREDICTED BY RF-SCORE:    0.00 PKD
ROOT
HETATM    1  C   UNL     1      -8.969   5.499  73.353  1.00  0.00    -0.129 C  
HETATM    2  C   UNL     1      -9.303   5.334  71.894  1.00  0.00    -0.141 C  
HETATM    3  O   UNL     1      -9.518   4.214  71.430  1.00  0.00    -0.138 OA 
HETATM    4  N   UNL     1      -9.448   6.492  71.153  1.00  0.00    -0.167 N  
HETATM    5  C   UNL     1      -9.944   6.387  69.776  1.00  0.00    -0.166 C  
HETATM    6  C   UNL     1     -10.848   7.578  69.422  1.00  0.00    -0.150 C  
HETATM    7  N   UNL     1     -10.120   8.842  69.678  1.00  0.00    -0.198 NA 
HETATM    8  C   UNL     1      -8.822   7.785  71.480  1.00  0.00    -0.129 C  
HETATM    9  C   UNL     1      -9.710   8.983  71.089  1.00  0.00    -0.299 C  
ENDROOT
BRANCH   7  10
HETATM   10  C   UNL     1     -10.557  10.002  69.045  1.00  0.00    -0.214 A  
HETATM   11  C   UNL     1     -11.221  11.019  69.726  1.00  0.00    -0.339 A  
HETATM   12  C   UNL     1     -11.759  12.116  69.055  1.00  0.00    -0.377 A  
HETATM   13  C   UNL     1     -11.665  12.234  67.667  1.00  0.00    -0.334 A  
HETATM   14  C   UNL     1     -10.416  10.153  67.653  1.00  0.00    -0.293 A  
HETATM   15  C   UNL     1     -10.966  11.249  66.970  1.00  0.00    -0.352 A  
BRANCH  13  16
HETATM   16  O   UNL     1     -12.229  13.255  66.929  1.00  0.00    -0.350 OA 
BRANCH  16  17
HETATM   17  C   UNL     1     -11.295  13.923  66.073  1.00  0.00    -0.324 C  
BRANCH  17  18
HETATM   18  C   UNL     1     -10.919  15.326  66.525  1.00  0.00    -0.295 C  
HETATM   19  C   UNL     1     -11.456  15.696  67.880  1.00  0.00    -0.251 C  
HETATM   20  O   UNL     1     -10.487  16.603  68.398  1.00  0.00    -0.286 OA 
HETATM   21  C   UNL     1      -9.212  16.234  67.812  1.00  0.00    -0.203 C  
HETATM   22  O   UNL     1      -9.492  15.383  66.681  1.00  0.00    -0.228 OA 
BRANCH  21  23
HETATM   23  C   UNL     1      -8.478  17.477  67.301  1.00  0.00    -0.224 A  
HETATM   24 CL   UNL     1      -9.926  19.154  68.960  1.00  0.00    -0.471 Cl 
HETATM   25  C   UNL     1      -8.741  18.786  67.755  1.00  0.00    -0.287 A  
HETATM   26  C   UNL     1      -7.465  17.325  66.328  1.00  0.00    -0.354 A  
HETATM   27  C   UNL     1      -6.747  18.417  65.839  1.00  0.00    -0.312 A  
HETATM   28  C   UNL     1      -8.025  19.884  67.253  1.00  0.00    -0.337 A  
HETATM   29 CL   UNL     1      -6.135  21.039  65.715  1.00  0.00    -0.287 Cl 
HETATM   30  C   UNL     1      -7.029  19.694  66.304  1.00  0.00    -0.233 A  
ENDBRANCH  21  23
BRANCH  21  31
HETATM   31  C   UNL     1      -8.421  15.395  68.850  1.00  0.00    -0.205 C  
BRANCH  31  32
HETATM   32  N   UNL     1      -7.664  14.276  68.336  1.00  0.00    -0.126 NA 
HETATM   33  N   UNL     1      -5.900  13.121  67.642  1.00  0.00    -0.231 NA 
HETATM   34  C   UNL     1      -8.005  12.951  68.442  1.00  0.00    -0.137 A  
HETATM   35  C   UNL     1      -6.391  14.328  67.835  1.00  0.00    -0.163 A  
HETATM   36  C   UNL     1      -6.892  12.259  68.032  1.00  0.00    -0.082 A  
ENDBRANCH  31  32
ENDBRANCH  21  31
ENDBRANCH  17  18
ENDBRANCH  16  17
ENDBRANCH  13  16
ENDBRANCH   7  10
TORSDOF 7
ENDMDL
MODEL       44
REMARK 921   NORMALIZED FREE ENERGY PREDICTED BY IDOCK:   -6.62 KCAL/MOL
REMARK 922        TOTAL FREE ENERGY PREDICTED BY IDOCK:   -9.76 KCAL/MOL
REMARK 923 INTER-LIGAND FREE ENERGY PREDICTED BY IDOCK:   -9.24 KCAL/MOL
REMARK 924 INTRA-LIGAND FREE ENERGY PREDICTED BY IDOCK:   -0.52 KCAL/MOL
REMARK 927      BINDING AFFINITY PREDICTED BY RF-SCORE:    0.00 PKD
ROOT
HETATM    1  C   UNL     1      -6.834   2.328  66.208  1.00  0.00    -0.043 C  
HETATM    2  C   UNL     1      -7.384   3.293  67.225  1.00  0.00    -0.059 C  
HETATM    3  O   UNL     1      -7.280   3.053  68.427  1.00  0.00    -0.049 OA 
HETATM    4  N   UNL     1      -7.907   4.478  66.740  1.00  0.00    -0.098 N  
HETATM    5  C   UNL     1      -8.291   5.521  67.699  1.00  0.00    -0.100 C  
HETATM    6  C   UNL     1      -7.991   6.921  67.142  1.00  0.00    -0.113 C  
HETATM    7  N   UNL     1      -8.649   7.078  65.825  1.00  0.00    -0.146 NA 
HETATM    8  C   UNL     1      -8.447   4.667  65.382  1.00  0.00    -0.126 C  
HETATM    9  C   UNL     1      -8.183   6.084  64.837  1.00  0.00    -0.130 C  
ENDROOT
BRANCH   7  10
HETATM   10  C   UNL     1      -8.877   8.364  65.343  1.00  0.00    -0.103 A  
HETATM   11  C   UNL     1      -9.695   9.275  66.004  1.00  0.00    -0.359 A  
HETATM   12  C   UNL     1     -10.008  10.514  65.445  1.00  0.00    -0.353 A  
HETATM   13  C   UNL     1      -9.524  10.885  64.189  1.00  0.00    -0.257 A  
HETATM   14  C   UNL     1      -8.345   8.766  64.103  1.00  0.00    -0.155 A  
HETATM   15  C   UNL     1      -8.666  10.006  63.529  1.00  0.00    -0.229 A  
BRANCH  13  16
HETATM   16  O   UNL     1      -9.843  12.064  63.545  1.00  0.00    -0.368 OA 
BRANCH  16  17
HETATM   17  C   UNL     1     -11.235  12.391  63.612  1.00  0.00    -0.474 C  
BRANCH  17  18
HETATM   18  C   UNL     1     -11.566  13.547  64.545  1.00  0.00    -0.381 C  
HETATM   19  C   UNL     1     -12.644  13.234  65.545  1.00  0.00    -0.446 C  
HETATM   20  O   UNL     1     -12.311  14.038  66.673  1.00  0.00    -0.451 OA 
HETATM   21  C   UNL     1     -10.869  14.197  66.663  1.00  0.00    -0.299 C  
HETATM   22  O   UNL     1     -10.407  13.825  65.349  1.00  0.00    -0.305 OA 
BRANCH  21  23
HETATM   23  C   UNL     1     -10.489  15.661  66.903  1.00  0.00    -0.307 A  
HETATM   24 CL   UNL     1     -12.124  15.839  69.129  1.00  0.00    -0.310 Cl 
HETATM   25  C   UNL     1     -11.003  16.443  67.959  1.00  0.00    -0.327 A  
HETATM   26  C   UNL     1      -9.563  16.282  66.036  1.00  0.00    -0.371 A  
HETATM   27  C   UNL     1      -9.163  17.607  66.216  1.00  0.00    -0.212 A  
HETATM   28  C   UNL     1     -10.608  17.778  68.131  1.00  0.00    -0.350 A  
HETATM   29 CL   UNL     1      -9.183  19.978  67.496  1.00  0.00    -0.450 Cl 
HETATM   30  C   UNL     1      -9.687  18.351  67.264  1.00  0.00    -0.297 A  
ENDBRANCH  21  23
BRANCH  21  31
HETATM   31  C   UNL     1     -10.259  13.196  67.679  1.00  0.00    -0.224 C  
BRANCH  31  32
HETATM   32  N   UNL     1     -11.191  12.465  68.508  1.00  0.00    -0.257 NA 
HETATM   33  N   UNL     1     -12.303  10.726  69.324  1.00  0.00    -0.343 NA 
HETATM   34  C   UNL     1     -11.645  12.845  69.746  1.00  0.00    -0.218 A  
HETATM   35  C   UNL     1     -11.626  11.185  68.292  1.00  0.00    -0.289 A  
HETATM   36  C   UNL     1     -12.306  11.747  70.239  1.00  0.00    -0.240 A  
ENDBRANCH  31  32
ENDBRANCH  21  31
ENDBRANCH  17  18
ENDBRANCH  16  17
ENDBRANCH  13  16
ENDBRANCH   7  10
TORSDOF 7
ENDMDL
MODEL       45
REMARK 921   NORMALIZED FREE ENERGY PREDICTED BY IDOCK:   -6.56 KCAL/MOL
REMARK 922        TOTAL FREE ENERGY PREDICTED BY IDOCK:   -9.68 KCAL/MOL
REMARK 923 INTER-LIGAND FREE ENERGY PREDICTED BY IDOCK:   -8.81 KCAL/MOL
REMARK 924 INTRA-LIGAND FREE ENERGY PREDICTED BY IDOCK:   -0.87 KCAL/MOL
REMARK 927      BINDING AFFINITY PREDICTED BY RF-SCORE:    0.00 PKD
ROOT
HETATM    1  C   UNL     1     -11.279   3.586  73.520  1.00  0.00    -0.279 C  
HETATM    2  C   UNL     1     -10.305   3.142  72.461  1.00  0.00    -0.106 C  
HETATM    3  O   UNL     1      -9.926   1.972  72.418  1.00  0.00    -0.120 OA 
HETATM    4  N   UNL     1      -9.952   4.079  71.507  1.00  0.00    -0.176 N  
HETATM    5  C   UNL     1      -9.148   3.644  70.359  1.00  0.00    -0.128 C  
HETATM    6  C   UNL     1      -9.560   4.390  69.081  1.00  0.00    -0.181 C  
HETATM    7  N   UNL     1      -9.485   5.850  69.317  1.00  0.00    -0.127 NA 
HETATM    8  C   UNL     1      -9.999   5.539  71.703  1.00  0.00    -0.182 C  
HETATM    9  C   UNL     1     -10.373   6.292  70.411  1.00  0.00    -0.208 C  
ENDROOT
BRANCH   7  10
HETATM   10  C   UNL     1      -9.394   6.699  68.218  1.00  0.00    -0.119 A  
HETATM   11  C   UNL     1      -8.190   6.950  67.566  1.00  0.00    -0.116 A  
HETATM   12  C   UNL     1      -8.096   7.895  66.546  1.00  0.00    -0.107 A  
HETATM   13  C   UNL     1      -9.206   8.641  66.144  1.00  0.00    -0.213 A  
HETATM   14  C   UNL     1     -10.522   7.412  67.772  1.00  0.00    -0.298 A  
HETATM   15  C   UNL     1     -10.432   8.375  66.753  1.00  0.00    -0.315 A  
BRANCH  13  16
HETATM   16  O   UNL     1      -9.175   9.638  65.190  1.00  0.00    -0.214 OA 
BRANCH  16  17
HETATM   17  C   UNL     1     -10.260  10.565  65.299  1.00  0.00    -0.282 C  
BRANCH  17  18
HETATM   18  C   UNL     1      -9.878  12.015  65.038  1.00  0.00    -0.187 C  
HETATM   19  C   UNL     1     -10.816  12.736  64.111  1.00  0.00    -0.406 C  
HETATM   20  O   UNL     1     -10.759  14.091  64.548  1.00  0.00    -0.409 OA 
HETATM   21  C   UNL     1     -10.467  14.060  65.969  1.00  0.00    -0.304 C  
HETATM   22  O   UNL     1      -9.978  12.739  66.276  1.00  0.00    -0.254 OA 
BRANCH  21  23
HETATM   23  C   UNL     1      -9.364  15.066  66.311  1.00  0.00    -0.341 A  
HETATM   24 CL   UNL     1     -10.773  17.167  65.189  1.00  0.00    -0.159 Cl 
HETATM   25  C   UNL     1      -9.428  16.439  65.996  1.00  0.00    -0.310 A  
HETATM   26  C   UNL     1      -8.211  14.616  66.992  1.00  0.00    -0.188 A  
HETATM   27  C   UNL     1      -7.182  15.488  67.349  1.00  0.00    -0.241 A  
HETATM   28  C   UNL     1      -8.386  17.312  66.346  1.00  0.00    -0.315 A  
HETATM   29 CL   UNL     1      -6.013  17.913  67.477  1.00  0.00    -0.160 Cl 
HETATM   30  C   UNL     1      -7.273  16.834  67.025  1.00  0.00    -0.201 A  
ENDBRANCH  21  23
BRANCH  21  31
HETATM   31  C   UNL     1     -11.794  14.266  66.747  1.00  0.00    -0.426 C  
BRANCH  31  32
HETATM   32  N   UNL     1     -11.679  14.550  68.159  1.00  0.00    -0.331 NA 
HETATM   33  N   UNL     1     -11.681  15.741  70.032  1.00  0.00    -0.346 NA 
HETATM   34  C   UNL     1     -11.873  13.657  69.183  1.00  0.00    -0.348 A  
HETATM   35  C   UNL     1     -11.554  15.791  68.722  1.00  0.00    -0.395 A  
HETATM   36  C   UNL     1     -11.895  14.419  70.325  1.00  0.00    -0.313 A  
ENDBRANCH  31  32
ENDBRANCH  21  31
ENDBRANCH  17  18
ENDBRANCH  16  17
ENDBRANCH  13  16
ENDBRANCH   7  10
TORSDOF 7
ENDMDL
MODEL       46
REMARK 921   NORMALIZED FREE ENERGY PREDICTED BY IDOCK:   -6.56 KCAL/MOL
REMARK 922        TOTAL FREE ENERGY PREDICTED BY IDOCK:   -9.67 KCAL/MOL
REMARK 923 INTER-LIGAND FREE ENERGY PREDICTED BY IDOCK:   -9.22 KCAL/MOL
REMARK 924 INTRA-LIGAND FREE ENERGY PREDICTED BY IDOCK:   -0.45 KCAL/MOL
REMARK 927      BINDING AFFINITY PREDICTED BY RF-SCORE:    0.00 PKD
ROOT
HETATM    1  C   UNL     1      -9.466  17.596  66.404  1.00  0.00    -0.274 C  
HETATM    2  C   UNL     1     -10.447  16.558  65.926  1.00  0.00    -0.323 C  
HETATM    3  O   UNL     1     -10.669  16.422  64.723  1.00  0.00    -0.700 OA 
HETATM    4  N   UNL     1     -10.991  15.726  66.887  1.00  0.00    -0.263 N  
HETATM    5  C   UNL     1     -11.812  14.590  66.449  1.00  0.00    -0.349 C  
HETATM    6  C   UNL     1     -11.598  13.370  67.358  1.00  0.00    -0.354 C  
HETATM    7  N   UNL     1     -11.849  13.755  68.766  1.00  0.00    -0.346 NA 
HETATM    8  C   UNL     1     -11.125  16.062  68.315  1.00  0.00    -0.351 C  
HETATM    9  C   UNL     1     -10.950  14.832  69.227  1.00  0.00    -0.261 C  
ENDROOT
BRANCH   7  10
HETATM   10  C   UNL     1     -12.133  12.753  69.690  1.00  0.00    -0.222 A  
HETATM   11  C   UNL     1     -12.016  11.400  69.384  1.00  0.00    -0.407 A  
HETATM   12  C   UNL     1     -12.420  10.412  70.280  1.00  0.00    -0.296 A  
HETATM   13  C   UNL     1     -12.975  10.740  71.519  1.00  0.00    -0.456 A  
HETATM   14  C   UNL     1     -12.640  13.078  70.961  1.00  0.00    -0.386 A  
HETATM   15  C   UNL     1     -13.061  12.088  71.864  1.00  0.00    -0.475 A  
BRANCH  13  16
HETATM   16  O   UNL     1     -13.458   9.821  72.428  1.00  0.00    -0.413 OA 
BRANCH  16  17
HETATM   17  C   UNL     1     -13.019   8.482  72.174  1.00  0.00    -0.363 C  
BRANCH  17  18
HETATM   18  C   UNL     1     -11.508   8.318  72.095  1.00  0.00    -0.361 C  
HETATM   19  C   UNL     1     -10.935   7.423  73.157  1.00  0.00    -0.359 C  
HETATM   20  O   UNL     1      -9.792   6.841  72.537  1.00  0.00    -0.164 OA 
HETATM   21  C   UNL     1     -10.074   6.776  71.116  1.00  0.00    -0.181 C  
HETATM   22  O   UNL     1     -11.190   7.653  70.861  1.00  0.00    -0.259 OA 
BRANCH  21  23
HETATM   23  C   UNL     1      -8.876   7.284  70.308  1.00  0.00    -0.147 A  
HETATM   24 CL   UNL     1     -10.387   7.523  68.001  1.00  0.00    -0.241 Cl 
HETATM   25  C   UNL     1      -8.939   7.625  68.940  1.00  0.00    -0.137 A  
HETATM   26  C   UNL     1      -7.630   7.439  70.953  1.00  0.00    -0.083 A  
HETATM   27  C   UNL     1      -6.507   7.916  70.275  1.00  0.00    -0.037 A  
HETATM   28  C   UNL     1      -7.806   8.094  68.259  1.00  0.00    -0.122 A  
HETATM   29 CL   UNL     1      -5.221   8.847  68.097  1.00  0.00    -0.034 Cl 
HETATM   30  C   UNL     1      -6.599   8.244  68.930  1.00  0.00    -0.053 A  
ENDBRANCH  21  23
BRANCH  21  31
HETATM   31  C   UNL     1     -10.521   5.331  70.771  1.00  0.00    -0.228 C  
BRANCH  31  32
HETATM   32  N   UNL     1      -9.821   4.259  71.442  1.00  0.00    -0.187 NA 
HETATM   33  N   UNL     1      -9.515   2.508  72.772  1.00  0.00    -0.090 NA 
HETATM   34  C   UNL     1      -8.678   3.639  71.005  1.00  0.00    -0.078 A  
HETATM   35  C   UNL     1     -10.281   3.549  72.519  1.00  0.00    -0.157 A  
HETATM   36  C   UNL     1      -8.524   2.548  71.825  1.00  0.00    -0.060 A  
ENDBRANCH  31  32
ENDBRANCH  21  31
ENDBRANCH  17  18
ENDBRANCH  16  17
ENDBRANCH  13  16
ENDBRANCH   7  10
TORSDOF 7
ENDMDL
MODEL       47
REMARK 921   NORMALIZED FREE ENERGY PREDICTED BY IDOCK:   -6.55 KCAL/MOL
REMARK 922        TOTAL FREE ENERGY PREDICTED BY IDOCK:   -9.67 KCAL/MOL
REMARK 923 INTER-LIGAND FREE ENERGY PREDICTED BY IDOCK:   -8.34 KCAL/MOL
REMARK 924 INTRA-LIGAND FREE ENERGY PREDICTED BY IDOCK:   -1.33 KCAL/MOL
REMARK 927      BINDING AFFINITY PREDICTED BY RF-SCORE:    0.00 PKD
ROOT
HETATM    1  C   UNL     1     -11.390  16.191  64.465  1.00  0.00    -0.273 C  
HETATM    2  C   UNL     1     -11.973  14.802  64.473  1.00  0.00    -0.440 C  
HETATM    3  O   UNL     1     -12.613  14.393  63.505  1.00  0.00    -0.784 OA 
HETATM    4  N   UNL     1     -11.666  14.005  65.560  1.00  0.00    -0.338 N  
HETATM    5  C   UNL     1     -12.062  12.592  65.528  1.00  0.00    -0.419 C  
HETATM    6  C   UNL     1     -11.008  11.707  66.213  1.00  0.00    -0.289 C  
HETATM    7  N   UNL     1     -10.762  12.206  67.584  1.00  0.00    -0.214 NA 
HETATM    8  C   UNL     1     -11.296  14.507  66.895  1.00  0.00    -0.348 C  
HETATM    9  C   UNL     1     -10.270  13.599  67.600  1.00  0.00    -0.239 C  
ENDROOT
BRANCH   7  10
HETATM   10  C   UNL     1     -10.193  11.342  68.516  1.00  0.00    -0.208 A  
HETATM   11  C   UNL     1      -8.817  11.242  68.698  1.00  0.00    -0.141 A  
HETATM   12  C   UNL     1      -8.261  10.286  69.547  1.00  0.00    -0.165 A  
HETATM   13  C   UNL     1      -9.064   9.377  70.239  1.00  0.00    -0.245 A  
HETATM   14  C   UNL     1     -11.001  10.462  69.259  1.00  0.00    -0.287 A  
HETATM   15  C   UNL     1     -10.447   9.488  70.106  1.00  0.00    -0.299 A  
BRANCH  13  16
HETATM   16  O   UNL     1      -8.584   8.363  71.043  1.00  0.00    -0.131 OA 
BRANCH  16  17
HETATM   17  C   UNL     1      -7.301   7.874  70.639  1.00  0.00    -0.061 C  
BRANCH  17  18
HETATM   18  C   UNL     1      -7.349   6.676  69.702  1.00  0.00    -0.083 C  
HETATM   19  C   UNL     1      -6.811   5.408  70.304  1.00  0.00    -0.048 C  
HETATM   20  O   UNL     1      -7.557   4.378  69.662  1.00  0.00    -0.054 OA 
HETATM   21  C   UNL     1      -8.851   4.945  69.329  1.00  0.00    -0.088 C  
HETATM   22  O   UNL     1      -8.727   6.378  69.420  1.00  0.00    -0.128 OA 
BRANCH  21  23
HETATM   23  C   UNL     1      -9.235   4.592  67.889  1.00  0.00    -0.162 A  
HETATM   24 CL   UNL     1     -11.040   6.685  67.737  1.00  0.00    -0.357 Cl 
HETATM   25  C   UNL     1     -10.188   5.306  67.133  1.00  0.00    -0.220 A  
HETATM   26  C   UNL     1      -8.602   3.499  67.257  1.00  0.00    -0.119 A  
HETATM   27  C   UNL     1      -8.896   3.142  65.940  1.00  0.00    -0.139 A  
HETATM   28  C   UNL     1     -10.490   4.938  65.813  1.00  0.00    -0.227 A  
HETATM   29 CL   UNL     1     -10.190   3.434  63.595  1.00  0.00    -0.188 Cl 
HETATM   30  C   UNL     1      -9.838   3.863  65.222  1.00  0.00    -0.178 A  
ENDBRANCH  21  23
BRANCH  21  31
HETATM   31  C   UNL     1      -9.875   4.489  70.402  1.00  0.00    -0.232 C  
BRANCH  31  32
HETATM   32  N   UNL     1     -10.359   5.506  71.308  1.00  0.00    -0.224 NA 
HETATM   33  N   UNL     1     -11.783   6.928  72.245  1.00  0.00    -0.275 NA 
HETATM   34  C   UNL     1      -9.865   5.778  72.559  1.00  0.00    -0.162 A  
HETATM   35  C   UNL     1     -11.508   6.235  71.159  1.00  0.00    -0.299 A  
HETATM   36  C   UNL     1     -10.774   6.637  73.126  1.00  0.00    -0.278 A  
ENDBRANCH  31  32
ENDBRANCH  21  31
ENDBRANCH  17  18
ENDBRANCH  16  17
ENDBRANCH  13  16
ENDBRANCH   7  10
TORSDOF 7
ENDMDL
MODEL       48
REMARK 921   NORMALIZED FREE ENERGY PREDICTED BY IDOCK:   -6.55 KCAL/MOL
REMARK 922        TOTAL FREE ENERGY PREDICTED BY IDOCK:   -9.65 KCAL/MOL
REMARK 923 INTER-LIGAND FREE ENERGY PREDICTED BY IDOCK:   -9.28 KCAL/MOL
REMARK 924 INTRA-LIGAND FREE ENERGY PREDICTED BY IDOCK:   -0.38 KCAL/MOL
REMARK 927      BINDING AFFINITY PREDICTED BY RF-SCORE:    0.00 PKD
ROOT
HETATM    1  C   UNL     1      -8.317  20.442  67.413  1.00  0.00    -0.380 C  
HETATM    2  C   UNL     1      -9.192  19.712  66.427  1.00  0.00    -0.381 C  
HETATM    3  O   UNL     1      -9.248  20.082  65.255  1.00  0.00     0.028 OA 
HETATM    4  N   UNL     1      -9.831  18.575  66.885  1.00  0.00    -0.317 N  
HETATM    5  C   UNL     1     -10.549  17.735  65.918  1.00  0.00    -0.205 C  
HETATM    6  C   UNL     1     -10.417  16.246  66.274  1.00  0.00    -0.308 C  
HETATM    7  N   UNL     1     -10.865  16.032  67.669  1.00  0.00    -0.323 NA 
HETATM    8  C   UNL     1     -10.164  18.305  68.295  1.00  0.00    -0.385 C  
HETATM    9  C   UNL     1     -10.072  16.807  68.643  1.00  0.00    -0.279 C  
ENDROOT
BRANCH   7  10
HETATM   10  C   UNL     1     -11.236  14.748  68.059  1.00  0.00    -0.299 A  
HETATM   11  C   UNL     1     -11.501  14.419  69.385  1.00  0.00    -0.330 A  
HETATM   12  C   UNL     1     -11.752  13.103  69.774  1.00  0.00    -0.350 A  
HETATM   13  C   UNL     1     -11.732  12.058  68.848  1.00  0.00    -0.326 A  
HETATM   14  C   UNL     1     -11.273  13.700  67.121  1.00  0.00    -0.327 A  
HETATM   15  C   UNL     1     -11.512  12.371  67.508  1.00  0.00    -0.410 A  
BRANCH  13  16
HETATM   16  O   UNL     1     -11.905  10.726  69.169  1.00  0.00    -0.303 OA 
BRANCH  16  17
HETATM   17  C   UNL     1     -11.162   9.837  68.328  1.00  0.00    -0.012 C  
BRANCH  17  18
HETATM   18  C   UNL     1     -10.034   9.099  69.034  1.00  0.00    -0.184 C  
HETATM   19  C   UNL     1      -9.220   9.965  69.955  1.00  0.00    -0.212 C  
HETATM   20  O   UNL     1      -8.784   9.069  70.973  1.00  0.00    -0.198 OA 
HETATM   21  C   UNL     1      -9.797   8.037  71.085  1.00  0.00    -0.166 C  
HETATM   22  O   UNL     1     -10.612   8.108  69.898  1.00  0.00    -0.233 OA 
BRANCH  21  23
HETATM   23  C   UNL     1      -9.147   6.652  71.134  1.00  0.00    -0.152 A  
HETATM   24 CL   UNL     1     -10.942   5.619  69.297  1.00  0.00    -0.327 Cl 
HETATM   25  C   UNL     1      -9.598   5.546  70.383  1.00  0.00    -0.172 A  
HETATM   26  C   UNL     1      -8.023   6.449  71.964  1.00  0.00    -0.108 A  
HETATM   27  C   UNL     1      -7.376   5.215  72.036  1.00  0.00    -0.090 A  
HETATM   28  C   UNL     1      -8.952   4.303  70.465  1.00  0.00    -0.149 A  
HETATM   29 CL   UNL     1      -7.037   2.628  71.359  1.00  0.00    -0.032 Cl 
HETATM   30  C   UNL     1      -7.842   4.146  71.285  1.00  0.00    -0.071 A  
ENDBRANCH  21  23
BRANCH  21  31
HETATM   31  C   UNL     1     -10.702   8.371  72.301  1.00  0.00    -0.347 C  
BRANCH  31  32
HETATM   32  N   UNL     1     -12.124   8.183  72.120  1.00  0.00    -0.337 NA 
HETATM   33  N   UNL     1     -14.237   8.709  71.689  1.00  0.00    -0.414 NA 
HETATM   34  C   UNL     1     -12.750   7.012  71.776  1.00  0.00    -0.340 A  
HETATM   35  C   UNL     1     -13.066   9.176  72.068  1.00  0.00    -0.429 A  
HETATM   36  C   UNL     1     -14.045   7.366  71.490  1.00  0.00    -0.409 A  
ENDBRANCH  31  32
ENDBRANCH  21  31
ENDBRANCH  17  18
ENDBRANCH  16  17
ENDBRANCH  13  16
ENDBRANCH   7  10
TORSDOF 7
ENDMDL
MODEL       49
REMARK 921   NORMALIZED FREE ENERGY PREDICTED BY IDOCK:   -6.53 KCAL/MOL
REMARK 922        TOTAL FREE ENERGY PREDICTED BY IDOCK:   -9.64 KCAL/MOL
REMARK 923 INTER-LIGAND FREE ENERGY PREDICTED BY IDOCK:   -8.86 KCAL/MOL
REMARK 924 INTRA-LIGAND FREE ENERGY PREDICTED BY IDOCK:   -0.78 KCAL/MOL
REMARK 927      BINDING AFFINITY PREDICTED BY RF-SCORE:    0.00 PKD
ROOT
HETATM    1  C   UNL     1     -10.327   2.325  72.584  1.00  0.00    -0.231 C  
HETATM    2  C   UNL     1      -9.566   2.454  71.291  1.00  0.00    -0.152 C  
HETATM    3  O   UNL     1      -9.587   1.542  70.465  1.00  0.00    -0.102 OA 
HETATM    4  N   UNL     1      -8.942   3.665  71.053  1.00  0.00    -0.089 N  
HETATM    5  C   UNL     1      -8.340   3.898  69.735  1.00  0.00    -0.056 C  
HETATM    6  C   UNL     1      -8.507   5.363  69.301  1.00  0.00    -0.099 C  
HETATM    7  N   UNL     1      -7.959   6.252  70.351  1.00  0.00    -0.109 NA 
HETATM    8  C   UNL     1      -8.511   4.610  72.098  1.00  0.00    -0.118 C  
HETATM    9  C   UNL     1      -8.639   6.079  71.650  1.00  0.00    -0.131 C  
ENDROOT
BRANCH   7  10
HETATM   10  C   UNL     1      -7.614   7.556  70.006  1.00  0.00    -0.088 A  
HETATM   11  C   UNL     1      -8.097   8.663  70.696  1.00  0.00    -0.127 A  
HETATM   12  C   UNL     1      -7.839   9.963  70.262  1.00  0.00    -0.151 A  
HETATM   13  C   UNL     1      -7.096  10.206  69.105  1.00  0.00    -0.073 A  
HETATM   14  C   UNL     1      -6.819   7.806  68.873  1.00  0.00    -0.058 A  
HETATM   15  C   UNL     1      -6.566   9.113  68.422  1.00  0.00    -0.059 A  
BRANCH  13  16
HETATM   16  O   UNL     1      -6.857  11.460  68.579  1.00  0.00    -0.064 OA 
BRANCH  16  17
HETATM   17  C   UNL     1      -7.794  11.842  67.568  1.00  0.00    -0.152 C  
BRANCH  17  18
HETATM   18  C   UNL     1      -8.738  12.964  67.976  1.00  0.00    -0.191 C  
HETATM   19  C   UNL     1      -9.186  13.831  66.832  1.00  0.00    -0.255 C  
HETATM   20  O   UNL     1     -10.488  14.264  67.218  1.00  0.00    -0.266 OA 
HETATM   21  C   UNL     1     -11.045  13.219  68.055  1.00  0.00    -0.256 C  
HETATM   22  O   UNL     1      -9.953  12.375  68.470  1.00  0.00    -0.219 OA 
BRANCH  21  23
HETATM   23  C   UNL     1     -11.683  13.821  69.310  1.00  0.00    -0.376 A  
HETATM   24 CL   UNL     1     -12.521  11.343  70.214  1.00  0.00    -0.338 Cl 
HETATM   25  C   UNL     1     -12.349  13.062  70.295  1.00  0.00    -0.241 A  
HETATM   26  C   UNL     1     -11.601  15.215  69.521  1.00  0.00    -0.340 A  
HETATM   27  C   UNL     1     -12.145  15.820  70.654  1.00  0.00    -0.424 A  
HETATM   28  C   UNL     1     -12.905  13.674  71.429  1.00  0.00    -0.442 A  
HETATM   29 CL   UNL     1     -13.452  15.788  73.011  1.00  0.00    -0.658 Cl 
HETATM   30  C   UNL     1     -12.795  15.047  71.606  1.00  0.00    -0.345 A  
ENDBRANCH  21  23
BRANCH  21  31
HETATM   31  C   UNL     1     -12.005  12.359  67.192  1.00  0.00    -0.177 C  
BRANCH  31  32
HETATM   32  N   UNL     1     -12.260  12.825  65.847  1.00  0.00    -0.559 NA 
HETATM   33  N   UNL     1     -12.775  14.239  64.216  1.00  0.00    -0.621 NA 
HETATM   34  C   UNL     1     -11.762  12.277  64.692  1.00  0.00    -0.356 A  
HETATM   35  C   UNL     1     -12.875  13.999  65.507  1.00  0.00    -0.419 A  
HETATM   36  C   UNL     1     -12.070  13.180  63.704  1.00  0.00    -0.513 A  
ENDBRANCH  31  32
ENDBRANCH  21  31
ENDBRANCH  17  18
ENDBRANCH  16  17
ENDBRANCH  13  16
ENDBRANCH   7  10
TORSDOF 7
ENDMDL
MODEL       50
REMARK 921   NORMALIZED FREE ENERGY PREDICTED BY IDOCK:   -6.53 KCAL/MOL
REMARK 922        TOTAL FREE ENERGY PREDICTED BY IDOCK:   -9.64 KCAL/MOL
REMARK 923 INTER-LIGAND FREE ENERGY PREDICTED BY IDOCK:   -8.71 KCAL/MOL
REMARK 924 INTRA-LIGAND FREE ENERGY PREDICTED BY IDOCK:   -0.93 KCAL/MOL
REMARK 927      BINDING AFFINITY PREDICTED BY RF-SCORE:    0.00 PKD
ROOT
HETATM    1  C   UNL     1     -11.576   5.100  73.190  1.00  0.00    -0.281 C  
HETATM    2  C   UNL     1     -10.607   4.845  72.066  1.00  0.00    -0.140 C  
HETATM    3  O   UNL     1     -10.189   3.707  71.853  1.00  0.00    -0.146 OA 
HETATM    4  N   UNL     1     -10.302   5.919  71.249  1.00  0.00    -0.213 N  
HETATM    5  C   UNL     1      -9.504   5.678  70.041  1.00  0.00    -0.158 C  
HETATM    6  C   UNL     1      -9.965   6.582  68.886  1.00  0.00    -0.151 C  
HETATM    7  N   UNL     1      -9.934   7.996  69.326  1.00  0.00    -0.186 NA 
HETATM    8  C   UNL     1     -10.395   7.334  71.650  1.00  0.00    -0.197 C  
HETATM    9  C   UNL     1     -10.816   8.248  70.483  1.00  0.00    -0.232 C  
ENDROOT
BRANCH   7  10
HETATM   10  C   UNL     1      -9.891   8.994  68.356  1.00  0.00    -0.166 A  
HETATM   11  C   UNL     1     -10.910   9.929  68.202  1.00  0.00    -0.282 A  
HETATM   12  C   UNL     1     -10.907  10.844  67.150  1.00  0.00    -0.337 A  
HETATM   13  C   UNL     1      -9.887  10.849  66.196  1.00  0.00    -0.222 A  
HETATM   14  C   UNL     1      -8.837   9.039  67.425  1.00  0.00    -0.125 A  
HETATM   15  C   UNL     1      -8.834   9.949  66.356  1.00  0.00    -0.159 A  
BRANCH  13  16
HETATM   16  O   UNL     1      -9.852  11.677  65.093  1.00  0.00    -0.243 OA 
BRANCH  16  17
HETATM   17  C   UNL     1     -11.029  12.477  64.941  1.00  0.00    -0.300 C  
BRANCH  17  18
HETATM   18  C   UNL     1     -10.864  13.929  65.364  1.00  0.00    -0.319 C  
HETATM   19  C   UNL     1     -12.005  14.458  66.188  1.00  0.00    -0.369 C  
HETATM   20  O   UNL     1     -11.397  15.432  67.032  1.00  0.00    -0.288 OA 
HETATM   21  C   UNL     1     -10.027  15.006  67.244  1.00  0.00    -0.233 C  
HETATM   22  O   UNL     1      -9.726  14.019  66.237  1.00  0.00    -0.288 OA 
BRANCH  21  23
HETATM   23  C   UNL     1      -9.065  16.183  67.059  1.00  0.00    -0.228 A  
HETATM   24 CL   UNL     1     -10.993  18.024  67.804  1.00  0.00    -0.236 Cl 
HETATM   25  C   UNL     1      -9.420  17.530  67.282  1.00  0.00    -0.253 A  
HETATM   26  C   UNL     1      -7.736  15.927  66.655  1.00  0.00    -0.199 A  
HETATM   27  C   UNL     1      -6.808  16.956  66.489  1.00  0.00    -0.249 A  
HETATM   28  C   UNL     1      -8.488  18.563  67.103  1.00  0.00    -0.268 A  
HETATM   29 CL   UNL     1      -6.041  19.539  66.527  1.00  0.00    -0.166 Cl 
HETATM   30  C   UNL     1      -7.187  18.271  66.715  1.00  0.00    -0.212 A  
ENDBRANCH  21  23
BRANCH  21  31
HETATM   31  C   UNL     1      -9.939  14.310  68.628  1.00  0.00    -0.234 C  
BRANCH  31  32
HETATM   32  N   UNL     1     -10.916  14.709  69.616  1.00  0.00    -0.249 NA 
HETATM   33  N   UNL     1     -12.580  14.509  71.072  1.00  0.00    -0.317 NA 
HETATM   34  C   UNL     1     -10.822  15.788  70.459  1.00  0.00    -0.301 A  
HETATM   35  C   UNL     1     -12.000  13.975  70.017  1.00  0.00    -0.339 A  
HETATM   36  C   UNL     1     -11.844  15.629  71.362  1.00  0.00    -0.421 A  
ENDBRANCH  31  32
ENDBRANCH  21  31
ENDBRANCH  17  18
ENDBRANCH  16  17
ENDBRANCH  13  16
ENDBRANCH   7  10
TORSDOF 7
ENDMDL
MODEL       51
REMARK 921   NORMALIZED FREE ENERGY PREDICTED BY IDOCK:   -6.53 KCAL/MOL
REMARK 922        TOTAL FREE ENERGY PREDICTED BY IDOCK:   -9.64 KCAL/MOL
REMARK 923 INTER-LIGAND FREE ENERGY PREDICTED BY IDOCK:   -8.22 KCAL/MOL
REMARK 924 INTRA-LIGAND FREE ENERGY PREDICTED BY IDOCK:   -1.41 KCAL/MOL
REMARK 927      BINDING AFFINITY PREDICTED BY RF-SCORE:    0.00 PKD
ROOT
HETATM    1  C   UNL     1     -14.380  15.376  71.714  1.00  0.00    -0.639 C  
HETATM    2  C   UNL     1     -13.803  13.992  71.864  1.00  0.00    -0.445 C  
HETATM    3  O   UNL     1     -14.235  13.230  72.728  1.00  0.00    -0.661 OA 
HETATM    4  N   UNL     1     -12.857  13.608  70.932  1.00  0.00    -0.285 N  
HETATM    5  C   UNL     1     -12.398  12.214  70.931  1.00  0.00    -0.273 C  
HETATM    6  C   UNL     1     -12.134  11.720  69.499  1.00  0.00    -0.250 C  
HETATM    7  N   UNL     1     -11.187  12.640  68.828  1.00  0.00    -0.263 NA 
HETATM    8  C   UNL     1     -12.001  14.535  70.170  1.00  0.00    -0.315 C  
HETATM    9  C   UNL     1     -11.702  14.022  68.748  1.00  0.00    -0.353 C  
ENDROOT
BRANCH   7  10
HETATM   10  C   UNL     1     -10.485  12.179  67.718  1.00  0.00    -0.205 A  
HETATM   11  C   UNL     1     -11.122  11.654  66.597  1.00  0.00    -0.364 A  
HETATM   12  C   UNL     1     -10.401  11.086  65.548  1.00  0.00    -0.321 A  
HETATM   13  C   UNL     1      -9.007  11.007  65.585  1.00  0.00    -0.199 A  
HETATM   14  C   UNL     1      -9.078  12.148  67.726  1.00  0.00    -0.189 A  
HETATM   15  C   UNL     1      -8.346  11.566  66.678  1.00  0.00    -0.167 A  
BRANCH  13  16
HETATM   16  O   UNL     1      -8.231  10.402  64.617  1.00  0.00    -0.166 OA 
BRANCH  16  17
HETATM   17  C   UNL     1      -7.581   9.210  65.070  1.00  0.00    -0.106 C  
BRANCH  17  18
HETATM   18  C   UNL     1      -8.491   8.236  65.804  1.00  0.00    -0.151 C  
HETATM   19  C   UNL     1      -8.270   6.796  65.432  1.00  0.00    -0.134 C  
HETATM   20  O   UNL     1      -8.604   6.079  66.617  1.00  0.00    -0.110 OA 
HETATM   21  C   UNL     1      -8.310   6.957  67.734  1.00  0.00    -0.120 C  
HETATM   22  O   UNL     1      -8.177   8.291  67.205  1.00  0.00    -0.118 OA 
BRANCH  21  23
HETATM   23  C   UNL     1      -9.468   6.955  68.735  1.00  0.00    -0.135 A  
HETATM   24 CL   UNL     1      -9.529   4.190  68.836  1.00  0.00    -0.230 Cl 
HETATM   25  C   UNL     1     -10.055   5.782  69.257  1.00  0.00    -0.205 A  
HETATM   26  C   UNL     1      -9.987   8.188  69.187  1.00  0.00    -0.192 A  
HETATM   27  C   UNL     1     -11.029   8.251  70.114  1.00  0.00    -0.222 A  
HETATM   28  C   UNL     1     -11.109   5.849  70.180  1.00  0.00    -0.395 A  
HETATM   29 CL   UNL     1     -12.858   7.156  71.762  1.00  0.00    -0.382 Cl 
HETATM   30  C   UNL     1     -11.586   7.080  70.608  1.00  0.00    -0.335 A  
ENDBRANCH  21  23
BRANCH  21  31
HETATM   31  C   UNL     1      -6.938   6.546  68.331  1.00  0.00    -0.080 C  
BRANCH  31  32
HETATM   32  N   UNL     1      -6.730   6.832  69.733  1.00  0.00    -0.048 NA 
HETATM   33  N   UNL     1      -6.274   6.450  71.872  1.00  0.00    -0.041 NA 
HETATM   34  C   UNL     1      -6.353   8.038  70.267  1.00  0.00    -0.036 A  
HETATM   35  C   UNL     1      -6.681   5.908  70.743  1.00  0.00    -0.053 A  
HETATM   36  C   UNL     1      -6.053   7.771  71.580  1.00  0.00    -0.035 A  
ENDBRANCH  31  32
ENDBRANCH  21  31
ENDBRANCH  17  18
ENDBRANCH  16  17
ENDBRANCH  13  16
ENDBRANCH   7  10
TORSDOF 7
ENDMDL
MODEL       52
REMARK 921   NORMALIZED FREE ENERGY PREDICTED BY IDOCK:   -6.53 KCAL/MOL
REMARK 922        TOTAL FREE ENERGY PREDICTED BY IDOCK:   -9.63 KCAL/MOL
REMARK 923 INTER-LIGAND FREE ENERGY PREDICTED BY IDOCK:   -8.44 KCAL/MOL
REMARK 924 INTRA-LIGAND FREE ENERGY PREDICTED BY IDOCK:   -1.20 KCAL/MOL
REMARK 927      BINDING AFFINITY PREDICTED BY RF-SCORE:    0.00 PKD
ROOT
HETATM    1  C   UNL     1      -6.476  21.381  67.252  1.00  0.00    -0.360 C  
HETATM    2  C   UNL     1      -6.639  20.265  68.251  1.00  0.00    -0.299 C  
HETATM    3  O   UNL     1      -6.239  20.403  69.406  1.00  0.00    -0.327 OA 
HETATM    4  N   UNL     1      -7.337  19.149  67.829  1.00  0.00    -0.245 N  
HETATM    5  C   UNL     1      -7.674  18.116  68.816  1.00  0.00    -0.264 C  
HETATM    6  C   UNL     1      -9.051  17.499  68.524  1.00  0.00    -0.277 C  
HETATM    7  N   UNL     1      -9.079  16.997  67.131  1.00  0.00    -0.219 NA 
HETATM    8  C   UNL     1      -7.471  18.719  66.425  1.00  0.00    -0.252 C  
HETATM    9  C   UNL     1      -8.836  18.064  66.140  1.00  0.00    -0.085 C  
ENDROOT
BRANCH   7  10
HETATM   10  C   UNL     1     -10.032  16.042  66.787  1.00  0.00    -0.258 A  
HETATM   11  C   UNL     1     -10.964  15.555  67.699  1.00  0.00    -0.315 A  
HETATM   12  C   UNL     1     -11.830  14.513  67.370  1.00  0.00    -0.416 A  
HETATM   13  C   UNL     1     -11.788  13.904  66.114  1.00  0.00    -0.400 A  
HETATM   14  C   UNL     1     -10.031  15.464  65.504  1.00  0.00    -0.379 A  
HETATM   15  C   UNL     1     -10.892  14.405  65.170  1.00  0.00    -0.397 A  
BRANCH  13  16
HETATM   16  O   UNL     1     -12.566  12.827  65.740  1.00  0.00    -0.562 OA 
BRANCH  16  17
HETATM   17  C   UNL     1     -11.857  11.853  64.967  1.00  0.00    -0.146 C  
BRANCH  17  18
HETATM   18  C   UNL     1     -11.078  10.839  65.792  1.00  0.00     0.208 C  
HETATM   19  C   UNL     1      -9.609  10.795  65.476  1.00  0.00    -0.222 C  
HETATM   20  O   UNL     1      -9.003  10.418  66.709  1.00  0.00    -0.139 OA 
HETATM   21  C   UNL     1      -9.860  10.920  67.767  1.00  0.00    -0.175 C  
HETATM   22  O   UNL     1     -11.133  11.240  67.171  1.00  0.00    -0.279 OA 
BRANCH  21  23
HETATM   23  C   UNL     1     -10.091   9.839  68.827  1.00  0.00    -0.187 A  
HETATM   24 CL   UNL     1     -12.439  11.023  69.689  1.00  0.00    -0.298 Cl 
HETATM   25  C   UNL     1     -11.195   9.823  69.706  1.00  0.00    -0.202 A  
HETATM   26  C   UNL     1      -9.163   8.780  68.942  1.00  0.00    -0.141 A  
HETATM   27  C   UNL     1      -9.330   7.755  69.875  1.00  0.00    -0.157 A  
HETATM   28  C   UNL     1     -11.354   8.798  70.650  1.00  0.00    -0.289 A  
HETATM   29 CL   UNL     1     -10.642   6.497  71.865  1.00  0.00    -0.233 Cl 
HETATM   30  C   UNL     1     -10.426   7.767  70.725  1.00  0.00    -0.210 A  
ENDBRANCH  21  23
BRANCH  21  31
HETATM   31  C   UNL     1      -9.247  12.238  68.310  1.00  0.00    -0.189 C  
BRANCH  31  32
HETATM   32  N   UNL     1      -7.842  12.456  68.045  1.00  0.00    -0.130 NA 
HETATM   33  N   UNL     1      -5.997  13.541  67.457  1.00  0.00    -0.337 NA 
HETATM   34  C   UNL     1      -6.795  11.764  68.600  1.00  0.00    -0.081 A  
HETATM   35  C   UNL     1      -7.310  13.511  67.353  1.00  0.00    -0.109 A  
HETATM   36  C   UNL     1      -5.671  12.467  68.244  1.00  0.00    -0.063 A  
ENDBRANCH  31  32
ENDBRANCH  21  31
ENDBRANCH  17  18
ENDBRANCH  16  17
ENDBRANCH  13  16
ENDBRANCH   7  10
TORSDOF 7
ENDMDL
MODEL       53
REMARK 921   NORMALIZED FREE ENERGY PREDICTED BY IDOCK:   -6.52 KCAL/MOL
REMARK 922        TOTAL FREE ENERGY PREDICTED BY IDOCK:   -9.62 KCAL/MOL
REMARK 923 INTER-LIGAND FREE ENERGY PREDICTED BY IDOCK:   -8.80 KCAL/MOL
REMARK 924 INTRA-LIGAND FREE ENERGY PREDICTED BY IDOCK:   -0.82 KCAL/MOL
REMARK 927      BINDING AFFINITY PREDICTED BY RF-SCORE:    0.00 PKD
ROOT
HETATM    1  C   UNL     1      -5.313  20.755  68.243  1.00  0.00    -0.325 C  
HETATM    2  C   UNL     1      -6.260  20.682  67.073  1.00  0.00    -0.227 C  
HETATM    3  O   UNL     1      -6.062  21.368  66.071  1.00  0.00    -0.263 OA 
HETATM    4  N   UNL     1      -7.277  19.748  67.153  1.00  0.00    -0.217 N  
HETATM    5  C   UNL     1      -8.114  19.519  65.969  1.00  0.00    -0.291 C  
HETATM    6  C   UNL     1      -8.508  18.038  65.851  1.00  0.00     0.145 C  
HETATM    7  N   UNL     1      -9.155  17.598  67.108  1.00  0.00    -0.240 NA 
HETATM    8  C   UNL     1      -7.835  19.216  68.409  1.00  0.00    -0.335 C  
HETATM    9  C   UNL     1      -8.268  17.743  68.280  1.00  0.00    -0.285 C  
ENDROOT
BRANCH   7  10
HETATM   10  C   UNL     1      -9.960  16.463  67.081  1.00  0.00    -0.260 A  
HETATM   11  C   UNL     1     -10.954  16.231  68.027  1.00  0.00    -0.328 A  
HETATM   12  C   UNL     1     -11.667  15.033  68.056  1.00  0.00    -0.320 A  
HETATM   13  C   UNL     1     -11.402  14.009  67.145  1.00  0.00    -0.331 A  
HETATM   14  C   UNL     1      -9.734  15.451  66.130  1.00  0.00    -0.347 A  
HETATM   15  C   UNL     1     -10.440  14.237  66.162  1.00  0.00    -0.294 A  
BRANCH  13  16
HETATM   16  O   UNL     1     -12.018  12.774  67.154  1.00  0.00    -0.372 OA 
BRANCH  16  17
HETATM   17  C   UNL     1     -11.792  12.032  68.357  1.00  0.00    -0.300 C  
BRANCH  17  18
HETATM   18  C   UNL     1     -10.758  10.923  68.228  1.00  0.00    -0.204 C  
HETATM   19  C   UNL     1      -9.471  11.201  68.953  1.00  0.00    -0.124 C  
HETATM   20  O   UNL     1      -9.000   9.910  69.327  1.00  0.00    -0.154 OA 
HETATM   21  C   UNL     1     -10.171   9.072  69.502  1.00  0.00    -0.203 C  
HETATM   22  O   UNL     1     -11.277   9.745  68.868  1.00  0.00    -0.151 OA 
BRANCH  21  23
HETATM   23  C   UNL     1      -9.974   7.723  68.804  1.00  0.00    -0.181 A  
HETATM   24 CL   UNL     1      -7.960   6.984  70.554  1.00  0.00    -0.111 Cl 
HETATM   25  C   UNL     1      -9.022   6.762  69.207  1.00  0.00    -0.137 A  
HETATM   26  C   UNL     1     -10.789   7.395  67.699  1.00  0.00    -0.220 A  
HETATM   27  C   UNL     1     -10.669   6.173  67.035  1.00  0.00    -0.423 A  
HETATM   28  C   UNL     1      -8.897   5.539  68.531  1.00  0.00    -0.104 A  
HETATM   29 CL   UNL     1      -9.586   3.736  66.647  1.00  0.00    -0.219 Cl 
HETATM   30  C   UNL     1      -9.724   5.249  67.454  1.00  0.00    -0.146 A  
ENDBRANCH  21  23
BRANCH  21  31
HETATM   31  C   UNL     1     -10.482   8.976  71.019  1.00  0.00    -0.269 C  
BRANCH  31  32
HETATM   32  N   UNL     1     -11.736   8.355  71.385  1.00  0.00    -0.277 NA 
HETATM   33  N   UNL     1     -13.926   8.138  71.669  1.00  0.00    -0.392 NA 
HETATM   34  C   UNL     1     -11.984   7.007  71.449  1.00  0.00    -0.340 A  
HETATM   35  C   UNL     1     -12.936   8.996  71.538  1.00  0.00    -0.337 A  
HETATM   36  C   UNL     1     -13.345   6.899  71.599  1.00  0.00    -0.219 A  
ENDBRANCH  31  32
ENDBRANCH  21  31
ENDBRANCH  17  18
ENDBRANCH  16  17
ENDBRANCH  13  16
ENDBRANCH   7  10
TORSDOF 7
ENDMDL
MODEL       54
REMARK 921   NORMALIZED FREE ENERGY PREDICTED BY IDOCK:   -6.52 KCAL/MOL
REMARK 922        TOTAL FREE ENERGY PREDICTED BY IDOCK:   -9.62 KCAL/MOL
REMARK 923 INTER-LIGAND FREE ENERGY PREDICTED BY IDOCK:   -8.44 KCAL/MOL
REMARK 924 INTRA-LIGAND FREE ENERGY PREDICTED BY IDOCK:   -1.18 KCAL/MOL
REMARK 927      BINDING AFFINITY PREDICTED BY RF-SCORE:    0.00 PKD
ROOT
HETATM    1  C   UNL     1      -5.721   3.110  66.597  1.00  0.00    -0.022 C  
HETATM    2  C   UNL     1      -6.993   3.673  67.174  1.00  0.00    -0.058 C  
HETATM    3  O   UNL     1      -7.477   3.191  68.198  1.00  0.00    -0.053 OA 
HETATM    4  N   UNL     1      -7.513   4.796  66.557  1.00  0.00    -0.085 N  
HETATM    5  C   UNL     1      -8.647   5.482  67.187  1.00  0.00    -0.109 C  
HETATM    6  C   UNL     1      -8.547   7.004  66.999  1.00  0.00    -0.122 C  
HETATM    7  N   UNL     1      -8.414   7.314  65.557  1.00  0.00    -0.135 NA 
HETATM    8  C   UNL     1      -7.275   5.171  65.152  1.00  0.00    -0.067 C  
HETATM    9  C   UNL     1      -7.215   6.698  64.954  1.00  0.00    -0.074 C  
ENDROOT
BRANCH   7  10
HETATM   10  C   UNL     1      -8.734   8.596  65.119  1.00  0.00    -0.144 A  
HETATM   11  C   UNL     1      -9.756   9.347  65.692  1.00  0.00    -0.336 A  
HETATM   12  C   UNL     1     -10.142  10.578  65.162  1.00  0.00    -0.383 A  
HETATM   13  C   UNL     1      -9.527  11.101  64.023  1.00  0.00    -0.214 A  
HETATM   14  C   UNL     1      -8.079   9.153  64.005  1.00  0.00    -0.151 A  
HETATM   15  C   UNL     1      -8.471  10.386  63.458  1.00  0.00    -0.171 A  
BRANCH  13  16
HETATM   16  O   UNL     1      -9.898  12.277  63.403  1.00  0.00    -0.374 OA 
BRANCH  16  17
HETATM   17  C   UNL     1     -11.292  12.575  63.532  1.00  0.00    -0.486 C  
BRANCH  17  18
HETATM   18  C   UNL     1     -11.610  13.691  64.516  1.00  0.00    -0.390 C  
HETATM   19  C   UNL     1     -12.615  13.311  65.567  1.00  0.00    -0.446 C  
HETATM   20  O   UNL     1     -12.246  14.097  66.697  1.00  0.00    -0.448 OA 
HETATM   21  C   UNL     1     -10.814  14.312  66.607  1.00  0.00    -0.301 C  
HETATM   22  O   UNL     1     -10.417  13.993  65.258  1.00  0.00    -0.336 OA 
BRANCH  21  23
HETATM   23  C   UNL     1     -10.476  15.783  66.866  1.00  0.00    -0.315 A  
HETATM   24 CL   UNL     1     -11.709  15.748  69.344  1.00  0.00    -0.374 Cl 
HETATM   25  C   UNL     1     -10.839  16.478  68.039  1.00  0.00    -0.337 A  
HETATM   26  C   UNL     1      -9.747  16.502  65.894  1.00  0.00    -0.303 A  
HETATM   27  C   UNL     1      -9.393  17.839  66.082  1.00  0.00    -0.153 A  
HETATM   28  C   UNL     1     -10.491  17.825  68.221  1.00  0.00    -0.368 A  
HETATM   29 CL   UNL     1      -9.315  20.138  67.486  1.00  0.00    -0.484 Cl 
HETATM   30  C   UNL     1      -9.765  18.496  67.246  1.00  0.00    -0.300 A  
ENDBRANCH  21  23
BRANCH  21  31
HETATM   31  C   UNL     1     -10.107  13.309  67.557  1.00  0.00    -0.223 C  
BRANCH  31  32
HETATM   32  N   UNL     1      -8.662  13.345  67.579  1.00  0.00    -0.192 NA 
HETATM   33  N   UNL     1      -6.621  13.884  68.263  1.00  0.00    -0.097 NA 
HETATM   34  C   UNL     1      -7.821  12.388  67.070  1.00  0.00    -0.085 A  
HETATM   35  C   UNL     1      -7.891  14.233  68.278  1.00  0.00    -0.141 A  
HETATM   36  C   UNL     1      -6.571  12.728  67.527  1.00  0.00    -0.158 A  
ENDBRANCH  31  32
ENDBRANCH  21  31
ENDBRANCH  17  18
ENDBRANCH  16  17
ENDBRANCH  13  16
ENDBRANCH   7  10
TORSDOF 7
ENDMDL
MODEL       55
REMARK 921   NORMALIZED FREE ENERGY PREDICTED BY IDOCK:   -6.52 KCAL/MOL
REMARK 922        TOTAL FREE ENERGY PREDICTED BY IDOCK:   -9.62 KCAL/MOL
REMARK 923 INTER-LIGAND FREE ENERGY PREDICTED BY IDOCK:   -8.87 KCAL/MOL
REMARK 924 INTRA-LIGAND FREE ENERGY PREDICTED BY IDOCK:   -0.75 KCAL/MOL
REMARK 927      BINDING AFFINITY PREDICTED BY RF-SCORE:    0.00 PKD
ROOT
HETATM    1  C   UNL     1      -7.648  20.085  67.721  1.00  0.00    -0.328 C  
HETATM    2  C   UNL     1      -8.620  19.521  66.719  1.00  0.00    -0.318 C  
HETATM    3  O   UNL     1      -8.646  19.953  65.568  1.00  0.00    -0.261 OA 
HETATM    4  N   UNL     1      -9.389  18.449  67.134  1.00  0.00    -0.266 N  
HETATM    5  C   UNL     1     -10.220  17.755  66.142  1.00  0.00    -0.339 C  
HETATM    6  C   UNL     1     -10.270  16.245  66.422  1.00  0.00    -0.313 C  
HETATM    7  N   UNL     1     -10.721  16.017  67.814  1.00  0.00    -0.316 NA 
HETATM    8  C   UNL     1      -9.733  18.151  68.536  1.00  0.00    -0.362 C  
HETATM    9  C   UNL     1      -9.824  16.637  68.809  1.00  0.00    -0.252 C  
ENDROOT
BRANCH   7  10
HETATM   10  C   UNL     1     -11.244  14.771  68.149  1.00  0.00    -0.294 A  
HETATM   11  C   UNL     1     -11.605  14.438  69.451  1.00  0.00    -0.349 A  
HETATM   12  C   UNL     1     -12.011  13.148  69.788  1.00  0.00    -0.382 A  
HETATM   13  C   UNL     1     -12.058  12.130  68.834  1.00  0.00    -0.133 A  
HETATM   14  C   UNL     1     -11.346  13.756  67.179  1.00  0.00    -0.344 A  
HETATM   15  C   UNL     1     -11.742  12.451  67.514  1.00  0.00    -0.425 A  
BRANCH  13  16
HETATM   16  O   UNL     1     -12.385  10.817  69.106  1.00  0.00    -0.400 OA 
BRANCH  16  17
HETATM   17  C   UNL     1     -11.341  10.094  69.765  1.00  0.00    -0.256 C  
BRANCH  17  18
HETATM   18  C   UNL     1     -10.397   9.354  68.829  1.00  0.00    -0.209 C  
HETATM   19  C   UNL     1      -8.941   9.614  69.098  1.00  0.00    -0.154 C  
HETATM   20  O   UNL     1      -8.297   8.407  68.703  1.00  0.00    -0.118 OA 
HETATM   21  C   UNL     1      -9.253   7.335  68.911  1.00  0.00    -0.141 C  
HETATM   22  O   UNL     1     -10.552   7.943  69.053  1.00  0.00    -0.219 OA 
BRANCH  21  23
HETATM   23  C   UNL     1      -9.291   6.409  67.692  1.00  0.00    -0.117 A  
HETATM   24 CL   UNL     1      -6.608   6.818  67.152  1.00  0.00    -0.046 Cl 
HETATM   25  C   UNL     1      -8.174   6.140  66.874  1.00  0.00    -0.106 A  
HETATM   26  C   UNL     1     -10.503   5.766  67.357  1.00  0.00    -0.318 A  
HETATM   27  C   UNL     1     -10.596   4.895  66.270  1.00  0.00    -0.307 A  
HETATM   28  C   UNL     1      -8.273   5.273  65.775  1.00  0.00    -0.119 A  
HETATM   29 CL   UNL     1      -9.588   3.566  64.153  1.00  0.00    -0.145 Cl 
HETATM   30  C   UNL     1      -9.480   4.651  65.483  1.00  0.00    -0.173 A  
ENDBRANCH  21  23
BRANCH  21  31
HETATM   31  C   UNL     1      -8.912   6.628  70.250  1.00  0.00    -0.152 C  
BRANCH  31  32
HETATM   32  N   UNL     1      -9.950   6.613  71.256  1.00  0.00    -0.181 NA 
HETATM   33  N   UNL     1     -11.311   7.385  72.830  1.00  0.00    -0.323 NA 
HETATM   34  C   UNL     1     -11.001   5.732  71.322  1.00  0.00    -0.230 A  
HETATM   35  C   UNL     1     -10.175   7.583  72.194  1.00  0.00    -0.196 A  
HETATM   36  C   UNL     1     -11.839   6.245  72.282  1.00  0.00    -0.278 A  
ENDBRANCH  31  32
ENDBRANCH  21  31
ENDBRANCH  17  18
ENDBRANCH  16  17
ENDBRANCH  13  16
ENDBRANCH   7  10
TORSDOF 7
ENDMDL
MODEL       56
REMARK 921   NORMALIZED FREE ENERGY PREDICTED BY IDOCK:   -6.51 KCAL/MOL
REMARK 922        TOTAL FREE ENERGY PREDICTED BY IDOCK:   -9.61 KCAL/MOL
REMARK 923 INTER-LIGAND FREE ENERGY PREDICTED BY IDOCK:   -8.05 KCAL/MOL
REMARK 924 INTRA-LIGAND FREE ENERGY PREDICTED BY IDOCK:   -1.56 KCAL/MOL
REMARK 927      BINDING AFFINITY PREDICTED BY RF-SCORE:    0.00 PKD
ROOT
HETATM    1  C   UNL     1     -12.585  14.882  73.933  1.00  0.00    -0.522 C  
HETATM    2  C   UNL     1     -12.134  15.922  72.942  1.00  0.00    -0.506 C  
HETATM    3  O   UNL     1     -11.723  17.014  73.332  1.00  0.00    -0.199 OA 
HETATM    4  N   UNL     1     -12.117  15.548  71.611  1.00  0.00    -0.358 N  
HETATM    5  C   UNL     1     -11.521  16.464  70.631  1.00  0.00    -0.154 C  
HETATM    6  C   UNL     1     -10.785  15.690  69.526  1.00  0.00    -0.271 C  
HETATM    7  N   UNL     1     -11.711  14.711  68.912  1.00  0.00    -0.297 NA 
HETATM    8  C   UNL     1     -12.951  14.484  71.024  1.00  0.00    -0.358 C  
HETATM    9  C   UNL     1     -12.230  13.732  69.888  1.00  0.00    -0.321 C  
ENDROOT
BRANCH   7  10
HETATM   10  C   UNL     1     -11.413  14.217  67.645  1.00  0.00    -0.338 A  
HETATM   11  C   UNL     1     -12.242  13.320  66.979  1.00  0.00    -0.310 A  
HETATM   12  C   UNL     1     -11.869  12.743  65.766  1.00  0.00    -0.484 A  
HETATM   13  C   UNL     1     -10.637  13.031  65.176  1.00  0.00    -0.312 A  
HETATM   14  C   UNL     1     -10.197  14.548  67.018  1.00  0.00    -0.262 A  
HETATM   15  C   UNL     1      -9.809  13.961  65.803  1.00  0.00    -0.262 A  
BRANCH  13  16
HETATM   16  O   UNL     1     -10.171  12.450  64.013  1.00  0.00    -0.366 OA 
BRANCH  16  17
HETATM   17  C   UNL     1     -10.603  11.096  63.840  1.00  0.00    -0.364 C  
BRANCH  17  18
HETATM   18  C   UNL     1      -9.616  10.051  64.338  1.00  0.00    -0.258 C  
HETATM   19  C   UNL     1      -8.189  10.521  64.362  1.00  0.00    -0.068 C  
HETATM   20  O   UNL     1      -7.605   9.796  65.440  1.00  0.00    -0.110 OA 
HETATM   21  C   UNL     1      -8.667   9.539  66.395  1.00  0.00    -0.135 C  
HETATM   22  O   UNL     1      -9.918   9.764  65.714  1.00  0.00    -0.284 OA 
BRANCH  21  23
HETATM   23  C   UNL     1      -8.632   8.079  66.854  1.00  0.00    -0.130 A  
HETATM   24 CL   UNL     1     -10.767   8.449  68.576  1.00  0.00    -0.131 Cl 
HETATM   25  C   UNL     1      -9.517   7.534  67.808  1.00  0.00    -0.141 A  
HETATM   26  C   UNL     1      -7.675   7.205  66.294  1.00  0.00    -0.100 A  
HETATM   27  C   UNL     1      -7.606   5.859  66.657  1.00  0.00    -0.095 A  
HETATM   28  C   UNL     1      -9.439   6.183  68.180  1.00  0.00    -0.113 A  
HETATM   29 CL   UNL     1      -8.418   3.691  68.037  1.00  0.00    -0.102 Cl 
HETATM   30  C   UNL     1      -8.490   5.352  67.599  1.00  0.00    -0.105 A  
ENDBRANCH  21  23
BRANCH  21  31
HETATM   31  C   UNL     1      -8.559  10.580  67.540  1.00  0.00    -0.121 C  
BRANCH  31  32
HETATM   32  N   UNL     1      -7.507  10.369  68.510  1.00  0.00    -0.086 NA 
HETATM   33  N   UNL     1      -5.500  10.523  69.444  1.00  0.00    -0.038 NA 
HETATM   34  C   UNL     1      -7.678  10.078  69.840  1.00  0.00    -0.175 A  
HETATM   35  C   UNL     1      -6.175  10.616  68.317  1.00  0.00    -0.050 A  
HETATM   36  C   UNL     1      -6.431  10.204  70.399  1.00  0.00    -0.131 A  
ENDBRANCH  31  32
ENDBRANCH  21  31
ENDBRANCH  17  18
ENDBRANCH  16  17
ENDBRANCH  13  16
ENDBRANCH   7  10
TORSDOF 7
ENDMDL
MODEL       57
REMARK 921   NORMALIZED FREE ENERGY PREDICTED BY IDOCK:   -6.50 KCAL/MOL
REMARK 922        TOTAL FREE ENERGY PREDICTED BY IDOCK:   -9.59 KCAL/MOL
REMARK 923 INTER-LIGAND FREE ENERGY PREDICTED BY IDOCK:   -9.32 KCAL/MOL
REMARK 924 INTRA-LIGAND FREE ENERGY PREDICTED BY IDOCK:   -0.27 KCAL/MOL
REMARK 927      BINDING AFFINITY PREDICTED BY RF-SCORE:    0.00 PKD
ROOT
HETATM    1  C   UNL     1     -10.534   3.330  74.334  1.00  0.00    -0.246 C  
HETATM    2  C   UNL     1     -10.391   3.612  72.862  1.00  0.00    -0.166 C  
HETATM    3  O   UNL     1     -10.273   2.685  72.061  1.00  0.00    -0.150 OA 
HETATM    4  N   UNL     1     -10.499   4.933  72.467  1.00  0.00    -0.200 N  
HETATM    5  C   UNL     1     -10.543   5.236  71.031  1.00  0.00    -0.170 C  
HETATM    6  C   UNL     1     -11.485   6.415  70.744  1.00  0.00    -0.353 C  
HETATM    7  N   UNL     1     -11.083   7.579  71.566  1.00  0.00    -0.234 NA 
HETATM    8  C   UNL     1     -10.219   6.095  73.329  1.00  0.00    -0.209 C  
HETATM    9  C   UNL     1     -11.136   7.293  73.014  1.00  0.00    -0.317 C  
ENDROOT
BRANCH   7  10
HETATM   10  C   UNL     1     -11.498   8.848  71.174  1.00  0.00    -0.301 A  
HETATM   11  C   UNL     1     -10.788   9.615  70.255  1.00  0.00    -0.339 A  
HETATM   12  C   UNL     1     -11.152  10.930  69.967  1.00  0.00    -0.285 A  
HETATM   13  C   UNL     1     -12.238  11.537  70.600  1.00  0.00    -0.378 A  
HETATM   14  C   UNL     1     -12.626   9.445  71.768  1.00  0.00    -0.470 A  
HETATM   15  C   UNL     1     -12.990  10.772  71.492  1.00  0.00    -0.562 A  
BRANCH  13  16
HETATM   16  O   UNL     1     -12.617  12.851  70.416  1.00  0.00    -0.197 OA 
BRANCH  16  17
HETATM   17  C   UNL     1     -11.725  13.589  69.575  1.00  0.00    -0.322 C  
BRANCH  17  18
HETATM   18  C   UNL     1     -11.765  13.187  68.108  1.00  0.00    -0.355 C  
HETATM   19  C   UNL     1     -12.497  14.161  67.227  1.00  0.00     0.037 C  
HETATM   20  O   UNL     1     -11.845  14.044  65.966  1.00  0.00    -0.355 OA 
HETATM   21  C   UNL     1     -10.471  13.666  66.240  1.00  0.00    -0.291 C  
HETATM   22  O   UNL     1     -10.420  13.194  67.601  1.00  0.00    -0.218 OA 
BRANCH  21  23
HETATM   23  C   UNL     1     -10.038  12.519  65.322  1.00  0.00    -0.275 A  
HETATM   24 CL   UNL     1      -8.539  11.332  67.323  1.00  0.00    -0.139 Cl 
HETATM   25  C   UNL     1      -9.190  11.466  65.727  1.00  0.00    -0.208 A  
HETATM   26  C   UNL     1     -10.512  12.487  63.993  1.00  0.00    -0.449 A  
HETATM   27  C   UNL     1     -10.169  11.457  63.115  1.00  0.00    -0.380 A  
HETATM   28  C   UNL     1      -8.838  10.439  64.839  1.00  0.00    -0.209 A  
HETATM   29 CL   UNL     1      -8.921   9.158  62.468  1.00  0.00    -0.196 Cl 
HETATM   30  C   UNL     1      -9.333  10.436  63.542  1.00  0.00    -0.297 A  
ENDBRANCH  21  23
BRANCH  21  31
HETATM   31  C   UNL     1      -9.586  14.938  66.147  1.00  0.00    -0.310 C  
BRANCH  31  32
HETATM   32  N   UNL     1      -8.600  15.118  67.189  1.00  0.00    -0.207 NA 
HETATM   33  N   UNL     1      -7.789  15.525  69.215  1.00  0.00    -0.213 NA 
HETATM   34  C   UNL     1      -7.340  14.577  67.215  1.00  0.00    -0.068 A  
HETATM   35  C   UNL     1      -8.820  15.692  68.413  1.00  0.00    -0.184 A  
HETATM   36  C   UNL     1      -6.870  14.819  68.482  1.00  0.00    -0.107 A  
ENDBRANCH  31  32
ENDBRANCH  21  31
ENDBRANCH  17  18
ENDBRANCH  16  17
ENDBRANCH  13  16
ENDBRANCH   7  10
TORSDOF 7
ENDMDL
MODEL       58
REMARK 921   NORMALIZED FREE ENERGY PREDICTED BY IDOCK:   -6.48 KCAL/MOL
REMARK 922        TOTAL FREE ENERGY PREDICTED BY IDOCK:   -9.56 KCAL/MOL
REMARK 923 INTER-LIGAND FREE ENERGY PREDICTED BY IDOCK:   -8.43 KCAL/MOL
REMARK 924 INTRA-LIGAND FREE ENERGY PREDICTED BY IDOCK:   -1.14 KCAL/MOL
REMARK 927      BINDING AFFINITY PREDICTED BY RF-SCORE:    0.00 PKD
ROOT
HETATM    1  C   UNL     1     -10.682   2.838  73.225  1.00  0.00    -0.277 C  
HETATM    2  C   UNL     1      -9.316   3.422  73.470  1.00  0.00    -0.099 C  
HETATM    3  O   UNL     1      -8.544   2.884  74.263  1.00  0.00    -0.074 OA 
HETATM    4  N   UNL     1      -8.956   4.510  72.696  1.00  0.00    -0.118 N  
HETATM    5  C   UNL     1      -7.574   5.001  72.774  1.00  0.00    -0.096 C  
HETATM    6  C   UNL     1      -7.085   5.493  71.403  1.00  0.00    -0.071 C  
HETATM    7  N   UNL     1      -8.029   6.507  70.878  1.00  0.00    -0.110 NA 
HETATM    8  C   UNL     1      -9.903   5.447  72.068  1.00  0.00    -0.168 C  
HETATM    9  C   UNL     1      -9.396   5.974  70.711  1.00  0.00    -0.154 C  
ENDROOT
BRANCH   7  10
HETATM   10  C   UNL     1      -7.585   7.382  69.891  1.00  0.00    -0.090 A  
HETATM   11  C   UNL     1      -6.620   8.355  70.135  1.00  0.00    -0.039 A  
HETATM   12  C   UNL     1      -6.277   9.301  69.170  1.00  0.00    -0.042 A  
HETATM   13  C   UNL     1      -6.900   9.319  67.920  1.00  0.00    -0.072 A  
HETATM   14  C   UNL     1      -8.170   7.370  68.612  1.00  0.00    -0.125 A  
HETATM   15  C   UNL     1      -7.838   8.327  67.639  1.00  0.00    -0.106 A  
BRANCH  13  16
HETATM   16  O   UNL     1      -6.661  10.263  66.941  1.00  0.00    -0.076 OA 
BRANCH  16  17
HETATM   17  C   UNL     1      -7.824  11.014  66.577  1.00  0.00    -0.155 C  
BRANCH  17  18
HETATM   18  C   UNL     1      -8.278  12.019  67.625  1.00  0.00    -0.155 C  
HETATM   19  C   UNL     1      -7.571  13.343  67.548  1.00  0.00    -0.169 C  
HETATM   20  O   UNL     1      -8.538  14.278  68.017  1.00  0.00    -0.152 OA 
HETATM   21  C   UNL     1      -9.841  13.736  67.682  1.00  0.00    -0.234 C  
HETATM   22  O   UNL     1      -9.657  12.339  67.376  1.00  0.00    -0.175 OA 
BRANCH  21  23
HETATM   23  C   UNL     1     -10.788  13.839  68.881  1.00  0.00    -0.268 A  
HETATM   24 CL   UNL     1     -10.642  16.603  68.905  1.00  0.00    -0.315 Cl 
HETATM   25  C   UNL     1     -11.179  15.060  69.471  1.00  0.00    -0.276 A  
HETATM   26  C   UNL     1     -11.324  12.657  69.436  1.00  0.00    -0.273 A  
HETATM   27  C   UNL     1     -12.207  12.687  70.516  1.00  0.00    -0.383 A  
HETATM   28  C   UNL     1     -12.058  15.087  70.564  1.00  0.00    -0.379 A  
HETATM   29 CL   UNL     1     -13.673  13.944  72.396  1.00  0.00    -0.636 Cl 
HETATM   30  C   UNL     1     -12.573  13.903  71.076  1.00  0.00    -0.371 A  
ENDBRANCH  21  23
BRANCH  21  31
HETATM   31  C   UNL     1     -10.348  14.440  66.395  1.00  0.00    -0.287 C  
BRANCH  31  32
HETATM   32  N   UNL     1     -11.161  13.647  65.501  1.00  0.00    -0.292 NA 
HETATM   33  N   UNL     1     -12.996  12.791  64.591  1.00  0.00    -0.794 NA 
HETATM   34  C   UNL     1     -10.807  13.223  64.245  1.00  0.00    -0.392 A  
HETATM   35  C   UNL     1     -12.487  13.351  65.669  1.00  0.00    -0.464 A  
HETATM   36  C   UNL     1     -11.961  12.723  63.695  1.00  0.00    -0.539 A  
ENDBRANCH  31  32
ENDBRANCH  21  31
ENDBRANCH  17  18
ENDBRANCH  16  17
ENDBRANCH  13  16
ENDBRANCH   7  10
TORSDOF 7
ENDMDL
MODEL       59
REMARK 921   NORMALIZED FREE ENERGY PREDICTED BY IDOCK:   -6.48 KCAL/MOL
REMARK 922        TOTAL FREE ENERGY PREDICTED BY IDOCK:   -9.56 KCAL/MOL
REMARK 923 INTER-LIGAND FREE ENERGY PREDICTED BY IDOCK:   -8.25 KCAL/MOL
REMARK 924 INTRA-LIGAND FREE ENERGY PREDICTED BY IDOCK:   -1.30 KCAL/MOL
REMARK 927      BINDING AFFINITY PREDICTED BY RF-SCORE:    0.00 PKD
ROOT
HETATM    1  C   UNL     1     -10.527  20.086  65.746  1.00  0.00    -0.469 C  
HETATM    2  C   UNL     1     -10.382  19.450  67.104  1.00  0.00    -0.438 C  
HETATM    3  O   UNL     1     -10.480  20.133  68.123  1.00  0.00    -0.363 OA 
HETATM    4  N   UNL     1     -10.239  18.075  67.135  1.00  0.00    -0.345 N  
HETATM    5  C   UNL     1     -10.272  17.394  68.435  1.00  0.00    -0.362 C  
HETATM    6  C   UNL     1     -10.970  16.029  68.327  1.00  0.00    -0.335 C  
HETATM    7  N   UNL     1     -10.315  15.224  67.271  1.00  0.00    -0.260 NA 
HETATM    8  C   UNL     1      -9.702  17.258  66.032  1.00  0.00    -0.168 C  
HETATM    9  C   UNL     1     -10.373  15.874  65.946  1.00  0.00    -0.365 C  
ENDROOT
BRANCH   7  10
HETATM   10  C   UNL     1     -10.483  13.842  67.287  1.00  0.00    -0.271 A  
HETATM   11  C   UNL     1     -10.256  13.050  66.166  1.00  0.00    -0.288 A  
HETATM   12  C   UNL     1     -10.546  11.686  66.165  1.00  0.00    -0.306 A  
HETATM   13  C   UNL     1     -11.092  11.061  67.288  1.00  0.00    -0.294 A  
HETATM   14  C   UNL     1     -10.981  13.197  68.434  1.00  0.00    -0.287 A  
HETATM   15  C   UNL     1     -11.287  11.827  68.437  1.00  0.00    -0.328 A  
BRANCH  13  16
HETATM   16  O   UNL     1     -11.466   9.733  67.340  1.00  0.00     0.081 OA 
BRANCH  16  17
HETATM   17  C   UNL     1     -10.504   8.846  66.761  1.00  0.00    -0.199 C  
BRANCH  17  18
HETATM   18  C   UNL     1     -10.241   7.586  67.573  1.00  0.00    -0.223 C  
HETATM   19  C   UNL     1      -9.124   6.735  67.034  1.00  0.00    -0.131 C  
HETATM   20  O   UNL     1      -8.579   6.109  68.192  1.00  0.00    -0.116 OA 
HETATM   21  C   UNL     1      -8.798   7.019  69.302  1.00  0.00    -0.139 C  
HETATM   22  O   UNL     1      -9.790   7.976  68.880  1.00  0.00    -0.167 OA 
BRANCH  21  23
HETATM   23  C   UNL     1      -9.351   6.262  70.513  1.00  0.00    -0.171 A  
HETATM   24 CL   UNL     1      -9.834   8.607  71.901  1.00  0.00    -0.358 Cl 
HETATM   25  C   UNL     1      -9.818   6.892  71.686  1.00  0.00    -0.168 A  
HETATM   26  C   UNL     1      -9.419   4.852  70.470  1.00  0.00    -0.232 A  
HETATM   27  C   UNL     1      -9.931   4.109  71.534  1.00  0.00    -0.230 A  
HETATM   28  C   UNL     1     -10.322   6.141  72.759  1.00  0.00    -0.220 A  
HETATM   29 CL   UNL     1     -11.028   3.843  73.981  1.00  0.00    -0.271 Cl 
HETATM   30  C   UNL     1     -10.382   4.756  72.675  1.00  0.00    -0.198 A  
ENDBRANCH  21  23
BRANCH  21  31
HETATM   31  C   UNL     1      -7.479   7.791  69.569  1.00  0.00    -0.094 C  
BRANCH  31  32
HETATM   32  N   UNL     1      -7.367   9.105  68.976  1.00  0.00    -0.072 NA 
HETATM   33  N   UNL     1      -7.142  10.643  67.391  1.00  0.00    -0.088 NA 
HETATM   34  C   UNL     1      -7.851  10.276  69.504  1.00  0.00    -0.168 A  
HETATM   35  C   UNL     1      -6.936   9.381  67.706  1.00  0.00    -0.080 A  
HETATM   36  C   UNL     1      -7.725  11.202  68.498  1.00  0.00    -0.129 A  
ENDBRANCH  31  32
ENDBRANCH  21  31
ENDBRANCH  17  18
ENDBRANCH  16  17
ENDBRANCH  13  16
ENDBRANCH   7  10
TORSDOF 7
ENDMDL
MODEL       60
REMARK 921   NORMALIZED FREE ENERGY PREDICTED BY IDOCK:   -6.47 KCAL/MOL
REMARK 922        TOTAL FREE ENERGY PREDICTED BY IDOCK:   -9.55 KCAL/MOL
REMARK 923 INTER-LIGAND FREE ENERGY PREDICTED BY IDOCK:   -8.17 KCAL/MOL
REMARK 924 INTRA-LIGAND FREE ENERGY PREDICTED BY IDOCK:   -1.38 KCAL/MOL
REMARK 927      BINDING AFFINITY PREDICTED BY RF-SCORE:    0.00 PKD
ROOT
HETATM    1  C   UNL     1     -12.165  16.632  73.226  1.00  0.00    -0.342 C  
HETATM    2  C   UNL     1     -12.329  15.187  72.832  1.00  0.00    -0.391 C  
HETATM    3  O   UNL     1     -12.856  14.389  73.606  1.00  0.00    -0.471 OA 
HETATM    4  N   UNL     1     -11.952  14.846  71.546  1.00  0.00    -0.334 N  
HETATM    5  C   UNL     1     -12.256  13.495  71.060  1.00  0.00    -0.262 C  
HETATM    6  C   UNL     1     -12.625  13.514  69.568  1.00  0.00     0.188 C  
HETATM    7  N   UNL     1     -11.543  14.172  68.802  1.00  0.00    -0.304 NA 
HETATM    8  C   UNL     1     -10.964  15.579  70.735  1.00  0.00    -0.325 C  
HETATM    9  C   UNL     1     -11.310  15.565  69.233  1.00  0.00    -0.325 C  
ENDROOT
BRANCH   7  10
HETATM   10  C   UNL     1     -11.451  13.928  67.435  1.00  0.00    -0.348 A  
HETATM   11  C   UNL     1     -12.362  13.123  66.757  1.00  0.00    -0.173 A  
HETATM   12  C   UNL     1     -12.186  12.792  65.415  1.00  0.00    -0.532 A  
HETATM   13  C   UNL     1     -11.077  13.243  64.697  1.00  0.00    -0.357 A  
HETATM   14  C   UNL     1     -10.365  14.426  66.692  1.00  0.00    -0.275 A  
HETATM   15  C   UNL     1     -10.174  14.086  65.343  1.00  0.00    -0.368 A  
BRANCH  13  16
HETATM   16  O   UNL     1     -10.801  12.903  63.388  1.00  0.00    -0.267 OA 
BRANCH  16  17
HETATM   17  C   UNL     1      -9.755  11.934  63.258  1.00  0.00    -0.252 C  
BRANCH  17  18
HETATM   18  C   UNL     1      -9.883  10.740  64.192  1.00  0.00    -0.326 C  
HETATM   19  C   UNL     1      -9.151   9.515  63.720  1.00  0.00    -0.109 C  
HETATM   20  O   UNL     1      -8.780   8.850  64.924  1.00  0.00    -0.184 OA 
HETATM   21  C   UNL     1      -8.614   9.878  65.935  1.00  0.00    -0.137 C  
HETATM   22  O   UNL     1      -9.250  11.073  65.439  1.00  0.00    -0.203 OA 
BRANCH  21  23
HETATM   23  C   UNL     1      -9.315   9.470  67.234  1.00  0.00    -0.161 A  
HETATM   24 CL   UNL     1      -8.084   6.991  67.254  1.00  0.00    -0.114 Cl 
HETATM   25  C   UNL     1      -9.134   8.221  67.865  1.00  0.00    -0.133 A  
HETATM   26  C   UNL     1     -10.188  10.386  67.860  1.00  0.00    -0.211 A  
HETATM   27  C   UNL     1     -10.840  10.080  69.055  1.00  0.00    -0.253 A  
HETATM   28  C   UNL     1      -9.800   7.912  69.061  1.00  0.00    -0.171 A  
HETATM   29 CL   UNL     1     -11.433   8.469  71.133  1.00  0.00    -0.308 Cl 
HETATM   30  C   UNL     1     -10.643   8.843  69.652  1.00  0.00    -0.226 A  
ENDBRANCH  21  23
BRANCH  21  31
HETATM   31  C   UNL     1      -7.098  10.177  66.085  1.00  0.00    -0.114 C  
BRANCH  31  32
HETATM   32  N   UNL     1      -6.712  11.029  67.186  1.00  0.00    -0.089 NA 
HETATM   33  N   UNL     1      -5.530  11.754  68.920  1.00  0.00    -0.050 NA 
HETATM   34  C   UNL     1      -6.997  12.366  67.315  1.00  0.00    -0.129 A  
HETATM   35  C   UNL     1      -5.835  10.704  68.186  1.00  0.00    -0.042 A  
HETATM   36  C   UNL     1      -6.236  12.794  68.375  1.00  0.00    -0.073 A  
ENDBRANCH  31  32
ENDBRANCH  21  31
ENDBRANCH  17  18
ENDBRANCH  16  17
ENDBRANCH  13  16
ENDBRANCH   7  10
TORSDOF 7
ENDMDL
MODEL       61
REMARK 921   NORMALIZED FREE ENERGY PREDICTED BY IDOCK:   -6.47 KCAL/MOL
REMARK 922        TOTAL FREE ENERGY PREDICTED BY IDOCK:   -9.54 KCAL/MOL
REMARK 923 INTER-LIGAND FREE ENERGY PREDICTED BY IDOCK:   -8.65 KCAL/MOL
REMARK 924 INTRA-LIGAND FREE ENERGY PREDICTED BY IDOCK:   -0.90 KCAL/MOL
REMARK 927      BINDING AFFINITY PREDICTED BY RF-SCORE:    0.00 PKD
ROOT
HETATM    1  C   UNL     1      -7.627   1.808  63.518  1.00  0.00    -0.054 C  
HETATM    2  C   UNL     1      -8.640   2.445  64.433  1.00  0.00    -0.090 C  
HETATM    3  O   UNL     1      -9.372   1.745  65.132  1.00  0.00    -0.113 OA 
HETATM    4  N   UNL     1      -8.626   3.825  64.513  1.00  0.00    -0.104 N  
HETATM    5  C   UNL     1      -9.471   4.479  65.520  1.00  0.00    -0.173 C  
HETATM    6  C   UNL     1      -8.778   5.724  66.097  1.00  0.00    -0.139 C  
HETATM    7  N   UNL     1      -8.392   6.630  64.992  1.00  0.00    -0.107 NA 
HETATM    8  C   UNL     1      -8.123   4.725  63.459  1.00  0.00    -0.101 C  
HETATM    9  C   UNL     1      -7.464   5.993  64.036  1.00  0.00    -0.080 C  
ENDROOT
BRANCH   7  10
HETATM   10  C   UNL     1      -8.152   7.970  65.282  1.00  0.00    -0.138 A  
HETATM   11  C   UNL     1      -7.450   8.807  64.420  1.00  0.00    -0.107 A  
HETATM   12  C   UNL     1      -7.114  10.111  64.781  1.00  0.00    -0.129 A  
HETATM   13  C   UNL     1      -7.457  10.627  66.032  1.00  0.00    -0.137 A  
HETATM   14  C   UNL     1      -8.544   8.513  66.520  1.00  0.00    -0.130 A  
HETATM   15  C   UNL     1      -8.198   9.821  66.895  1.00  0.00    -0.117 A  
BRANCH  13  16
HETATM   16  O   UNL     1      -7.102  11.882  66.484  1.00  0.00     0.012 OA 
BRANCH  16  17
HETATM   17  C   UNL     1      -7.395  12.094  67.869  1.00  0.00    -0.108 C  
BRANCH  17  18
HETATM   18  C   UNL     1      -8.538  13.064  68.130  1.00  0.00    -0.188 C  
HETATM   19  C   UNL     1      -9.051  13.749  66.895  1.00  0.00    -0.242 C  
HETATM   20  O   UNL     1     -10.429  13.981  67.177  1.00  0.00    -0.267 OA 
HETATM   21  C   UNL     1     -10.855  12.924  68.075  1.00  0.00    -0.241 C  
HETATM   22  O   UNL     1      -9.665  12.316  68.615  1.00  0.00    -0.170 OA 
BRANCH  21  23
HETATM   23  C   UNL     1     -11.662  13.505  69.240  1.00  0.00    -0.382 A  
HETATM   24 CL   UNL     1     -11.695  11.081  70.576  1.00  0.00    -0.428 Cl 
HETATM   25  C   UNL     1     -12.069  12.756  70.364  1.00  0.00    -0.302 A  
HETATM   26  C   UNL     1     -12.021  14.870  69.213  1.00  0.00    -0.326 A  
HETATM   27  C   UNL     1     -12.739  15.462  70.254  1.00  0.00    -0.338 A  
HETATM   28  C   UNL     1     -12.800  13.351  71.404  1.00  0.00    -0.420 A  
HETATM   29 CL   UNL     1     -13.996  15.429  72.637  1.00  0.00    -0.604 Cl 
HETATM   30  C   UNL     1     -13.125  14.699  71.347  1.00  0.00    -0.347 A  
ENDBRANCH  21  23
BRANCH  21  31
HETATM   31  C   UNL     1     -11.601  11.847  67.245  1.00  0.00    -0.293 C  
BRANCH  31  32
HETATM   32  N   UNL     1     -11.714  12.088  65.824  1.00  0.00    -0.442 NA 
HETATM   33  N   UNL     1     -12.289  13.119  63.944  1.00  0.00    -0.646 NA 
HETATM   34  C   UNL     1     -10.866  11.620  64.852  1.00  0.00    -0.301 A  
HETATM   35  C   UNL     1     -12.564  12.978  65.224  1.00  0.00    -0.457 A  
HETATM   36  C   UNL     1     -11.224  12.290  63.709  1.00  0.00    -0.440 A  
ENDBRANCH  31  32
ENDBRANCH  21  31
ENDBRANCH  17  18
ENDBRANCH  16  17
ENDBRANCH  13  16
ENDBRANCH   7  10
TORSDOF 7
ENDMDL
MODEL       62
REMARK 921   NORMALIZED FREE ENERGY PREDICTED BY IDOCK:   -6.44 KCAL/MOL
REMARK 922        TOTAL FREE ENERGY PREDICTED BY IDOCK:   -9.51 KCAL/MOL
REMARK 923 INTER-LIGAND FREE ENERGY PREDICTED BY IDOCK:   -8.57 KCAL/MOL
REMARK 924 INTRA-LIGAND FREE ENERGY PREDICTED BY IDOCK:   -0.94 KCAL/MOL
REMARK 927      BINDING AFFINITY PREDICTED BY RF-SCORE:    0.00 PKD
ROOT
HETATM    1  C   UNL     1     -10.139  20.244  66.544  1.00  0.00    -0.518 C  
HETATM    2  C   UNL     1      -8.975  19.319  66.303  1.00  0.00    -0.328 C  
HETATM    3  O   UNL     1      -7.874  19.775  65.998  1.00  0.00    -0.328 OA 
HETATM    4  N   UNL     1      -9.190  17.973  66.538  1.00  0.00    -0.280 N  
HETATM    5  C   UNL     1      -8.042  17.060  66.488  1.00  0.00    -0.285 C  
HETATM    6  C   UNL     1      -8.175  15.947  67.539  1.00  0.00    -0.159 C  
HETATM    7  N   UNL     1      -9.472  15.254  67.361  1.00  0.00    -0.198 NA 
HETATM    8  C   UNL     1     -10.504  17.308  66.485  1.00  0.00    -0.260 C  
HETATM    9  C   UNL     1     -10.625  16.165  67.511  1.00  0.00    -0.314 C  
ENDROOT
BRANCH   7  10
HETATM   10  C   UNL     1      -9.624  13.977  67.894  1.00  0.00    -0.221 A  
HETATM   11  C   UNL     1      -8.559  13.091  68.023  1.00  0.00    -0.186 A  
HETATM   12  C   UNL     1      -8.751  11.776  68.444  1.00  0.00    -0.155 A  
HETATM   13  C   UNL     1     -10.026  11.289  68.741  1.00  0.00    -0.193 A  
HETATM   14  C   UNL     1     -10.899  13.499  68.248  1.00  0.00    -0.277 A  
HETATM   15  C   UNL     1     -11.102  12.172  68.661  1.00  0.00    -0.297 A  
BRANCH  13  16
HETATM   16  O   UNL     1     -10.301   9.985  69.099  1.00  0.00    -0.191 OA 
BRANCH  16  17
HETATM   17  C   UNL     1      -9.725   9.603  70.353  1.00  0.00    -0.245 C  
BRANCH  17  18
HETATM   18  C   UNL     1      -9.190   8.179  70.393  1.00  0.00    -0.151 C  
HETATM   19  C   UNL     1      -8.727   7.739  71.754  1.00  0.00    -0.119 C  
HETATM   20  O   UNL     1      -8.967   6.335  71.761  1.00  0.00    -0.140 OA 
HETATM   21  C   UNL     1     -10.097   6.098  70.882  1.00  0.00    -0.192 C  
HETATM   22  O   UNL     1     -10.267   7.282  70.077  1.00  0.00    -0.195 OA 
BRANCH  21  23
HETATM   23  C   UNL     1      -9.808   4.923  69.944  1.00  0.00    -0.295 A  
HETATM   24 CL   UNL     1      -9.443   3.176  72.059  1.00  0.00    -0.189 Cl 
HETATM   25  C   UNL     1      -9.510   3.618  70.389  1.00  0.00    -0.185 A  
HETATM   26  C   UNL     1      -9.850   5.132  68.548  1.00  0.00    -0.218 A  
HETATM   27  C   UNL     1      -9.616   4.096  67.643  1.00  0.00    -0.213 A  
HETATM   28  C   UNL     1      -9.264   2.581  69.477  1.00  0.00    -0.193 A  
HETATM   29 CL   UNL     1      -9.052   1.541  66.997  1.00  0.00    -0.127 Cl 
HETATM   30  C   UNL     1      -9.325   2.823  68.111  1.00  0.00    -0.203 A  
ENDBRANCH  21  23
BRANCH  21  31
HETATM   31  C   UNL     1     -11.369   5.933  71.755  1.00  0.00    -0.227 C  
BRANCH  31  32
HETATM   32  N   UNL     1     -12.284   7.051  71.784  1.00  0.00    -0.335 NA 
HETATM   33  N   UNL     1     -14.183   8.172  71.529  1.00  0.00    -0.418 NA 
HETATM   34  C   UNL     1     -12.199   8.147  72.607  1.00  0.00    -0.212 A  
HETATM   35  C   UNL     1     -13.492   7.119  71.144  1.00  0.00    -0.126 A  
HETATM   36  C   UNL     1     -13.392   8.808  72.450  1.00  0.00    -0.399 A  
ENDBRANCH  31  32
ENDBRANCH  21  31
ENDBRANCH  17  18
ENDBRANCH  16  17
ENDBRANCH  13  16
ENDBRANCH   7  10
TORSDOF 7
ENDMDL
MODEL       63
REMARK 921   NORMALIZED FREE ENERGY PREDICTED BY IDOCK:   -6.43 KCAL/MOL
REMARK 922        TOTAL FREE ENERGY PREDICTED BY IDOCK:   -9.49 KCAL/MOL
REMARK 923 INTER-LIGAND FREE ENERGY PREDICTED BY IDOCK:   -8.74 KCAL/MOL
REMARK 924 INTRA-LIGAND FREE ENERGY PREDICTED BY IDOCK:   -0.76 KCAL/MOL
REMARK 927      BINDING AFFINITY PREDICTED BY RF-SCORE:    0.00 PKD
ROOT
HETATM    1  C   UNL     1     -10.290  19.719  68.431  1.00  0.00    -0.513 C  
HETATM    2  C   UNL     1     -10.480  19.022  67.109  1.00  0.00    -0.441 C  
HETATM    3  O   UNL     1     -10.642  19.677  66.080  1.00  0.00    -0.472 OA 
HETATM    4  N   UNL     1     -10.364  17.644  67.109  1.00  0.00    -0.340 N  
HETATM    5  C   UNL     1     -10.366  16.939  65.822  1.00  0.00    -0.283 C  
HETATM    6  C   UNL     1      -9.415  15.732  65.851  1.00  0.00    -0.342 C  
HETATM    7  N   UNL     1      -9.769  14.854  66.990  1.00  0.00    -0.230 NA 
HETATM    8  C   UNL     1     -10.594  16.779  68.280  1.00  0.00    -0.352 C  
HETATM    9  C   UNL     1      -9.669  15.547  68.290  1.00  0.00    -0.201 C  
ENDROOT
BRANCH   7  10
HETATM   10  C   UNL     1      -9.347  13.528  66.965  1.00  0.00    -0.247 A  
HETATM   11  C   UNL     1      -8.311  13.060  67.768  1.00  0.00    -0.175 A  
HETATM   12  C   UNL     1      -7.821  11.760  67.642  1.00  0.00    -0.138 A  
HETATM   13  C   UNL     1      -8.341  10.879  66.692  1.00  0.00    -0.143 A  
HETATM   14  C   UNL     1      -9.905  12.619  66.048  1.00  0.00    -0.260 A  
HETATM   15  C   UNL     1      -9.408  11.313  65.907  1.00  0.00    -0.240 A  
BRANCH  13  16
HETATM   16  O   UNL     1      -7.864   9.604  66.464  1.00  0.00    -0.106 OA 
BRANCH  16  17
HETATM   17  C   UNL     1      -8.818   8.741  65.836  1.00  0.00    -0.186 C  
BRANCH  17  18
HETATM   18  C   UNL     1      -9.817   8.104  66.790  1.00  0.00    -0.259 C  
HETATM   19  C   UNL     1      -9.793   6.601  66.786  1.00  0.00    -0.173 C  
HETATM   20  O   UNL     1     -10.172   6.247  68.113  1.00  0.00    -0.141 OA 
HETATM   21  C   UNL     1      -9.731   7.326  68.976  1.00  0.00    -0.152 C  
HETATM   22  O   UNL     1      -9.450   8.461  68.133  1.00  0.00    -0.137 OA 
BRANCH  21  23
HETATM   23  C   UNL     1     -10.844   7.722  69.951  1.00  0.00    -0.228 A  
HETATM   24 CL   UNL     1     -10.205  10.409  69.769  1.00  0.00    -0.256 Cl 
HETATM   25  C   UNL     1     -11.106   9.051  70.346  1.00  0.00    -0.244 A  
HETATM   26  C   UNL     1     -11.678   6.716  70.486  1.00  0.00    -0.453 A  
HETATM   27  C   UNL     1     -12.721   7.016  71.363  1.00  0.00    -0.421 A  
HETATM   28  C   UNL     1     -12.149   9.349  71.236  1.00  0.00    -0.424 A  
HETATM   29 CL   UNL     1     -14.249   8.707  72.801  1.00  0.00    -0.265 Cl 
HETATM   30  C   UNL     1     -12.954   8.333  71.734  1.00  0.00    -0.344 A  
ENDBRANCH  21  23
BRANCH  21  31
HETATM   31  C   UNL     1      -8.401   6.899  69.653  1.00  0.00    -0.133 C  
BRANCH  31  32
HETATM   32  N   UNL     1      -7.546   7.962  70.129  1.00  0.00    -0.082 NA 
HETATM   33  N   UNL     1      -6.413   9.211  71.572  1.00  0.00    -0.180 NA 
HETATM   34  C   UNL     1      -6.579   8.610  69.402  1.00  0.00    -0.045 A  
HETATM   35  C   UNL     1      -7.415   8.369  71.429  1.00  0.00    -0.094 A  
HETATM   36  C   UNL     1      -5.878   9.355  70.319  1.00  0.00    -0.038 A  
ENDBRANCH  31  32
ENDBRANCH  21  31
ENDBRANCH  17  18
ENDBRANCH  16  17
ENDBRANCH  13  16
ENDBRANCH   7  10
TORSDOF 7
ENDMDL
MODEL       64
REMARK 921   NORMALIZED FREE ENERGY PREDICTED BY IDOCK:   -6.41 KCAL/MOL
REMARK 922        TOTAL FREE ENERGY PREDICTED BY IDOCK:   -9.46 KCAL/MOL
REMARK 923 INTER-LIGAND FREE ENERGY PREDICTED BY IDOCK:   -7.88 KCAL/MOL
REMARK 924 INTRA-LIGAND FREE ENERGY PREDICTED BY IDOCK:   -1.58 KCAL/MOL
REMARK 927      BINDING AFFINITY PREDICTED BY RF-SCORE:    0.00 PKD
ROOT
HETATM    1  C   UNL     1      -9.504   1.785  68.519  1.00  0.00    -0.231 C  
HETATM    2  C   UNL     1      -9.026   2.563  67.321  1.00  0.00    -0.156 C  
HETATM    3  O   UNL     1      -9.233   2.140  66.184  1.00  0.00    -0.085 OA 
HETATM    4  N   UNL     1      -8.447   3.794  67.569  1.00  0.00    -0.094 N  
HETATM    5  C   UNL     1      -8.129   4.662  66.429  1.00  0.00    -0.103 C  
HETATM    6  C   UNL     1      -8.360   6.141  66.779  1.00  0.00    -0.110 C  
HETATM    7  N   UNL     1      -7.592   6.484  67.998  1.00  0.00    -0.101 NA 
HETATM    8  C   UNL     1      -7.793   4.179  68.832  1.00  0.00    -0.061 C  
HETATM    9  C   UNL     1      -7.989   5.670  69.164  1.00  0.00    -0.096 C  
ENDROOT
BRANCH   7  10
HETATM   10  C   UNL     1      -7.306   7.823  68.250  1.00  0.00    -0.102 A  
HETATM   11  C   UNL     1      -7.662   8.451  69.440  1.00  0.00    -0.097 A  
HETATM   12  C   UNL     1      -7.477   9.820  69.626  1.00  0.00    -0.113 A  
HETATM   13  C   UNL     1      -6.939  10.622  68.617  1.00  0.00    -0.072 A  
HETATM   14  C   UNL     1      -6.713   8.625  67.257  1.00  0.00    -0.063 A  
HETATM   15  C   UNL     1      -6.535  10.007  67.433  1.00  0.00    -0.068 A  
BRANCH  13  16
HETATM   16  O   UNL     1      -6.788  11.992  68.703  1.00  0.00    -0.078 OA 
BRANCH  16  17
HETATM   17  C   UNL     1      -7.399  12.702  67.621  1.00  0.00    -0.139 C  
BRANCH  17  18
HETATM   18  C   UNL     1      -8.546  13.613  68.033  1.00  0.00    -0.175 C  
HETATM   19  C   UNL     1      -9.185  14.346  66.887  1.00  0.00    -0.254 C  
HETATM   20  O   UNL     1     -10.540  14.509  67.295  1.00  0.00    -0.274 OA 
HETATM   21  C   UNL     1     -10.854  13.388  68.161  1.00  0.00    -0.255 C  
HETATM   22  O   UNL     1      -9.603  12.796  68.564  1.00  0.00    -0.198 OA 
BRANCH  21  23
HETATM   23  C   UNL     1     -11.579  13.872  69.421  1.00  0.00    -0.350 A  
HETATM   24 CL   UNL     1     -11.972  11.286  70.326  1.00  0.00    -0.437 Cl 
HETATM   25  C   UNL     1     -12.098  13.009  70.409  1.00  0.00    -0.314 A  
HETATM   26  C   UNL     1     -11.736  15.259  69.633  1.00  0.00    -0.355 A  
HETATM   27  C   UNL     1     -12.370  15.761  70.770  1.00  0.00    -0.435 A  
HETATM   28  C   UNL     1     -12.744  13.516  71.546  1.00  0.00    -0.412 A  
HETATM   29 CL   UNL     1     -13.638  15.503  73.135  1.00  0.00    -0.571 Cl 
HETATM   30  C   UNL     1     -12.871  14.887  71.724  1.00  0.00    -0.330 A  
ENDBRANCH  21  23
BRANCH  21  31
HETATM   31  C   UNL     1     -11.632  12.332  67.333  1.00  0.00    -0.355 C  
BRANCH  31  32
HETATM   32  N   UNL     1     -10.841  11.326  66.660  1.00  0.00    -0.276 NA 
HETATM   33  N   UNL     1     -10.002   9.322  66.208  1.00  0.00    -0.287 NA 
HETATM   34  C   UNL     1     -10.400  11.377  65.361  1.00  0.00    -0.279 A  
HETATM   35  C   UNL     1     -10.566  10.071  67.132  1.00  0.00    -0.232 A  
HETATM   36  C   UNL     1      -9.910  10.122  65.099  1.00  0.00    -0.325 A  
ENDBRANCH  31  32
ENDBRANCH  21  31
ENDBRANCH  17  18
ENDBRANCH  16  17
ENDBRANCH  13  16
ENDBRANCH   7  10
TORSDOF 7
ENDMDL
MODEL       65
REMARK 921   NORMALIZED FREE ENERGY PREDICTED BY IDOCK:   -6.38 KCAL/MOL
REMARK 922        TOTAL FREE ENERGY PREDICTED BY IDOCK:   -9.43 KCAL/MOL
REMARK 923 INTER-LIGAND FREE ENERGY PREDICTED BY IDOCK:   -8.18 KCAL/MOL
REMARK 924 INTRA-LIGAND FREE ENERGY PREDICTED BY IDOCK:   -1.25 KCAL/MOL
REMARK 927      BINDING AFFINITY PREDICTED BY RF-SCORE:    0.00 PKD
ROOT
HETATM    1  C   UNL     1      -7.031  21.085  66.982  1.00  0.00    -0.373 C  
HETATM    2  C   UNL     1      -6.820  20.015  68.022  1.00  0.00    -0.279 C  
HETATM    3  O   UNL     1      -6.274  20.288  69.091  1.00  0.00    -0.312 OA 
HETATM    4  N   UNL     1      -7.354  18.769  67.750  1.00  0.00    -0.231 N  
HETATM    5  C   UNL     1      -7.328  17.749  68.806  1.00  0.00    -0.271 C  
HETATM    6  C   UNL     1      -8.594  16.877  68.762  1.00  0.00    -0.246 C  
HETATM    7  N   UNL     1      -8.748  16.301  67.407  1.00  0.00    -0.180 NA 
HETATM    8  C   UNL     1      -7.626  18.245  66.400  1.00  0.00    -0.252 C  
HETATM    9  C   UNL     1      -8.871  17.338  66.362  1.00  0.00    -0.246 C  
ENDROOT
BRANCH   7  10
HETATM   10  C   UNL     1      -9.547  15.172  67.250  1.00  0.00    -0.209 A  
HETATM   11  C   UNL     1      -9.822  14.300  68.300  1.00  0.00    -0.235 A  
HETATM   12  C   UNL     1     -10.522  13.112  68.097  1.00  0.00    -0.255 A  
HETATM   13  C   UNL     1     -10.965  12.740  66.826  1.00  0.00    -0.270 A  
HETATM   14  C   UNL     1     -10.044  14.821  65.982  1.00  0.00    -0.327 A  
HETATM   15  C   UNL     1     -10.739  13.619  65.767  1.00  0.00    -0.280 A  
BRANCH  13  16
HETATM   16  O   UNL     1     -11.604  11.551  66.537  1.00  0.00    -0.444 OA 
BRANCH  16  17
HETATM   17  C   UNL     1     -10.958  10.791  65.511  1.00  0.00     0.113 C  
BRANCH  17  18
HETATM   18  C   UNL     1     -10.000   9.726  66.023  1.00  0.00    -0.272 C  
HETATM   19  C   UNL     1      -8.592  10.216  66.222  1.00  0.00    -0.131 C  
HETATM   20  O   UNL     1      -8.099   9.419  67.295  1.00  0.00    -0.109 OA 
HETATM   21  C   UNL     1      -9.242   9.072  68.119  1.00  0.00    -0.136 C  
HETATM   22  O   UNL     1     -10.426   9.329  67.337  1.00  0.00    -0.249 OA 
BRANCH  21  23
HETATM   23  C   UNL     1      -9.217   7.582  68.469  1.00  0.00    -0.143 A  
HETATM   24 CL   UNL     1      -6.876   7.844  69.922  1.00  0.00    -0.045 Cl 
HETATM   25  C   UNL     1      -8.211   6.974  69.249  1.00  0.00    -0.125 A  
HETATM   26  C   UNL     1     -10.259   6.750  68.004  1.00  0.00    -0.200 A  
HETATM   27  C   UNL     1     -10.302   5.388  68.306  1.00  0.00    -0.213 A  
HETATM   28  C   UNL     1      -8.251   5.603  69.542  1.00  0.00    -0.103 A  
HETATM   29 CL   UNL     1      -9.357   3.145  69.463  1.00  0.00    -0.232 Cl 
HETATM   30  C   UNL     1      -9.298   4.819  69.076  1.00  0.00    -0.135 A  
ENDBRANCH  21  23
BRANCH  21  31
HETATM   31  C   UNL     1      -9.269  10.024  69.345  1.00  0.00    -0.216 C  
BRANCH  31  32
HETATM   32  N   UNL     1     -10.279   9.763  70.345  1.00  0.00    -0.284 NA 
HETATM   33  N   UNL     1     -12.303   9.454  71.203  1.00  0.00    -0.312 NA 
HETATM   34  C   UNL     1     -10.098   9.077  71.520  1.00  0.00    -0.339 A  
HETATM   35  C   UNL     1     -11.624   9.980  70.205  1.00  0.00    -0.280 A  
HETATM   36  C   UNL     1     -11.362   8.877  72.017  1.00  0.00    -0.357 A  
ENDBRANCH  31  32
ENDBRANCH  21  31
ENDBRANCH  17  18
ENDBRANCH  16  17
ENDBRANCH  13  16
ENDBRANCH   7  10
TORSDOF 7
ENDMDL
MODEL       66
REMARK 921   NORMALIZED FREE ENERGY PREDICTED BY IDOCK:   -6.37 KCAL/MOL
REMARK 922        TOTAL FREE ENERGY PREDICTED BY IDOCK:   -9.41 KCAL/MOL
REMARK 923 INTER-LIGAND FREE ENERGY PREDICTED BY IDOCK:   -8.67 KCAL/MOL
REMARK 924 INTRA-LIGAND FREE ENERGY PREDICTED BY IDOCK:   -0.74 KCAL/MOL
REMARK 927      BINDING AFFINITY PREDICTED BY RF-SCORE:    0.00 PKD
ROOT
HETATM    1  C   UNL     1      -9.890  20.104  67.021  1.00  0.00    -0.595 C  
HETATM    2  C   UNL     1     -10.331  18.881  66.261  1.00  0.00    -0.453 C  
HETATM    3  O   UNL     1     -10.861  18.995  65.156  1.00  0.00    -0.478 OA 
HETATM    4  N   UNL     1     -10.021  17.655  66.819  1.00  0.00    -0.305 N  
HETATM    5  C   UNL     1     -10.273  16.441  66.033  1.00  0.00    -0.356 C  
HETATM    6  C   UNL     1      -9.185  15.384  66.285  1.00  0.00    -0.319 C  
HETATM    7  N   UNL     1      -9.083  15.119  67.738  1.00  0.00    -0.178 NA 
HETATM    8  C   UNL     1      -9.794  17.417  68.256  1.00  0.00    -0.310 C  
HETATM    9  C   UNL     1      -8.733  16.328  68.510  1.00  0.00    -0.211 C  
ENDROOT
BRANCH   7  10
HETATM   10  C   UNL     1      -8.496  13.929  68.158  1.00  0.00    -0.171 A  
HETATM   11  C   UNL     1      -7.280  13.895  68.834  1.00  0.00    -0.103 A  
HETATM   12  C   UNL     1      -6.648  12.690  69.139  1.00  0.00    -0.099 A  
HETATM   13  C   UNL     1      -7.205  11.465  68.764  1.00  0.00    -0.107 A  
HETATM   14  C   UNL     1      -9.081  12.691  67.832  1.00  0.00    -0.200 A  
HETATM   15  C   UNL     1      -8.444  11.474  68.125  1.00  0.00    -0.154 A  
BRANCH  13  16
HETATM   16  O   UNL     1      -6.608  10.238  68.972  1.00  0.00    -0.050 OA 
BRANCH  16  17
HETATM   17  C   UNL     1      -7.458   9.130  68.661  1.00  0.00    -0.080 C  
BRANCH  17  18
HETATM   18  C   UNL     1      -7.906   8.321  69.869  1.00  0.00    -0.102 C  
HETATM   19  C   UNL     1      -8.501   9.150  70.973  1.00  0.00    -0.165 C  
HETATM   20  O   UNL     1      -9.445   8.279  71.588  1.00  0.00    -0.162 OA 
HETATM   21  C   UNL     1      -9.911   7.371  70.556  1.00  0.00    -0.180 C  
HETATM   22  O   UNL     1      -8.977   7.454  69.461  1.00  0.00    -0.143 OA 
BRANCH  21  23
HETATM   23  C   UNL     1      -9.911   5.929  71.072  1.00  0.00    -0.239 A  
HETATM   24 CL   UNL     1     -10.552   6.728  73.644  1.00  0.00    -0.355 Cl 
HETATM   25  C   UNL     1     -10.178   5.574  72.411  1.00  0.00    -0.196 A  
HETATM   26  C   UNL     1      -9.643   4.876  70.169  1.00  0.00    -0.263 A  
HETATM   27  C   UNL     1      -9.649   3.541  70.576  1.00  0.00    -0.246 A  
HETATM   28  C   UNL     1     -10.173   4.231  72.819  1.00  0.00    -0.227 A  
HETATM   29 CL   UNL     1      -9.939   1.578  72.399  1.00  0.00    -0.180 Cl 
HETATM   30  C   UNL     1      -9.915   3.223  71.900  1.00  0.00    -0.139 A  
ENDBRANCH  21  23
BRANCH  21  31
HETATM   31  C   UNL     1     -11.286   7.875  70.044  1.00  0.00    -0.100 C  
BRANCH  31  32
HETATM   32  N   UNL     1     -12.206   8.372  71.042  1.00  0.00    -0.223 NA 
HETATM   33  N   UNL     1     -13.399   9.842  72.200  1.00  0.00    -0.442 NA 
HETATM   34  C   UNL     1     -13.227   7.665  71.626  1.00  0.00    -0.352 A  
HETATM   35  C   UNL     1     -12.343   9.677  71.431  1.00  0.00    -0.378 A  
HETATM   36  C   UNL     1     -13.963   8.598  72.314  1.00  0.00    -0.409 A  
ENDBRANCH  31  32
ENDBRANCH  21  31
ENDBRANCH  17  18
ENDBRANCH  16  17
ENDBRANCH  13  16
ENDBRANCH   7  10
TORSDOF 7
ENDMDL
MODEL       67
REMARK 921   NORMALIZED FREE ENERGY PREDICTED BY IDOCK:   -6.36 KCAL/MOL
REMARK 922        TOTAL FREE ENERGY PREDICTED BY IDOCK:   -9.40 KCAL/MOL
REMARK 923 INTER-LIGAND FREE ENERGY PREDICTED BY IDOCK:   -8.87 KCAL/MOL
REMARK 924 INTRA-LIGAND FREE ENERGY PREDICTED BY IDOCK:   -0.53 KCAL/MOL
REMARK 927      BINDING AFFINITY PREDICTED BY RF-SCORE:    0.00 PKD
ROOT
HETATM    1  C   UNL     1     -10.697  18.664  65.788  1.00  0.00    -0.224 C  
HETATM    2  C   UNL     1     -10.426  18.486  67.258  1.00  0.00    -0.419 C  
HETATM    3  O   UNL     1     -10.207  19.464  67.972  1.00  0.00    -0.379 OA 
HETATM    4  N   UNL     1     -10.535  17.202  67.761  1.00  0.00    -0.350 N  
HETATM    5  C   UNL     1     -10.454  17.007  69.213  1.00  0.00    -0.293 C  
HETATM    6  C   UNL     1     -11.399  15.886  69.674  1.00  0.00    -0.342 C  
HETATM    7  N   UNL     1     -11.108  14.652  68.910  1.00  0.00    -0.243 NA 
HETATM    8  C   UNL     1     -10.369  15.970  66.968  1.00  0.00    -0.292 C  
HETATM    9  C   UNL     1     -11.287  14.832  67.455  1.00  0.00    -0.351 C  
ENDROOT
BRANCH   7  10
HETATM   10  C   UNL     1     -11.522  13.431  69.434  1.00  0.00    -0.274 A  
HETATM   11  C   UNL     1     -11.416  12.239  68.723  1.00  0.00    -0.360 A  
HETATM   12  C   UNL     1     -11.946  11.047  69.214  1.00  0.00    -0.410 A  
HETATM   13  C   UNL     1     -12.620  11.003  70.437  1.00  0.00    -0.267 A  
HETATM   14  C   UNL     1     -12.152  13.371  70.690  1.00  0.00    -0.374 A  
HETATM   15  C   UNL     1     -12.699  12.176  71.186  1.00  0.00    -0.351 A  
BRANCH  13  16
HETATM   16  O   UNL     1     -13.228   9.877  70.955  1.00  0.00    -0.373 OA 
BRANCH  16  17
HETATM   17  C   UNL     1     -12.536   9.322  72.078  1.00  0.00    -0.378 C  
BRANCH  17  18
HETATM   18  C   UNL     1     -11.106   8.891  71.787  1.00  0.00    -0.363 C  
HETATM   19  C   UNL     1     -10.477   8.081  72.887  1.00  0.00    -0.332 C  
HETATM   20  O   UNL     1      -9.565   7.224  72.206  1.00  0.00    -0.145 OA 
HETATM   21  C   UNL     1     -10.115   6.995  70.883  1.00  0.00    -0.193 C  
HETATM   22  O   UNL     1     -11.122   8.002  70.658  1.00  0.00    -0.256 OA 
BRANCH  21  23
HETATM   23  C   UNL     1      -9.030   7.161  69.815  1.00  0.00    -0.142 A  
HETATM   24 CL   UNL     1      -7.082   6.092  71.465  1.00  0.00    -0.076 Cl 
HETATM   25  C   UNL     1      -7.681   6.792  70.002  1.00  0.00    -0.102 A  
HETATM   26  C   UNL     1      -9.381   7.702  68.558  1.00  0.00    -0.147 A  
HETATM   27  C   UNL     1      -8.441   7.859  67.539  1.00  0.00    -0.123 A  
HETATM   28  C   UNL     1      -6.736   6.962  68.979  1.00  0.00    -0.056 A  
HETATM   29 CL   UNL     1      -5.965   7.666  66.492  1.00  0.00    -0.039 Cl 
HETATM   30  C   UNL     1      -7.121   7.488  67.752  1.00  0.00    -0.085 A  
ENDBRANCH  21  23
BRANCH  21  31
HETATM   31  C   UNL     1     -10.820   5.612  70.879  1.00  0.00    -0.224 C  
BRANCH  31  32
HETATM   32  N   UNL     1     -10.584   4.762  72.024  1.00  0.00    -0.154 NA 
HETATM   33  N   UNL     1      -9.457   3.500  73.461  1.00  0.00    -0.102 NA 
HETATM   34  C   UNL     1     -11.333   4.725  73.174  1.00  0.00    -0.295 A  
HETATM   35  C   UNL     1      -9.470   3.997  72.242  1.00  0.00    -0.130 A  
HETATM   36  C   UNL     1     -10.605   3.961  74.053  1.00  0.00    -0.224 A  
ENDBRANCH  31  32
ENDBRANCH  21  31
ENDBRANCH  17  18
ENDBRANCH  16  17
ENDBRANCH  13  16
ENDBRANCH   7  10
TORSDOF 7
ENDMDL
MODEL       68
REMARK 921   NORMALIZED FREE ENERGY PREDICTED BY IDOCK:   -6.32 KCAL/MOL
REMARK 922        TOTAL FREE ENERGY PREDICTED BY IDOCK:   -9.34 KCAL/MOL
REMARK 923 INTER-LIGAND FREE ENERGY PREDICTED BY IDOCK:   -8.47 KCAL/MOL
REMARK 924 INTRA-LIGAND FREE ENERGY PREDICTED BY IDOCK:   -0.87 KCAL/MOL
REMARK 927      BINDING AFFINITY PREDICTED BY RF-SCORE:    0.00 PKD
ROOT
HETATM    1  C   UNL     1     -10.880  17.288  65.516  1.00  0.00    -0.024 C  
HETATM    2  C   UNL     1     -11.369  16.130  64.686  1.00  0.00    -0.282 C  
HETATM    3  O   UNL     1     -12.000  16.332  63.650  1.00  0.00    -0.840 OA 
HETATM    4  N   UNL     1     -10.987  14.865  65.096  1.00  0.00    -0.374 N  
HETATM    5  C   UNL     1     -11.289  13.723  64.225  1.00  0.00    -0.326 C  
HETATM    6  C   UNL     1     -10.165  12.677  64.276  1.00  0.00    -0.332 C  
HETATM    7  N   UNL     1      -9.925  12.281  65.682  1.00  0.00    -0.253 NA 
HETATM    8  C   UNL     1     -10.625  14.501  66.478  1.00  0.00    -0.297 C  
HETATM    9  C   UNL     1      -9.526  13.422  66.531  1.00  0.00    -0.245 C  
ENDROOT
BRANCH   7  10
HETATM   10  C   UNL     1      -9.281  11.073  65.934  1.00  0.00    -0.199 A  
HETATM   11  C   UNL     1      -8.021  11.007  66.521  1.00  0.00    -0.158 A  
HETATM   12  C   UNL     1      -7.340   9.797  66.653  1.00  0.00    -0.094 A  
HETATM   13  C   UNL     1      -7.891   8.601  66.187  1.00  0.00    -0.098 A  
HETATM   14  C   UNL     1      -9.856   9.858  65.517  1.00  0.00    -0.381 A  
HETATM   15  C   UNL     1      -9.171   8.638  65.636  1.00  0.00    -0.204 A  
BRANCH  13  16
HETATM   16  O   UNL     1      -7.251   7.379  66.223  1.00  0.00    -0.074 OA 
BRANCH  16  17
HETATM   17  C   UNL     1      -7.202   6.798  67.530  1.00  0.00    -0.090 C  
BRANCH  17  18
HETATM   18  C   UNL     1      -8.564   6.580  68.174  1.00  0.00    -0.118 C  
HETATM   19  C   UNL     1      -9.004   5.143  68.198  1.00  0.00    -0.110 C  
HETATM   20  O   UNL     1      -9.810   5.049  69.369  1.00  0.00    -0.166 OA 
HETATM   21  C   UNL     1      -9.302   6.032  70.307  1.00  0.00    -0.159 C  
HETATM   22  O   UNL     1      -8.472   6.945  69.561  1.00  0.00    -0.131 OA 
BRANCH  21  23
HETATM   23  C   UNL     1     -10.454   6.832  70.922  1.00  0.00    -0.239 A  
HETATM   24 CL   UNL     1      -8.718   8.512  72.273  1.00  0.00    -0.276 Cl 
HETATM   25  C   UNL     1     -10.273   7.926  71.795  1.00  0.00    -0.196 A  
HETATM   26  C   UNL     1     -11.783   6.478  70.602  1.00  0.00    -0.436 A  
HETATM   27  C   UNL     1     -12.874   7.181  71.116  1.00  0.00    -0.340 A  
HETATM   28  C   UNL     1     -11.372   8.623  72.318  1.00  0.00    -0.411 A  
HETATM   29 CL   UNL     1     -14.006   9.130  72.593  1.00  0.00    -0.464 Cl 
HETATM   30  C   UNL     1     -12.664   8.253  71.972  1.00  0.00    -0.342 A  
ENDBRANCH  21  23
BRANCH  21  31
HETATM   31  C   UNL     1      -8.397   5.304  71.336  1.00  0.00    -0.121 C  
BRANCH  31  32
HETATM   32  N   UNL     1      -9.069   4.557  72.375  1.00  0.00    -0.123 NA 
HETATM   33  N   UNL     1      -9.843   4.074  74.398  1.00  0.00    -0.123 NA 
HETATM   34  C   UNL     1     -10.078   3.644  72.194  1.00  0.00    -0.142 A  
HETATM   35  C   UNL     1      -8.955   4.773  73.722  1.00  0.00    -0.106 A  
HETATM   36  C   UNL     1     -10.555   3.381  73.454  1.00  0.00    -0.191 A  
ENDBRANCH  31  32
ENDBRANCH  21  31
ENDBRANCH  17  18
ENDBRANCH  16  17
ENDBRANCH  13  16
ENDBRANCH   7  10
TORSDOF 7
ENDMDL
MODEL       69
REMARK 921   NORMALIZED FREE ENERGY PREDICTED BY IDOCK:   -6.30 KCAL/MOL
REMARK 922        TOTAL FREE ENERGY PREDICTED BY IDOCK:   -9.30 KCAL/MOL
REMARK 923 INTER-LIGAND FREE ENERGY PREDICTED BY IDOCK:   -8.12 KCAL/MOL
REMARK 924 INTRA-LIGAND FREE ENERGY PREDICTED BY IDOCK:   -1.18 KCAL/MOL
REMARK 927      BINDING AFFINITY PREDICTED BY RF-SCORE:    0.00 PKD
ROOT
HETATM    1  C   UNL     1     -11.618  15.850  64.423  1.00  0.00    -0.234 C  
HETATM    2  C   UNL     1     -11.954  14.382  64.425  1.00  0.00    -0.452 C  
HETATM    3  O   UNL     1     -12.572  13.886  63.483  1.00  0.00    -0.842 OA 
HETATM    4  N   UNL     1     -11.452  13.629  65.470  1.00  0.00    -0.302 N  
HETATM    5  C   UNL     1     -11.604  12.170  65.421  1.00  0.00    -0.330 C  
HETATM    6  C   UNL     1     -10.376  11.466  66.021  1.00  0.00    -0.249 C  
HETATM    7  N   UNL     1     -10.137  11.976  67.391  1.00  0.00    -0.193 NA 
HETATM    8  C   UNL     1     -11.094  14.163  66.797  1.00  0.00    -0.310 C  
HETATM    9  C   UNL     1      -9.889  13.431  67.418  1.00  0.00    -0.227 C  
ENDROOT
BRANCH   7  10
HETATM   10  C   UNL     1      -9.375  11.205  68.264  1.00  0.00    -0.176 A  
HETATM   11  C   UNL     1      -9.947  10.429  69.268  1.00  0.00    -0.246 A  
HETATM   12  C   UNL     1      -9.164   9.761  70.209  1.00  0.00    -0.225 A  
HETATM   13  C   UNL     1      -7.771   9.856  70.191  1.00  0.00    -0.175 A  
HETATM   14  C   UNL     1      -7.970  11.252  68.216  1.00  0.00    -0.134 A  
HETATM   15  C   UNL     1      -7.175  10.592  69.168  1.00  0.00    -0.099 A  
BRANCH  13  16
HETATM   16  O   UNL     1      -6.936   9.279  71.126  1.00  0.00    -0.157 OA 
BRANCH  16  17
HETATM   17  C   UNL     1      -7.615   8.411  72.039  1.00  0.00    -0.117 C  
BRANCH  17  18
HETATM   18  C   UNL     1      -7.570   6.938  71.660  1.00  0.00    -0.090 C  
HETATM   19  C   UNL     1      -7.390   6.011  72.830  1.00  0.00    -0.094 C  
HETATM   20  O   UNL     1      -8.067   4.822  72.436  1.00  0.00    -0.103 OA 
HETATM   21  C   UNL     1      -9.135   5.226  71.541  1.00  0.00    -0.145 C  
HETATM   22  O   UNL     1      -8.848   6.573  71.113  1.00  0.00    -0.137 OA 
BRANCH  21  23
HETATM   23  C   UNL     1      -9.162   4.329  70.299  1.00  0.00    -0.203 A  
HETATM   24 CL   UNL     1      -9.319   2.026  71.826  1.00  0.00    -0.158 Cl 
HETATM   25  C   UNL     1      -9.237   2.921  70.349  1.00  0.00    -0.140 A  
HETATM   26  C   UNL     1      -9.123   4.926  69.020  1.00  0.00    -0.150 A  
HETATM   27  C   UNL     1      -9.165   4.163  67.852  1.00  0.00    -0.191 A  
HETATM   28  C   UNL     1      -9.267   2.156  69.174  1.00  0.00    -0.195 A  
HETATM   29 CL   UNL     1      -9.306   1.838  66.496  1.00  0.00     0.035 Cl 
HETATM   30  C   UNL     1      -9.238   2.780  67.933  1.00  0.00    -0.204 A  
ENDBRANCH  21  23
BRANCH  21  31
HETATM   31  C   UNL     1     -10.462   5.258  72.345  1.00  0.00    -0.215 C  
BRANCH  31  32
HETATM   32  N   UNL     1     -11.263   6.455  72.227  1.00  0.00    -0.262 NA 
HETATM   33  N   UNL     1     -11.863   8.573  72.511  1.00  0.00    -0.368 NA 
HETATM   34  C   UNL     1     -12.143   6.745  71.214  1.00  0.00    -0.370 A  
HETATM   35  C   UNL     1     -11.138   7.584  72.991  1.00  0.00    -0.362 A  
HETATM   36  C   UNL     1     -12.479   8.064  71.397  1.00  0.00    -0.301 A  
ENDBRANCH  31  32
ENDBRANCH  21  31
ENDBRANCH  17  18
ENDBRANCH  16  17
ENDBRANCH  13  16
ENDBRANCH   7  10
TORSDOF 7
ENDMDL
MODEL       70
REMARK 921   NORMALIZED FREE ENERGY PREDICTED BY IDOCK:   -6.28 KCAL/MOL
REMARK 922        TOTAL FREE ENERGY PREDICTED BY IDOCK:   -9.28 KCAL/MOL
REMARK 923 INTER-LIGAND FREE ENERGY PREDICTED BY IDOCK:   -9.38 KCAL/MOL
REMARK 924 INTRA-LIGAND FREE ENERGY PREDICTED BY IDOCK:    0.10 KCAL/MOL
REMARK 927      BINDING AFFINITY PREDICTED BY RF-SCORE:    0.00 PKD
ROOT
HETATM    1  C   UNL     1      -9.499  17.642  66.506  1.00  0.00    -0.294 C  
HETATM    2  C   UNL     1     -10.433  16.577  65.993  1.00  0.00    -0.310 C  
HETATM    3  O   UNL     1     -10.624  16.449  64.785  1.00  0.00    -0.676 OA 
HETATM    4  N   UNL     1     -10.968  15.714  66.932  1.00  0.00    -0.288 N  
HETATM    5  C   UNL     1     -11.740  14.557  66.462  1.00  0.00    -0.368 C  
HETATM    6  C   UNL     1     -11.502  13.333  67.361  1.00  0.00    -0.332 C  
HETATM    7  N   UNL     1     -11.798  13.690  68.767  1.00  0.00    -0.344 NA 
HETATM    8  C   UNL     1     -11.145  16.027  68.361  1.00  0.00    -0.351 C  
HETATM    9  C   UNL     1     -10.947  14.792  69.261  1.00  0.00    -0.261 C  
ENDROOT
BRANCH   7  10
HETATM   10  C   UNL     1     -12.066  12.667  69.672  1.00  0.00    -0.213 A  
HETATM   11  C   UNL     1     -11.966  11.322  69.329  1.00  0.00    -0.411 A  
HETATM   12  C   UNL     1     -12.356  10.314  70.210  1.00  0.00    -0.267 A  
HETATM   13  C   UNL     1     -12.878  10.614  71.470  1.00  0.00    -0.462 A  
HETATM   14  C   UNL     1     -12.540  12.964  70.963  1.00  0.00    -0.376 A  
HETATM   15  C   UNL     1     -12.947  11.954  71.851  1.00  0.00    -0.434 A  
BRANCH  13  16
HETATM   16  O   UNL     1     -13.346   9.675  72.367  1.00  0.00    -0.433 OA 
BRANCH  16  17
HETATM   17  C   UNL     1     -13.197   8.327  71.911  1.00  0.00    -0.344 C  
BRANCH  17  18
HETATM   18  C   UNL     1     -11.755   7.854  71.801  1.00  0.00    -0.287 C  
HETATM   19  C   UNL     1     -10.966   8.000  73.072  1.00  0.00    -0.241 C  
HETATM   20  O   UNL     1     -10.022   6.934  73.015  1.00  0.00    -0.168 OA 
HETATM   21  C   UNL     1     -10.641   5.867  72.252  1.00  0.00    -0.217 C  
HETATM   22  O   UNL     1     -11.761   6.439  71.548  1.00  0.00    -0.308 OA 
BRANCH  21  23
HETATM   23  C   UNL     1      -9.660   5.313  71.214  1.00  0.00    -0.212 A  
HETATM   24 CL   UNL     1      -7.553   5.368  73.007  1.00  0.00    -0.096 Cl 
HETATM   25  C   UNL     1      -8.294   5.074  71.473  1.00  0.00    -0.119 A  
HETATM   26  C   UNL     1     -10.132   5.005  69.919  1.00  0.00    -0.344 A  
HETATM   27  C   UNL     1      -9.291   4.480  68.937  1.00  0.00    -0.209 A  
HETATM   28  C   UNL     1      -7.449   4.556  70.480  1.00  0.00    -0.050 A  
HETATM   29 CL   UNL     1      -6.918   3.593  68.018  1.00  0.00    -0.050 Cl 
HETATM   30  C   UNL     1      -7.952   4.256  69.221  1.00  0.00    -0.060 A  
ENDBRANCH  21  23
BRANCH  21  31
HETATM   31  C   UNL     1     -11.195   4.812  73.245  1.00  0.00    -0.340 C  
BRANCH  31  32
HETATM   32  N   UNL     1     -10.441   3.585  73.375  1.00  0.00    -0.164 NA 
HETATM   33  N   UNL     1      -9.293   1.963  74.362  1.00  0.00    -0.068 NA 
HETATM   34  C   UNL     1     -10.507   2.502  72.535  1.00  0.00    -0.091 A  
HETATM   35  C   UNL     1      -9.686   3.216  74.455  1.00  0.00    -0.113 A  
HETATM   36  C   UNL     1      -9.813   1.507  73.179  1.00  0.00    -0.081 A  
ENDBRANCH  31  32
ENDBRANCH  21  31
ENDBRANCH  17  18
ENDBRANCH  16  17
ENDBRANCH  13  16
ENDBRANCH   7  10
TORSDOF 7
ENDMDL
MODEL       71
REMARK 921   NORMALIZED FREE ENERGY PREDICTED BY IDOCK:   -6.28 KCAL/MOL
REMARK 922        TOTAL FREE ENERGY PREDICTED BY IDOCK:   -9.27 KCAL/MOL
REMARK 923 INTER-LIGAND FREE ENERGY PREDICTED BY IDOCK:   -8.74 KCAL/MOL
REMARK 924 INTRA-LIGAND FREE ENERGY PREDICTED BY IDOCK:   -0.54 KCAL/MOL
REMARK 927      BINDING AFFINITY PREDICTED BY RF-SCORE:    0.00 PKD
ROOT
HETATM    1  C   UNL     1     -10.437  17.956  66.090  1.00  0.00    -0.321 C  
HETATM    2  C   UNL     1     -10.449  17.914  67.595  1.00  0.00    -0.397 C  
HETATM    3  O   UNL     1     -10.350  18.954  68.246  1.00  0.00    -0.369 OA 
HETATM    4  N   UNL     1     -10.673  16.682  68.182  1.00  0.00    -0.337 N  
HETATM    5  C   UNL     1     -10.868  16.621  69.636  1.00  0.00    -0.282 C  
HETATM    6  C   UNL     1     -11.903  15.548  70.010  1.00  0.00    -0.359 C  
HETATM    7  N   UNL     1     -11.496  14.249  69.428  1.00  0.00    -0.276 NA 
HETATM    8  C   UNL     1     -10.385  15.383  67.549  1.00  0.00    -0.264 C  
HETATM    9  C   UNL     1     -11.398  14.295  67.955  1.00  0.00    -0.297 C  
ENDROOT
BRANCH   7  10
HETATM   10  C   UNL     1     -12.023  13.081  69.973  1.00  0.00    -0.312 A  
HETATM   11  C   UNL     1     -12.620  13.047  71.229  1.00  0.00    -0.373 A  
HETATM   12  C   UNL     1     -13.032  11.847  71.809  1.00  0.00    -0.455 A  
HETATM   13  C   UNL     1     -12.847  10.626  71.157  1.00  0.00    -0.420 A  
HETATM   14  C   UNL     1     -11.889  11.854  69.295  1.00  0.00    -0.379 A  
HETATM   15  C   UNL     1     -12.290  10.641  69.879  1.00  0.00    -0.304 A  
BRANCH  13  16
HETATM   16  O   UNL     1     -13.166   9.396  71.695  1.00  0.00    -0.354 OA 
BRANCH  16  17
HETATM   17  C   UNL     1     -12.073   8.768  72.372  1.00  0.00    -0.309 C  
BRANCH  17  18
HETATM   18  C   UNL     1     -10.924   8.353  71.464  1.00  0.00    -0.262 C  
HETATM   19  C   UNL     1      -9.578   8.840  71.923  1.00  0.00    -0.302 C  
HETATM   20  O   UNL     1      -8.675   7.839  71.461  1.00  0.00    -0.117 OA 
HETATM   21  C   UNL     1      -9.413   6.590  71.433  1.00  0.00    -0.158 C  
HETATM   22  O   UNL     1     -10.814   6.920  71.501  1.00  0.00    -0.226 OA 
BRANCH  21  23
HETATM   23  C   UNL     1      -9.162   5.850  70.116  1.00  0.00    -0.169 A  
HETATM   24 CL   UNL     1      -6.432   5.745  70.562  1.00  0.00    -0.035 Cl 
HETATM   25  C   UNL     1      -7.884   5.453  69.669  1.00  0.00    -0.078 A  
HETATM   26  C   UNL     1     -10.261   5.525  69.291  1.00  0.00    -0.315 A  
HETATM   27  C   UNL     1     -10.098   4.834  68.089  1.00  0.00    -0.105 A  
HETATM   28  C   UNL     1      -7.722   4.769  68.455  1.00  0.00    -0.081 A  
HETATM   29 CL   UNL     1      -8.627   3.592  66.203  1.00  0.00    -0.111 Cl 
HETATM   30  C   UNL     1      -8.828   4.457  67.675  1.00  0.00    -0.109 A  
ENDBRANCH  21  23
BRANCH  21  31
HETATM   31  C   UNL     1      -9.055   5.781  72.707  1.00  0.00    -0.133 C  
BRANCH  31  32
HETATM   32  N   UNL     1      -9.817   4.576  72.944  1.00  0.00    -0.140 NA 
HETATM   33  N   UNL     1     -11.580   3.301  73.385  1.00  0.00    -0.047 NA 
HETATM   34  C   UNL     1      -9.506   3.318  72.491  1.00  0.00    -0.117 A  
HETATM   35  C   UNL     1     -11.071   4.511  73.489  1.00  0.00    -0.314 A  
HETATM   36  C   UNL     1     -10.619   2.557  72.751  1.00  0.00    -0.110 A  
ENDBRANCH  31  32
ENDBRANCH  21  31
ENDBRANCH  17  18
ENDBRANCH  16  17
ENDBRANCH  13  16
ENDBRANCH   7  10
TORSDOF 7
ENDMDL
MODEL       72
REMARK 921   NORMALIZED FREE ENERGY PREDICTED BY IDOCK:   -6.26 KCAL/MOL
REMARK 922        TOTAL FREE ENERGY PREDICTED BY IDOCK:   -9.26 KCAL/MOL
REMARK 923 INTER-LIGAND FREE ENERGY PREDICTED BY IDOCK:   -8.24 KCAL/MOL
REMARK 924 INTRA-LIGAND FREE ENERGY PREDICTED BY IDOCK:   -1.01 KCAL/MOL
REMARK 927      BINDING AFFINITY PREDICTED BY RF-SCORE:    0.00 PKD
ROOT
HETATM    1  C   UNL     1     -10.953  19.035  67.548  1.00  0.00    -0.363 C  
HETATM    2  C   UNL     1      -9.678  18.304  67.880  1.00  0.00    -0.303 C  
HETATM    3  O   UNL     1      -8.872  18.791  68.672  1.00  0.00    -0.335 OA 
HETATM    4  N   UNL     1      -9.522  17.044  67.333  1.00  0.00    -0.240 N  
HETATM    5  C   UNL     1      -8.384  16.225  67.768  1.00  0.00    -0.161 C  
HETATM    6  C   UNL     1      -8.768  14.739  67.842  1.00  0.00    -0.167 C  
HETATM    7  N   UNL     1      -9.323  14.309  66.539  1.00  0.00    -0.282 NA 
HETATM    8  C   UNL     1     -10.178  16.573  66.100  1.00  0.00    -0.346 C  
HETATM    9  C   UNL     1     -10.527  15.074  66.157  1.00  0.00    -0.305 C  
ENDROOT
BRANCH   7  10
HETATM   10  C   UNL     1      -9.336  12.950  66.236  1.00  0.00    -0.141 A  
HETATM   11  C   UNL     1      -8.383  12.066  66.734  1.00  0.00    -0.135 A  
HETATM   12  C   UNL     1      -8.339  10.734  66.323  1.00  0.00    -0.160 A  
HETATM   13  C   UNL     1      -9.243  10.236  65.383  1.00  0.00    -0.193 A  
HETATM   14  C   UNL     1     -10.279  12.430  65.331  1.00  0.00    -0.302 A  
HETATM   15  C   UNL     1     -10.233  11.093  64.904  1.00  0.00    -0.361 A  
BRANCH  13  16
HETATM   16  O   UNL     1      -9.220   8.950  64.880  1.00  0.00    -0.100 OA 
BRANCH  16  17
HETATM   17  C   UNL     1      -8.851   7.965  65.850  1.00  0.00    -0.148 C  
BRANCH  17  18
HETATM   18  C   UNL     1      -9.961   7.589  66.820  1.00  0.00    -0.237 C  
HETATM   19  C   UNL     1     -10.257   6.115  66.867  1.00  0.00    -0.208 C  
HETATM   20  O   UNL     1     -10.701   5.896  68.203  1.00  0.00    -0.248 OA 
HETATM   21  C   UNL     1     -10.039   6.886  69.032  1.00  0.00    -0.170 C  
HETATM   22  O   UNL     1      -9.524   7.905  68.152  1.00  0.00    -0.145 OA 
BRANCH  21  23
HETATM   23  C   UNL     1     -11.041   7.543  69.986  1.00  0.00    -0.219 A  
HETATM   24 CL   UNL     1      -9.716   9.971  69.888  1.00  0.00    -0.260 Cl 
HETATM   25  C   UNL     1     -10.959   8.887  70.407  1.00  0.00    -0.244 A  
HETATM   26  C   UNL     1     -12.125   6.781  70.474  1.00  0.00    -0.332 A  
HETATM   27  C   UNL     1     -13.081   7.330  71.330  1.00  0.00    -0.412 A  
HETATM   28  C   UNL     1     -11.916   9.433  71.276  1.00  0.00    -0.430 A  
HETATM   29 CL   UNL     1     -14.160   9.338  72.769  1.00  0.00    -0.291 Cl 
HETATM   30  C   UNL     1     -12.974   8.655  71.727  1.00  0.00    -0.359 A  
ENDBRANCH  21  23
BRANCH  21  31
HETATM   31  C   UNL     1      -8.830   6.209  69.731  1.00  0.00    -0.135 C  
BRANCH  31  32
HETATM   32  N   UNL     1      -8.954   4.797  70.016  1.00  0.00    -0.092 NA 
HETATM   33  N   UNL     1      -8.480   2.630  69.955  1.00  0.00    -0.048 NA 
HETATM   34  C   UNL     1      -9.540   4.244  71.127  1.00  0.00    -0.179 A  
HETATM   35  C   UNL     1      -8.339   3.782  69.334  1.00  0.00    -0.060 A  
HETATM   36  C   UNL     1      -9.212   2.911  71.080  1.00  0.00    -0.130 A  
ENDBRANCH  31  32
ENDBRANCH  21  31
ENDBRANCH  17  18
ENDBRANCH  16  17
ENDBRANCH  13  16
ENDBRANCH   7  10
TORSDOF 7
ENDMDL
MODEL       73
REMARK 921   NORMALIZED FREE ENERGY PREDICTED BY IDOCK:   -6.26 KCAL/MOL
REMARK 922        TOTAL FREE ENERGY PREDICTED BY IDOCK:   -9.25 KCAL/MOL
REMARK 923 INTER-LIGAND FREE ENERGY PREDICTED BY IDOCK:   -8.06 KCAL/MOL
REMARK 924 INTRA-LIGAND FREE ENERGY PREDICTED BY IDOCK:   -1.18 KCAL/MOL
REMARK 927      BINDING AFFINITY PREDICTED BY RF-SCORE:    0.00 PKD
ROOT
HETATM    1  C   UNL     1      -6.339   1.970  63.263  1.00  0.00    -0.014 C  
HETATM    2  C   UNL     1      -6.898   2.315  64.619  1.00  0.00    -0.043 C  
HETATM    3  O   UNL     1      -6.802   1.518  65.551  1.00  0.00    -0.030 OA 
HETATM    4  N   UNL     1      -7.419   3.587  64.772  1.00  0.00    -0.071 N  
HETATM    5  C   UNL     1      -7.812   4.028  66.116  1.00  0.00    -0.090 C  
HETATM    6  C   UNL     1      -7.511   5.521  66.317  1.00  0.00    -0.086 C  
HETATM    7  N   UNL     1      -8.160   6.304  65.241  1.00  0.00    -0.127 NA 
HETATM    8  C   UNL     1      -7.950   4.417  63.676  1.00  0.00    -0.090 C  
HETATM    9  C   UNL     1      -7.685   5.919  63.897  1.00  0.00    -0.096 C  
ENDROOT
BRANCH   7  10
HETATM   10  C   UNL     1      -8.386   7.662  65.448  1.00  0.00    -0.128 A  
HETATM   11  C   UNL     1      -9.506   8.137  66.123  1.00  0.00    -0.217 A  
HETATM   12  C   UNL     1      -9.778   9.502  66.215  1.00  0.00    -0.310 A  
HETATM   13  C   UNL     1      -8.942  10.448  65.619  1.00  0.00    -0.176 A  
HETATM   14  C   UNL     1      -7.517   8.622  64.898  1.00  0.00    -0.093 A  
HETATM   15  C   UNL     1      -7.791   9.997  64.975  1.00  0.00    -0.137 A  
BRANCH  13  16
HETATM   16  O   UNL     1      -9.181  11.808  65.610  1.00  0.00    -0.198 OA 
BRANCH  16  17
HETATM   17  C   UNL     1      -8.429  12.526  66.594  1.00  0.00    -0.001 C  
BRANCH  17  18
HETATM   18  C   UNL     1      -9.106  12.628  67.953  1.00  0.00    -0.200 C  
HETATM   19  C   UNL     1      -9.164  14.026  68.502  1.00  0.00    -0.170 C  
HETATM   20  O   UNL     1     -10.354  14.039  69.287  1.00  0.00    -0.115 OA 
HETATM   21  C   UNL     1     -11.263  13.083  68.683  1.00  0.00    -0.277 C  
HETATM   22  O   UNL     1     -10.484  12.249  67.802  1.00  0.00    -0.203 OA 
BRANCH  21  23
HETATM   23  C   UNL     1     -11.889  12.187  69.756  1.00  0.00    -0.397 A  
HETATM   24 CL   UNL     1     -12.853  14.362  71.171  1.00  0.00    -0.398 Cl 
HETATM   25  C   UNL     1     -12.595  12.678  70.874  1.00  0.00    -0.249 A  
HETATM   26  C   UNL     1     -11.776  10.785  69.632  1.00  0.00    -0.395 A  
HETATM   27  C   UNL     1     -12.342   9.917  70.567  1.00  0.00    -0.229 A  
HETATM   28  C   UNL     1     -13.153  11.803  71.819  1.00  0.00    -0.480 A  
HETATM   29 CL   UNL     1     -13.742   9.362  72.801  1.00  0.00    -0.333 Cl 
HETATM   30  C   UNL     1     -13.030  10.430  71.657  1.00  0.00    -0.475 A  
ENDBRANCH  21  23
BRANCH  21  31
HETATM   31  C   UNL     1     -12.285  13.862  67.813  1.00  0.00    -0.182 C  
BRANCH  31  32
HETATM   32  N   UNL     1     -12.062  13.851  66.385  1.00  0.00    -0.439 NA 
HETATM   33  N   UNL     1     -12.400  13.361  64.247  1.00  0.00    -0.595 NA 
HETATM   34  C   UNL     1     -11.403  14.813  65.661  1.00  0.00    -0.343 A  
HETATM   35  C   UNL     1     -12.635  12.990  65.488  1.00  0.00    -0.362 A  
HETATM   36  C   UNL     1     -11.647  14.502  64.346  1.00  0.00    -0.313 A  
ENDBRANCH  31  32
ENDBRANCH  21  31
ENDBRANCH  17  18
ENDBRANCH  16  17
ENDBRANCH  13  16
ENDBRANCH   7  10
TORSDOF 7
ENDMDL
MODEL       74
REMARK 921   NORMALIZED FREE ENERGY PREDICTED BY IDOCK:   -6.25 KCAL/MOL
REMARK 922        TOTAL FREE ENERGY PREDICTED BY IDOCK:   -9.23 KCAL/MOL
REMARK 923 INTER-LIGAND FREE ENERGY PREDICTED BY IDOCK:   -8.21 KCAL/MOL
REMARK 924 INTRA-LIGAND FREE ENERGY PREDICTED BY IDOCK:   -1.02 KCAL/MOL
REMARK 927      BINDING AFFINITY PREDICTED BY RF-SCORE:    0.00 PKD
ROOT
HETATM    1  C   UNL     1     -10.361  20.199  66.142  1.00  0.00    -0.487 C  
HETATM    2  C   UNL     1     -10.271  19.557  67.501  1.00  0.00    -0.424 C  
HETATM    3  O   UNL     1     -10.398  20.238  68.518  1.00  0.00    -0.351 OA 
HETATM    4  N   UNL     1     -10.142  18.181  67.533  1.00  0.00    -0.332 N  
HETATM    5  C   UNL     1     -10.228  17.497  68.829  1.00  0.00    -0.373 C  
HETATM    6  C   UNL     1     -10.934  16.139  68.691  1.00  0.00    -0.336 C  
HETATM    7  N   UNL     1     -10.250  15.330  67.657  1.00  0.00    -0.240 NA 
HETATM    8  C   UNL     1      -9.574  17.363  66.446  1.00  0.00    -0.276 C  
HETATM    9  C   UNL     1     -10.254  15.985  66.333  1.00  0.00    -0.305 C  
ENDROOT
BRANCH   7  10
HETATM   10  C   UNL     1     -10.431  13.950  67.661  1.00  0.00    -0.245 A  
HETATM   11  C   UNL     1      -9.672  13.095  66.868  1.00  0.00    -0.243 A  
HETATM   12  C   UNL     1      -9.949  11.730  66.795  1.00  0.00    -0.224 A  
HETATM   13  C   UNL     1     -11.012  11.167  67.505  1.00  0.00    -0.275 A  
HETATM   14  C   UNL     1     -11.466  13.370  68.419  1.00  0.00    -0.351 A  
HETATM   15  C   UNL     1     -11.758  11.998  68.340  1.00  0.00    -0.390 A  
BRANCH  13  16
HETATM   16  O   UNL     1     -11.387   9.841  67.431  1.00  0.00    -0.030 OA 
BRANCH  16  17
HETATM   17  C   UNL     1     -10.366   8.988  66.905  1.00  0.00    -0.254 C  
BRANCH  17  18
HETATM   18  C   UNL     1     -10.310   7.606  67.540  1.00  0.00    -0.257 C  
HETATM   19  C   UNL     1      -9.503   6.607  66.759  1.00  0.00    -0.160 C  
HETATM   20  O   UNL     1      -8.982   5.731  67.755  1.00  0.00    -0.110 OA 
HETATM   21  C   UNL     1      -8.839   6.514  68.968  1.00  0.00    -0.130 C  
HETATM   22  O   UNL     1      -9.621   7.713  68.797  1.00  0.00    -0.151 OA 
BRANCH  21  23
HETATM   23  C   UNL     1      -9.400   5.748  70.169  1.00  0.00    -0.184 A  
HETATM   24 CL   UNL     1      -7.638   3.646  69.797  1.00  0.00    -0.051 Cl 
HETATM   25  C   UNL     1      -8.927   4.486  70.587  1.00  0.00    -0.106 A  
HETATM   26  C   UNL     1     -10.445   6.325  70.924  1.00  0.00    -0.274 A  
HETATM   27  C   UNL     1     -10.984   5.684  72.041  1.00  0.00    -0.302 A  
HETATM   28  C   UNL     1      -9.478   3.840  71.703  1.00  0.00    -0.213 A  
HETATM   29 CL   UNL     1     -11.149   3.660  73.813  1.00  0.00    -0.304 Cl 
HETATM   30  C   UNL     1     -10.498   4.444  72.428  1.00  0.00    -0.149 A  
ENDBRANCH  21  23
BRANCH  21  31
HETATM   31  C   UNL     1      -7.352   6.935  69.106  1.00  0.00    -0.093 C  
BRANCH  31  32
HETATM   32  N   UNL     1      -7.083   8.116  69.895  1.00  0.00    -0.058 NA 
HETATM   33  N   UNL     1      -6.725   9.353  71.703  1.00  0.00    -0.310 NA 
HETATM   34  C   UNL     1      -6.439   9.248  69.465  1.00  0.00    -0.043 A  
HETATM   35  C   UNL     1      -7.247   8.232  71.249  1.00  0.00    -0.073 A  
HETATM   36  C   UNL     1      -6.207   9.983  70.601  1.00  0.00    -0.103 A  
ENDBRANCH  31  32
ENDBRANCH  21  31
ENDBRANCH  17  18
ENDBRANCH  16  17
ENDBRANCH  13  16
ENDBRANCH   7  10
TORSDOF 7
ENDMDL
MODEL       75
REMARK 921   NORMALIZED FREE ENERGY PREDICTED BY IDOCK:   -6.20 KCAL/MOL
REMARK 922        TOTAL FREE ENERGY PREDICTED BY IDOCK:   -9.16 KCAL/MOL
REMARK 923 INTER-LIGAND FREE ENERGY PREDICTED BY IDOCK:   -7.82 KCAL/MOL
REMARK 924 INTRA-LIGAND FREE ENERGY PREDICTED BY IDOCK:   -1.35 KCAL/MOL
REMARK 927      BINDING AFFINITY PREDICTED BY RF-SCORE:    0.00 PKD
ROOT
HETATM    1  C   UNL     1     -12.529  12.136  63.508  1.00  0.00    -0.666 C  
HETATM    2  C   UNL     1     -12.421  12.877  64.814  1.00  0.00    -0.455 C  
HETATM    3  O   UNL     1     -13.241  13.748  65.104  1.00  0.00    -0.757 OA 
HETATM    4  N   UNL     1     -11.431  12.460  65.686  1.00  0.00    -0.351 N  
HETATM    5  C   UNL     1     -11.400  13.032  67.038  1.00  0.00    -0.301 C  
HETATM    6  C   UNL     1     -10.960  11.983  68.071  1.00  0.00    -0.223 C  
HETATM    7  N   UNL     1      -9.661  11.402  67.660  1.00  0.00    -0.171 NA 
HETATM    8  C   UNL     1     -10.194  11.767  65.287  1.00  0.00    -0.267 C  
HETATM    9  C   UNL     1      -9.728  10.744  66.340  1.00  0.00    -0.199 C  
ENDROOT
BRANCH   7  10
HETATM   10  C   UNL     1      -8.879  10.771  68.624  1.00  0.00    -0.152 A  
HETATM   11  C   UNL     1      -7.491  10.724  68.544  1.00  0.00    -0.100 A  
HETATM   12  C   UNL     1      -6.733   9.985  69.451  1.00  0.00    -0.060 A  
HETATM   13  C   UNL     1      -7.339   9.247  70.470  1.00  0.00    -0.116 A  
HETATM   14  C   UNL     1      -9.482  10.072  69.686  1.00  0.00    -0.247 A  
HETATM   15  C   UNL     1      -8.726   9.315  70.595  1.00  0.00    -0.282 A  
BRANCH  13  16
HETATM   16  O   UNL     1      -6.661   8.441  71.362  1.00  0.00    -0.049 OA 
BRANCH  16  17
HETATM   17  C   UNL     1      -7.521   7.605  72.144  1.00  0.00    -0.073 C  
BRANCH  17  18
HETATM   18  C   UNL     1      -7.654   6.180  71.627  1.00  0.00    -0.096 C  
HETATM   19  C   UNL     1      -7.969   5.170  72.696  1.00  0.00    -0.102 C  
HETATM   20  O   UNL     1      -8.728   4.175  72.016  1.00  0.00    -0.103 OA 
HETATM   21  C   UNL     1      -9.423   4.845  70.933  1.00  0.00    -0.165 C  
HETATM   22  O   UNL     1      -8.785   6.124  70.742  1.00  0.00    -0.133 OA 
BRANCH  21  23
HETATM   23  C   UNL     1      -9.286   4.047  69.633  1.00  0.00    -0.243 A  
HETATM   24 CL   UNL     1     -10.420   6.078  68.132  1.00  0.00    -0.251 Cl 
HETATM   25  C   UNL     1      -9.705   4.521  68.372  1.00  0.00    -0.122 A  
HETATM   26  C   UNL     1      -8.698   2.764  69.674  1.00  0.00    -0.131 A  
HETATM   27  C   UNL     1      -8.528   1.997  68.521  1.00  0.00    -0.086 A  
HETATM   28  C   UNL     1      -9.543   3.744  67.216  1.00  0.00    -0.213 A  
HETATM   29 CL   UNL     1      -8.727   1.554  65.870  1.00  0.00    -0.112 Cl 
HETATM   30  C   UNL     1      -8.950   2.490  67.294  1.00  0.00    -0.156 A  
ENDBRANCH  21  23
BRANCH  21  31
HETATM   31  C   UNL     1     -10.886   5.109  71.379  1.00  0.00    -0.013 C  
BRANCH  31  32
HETATM   32  N   UNL     1     -11.255   6.487  71.610  1.00  0.00    -0.257 NA 
HETATM   33  N   UNL     1     -12.324   8.412  71.331  1.00  0.00    -0.304 NA 
HETATM   34  C   UNL     1     -11.126   7.173  72.791  1.00  0.00    -0.300 A  
HETATM   35  C   UNL     1     -11.972   7.281  70.756  1.00  0.00    -0.272 A  
HETATM   36  C   UNL     1     -11.815   8.346  72.603  1.00  0.00    -0.290 A  
ENDBRANCH  31  32
ENDBRANCH  21  31
ENDBRANCH  17  18
ENDBRANCH  16  17
ENDBRANCH  13  16
ENDBRANCH   7  10
TORSDOF 7
ENDMDL
MODEL       76
REMARK 921   NORMALIZED FREE ENERGY PREDICTED BY IDOCK:   -6.19 KCAL/MOL
REMARK 922        TOTAL FREE ENERGY PREDICTED BY IDOCK:   -9.15 KCAL/MOL
REMARK 923 INTER-LIGAND FREE ENERGY PREDICTED BY IDOCK:   -7.76 KCAL/MOL
REMARK 924 INTRA-LIGAND FREE ENERGY PREDICTED BY IDOCK:   -1.39 KCAL/MOL
REMARK 927      BINDING AFFINITY PREDICTED BY RF-SCORE:    0.00 PKD
ROOT
HETATM    1  C   UNL     1     -12.261  13.000  63.535  1.00  0.00    -0.580 C  
HETATM    2  C   UNL     1     -12.459  12.958  65.027  1.00  0.00    -0.492 C  
HETATM    3  O   UNL     1     -13.536  13.290  65.520  1.00  0.00    -0.336 OA 
HETATM    4  N   UNL     1     -11.418  12.443  65.779  1.00  0.00    -0.352 N  
HETATM    5  C   UNL     1     -11.632  12.219  67.213  1.00  0.00    -0.357 C  
HETATM    6  C   UNL     1     -10.898  10.956  67.691  1.00  0.00    -0.266 C  
HETATM    7  N   UNL     1      -9.466  11.053  67.329  1.00  0.00    -0.163 NA 
HETATM    8  C   UNL     1     -10.005  12.426  65.361  1.00  0.00    -0.236 C  
HETATM    9  C   UNL     1      -9.257  11.180  65.873  1.00  0.00    -0.206 C  
ENDROOT
BRANCH   7  10
HETATM   10  C   UNL     1      -8.550  10.259  68.015  1.00  0.00    -0.118 A  
HETATM   11  C   UNL     1      -8.388   8.903  67.744  1.00  0.00    -0.110 A  
HETATM   12  C   UNL     1      -7.556   8.099  68.522  1.00  0.00    -0.104 A  
HETATM   13  C   UNL     1      -6.862   8.619  69.616  1.00  0.00    -0.046 A  
HETATM   14  C   UNL     1      -7.805  10.790  69.084  1.00  0.00    -0.142 A  
HETATM   15  C   UNL     1      -6.975   9.983  69.879  1.00  0.00    -0.118 A  
BRANCH  13  16
HETATM   16  O   UNL     1      -6.074   7.872  70.469  1.00  0.00    -0.033 OA 
BRANCH  16  17
HETATM   17  C   UNL     1      -6.167   8.283  71.837  1.00  0.00    -0.052 C  
BRANCH  17  18
HETATM   18  C   UNL     1      -7.289   7.619  72.620  1.00  0.00    -0.080 C  
HETATM   19  C   UNL     1      -8.227   8.588  73.284  1.00  0.00    -0.001 C  
HETATM   20  O   UNL     1      -9.476   7.902  73.302  1.00  0.00    -0.255 OA 
HETATM   21  C   UNL     1      -9.483   7.016  72.153  1.00  0.00    -0.137 C  
HETATM   22  O   UNL     1      -8.120   6.898  71.696  1.00  0.00    -0.104 OA 
BRANCH  21  23
HETATM   23  C   UNL     1      -9.972   5.621  72.554  1.00  0.00    -0.194 A  
HETATM   24 CL   UNL     1      -9.613   4.632  69.994  1.00  0.00    -0.239 Cl 
HETATM   25  C   UNL     1     -10.059   4.532  71.662  1.00  0.00    -0.179 A  
HETATM   26  C   UNL     1     -10.350   5.386  73.894  1.00  0.00    -0.287 A  
HETATM   27  C   UNL     1     -10.785   4.131  74.325  1.00  0.00    -0.259 A  
HETATM   28  C   UNL     1     -10.507   3.275  72.095  1.00  0.00     0.034 A  
HETATM   29 CL   UNL     1     -11.381   1.529  73.956  1.00  0.00    -0.238 Cl 
HETATM   30  C   UNL     1     -10.861   3.079  73.424  1.00  0.00    -0.207 A  
ENDBRANCH  21  23
BRANCH  21  31
HETATM   31  C   UNL     1     -10.304   7.688  71.021  1.00  0.00    -0.202 C  
BRANCH  31  32
HETATM   32  N   UNL     1     -11.430   8.497  71.431  1.00  0.00    -0.273 NA 
HETATM   33  N   UNL     1     -12.669  10.316  71.717  1.00  0.00    -0.433 NA 
HETATM   34  C   UNL     1     -12.719   8.061  71.610  1.00  0.00    -0.326 A  
HETATM   35  C   UNL     1     -11.449   9.863  71.519  1.00  0.00    -0.252 A  
HETATM   36  C   UNL     1     -13.467   9.202  71.759  1.00  0.00    -0.416 A  
ENDBRANCH  31  32
ENDBRANCH  21  31
ENDBRANCH  17  18
ENDBRANCH  16  17
ENDBRANCH  13  16
ENDBRANCH   7  10
TORSDOF 7
ENDMDL
MODEL       77
REMARK 921   NORMALIZED FREE ENERGY PREDICTED BY IDOCK:   -6.18 KCAL/MOL
REMARK 922        TOTAL FREE ENERGY PREDICTED BY IDOCK:   -9.14 KCAL/MOL
REMARK 923 INTER-LIGAND FREE ENERGY PREDICTED BY IDOCK:   -7.89 KCAL/MOL
REMARK 924 INTRA-LIGAND FREE ENERGY PREDICTED BY IDOCK:   -1.25 KCAL/MOL
REMARK 927      BINDING AFFINITY PREDICTED BY RF-SCORE:    0.00 PKD
ROOT
HETATM    1  C   UNL     1     -11.545  16.063  64.398  1.00  0.00    -0.212 C  
HETATM    2  C   UNL     1     -12.095  14.661  64.412  1.00  0.00    -0.462 C  
HETATM    3  O   UNL     1     -12.634  14.196  63.408  1.00  0.00    -0.818 OA 
HETATM    4  N   UNL     1     -11.874  13.917  65.557  1.00  0.00    -0.346 N  
HETATM    5  C   UNL     1     -12.236  12.494  65.549  1.00  0.00    -0.377 C  
HETATM    6  C   UNL     1     -11.232  11.665  66.366  1.00  0.00    -0.287 C  
HETATM    7  N   UNL     1     -11.126  12.226  67.732  1.00  0.00    -0.240 NA 
HETATM    8  C   UNL     1     -11.643  14.482  66.898  1.00  0.00    -0.385 C  
HETATM    9  C   UNL     1     -10.668  13.630  67.733  1.00  0.00    -0.246 C  
ENDROOT
BRANCH   7  10
HETATM   10  C   UNL     1     -10.628  11.416  68.749  1.00  0.00    -0.204 A  
HETATM   11  C   UNL     1      -9.297  11.015  68.799  1.00  0.00    -0.185 A  
HETATM   12  C   UNL     1      -8.844  10.106  69.754  1.00  0.00    -0.152 A  
HETATM   13  C   UNL     1      -9.714   9.548  70.693  1.00  0.00    -0.245 A  
HETATM   14  C   UNL     1     -11.490  10.894  69.731  1.00  0.00    -0.390 A  
HETATM   15  C   UNL     1     -11.044   9.968  70.688  1.00  0.00    -0.408 A  
BRANCH  13  16
HETATM   16  O   UNL     1      -9.354   8.594  71.624  1.00  0.00    -0.214 OA 
BRANCH  16  17
HETATM   17  C   UNL     1     -10.355   7.592  71.831  1.00  0.00    -0.199 C  
BRANCH  17  18
HETATM   18  C   UNL     1     -10.312   6.444  70.834  1.00  0.00    -0.204 C  
HETATM   19  C   UNL     1     -11.531   6.350  69.959  1.00  0.00    -0.428 C  
HETATM   20  O   UNL     1     -11.038   5.794  68.742  1.00  0.00    -0.243 OA 
HETATM   21  C   UNL     1      -9.656   6.218  68.618  1.00  0.00    -0.123 C  
HETATM   22  O   UNL     1      -9.233   6.682  69.916  1.00  0.00    -0.146 OA 
BRANCH  21  23
HETATM   23  C   UNL     1      -8.767   5.035  68.223  1.00  0.00    -0.106 A  
HETATM   24 CL   UNL     1     -10.312   4.469  65.997  1.00  0.00    -0.296 Cl 
HETATM   25  C   UNL     1      -8.996   4.223  67.092  1.00  0.00    -0.123 A  
HETATM   26  C   UNL     1      -7.640   4.729  69.016  1.00  0.00    -0.067 A  
HETATM   27  C   UNL     1      -6.781   3.676  68.696  1.00  0.00    -0.045 A  
HETATM   28  C   UNL     1      -8.138   3.159  66.780  1.00  0.00    -0.080 A  
HETATM   29 CL   UNL     1      -5.967   1.607  67.173  1.00  0.00    -0.019 Cl 
HETATM   30  C   UNL     1      -7.032   2.895  67.578  1.00  0.00    -0.049 A  
ENDBRANCH  21  23
BRANCH  21  31
HETATM   31  C   UNL     1      -9.600   7.423  67.643  1.00  0.00    -0.138 C  
BRANCH  31  32
HETATM   32  N   UNL     1      -8.379   7.587  66.886  1.00  0.00    -0.122 NA 
HETATM   33  N   UNL     1      -7.074   7.999  65.138  1.00  0.00    -0.062 NA 
HETATM   34  C   UNL     1      -7.149   7.919  67.394  1.00  0.00    -0.083 A  
HETATM   35  C   UNL     1      -8.280   7.635  65.521  1.00  0.00    -0.135 A  
HETATM   36  C   UNL     1      -6.369   8.193  66.298  1.00  0.00    -0.046 A  
ENDBRANCH  31  32
ENDBRANCH  21  31
ENDBRANCH  17  18
ENDBRANCH  16  17
ENDBRANCH  13  16
ENDBRANCH   7  10
TORSDOF 7
ENDMDL
MODEL       78
REMARK 921   NORMALIZED FREE ENERGY PREDICTED BY IDOCK:   -6.18 KCAL/MOL
REMARK 922        TOTAL FREE ENERGY PREDICTED BY IDOCK:   -9.14 KCAL/MOL
REMARK 923 INTER-LIGAND FREE ENERGY PREDICTED BY IDOCK:   -8.61 KCAL/MOL
REMARK 924 INTRA-LIGAND FREE ENERGY PREDICTED BY IDOCK:   -0.53 KCAL/MOL
REMARK 927      BINDING AFFINITY PREDICTED BY RF-SCORE:    0.00 PKD
ROOT
HETATM    1  C   UNL     1      -9.711  20.216  67.470  1.00  0.00    -0.557 C  
HETATM    2  C   UNL     1     -10.312  19.449  66.321  1.00  0.00    -0.493 C  
HETATM    3  O   UNL     1     -10.541  20.013  65.252  1.00  0.00    -0.295 OA 
HETATM    4  N   UNL     1     -10.490  18.090  66.505  1.00  0.00    -0.360 N  
HETATM    5  C   UNL     1     -10.905  17.275  65.357  1.00  0.00    -0.021 C  
HETATM    6  C   UNL     1     -10.243  15.889  65.395  1.00  0.00    -0.323 C  
HETATM    7  N   UNL     1     -10.530  15.242  66.696  1.00  0.00    -0.284 NA 
HETATM    8  C   UNL     1     -10.649  17.430  67.813  1.00  0.00    -0.371 C  
HETATM    9  C   UNL     1     -10.021  16.023  67.841  1.00  0.00    -0.233 C  
ENDROOT
BRANCH   7  10
HETATM   10  C   UNL     1     -10.410  13.858  66.793  1.00  0.00    -0.272 A  
HETATM   11  C   UNL     1      -9.175  13.217  66.819  1.00  0.00    -0.232 A  
HETATM   12  C   UNL     1      -9.074  11.827  66.794  1.00  0.00    -0.194 A  
HETATM   13  C   UNL     1     -10.212  11.019  66.726  1.00  0.00    -0.229 A  
HETATM   14  C   UNL     1     -11.554  13.040  66.781  1.00  0.00    -0.420 A  
HETATM   15  C   UNL     1     -11.460  11.639  66.742  1.00  0.00    -0.299 A  
BRANCH  13  16
HETATM   16  O   UNL     1     -10.189   9.642  66.630  1.00  0.00    -0.234 OA 
BRANCH  16  17
HETATM   17  C   UNL     1      -8.912   9.117  66.252  1.00  0.00    -0.158 C  
BRANCH  17  18
HETATM   18  C   UNL     1      -8.320   8.125  67.242  1.00  0.00    -0.121 C  
HETATM   19  C   UNL     1      -7.033   8.584  67.870  1.00  0.00    -0.074 C  
HETATM   20  O   UNL     1      -7.044   7.978  69.160  1.00  0.00    -0.065 OA 
HETATM   21  C   UNL     1      -8.436   7.836  69.544  1.00  0.00    -0.131 C  
HETATM   22  O   UNL     1      -9.228   7.995  68.349  1.00  0.00    -0.136 OA 
BRANCH  21  23
HETATM   23  C   UNL     1      -8.697   6.435  70.104  1.00  0.00    -0.139 A  
HETATM   24 CL   UNL     1     -11.073   6.193  68.704  1.00  0.00    -0.421 Cl 
HETATM   25  C   UNL     1      -9.832   5.660  69.784  1.00  0.00    -0.185 A  
HETATM   26  C   UNL     1      -7.754   5.861  70.985  1.00  0.00    -0.101 A  
HETATM   27  C   UNL     1      -7.927   4.581  71.512  1.00  0.00    -0.095 A  
HETATM   28  C   UNL     1     -10.008   4.377  70.325  1.00  0.00    -0.248 A  
HETATM   29 CL   UNL     1      -9.260   2.258  71.816  1.00  0.00    -0.147 Cl 
HETATM   30  C   UNL     1      -9.053   3.842  71.179  1.00  0.00    -0.120 A  
ENDBRANCH  21  23
BRANCH  21  31
HETATM   31  C   UNL     1      -8.799   8.997  70.508  1.00  0.00    -0.208 C  
BRANCH  31  32
HETATM   32  N   UNL     1      -9.834   8.731  71.481  1.00  0.00    -0.273 NA 
HETATM   33  N   UNL     1     -11.867   8.318  72.272  1.00  0.00    -0.365 NA 
HETATM   34  C   UNL     1      -9.658   8.158  72.716  1.00  0.00    -0.283 A  
HETATM   35  C   UNL     1     -11.183   8.820  71.265  1.00  0.00    -0.284 A  
HETATM   36  C   UNL     1     -10.925   7.891  73.172  1.00  0.00    -0.236 A  
ENDBRANCH  31  32
ENDBRANCH  21  31
ENDBRANCH  17  18
ENDBRANCH  16  17
ENDBRANCH  13  16
ENDBRANCH   7  10
TORSDOF 7
ENDMDL
MODEL       79
REMARK 921   NORMALIZED FREE ENERGY PREDICTED BY IDOCK:   -6.15 KCAL/MOL
REMARK 922        TOTAL FREE ENERGY PREDICTED BY IDOCK:   -9.09 KCAL/MOL
REMARK 923 INTER-LIGAND FREE ENERGY PREDICTED BY IDOCK:   -8.90 KCAL/MOL
REMARK 924 INTRA-LIGAND FREE ENERGY PREDICTED BY IDOCK:   -0.20 KCAL/MOL
REMARK 927      BINDING AFFINITY PREDICTED BY RF-SCORE:    0.00 PKD
ROOT
HETATM    1  C   UNL     1      -7.250   2.783  67.065  1.00  0.00    -0.057 C  
HETATM    2  C   UNL     1      -8.662   3.246  67.315  1.00  0.00    -0.120 C  
HETATM    3  O   UNL     1      -9.452   2.526  67.926  1.00  0.00    -0.209 OA 
HETATM    4  N   UNL     1      -8.975   4.533  66.917  1.00  0.00    -0.112 N  
HETATM    5  C   UNL     1     -10.280   5.087  67.298  1.00  0.00    -0.168 C  
HETATM    6  C   UNL     1     -10.172   6.588  67.611  1.00  0.00    -0.170 C  
HETATM    7  N   UNL     1      -9.562   7.288  66.457  1.00  0.00    -0.173 NA 
HETATM    8  C   UNL     1      -8.282   5.277  65.851  1.00  0.00    -0.117 C  
HETATM    9  C   UNL     1      -8.209   6.788  66.143  1.00  0.00    -0.124 C  
ENDROOT
BRANCH   7  10
HETATM   10  C   UNL     1      -9.755   8.661  66.334  1.00  0.00    -0.263 A  
HETATM   11  C   UNL     1     -10.499   9.396  67.252  1.00  0.00    -0.332 A  
HETATM   12  C   UNL     1     -10.783  10.746  67.047  1.00  0.00    -0.320 A  
HETATM   13  C   UNL     1     -10.343  11.413  65.902  1.00  0.00    -0.250 A  
HETATM   14  C   UNL     1      -9.266   9.352  65.209  1.00  0.00    -0.299 A  
HETATM   15  C   UNL     1      -9.559  10.708  64.990  1.00  0.00    -0.319 A  
BRANCH  13  16
HETATM   16  O   UNL     1     -10.641  12.727  65.599  1.00  0.00    -0.266 OA 
BRANCH  16  17
HETATM   17  C   UNL     1      -9.558  13.629  65.848  1.00  0.00    -0.118 C  
BRANCH  17  18
HETATM   18  C   UNL     1      -9.521  14.195  67.260  1.00  0.00    -0.229 C  
HETATM   19  C   UNL     1      -8.630  15.396  67.413  1.00  0.00    -0.179 C  
HETATM   20  O   UNL     1      -9.247  16.152  68.452  1.00  0.00    -0.193 OA 
HETATM   21  C   UNL     1     -10.669  15.870  68.387  1.00  0.00    -0.281 C  
HETATM   22  O   UNL     1     -10.833  14.682  67.586  1.00  0.00    -0.272 OA 
BRANCH  21  23
HETATM   23  C   UNL     1     -11.221  15.580  69.786  1.00  0.00    -0.307 A  
HETATM   24 CL   UNL     1     -12.023  13.030  69.066  1.00  0.00    -0.336 Cl 
HETATM   25  C   UNL     1     -11.831  14.362  70.153  1.00  0.00    -0.314 A  
HETATM   26  C   UNL     1     -11.114  16.572  70.785  1.00  0.00    -0.014 A  
HETATM   27  C   UNL     1     -11.581  16.359  72.083  1.00  0.00    -0.336 A  
HETATM   28  C   UNL     1     -12.310  14.156  71.455  1.00  0.00    -0.395 A  
HETATM   29 CL   UNL     1     -12.738  14.881  74.017  1.00  0.00    -0.494 Cl 
HETATM   30  C   UNL     1     -12.177  15.151  72.414  1.00  0.00    -0.374 A  
ENDBRANCH  21  23
BRANCH  21  31
HETATM   31  C   UNL     1     -11.366  17.041  67.646  1.00  0.00     0.257 C  
BRANCH  31  32
HETATM   32  N   UNL     1     -10.564  18.216  67.392  1.00  0.00    -0.405 NA 
HETATM   33  N   UNL     1      -9.606  19.851  66.236  1.00  0.00    -0.413 NA 
HETATM   34  C   UNL     1     -10.263  19.203  68.297  1.00  0.00    -0.401 A  
HETATM   35  C   UNL     1     -10.135  18.647  66.165  1.00  0.00    -0.369 A  
HETATM   36  C   UNL     1      -9.696  20.210  67.555  1.00  0.00    -0.421 A  
ENDBRANCH  31  32
ENDBRANCH  21  31
ENDBRANCH  17  18
ENDBRANCH  16  17
ENDBRANCH  13  16
ENDBRANCH   7  10
TORSDOF 7
ENDMDL
MODEL       80
REMARK 921   NORMALIZED FREE ENERGY PREDICTED BY IDOCK:   -6.14 KCAL/MOL
REMARK 922        TOTAL FREE ENERGY PREDICTED BY IDOCK:   -9.09 KCAL/MOL
REMARK 923 INTER-LIGAND FREE ENERGY PREDICTED BY IDOCK:   -8.22 KCAL/MOL
REMARK 924 INTRA-LIGAND FREE ENERGY PREDICTED BY IDOCK:   -0.86 KCAL/MOL
REMARK 927      BINDING AFFINITY PREDICTED BY RF-SCORE:    0.00 PKD
ROOT
HETATM    1  C   UNL     1     -10.206  18.585  65.979  1.00  0.00    -0.371 C  
HETATM    2  C   UNL     1     -10.742  17.267  65.482  1.00  0.00    -0.100 C  
HETATM    3  O   UNL     1     -11.346  17.207  64.412  1.00  0.00    -1.115 OA 
HETATM    4  N   UNL     1     -10.434  16.147  66.232  1.00  0.00    -0.318 N  
HETATM    5  C   UNL     1     -10.782  14.826  65.696  1.00  0.00    -0.336 C  
HETATM    6  C   UNL     1      -9.715  13.782  66.063  1.00  0.00    -0.237 C  
HETATM    7  N   UNL     1      -9.518  13.775  67.531  1.00  0.00    -0.214 NA 
HETATM    8  C   UNL     1     -10.112  16.158  67.670  1.00  0.00    -0.248 C  
HETATM    9  C   UNL     1      -9.073  15.085  68.047  1.00  0.00    -0.178 C  
ENDROOT
BRANCH   7  10
HETATM   10  C   UNL     1      -8.942  12.653  68.120  1.00  0.00    -0.199 A  
HETATM   11  C   UNL     1      -9.626  11.449  68.259  1.00  0.00    -0.192 A  
HETATM   12  C   UNL     1      -9.077  10.375  68.959  1.00  0.00    -0.193 A  
HETATM   13  C   UNL     1      -7.823  10.470  69.565  1.00  0.00    -0.127 A  
HETATM   14  C   UNL     1      -7.654  12.725  68.683  1.00  0.00    -0.085 A  
HETATM   15  C   UNL     1      -7.101  11.652  69.401  1.00  0.00    -0.007 A  
BRANCH  13  16
HETATM   16  O   UNL     1      -7.245   9.476  70.328  1.00  0.00    -0.085 OA 
BRANCH  16  17
HETATM   17  C   UNL     1      -8.150   8.873  71.259  1.00  0.00    -0.139 C  
BRANCH  17  18
HETATM   18  C   UNL     1      -8.369   7.382  71.049  1.00  0.00    -0.114 C  
HETATM   19  C   UNL     1      -8.996   6.685  72.225  1.00  0.00    -0.133 C  
HETATM   20  O   UNL     1      -9.741   5.622  71.638  1.00  0.00    -0.156 OA 
HETATM   21  C   UNL     1     -10.139   6.070  70.317  1.00  0.00    -0.194 C  
HETATM   22  O   UNL     1      -9.320   7.209  69.986  1.00  0.00    -0.155 OA 
BRANCH  21  23
HETATM   23  C   UNL     1      -9.874   4.976  69.278  1.00  0.00    -0.266 A  
HETATM   24 CL   UNL     1     -10.318   6.712  67.168  1.00  0.00    -0.281 Cl 
HETATM   25  C   UNL     1      -9.938   5.184  67.884  1.00  0.00    -0.152 A  
HETATM   26  C   UNL     1      -9.530   3.679  69.719  1.00  0.00    -0.254 A  
HETATM   27  C   UNL     1      -9.257   2.647  68.820  1.00  0.00    -0.228 A  
HETATM   28  C   UNL     1      -9.675   4.141  66.984  1.00  0.00    -0.230 A  
HETATM   29 CL   UNL     1      -8.978   1.615  66.346  1.00  0.00    -0.116 Cl 
HETATM   30  C   UNL     1      -9.329   2.881  67.455  1.00  0.00    -0.174 A  
ENDBRANCH  21  23
BRANCH  21  31
HETATM   31  C   UNL     1     -11.613   6.551  70.387  1.00  0.00    -0.407 C  
BRANCH  31  32
HETATM   32  N   UNL     1     -11.845   7.842  70.994  1.00  0.00    -0.288 NA 
HETATM   33  N   UNL     1     -12.264  10.018  71.122  1.00  0.00    -0.349 NA 
HETATM   34  C   UNL     1     -12.329   8.067  72.258  1.00  0.00    -0.291 A  
HETATM   35  C   UNL     1     -11.809   9.050  70.353  1.00  0.00     0.011 A  
HETATM   36  C   UNL     1     -12.603   9.412  72.304  1.00  0.00    -0.306 A  
ENDBRANCH  31  32
ENDBRANCH  21  31
ENDBRANCH  17  18
ENDBRANCH  16  17
ENDBRANCH  13  16
ENDBRANCH   7  10
TORSDOF 7
ENDMDL
MODEL       81
REMARK 921   NORMALIZED FREE ENERGY PREDICTED BY IDOCK:   -6.13 KCAL/MOL
REMARK 922        TOTAL FREE ENERGY PREDICTED BY IDOCK:   -9.07 KCAL/MOL
REMARK 923 INTER-LIGAND FREE ENERGY PREDICTED BY IDOCK:   -8.36 KCAL/MOL
REMARK 924 INTRA-LIGAND FREE ENERGY PREDICTED BY IDOCK:   -0.71 KCAL/MOL
REMARK 927      BINDING AFFINITY PREDICTED BY RF-SCORE:    0.00 PKD
ROOT
HETATM    1  C   UNL     1     -12.292  12.415  63.487  1.00  0.00    -0.648 C  
HETATM    2  C   UNL     1     -12.317  13.225  64.756  1.00  0.00    -0.402 C  
HETATM    3  O   UNL     1     -12.932  14.290  64.801  1.00  0.00    -0.653 OA 
HETATM    4  N   UNL     1     -11.709  12.665  65.865  1.00  0.00    -0.398 N  
HETATM    5  C   UNL     1     -11.861  13.333  67.162  1.00  0.00    -0.374 C  
HETATM    6  C   UNL     1     -11.967  12.309  68.303  1.00  0.00    -0.200 C  
HETATM    7  N   UNL     1     -10.801  11.398  68.256  1.00  0.00    -0.196 NA 
HETATM    8  C   UNL     1     -10.631  11.660  65.816  1.00  0.00    -0.271 C  
HETATM    9  C   UNL     1     -10.713  10.656  66.982  1.00  0.00    -0.259 C  
ENDROOT
BRANCH   7  10
HETATM   10  C   UNL     1     -10.464  10.688  69.406  1.00  0.00    -0.225 A  
HETATM   11  C   UNL     1      -9.167  10.250  69.659  1.00  0.00    -0.155 A  
HETATM   12  C   UNL     1      -8.873   9.437  70.753  1.00  0.00    -0.233 A  
HETATM   13  C   UNL     1      -9.872   9.017  71.633  1.00  0.00    -0.296 A  
HETATM   14  C   UNL     1     -11.457  10.309  70.327  1.00  0.00    -0.395 A  
HETATM   15  C   UNL     1     -11.170   9.481  71.424  1.00  0.00    -0.452 A  
BRANCH  13  16
HETATM   16  O   UNL     1      -9.668   8.161  72.697  1.00  0.00    -0.240 OA 
BRANCH  16  17
HETATM   17  C   UNL     1     -10.026   6.805  72.414  1.00  0.00    -0.169 C  
BRANCH  17  18
HETATM   18  C   UNL     1      -9.316   6.202  71.211  1.00  0.00    -0.159 C  
HETATM   19  C   UNL     1      -8.061   5.450  71.557  1.00  0.00    -0.117 C  
HETATM   20  O   UNL     1      -7.978   4.440  70.556  1.00  0.00    -0.058 OA 
HETATM   21  C   UNL     1      -9.339   4.133  70.158  1.00  0.00    -0.164 C  
HETATM   22  O   UNL     1     -10.175   5.209  70.629  1.00  0.00    -0.237 OA 
BRANCH  21  23
HETATM   23  C   UNL     1      -9.451   4.077  68.632  1.00  0.00    -0.220 A  
HETATM   24 CL   UNL     1      -7.819   1.847  68.479  1.00  0.00    -0.053 Cl 
HETATM   25  C   UNL     1      -8.809   3.108  67.832  1.00  0.00    -0.132 A  
HETATM   26  C   UNL     1     -10.247   5.034  67.966  1.00  0.00    -0.144 A  
HETATM   27  C   UNL     1     -10.404   5.023  66.579  1.00  0.00    -0.325 A  
HETATM   28  C   UNL     1      -8.959   3.106  66.437  1.00  0.00    -0.158 A  
HETATM   29 CL   UNL     1      -9.964   4.032  64.112  1.00  0.00    -0.178 Cl 
HETATM   30  C   UNL     1      -9.760   4.058  65.819  1.00  0.00    -0.190 A  
ENDBRANCH  21  23
BRANCH  21  31
HETATM   31  C   UNL     1      -9.782   2.836  70.887  1.00  0.00    -0.065 C  
BRANCH  31  32
HETATM   32  N   UNL     1      -9.812   2.883  72.331  1.00  0.00    -0.147 NA 
HETATM   33  N   UNL     1     -10.667   3.032  74.374  1.00  0.00    -0.155 NA 
HETATM   34  C   UNL     1      -8.880   2.339  73.179  1.00  0.00    -0.070 A  
HETATM   35  C   UNL     1     -10.865   3.300  73.100  1.00  0.00    -0.139 A  
HETATM   36  C   UNL     1      -9.442   2.420  74.430  1.00  0.00    -0.082 A  
ENDBRANCH  31  32
ENDBRANCH  21  31
ENDBRANCH  17  18
ENDBRANCH  16  17
ENDBRANCH  13  16
ENDBRANCH   7  10
TORSDOF 7
ENDMDL
MODEL       82
REMARK 921   NORMALIZED FREE ENERGY PREDICTED BY IDOCK:   -6.10 KCAL/MOL
REMARK 922        TOTAL FREE ENERGY PREDICTED BY IDOCK:   -9.02 KCAL/MOL
REMARK 923 INTER-LIGAND FREE ENERGY PREDICTED BY IDOCK:   -7.98 KCAL/MOL
REMARK 924 INTRA-LIGAND FREE ENERGY PREDICTED BY IDOCK:   -1.04 KCAL/MOL
REMARK 927      BINDING AFFINITY PREDICTED BY RF-SCORE:    0.00 PKD
ROOT
HETATM    1  C   UNL     1     -11.603  16.048  64.329  1.00  0.00    -0.139 C  
HETATM    2  C   UNL     1     -12.110  14.630  64.297  1.00  0.00    -0.415 C  
HETATM    3  O   UNL     1     -12.453  14.118  63.232  1.00  0.00    -0.758 OA 
HETATM    4  N   UNL     1     -12.073  13.928  65.487  1.00  0.00    -0.383 N  
HETATM    5  C   UNL     1     -12.389  12.495  65.468  1.00  0.00    -0.295 C  
HETATM    6  C   UNL     1     -11.521  11.723  66.475  1.00  0.00    -0.255 C  
HETATM    7  N   UNL     1     -11.670  12.328  67.818  1.00  0.00    -0.407 NA 
HETATM    8  C   UNL     1     -12.093  14.541  66.828  1.00  0.00    -0.288 C  
HETATM    9  C   UNL     1     -11.256  13.746  67.849  1.00  0.00    -0.274 C  
ENDROOT
BRANCH   7  10
HETATM   10  C   UNL     1     -11.336  11.565  68.933  1.00  0.00    -0.268 A  
HETATM   11  C   UNL     1     -10.220  10.734  68.961  1.00  0.00    -0.229 A  
HETATM   12  C   UNL     1      -9.969   9.886  70.039  1.00  0.00    -0.302 A  
HETATM   13  C   UNL     1     -10.838   9.826  71.131  1.00  0.00    -0.263 A  
HETATM   14  C   UNL     1     -12.178  11.542  70.060  1.00  0.00    -0.354 A  
HETATM   15  C   UNL     1     -11.938  10.682  71.143  1.00  0.00    -0.401 A  
BRANCH  13  16
HETATM   16  O   UNL     1     -10.691   8.966  72.201  1.00  0.00    -0.342 OA 
BRANCH  16  17
HETATM   17  C   UNL     1     -11.631   7.886  72.198  1.00  0.00    -0.328 C  
BRANCH  17  18
HETATM   18  C   UNL     1     -11.020   6.520  71.925  1.00  0.00    -0.250 C  
HETATM   19  C   UNL     1     -11.333   5.973  70.560  1.00  0.00    -0.240 C  
HETATM   20  O   UNL     1     -10.197   5.175  70.240  1.00  0.00    -0.244 OA 
HETATM   21  C   UNL     1      -9.064   5.767  70.926  1.00  0.00    -0.145 C  
HETATM   22  O   UNL     1      -9.589   6.654  71.934  1.00  0.00    -0.152 OA 
BRANCH  21  23
HETATM   23  C   UNL     1      -8.239   4.684  71.630  1.00  0.00    -0.104 A  
HETATM   24 CL   UNL     1     -10.497   3.515  72.725  1.00  0.00    -0.236 Cl 
HETATM   25  C   UNL     1      -8.799   3.671  72.436  1.00  0.00    -0.096 A  
HETATM   26  C   UNL     1      -6.837   4.674  71.465  1.00  0.00    -0.038 A  
HETATM   27  C   UNL     1      -6.034   3.702  72.065  1.00  0.00    -0.013 A  
HETATM   28  C   UNL     1      -7.989   2.702  73.046  1.00  0.00    -0.051 A  
HETATM   29 CL   UNL     1      -5.629   1.510  73.579  1.00  0.00     0.000 Cl 
HETATM   30  C   UNL     1      -6.614   2.718  72.853  1.00  0.00    -0.022 A  
ENDBRANCH  21  23
BRANCH  21  31
HETATM   31  C   UNL     1      -8.268   6.626  69.908  1.00  0.00    -0.127 C  
BRANCH  31  32
HETATM   32  N   UNL     1      -8.422   6.283  68.512  1.00  0.00    -0.115 NA 
HETATM   33  N   UNL     1      -8.750   6.581  66.337  1.00  0.00    -0.135 NA 
HETATM   34  C   UNL     1      -7.908   5.173  67.889  1.00  0.00    -0.091 A  
HETATM   35  C   UNL     1      -8.931   7.096  67.536  1.00  0.00    -0.121 A  
HETATM   36  C   UNL     1      -8.100   5.393  66.547  1.00  0.00    -0.105 A  
ENDBRANCH  31  32
ENDBRANCH  21  31
ENDBRANCH  17  18
ENDBRANCH  16  17
ENDBRANCH  13  16
ENDBRANCH   7  10
TORSDOF 7
ENDMDL
MODEL       83
REMARK 921   NORMALIZED FREE ENERGY PREDICTED BY IDOCK:   -6.09 KCAL/MOL
REMARK 922        TOTAL FREE ENERGY PREDICTED BY IDOCK:   -9.01 KCAL/MOL
REMARK 923 INTER-LIGAND FREE ENERGY PREDICTED BY IDOCK:   -7.83 KCAL/MOL
REMARK 924 INTRA-LIGAND FREE ENERGY PREDICTED BY IDOCK:   -1.18 KCAL/MOL
REMARK 927      BINDING AFFINITY PREDICTED BY RF-SCORE:    0.00 PKD
ROOT
HETATM    1  C   UNL     1      -6.320   1.756  64.349  1.00  0.00    -0.018 C  
HETATM    2  C   UNL     1      -7.614   2.499  64.140  1.00  0.00    -0.071 C  
HETATM    3  O   UNL     1      -8.357   2.200  63.206  1.00  0.00    -0.072 OA 
HETATM    4  N   UNL     1      -7.951   3.441  65.095  1.00  0.00    -0.085 N  
HETATM    5  C   UNL     1      -9.280   4.061  65.030  1.00  0.00    -0.151 C  
HETATM    6  C   UNL     1      -9.841   4.316  66.438  1.00  0.00    -0.220 C  
HETATM    7  N   UNL     1      -8.869   5.116  67.217  1.00  0.00    -0.106 NA 
HETATM    8  C   UNL     1      -6.989   4.146  65.960  1.00  0.00    -0.066 C  
HETATM    9  C   UNL     1      -7.564   4.438  67.360  1.00  0.00    -0.081 C  
ENDROOT
BRANCH   7  10
HETATM   10  C   UNL     1      -9.323   5.816  68.331  1.00  0.00    -0.121 A  
HETATM   11  C   UNL     1     -10.640   5.739  68.775  1.00  0.00    -0.321 A  
HETATM   12  C   UNL     1     -11.107   6.540  69.816  1.00  0.00    -0.430 A  
HETATM   13  C   UNL     1     -10.273   7.465  70.448  1.00  0.00    -0.198 A  
HETATM   14  C   UNL     1      -8.472   6.709  69.008  1.00  0.00    -0.130 A  
HETATM   15  C   UNL     1      -8.939   7.528  70.049  1.00  0.00    -0.144 A  
BRANCH  13  16
HETATM   16  O   UNL     1     -10.681   8.336  71.439  1.00  0.00    -0.215 OA 
BRANCH  16  17
HETATM   17  C   UNL     1     -10.571   9.714  71.067  1.00  0.00    -0.292 C  
BRANCH  17  18
HETATM   18  C   UNL     1     -11.099  10.036  69.677  1.00  0.00    -0.259 C  
HETATM   19  C   UNL     1     -12.335  10.893  69.678  1.00  0.00    -0.221 C  
HETATM   20  O   UNL     1     -12.237  11.638  68.467  1.00  0.00    -0.485 OA 
HETATM   21  C   UNL     1     -10.823  11.793  68.184  1.00  0.00    -0.217 C  
HETATM   22  O   UNL     1     -10.116  10.832  68.994  1.00  0.00    -0.200 OA 
BRANCH  21  23
HETATM   23  C   UNL     1     -10.533  11.479  66.713  1.00  0.00    -0.275 A  
HETATM   24 CL   UNL     1     -12.184  13.520  65.834  1.00  0.00    -0.482 Cl 
HETATM   25  C   UNL     1     -11.097  12.190  65.632  1.00  0.00    -0.316 A  
HETATM   26  C   UNL     1      -9.644  10.429  66.397  1.00  0.00    -0.225 A  
HETATM   27  C   UNL     1      -9.325  10.109  65.076  1.00  0.00    -0.299 A  
HETATM   28  C   UNL     1     -10.784  11.858  64.306  1.00  0.00    -0.388 A  
HETATM   29 CL   UNL     1      -9.493  10.443  62.407  1.00  0.00    -0.288 Cl 
HETATM   30  C   UNL     1      -9.896  10.826  64.035  1.00  0.00    -0.332 A  
ENDBRANCH  21  23
BRANCH  21  31
HETATM   31  C   UNL     1     -10.385  13.210  68.641  1.00  0.00    -0.196 C  
BRANCH  31  32
HETATM   32  N   UNL     1      -9.169  13.731  68.059  1.00  0.00    -0.189 NA 
HETATM   33  N   UNL     1      -7.831  15.150  66.998  1.00  0.00    -0.205 NA 
HETATM   34  C   UNL     1      -7.888  13.400  68.425  1.00  0.00    -0.138 A  
HETATM   35  C   UNL     1      -9.082  14.782  67.186  1.00  0.00    -0.217 A  
HETATM   36  C   UNL     1      -7.084  14.306  67.777  1.00  0.00    -0.177 A  
ENDBRANCH  31  32
ENDBRANCH  21  31
ENDBRANCH  17  18
ENDBRANCH  16  17
ENDBRANCH  13  16
ENDBRANCH   7  10
TORSDOF 7
ENDMDL
MODEL       84
REMARK 921   NORMALIZED FREE ENERGY PREDICTED BY IDOCK:   -6.05 KCAL/MOL
REMARK 922        TOTAL FREE ENERGY PREDICTED BY IDOCK:   -8.95 KCAL/MOL
REMARK 923 INTER-LIGAND FREE ENERGY PREDICTED BY IDOCK:   -8.01 KCAL/MOL
REMARK 924 INTRA-LIGAND FREE ENERGY PREDICTED BY IDOCK:   -0.94 KCAL/MOL
REMARK 927      BINDING AFFINITY PREDICTED BY RF-SCORE:    0.00 PKD
ROOT
HETATM    1  C   UNL     1     -10.214  19.938  66.716  1.00  0.00    -0.603 C  
HETATM    2  C   UNL     1      -9.103  19.037  66.245  1.00  0.00    -0.287 C  
HETATM    3  O   UNL     1      -8.095  19.514  65.724  1.00  0.00    -0.424 OA 
HETATM    4  N   UNL     1      -9.237  17.688  66.518  1.00  0.00    -0.270 N  
HETATM    5  C   UNL     1      -8.104  16.798  66.238  1.00  0.00    -0.330 C  
HETATM    6  C   UNL     1      -7.999  15.687  67.295  1.00  0.00    -0.197 C  
HETATM    7  N   UNL     1      -9.290  14.967  67.382  1.00  0.00    -0.198 NA 
HETATM    8  C   UNL     1     -10.520  16.995  66.731  1.00  0.00    -0.257 C  
HETATM    9  C   UNL     1     -10.408  15.854  67.760  1.00  0.00    -0.278 C  
ENDROOT
BRANCH   7  10
HETATM   10  C   UNL     1      -9.304  13.690  67.934  1.00  0.00    -0.206 A  
HETATM   11  C   UNL     1      -8.142  12.948  68.130  1.00  0.00    -0.158 A  
HETATM   12  C   UNL     1      -8.186  11.626  68.570  1.00  0.00    -0.144 A  
HETATM   13  C   UNL     1      -9.402  10.985  68.819  1.00  0.00    -0.179 A  
HETATM   14  C   UNL     1     -10.523  13.058  68.240  1.00  0.00    -0.258 A  
HETATM   15  C   UNL     1     -10.576  11.723  68.672  1.00  0.00    -0.250 A  
BRANCH  13  16
HETATM   16  O   UNL     1      -9.527   9.662  69.192  1.00  0.00    -0.157 OA 
BRANCH  16  17
HETATM   17  C   UNL     1      -8.298   9.074  69.629  1.00  0.00    -0.125 C  
BRANCH  17  18
HETATM   18  C   UNL     1      -8.024   7.690  69.060  1.00  0.00    -0.121 C  
HETATM   19  C   UNL     1      -7.263   6.787  69.990  1.00  0.00    -0.076 C  
HETATM   20  O   UNL     1      -7.724   5.481  69.657  1.00  0.00    -0.076 OA 
HETATM   21  C   UNL     1      -9.086   5.628  69.178  1.00  0.00    -0.112 C  
HETATM   22  O   UNL     1      -9.283   7.022  68.870  1.00  0.00    -0.138 OA 
BRANCH  21  23
HETATM   23  C   UNL     1      -9.291   4.823  67.892  1.00  0.00    -0.164 A  
HETATM   24 CL   UNL     1     -11.272   6.537  66.999  1.00  0.00    -0.419 Cl 
HETATM   25  C   UNL     1     -10.233   5.159  66.896  1.00  0.00    -0.239 A  
HETATM   26  C   UNL     1      -8.494   3.680  67.662  1.00  0.00    -0.105 A  
HETATM   27  C   UNL     1      -8.620   2.918  66.500  1.00  0.00    -0.112 A  
HETATM   28  C   UNL     1     -10.366   4.385  65.734  1.00  0.00    -0.246 A  
HETATM   29 CL   UNL     1      -9.703   2.345  64.099  1.00  0.00    -0.141 Cl 
HETATM   30  C   UNL     1      -9.556   3.274  65.539  1.00  0.00    -0.052 A  
ENDBRANCH  21  23
BRANCH  21  31
HETATM   31  C   UNL     1     -10.053   5.258  70.334  1.00  0.00    -0.254 C  
BRANCH  31  32
HETATM   32  N   UNL     1     -10.814   6.342  70.914  1.00  0.00    -0.258 NA 
HETATM   33  N   UNL     1     -12.576   7.605  71.388  1.00  0.00    -0.337 NA 
HETATM   34  C   UNL     1     -10.496   7.034  72.056  1.00  0.00    -0.208 A  
HETATM   35  C   UNL     1     -12.072   6.731  70.541  1.00  0.00    -0.274 A  
HETATM   36  C   UNL     1     -11.609   7.787  72.341  1.00  0.00    -0.356 A  
ENDBRANCH  31  32
ENDBRANCH  21  31
ENDBRANCH  17  18
ENDBRANCH  16  17
ENDBRANCH  13  16
ENDBRANCH   7  10
TORSDOF 7
ENDMDL
MODEL       85
REMARK 921   NORMALIZED FREE ENERGY PREDICTED BY IDOCK:   -6.02 KCAL/MOL
REMARK 922        TOTAL FREE ENERGY PREDICTED BY IDOCK:   -8.91 KCAL/MOL
REMARK 923 INTER-LIGAND FREE ENERGY PREDICTED BY IDOCK:   -8.63 KCAL/MOL
REMARK 924 INTRA-LIGAND FREE ENERGY PREDICTED BY IDOCK:   -0.28 KCAL/MOL
REMARK 927      BINDING AFFINITY PREDICTED BY RF-SCORE:    0.00 PKD
ROOT
HETATM    1  C   UNL     1      -9.350   3.168  72.966  1.00  0.00    -0.122 C  
HETATM    2  C   UNL     1     -10.392   4.239  72.777  1.00  0.00    -0.178 C  
HETATM    3  O   UNL     1     -11.312   4.359  73.584  1.00  0.00    -0.281 OA 
HETATM    4  N   UNL     1     -10.198   5.118  71.726  1.00  0.00    -0.203 N  
HETATM    5  C   UNL     1     -11.087   6.280  71.610  1.00  0.00    -0.274 C  
HETATM    6  C   UNL     1     -10.324   7.509  71.090  1.00  0.00    -0.200 C  
HETATM    7  N   UNL     1      -9.651   7.167  69.816  1.00  0.00    -0.156 NA 
HETATM    8  C   UNL     1      -9.419   4.819  70.511  1.00  0.00    -0.172 C  
HETATM    9  C   UNL     1      -8.686   6.060  69.965  1.00  0.00    -0.135 C  
ENDROOT
BRANCH   7  10
HETATM   10  C   UNL     1      -9.273   8.202  68.964  1.00  0.00    -0.148 A  
HETATM   11  C   UNL     1      -7.942   8.554  68.762  1.00  0.00    -0.119 A  
HETATM   12  C   UNL     1      -7.590   9.668  68.001  1.00  0.00    -0.083 A  
HETATM   13  C   UNL     1      -8.561  10.487  67.423  1.00  0.00    -0.122 A  
HETATM   14  C   UNL     1     -10.247   8.997  68.333  1.00  0.00    -0.232 A  
HETATM   15  C   UNL     1      -9.900  10.129  67.576  1.00  0.00    -0.211 A  
BRANCH  13  16
HETATM   16  O   UNL     1      -8.292  11.641  66.715  1.00  0.00    -0.167 OA 
BRANCH  16  17
HETATM   17  C   UNL     1      -7.381  12.521  67.383  1.00  0.00    -0.147 C  
BRANCH  17  18
HETATM   18  C   UNL     1      -8.017  13.385  68.462  1.00  0.00    -0.107 C  
HETATM   19  C   UNL     1      -7.296  14.681  68.709  1.00  0.00    -0.131 C  
HETATM   20  O   UNL     1      -8.326  15.575  69.121  1.00  0.00    -0.215 OA 
HETATM   21  C   UNL     1      -9.547  15.131  68.475  1.00  0.00    -0.214 C  
HETATM   22  O   UNL     1      -9.321  13.786  68.010  1.00  0.00    -0.186 OA 
BRANCH  21  23
HETATM   23  C   UNL     1     -10.703  15.099  69.480  1.00  0.00    -0.273 A  
HETATM   24 CL   UNL     1     -11.973  13.045  68.127  1.00  0.00    -0.368 Cl 
HETATM   25  C   UNL     1     -11.799  14.216  69.388  1.00  0.00    -0.330 A  
HETATM   26  C   UNL     1     -10.684  15.988  70.577  1.00  0.00    -0.143 A  
HETATM   27  C   UNL     1     -11.698  15.992  71.536  1.00  0.00    -0.554 A  
HETATM   28  C   UNL     1     -12.823  14.230  70.347  1.00  0.00    -0.276 A  
HETATM   29 CL   UNL     1     -14.006  15.104  72.607  1.00  0.00    -0.551 Cl 
HETATM   30  C   UNL     1     -12.764  15.112  71.418  1.00  0.00    -0.372 A  
ENDBRANCH  21  23
BRANCH  21  31
HETATM   31  C   UNL     1      -9.796  16.026  67.232  1.00  0.00    -0.236 C  
BRANCH  31  32
HETATM   32  N   UNL     1      -9.910  17.447  67.468  1.00  0.00    -0.270 NA 
HETATM   33  N   UNL     1      -9.402  19.454  68.269  1.00  0.00    -0.337 NA 
HETATM   34  C   UNL     1     -10.534  18.357  66.652  1.00  0.00    -0.385 A  
HETATM   35  C   UNL     1      -9.253  18.156  68.438  1.00  0.00    -0.306 A  
HETATM   36  C   UNL     1     -10.184  19.587  67.152  1.00  0.00    -0.426 A  
ENDBRANCH  31  32
ENDBRANCH  21  31
ENDBRANCH  17  18
ENDBRANCH  16  17
ENDBRANCH  13  16
ENDBRANCH   7  10
TORSDOF 7
ENDMDL
MODEL       86
REMARK 921   NORMALIZED FREE ENERGY PREDICTED BY IDOCK:   -6.00 KCAL/MOL
REMARK 922        TOTAL FREE ENERGY PREDICTED BY IDOCK:   -8.89 KCAL/MOL
REMARK 923 INTER-LIGAND FREE ENERGY PREDICTED BY IDOCK:   -8.84 KCAL/MOL
REMARK 924 INTRA-LIGAND FREE ENERGY PREDICTED BY IDOCK:   -0.06 KCAL/MOL
REMARK 927      BINDING AFFINITY PREDICTED BY RF-SCORE:    0.00 PKD
ROOT
HETATM    1  C   UNL     1      -5.805   5.113  65.111  1.00  0.00    -0.017 C  
HETATM    2  C   UNL     1      -6.051   5.970  63.897  1.00  0.00    -0.025 C  
HETATM    3  O   UNL     1      -5.706   5.580  62.782  1.00  0.00    -0.014 OA 
HETATM    4  N   UNL     1      -6.759   7.142  64.095  1.00  0.00    -0.046 N  
HETATM    5  C   UNL     1      -7.174   7.918  62.921  1.00  0.00    -0.091 C  
HETATM    6  C   UNL     1      -8.552   8.562  63.144  1.00  0.00     0.027 C  
HETATM    7  N   UNL     1      -8.523   9.367  64.386  1.00  0.00    -0.173 NA 
HETATM    8  C   UNL     1      -6.833   7.876  65.371  1.00  0.00    -0.058 C  
HETATM    9  C   UNL     1      -8.199   8.557  65.578  1.00  0.00    -0.137 C  
ENDROOT
BRANCH   7  10
HETATM   10  C   UNL     1      -9.484  10.359  64.560  1.00  0.00    -0.286 A  
HETATM   11  C   UNL     1      -9.585  11.457  63.711  1.00  0.00    -0.258 A  
HETATM   12  C   UNL     1     -10.472  12.501  63.971  1.00  0.00    -0.449 A  
HETATM   13  C   UNL     1     -11.288  12.493  65.104  1.00  0.00    -0.313 A  
HETATM   14  C   UNL     1     -10.348  10.328  65.670  1.00  0.00    -0.232 A  
HETATM   15  C   UNL     1     -11.236  11.382  65.944  1.00  0.00    -0.172 A  
BRANCH  13  16
HETATM   16  O   UNL     1     -12.141  13.518  65.461  1.00  0.00    -0.370 OA 
BRANCH  16  17
HETATM   17  C   UNL     1     -11.621  14.358  66.497  1.00  0.00    -0.378 C  
BRANCH  17  18
HETATM   18  C   UNL     1     -11.101  13.608  67.714  1.00  0.00    -0.272 C  
HETATM   19  C   UNL     1     -10.356  14.474  68.692  1.00  0.00    -0.242 C  
HETATM   20  O   UNL     1     -10.599  13.857  69.953  1.00  0.00     0.228 OA 
HETATM   21  C   UNL     1     -11.895  13.211  69.860  1.00  0.00    -0.308 C  
HETATM   22  O   UNL     1     -12.228  13.120  68.460  1.00  0.00    -0.248 OA 
BRANCH  21  23
HETATM   23  C   UNL     1     -11.827  11.790  70.426  1.00  0.00    -0.362 A  
HETATM   24 CL   UNL     1      -9.478  11.239  69.069  1.00  0.00    -0.097 Cl 
HETATM   25  C   UNL     1     -10.801  10.870  70.120  1.00  0.00     0.016 A  
HETATM   26  C   UNL     1     -12.832  11.357  71.318  1.00  0.00    -0.481 A  
HETATM   27  C   UNL     1     -12.813  10.080  71.882  1.00  0.00    -0.524 A  
HETATM   28  C   UNL     1     -10.791   9.584  70.680  1.00  0.00    -0.371 A  
HETATM   29 CL   UNL     1     -11.758   7.631  72.268  1.00  0.00    -0.350 Cl 
HETATM   30  C   UNL     1     -11.792   9.198  71.562  1.00  0.00    -0.358 A  
ENDBRANCH  21  23
BRANCH  21  31
HETATM   31  C   UNL     1     -12.948  14.127  70.538  1.00  0.00    -0.167 C  
BRANCH  31  32
HETATM   32  N   UNL     1     -12.535  14.806  71.745  1.00  0.00    -0.328 NA 
HETATM   33  N   UNL     1     -11.940  16.486  73.069  1.00  0.00    -0.493 NA 
HETATM   34  C   UNL     1     -12.761  14.382  73.031  1.00  0.00    -0.357 A  
HETATM   35  C   UNL     1     -12.025  16.074  71.820  1.00  0.00    -0.517 A  
HETATM   36  C   UNL     1     -12.410  15.445  73.826  1.00  0.00    -0.610 A  
ENDBRANCH  31  32
ENDBRANCH  21  31
ENDBRANCH  17  18
ENDBRANCH  16  17
ENDBRANCH  13  16
ENDBRANCH   7  10
TORSDOF 7
ENDMDL
MODEL       87
REMARK 921   NORMALIZED FREE ENERGY PREDICTED BY IDOCK:   -5.99 KCAL/MOL
REMARK 922        TOTAL FREE ENERGY PREDICTED BY IDOCK:   -8.87 KCAL/MOL
REMARK 923 INTER-LIGAND FREE ENERGY PREDICTED BY IDOCK:   -7.82 KCAL/MOL
REMARK 924 INTRA-LIGAND FREE ENERGY PREDICTED BY IDOCK:   -1.05 KCAL/MOL
REMARK 927      BINDING AFFINITY PREDICTED BY RF-SCORE:    0.00 PKD
ROOT
HETATM    1  C   UNL     1     -10.838   2.317  63.273  1.00  0.00    -0.226 C  
HETATM    2  C   UNL     1      -9.380   2.696  63.276  1.00  0.00    -0.095 C  
HETATM    3  O   UNL     1      -8.601   2.171  62.481  1.00  0.00    -0.072 OA 
HETATM    4  N   UNL     1      -9.003   3.713  64.134  1.00  0.00    -0.112 N  
HETATM    5  C   UNL     1      -7.633   4.235  64.045  1.00  0.00    -0.071 C  
HETATM    6  C   UNL     1      -7.602   5.749  64.303  1.00  0.00    -0.082 C  
HETATM    7  N   UNL     1      -8.247   6.041  65.604  1.00  0.00    -0.133 NA 
HETATM    8  C   UNL     1      -9.720   4.085  65.366  1.00  0.00    -0.196 C  
HETATM    9  C   UNL     1      -9.655   5.599  65.648  1.00  0.00     0.107 C  
ENDROOT
BRANCH   7  10
HETATM   10  C   UNL     1      -7.961   7.249  66.233  1.00  0.00    -0.110 A  
HETATM   11  C   UNL     1      -8.844   7.855  67.121  1.00  0.00    -0.137 A  
HETATM   12  C   UNL     1      -8.595   9.122  67.647  1.00  0.00    -0.117 A  
HETATM   13  C   UNL     1      -7.453   9.843  67.291  1.00  0.00    -0.087 A  
HETATM   14  C   UNL     1      -6.784   7.955  65.920  1.00  0.00    -0.049 A  
HETATM   15  C   UNL     1      -6.533   9.237  66.436  1.00  0.00    -0.066 A  
BRANCH  13  16
HETATM   16  O   UNL     1      -7.173  11.125  67.717  1.00  0.00    -0.086 OA 
BRANCH  16  17
HETATM   17  C   UNL     1      -8.309  11.809  68.256  1.00  0.00    -0.159 C  
BRANCH  17  18
HETATM   18  C   UNL     1      -8.754  13.022  67.453  1.00  0.00    -0.205 C  
HETATM   19  C   UNL     1      -9.592  12.685  66.251  1.00  0.00    -0.244 C  
HETATM   20  O   UNL     1     -10.448  13.815  66.101  1.00  0.00    -0.286 OA 
HETATM   21  C   UNL     1     -10.645  14.369  67.427  1.00  0.00    -0.270 C  
HETATM   22  O   UNL     1      -9.621  13.817  68.279  1.00  0.00    -0.211 OA 
BRANCH  21  23
HETATM   23  C   UNL     1     -10.474  15.891  67.402  1.00  0.00    -0.306 A  
HETATM   24 CL   UNL     1     -10.736  16.080  70.151  1.00  0.00    -0.324 Cl 
HETATM   25  C   UNL     1     -10.507  16.704  68.555  1.00  0.00    -0.319 A  
HETATM   26  C   UNL     1     -10.256  16.537  66.166  1.00  0.00    -0.360 A  
HETATM   27  C   UNL     1     -10.073  17.918  66.081  1.00  0.00    -0.322 A  
HETATM   28  C   UNL     1     -10.334  18.093  68.465  1.00  0.00    -0.352 A  
HETATM   29 CL   UNL     1      -9.870  20.391  67.132  1.00  0.00    -0.597 Cl 
HETATM   30  C   UNL     1     -10.111  18.692  67.232  1.00  0.00    -0.354 A  
ENDBRANCH  21  23
BRANCH  21  31
HETATM   31  C   UNL     1     -12.018  13.882  67.962  1.00  0.00    -0.355 C  
BRANCH  31  32
HETATM   32  N   UNL     1     -11.990  12.862  68.985  1.00  0.00    -0.283 NA 
HETATM   33  N   UNL     1     -12.348  11.903  70.955  1.00  0.00    -0.356 NA 
HETATM   34  C   UNL     1     -11.894  11.508  68.778  1.00  0.00    -0.330 A  
HETATM   35  C   UNL     1     -12.250  13.050  70.316  1.00  0.00    -0.296 A  
HETATM   36  C   UNL     1     -12.144  10.939  70.002  1.00  0.00    -0.355 A  
ENDBRANCH  31  32
ENDBRANCH  21  31
ENDBRANCH  17  18
ENDBRANCH  16  17
ENDBRANCH  13  16
ENDBRANCH   7  10
TORSDOF 7
ENDMDL
MODEL       88
REMARK 921   NORMALIZED FREE ENERGY PREDICTED BY IDOCK:   -5.99 KCAL/MOL
REMARK 922        TOTAL FREE ENERGY PREDICTED BY IDOCK:   -8.87 KCAL/MOL
REMARK 923 INTER-LIGAND FREE ENERGY PREDICTED BY IDOCK:   -7.92 KCAL/MOL
REMARK 924 INTRA-LIGAND FREE ENERGY PREDICTED BY IDOCK:   -0.95 KCAL/MOL
REMARK 927      BINDING AFFINITY PREDICTED BY RF-SCORE:    0.00 PKD
ROOT
HETATM    1  C   UNL     1     -12.389  12.123  63.616  1.00  0.00    -0.673 C  
HETATM    2  C   UNL     1     -12.443  12.929  64.887  1.00  0.00    -0.478 C  
HETATM    3  O   UNL     1     -13.145  13.938  64.952  1.00  0.00    -0.704 OA 
HETATM    4  N   UNL     1     -11.756  12.424  65.975  1.00  0.00    -0.408 N  
HETATM    5  C   UNL     1     -11.924  13.079  67.278  1.00  0.00    -0.321 C  
HETATM    6  C   UNL     1     -11.908  12.050  68.420  1.00  0.00    -0.300 C  
HETATM    7  N   UNL     1     -10.670  11.241  68.336  1.00  0.00    -0.191 NA 
HETATM    8  C   UNL     1     -10.599  11.514  65.892  1.00  0.00    -0.268 C  
HETATM    9  C   UNL     1     -10.559  10.508  67.059  1.00  0.00    -0.253 C  
ENDROOT
BRANCH   7  10
HETATM   10  C   UNL     1     -10.239  10.564  69.473  1.00  0.00    -0.200 A  
HETATM   11  C   UNL     1      -8.937  10.094  69.613  1.00  0.00    -0.190 A  
HETATM   12  C   UNL     1      -8.556   9.313  70.704  1.00  0.00    -0.270 A  
HETATM   13  C   UNL     1      -9.472   8.958  71.696  1.00  0.00    -0.281 A  
HETATM   14  C   UNL     1     -11.145  10.250  70.503  1.00  0.00    -0.381 A  
HETATM   15  C   UNL     1     -10.772   9.454  71.598  1.00  0.00    -0.298 A  
BRANCH  13  16
HETATM   16  O   UNL     1      -9.186   8.135  72.767  1.00  0.00    -0.220 OA 
BRANCH  16  17
HETATM   17  C   UNL     1      -7.785   7.992  73.018  1.00  0.00    -0.144 C  
BRANCH  17  18
HETATM   18  C   UNL     1      -7.220   6.621  72.676  1.00  0.00    -0.080 C  
HETATM   19  C   UNL     1      -7.315   5.625  73.798  1.00  0.00    -0.087 C  
HETATM   20  O   UNL     1      -7.447   4.371  73.135  1.00  0.00    -0.077 OA 
HETATM   21  C   UNL     1      -8.112   4.633  71.872  1.00  0.00    -0.101 C  
HETATM   22  O   UNL     1      -8.021   6.051  71.628  1.00  0.00    -0.107 OA 
BRANCH  21  23
HETATM   23  C   UNL     1      -7.397   3.907  70.730  1.00  0.00    -0.041 A  
HETATM   24 CL   UNL     1      -7.512   1.476  72.050  1.00  0.00    -0.038 Cl 
HETATM   25  C   UNL     1      -7.097   2.528  70.741  1.00  0.00    -0.033 A  
HETATM   26  C   UNL     1      -7.017   4.637  69.583  1.00  0.00    -0.049 A  
HETATM   27  C   UNL     1      -6.380   4.027  68.501  1.00  0.00    -0.036 A  
HETATM   28  C   UNL     1      -6.448   1.919  69.657  1.00  0.00    -0.029 A  
HETATM   29 CL   UNL     1      -5.329   1.912  67.203  1.00  0.00    -0.015 Cl 
HETATM   30  C   UNL     1      -6.099   2.669  68.541  1.00  0.00    -0.025 A  
ENDBRANCH  21  23
BRANCH  21  31
HETATM   31  C   UNL     1      -9.614   4.276  72.027  1.00  0.00    -0.150 C  
BRANCH  31  32
HETATM   32  N   UNL     1     -10.553   5.096  71.296  1.00  0.00    -0.178 NA 
HETATM   33  N   UNL     1     -12.086   6.663  70.942  1.00  0.00    -0.366 NA 
HETATM   34  C   UNL     1     -10.505   5.386  69.956  1.00  0.00    -0.303 A  
HETATM   35  C   UNL     1     -11.532   5.880  71.845  1.00  0.00    -0.225 A  
HETATM   36  C   UNL     1     -11.442   6.372  69.767  1.00  0.00    -0.399 A  
ENDBRANCH  31  32
ENDBRANCH  21  31
ENDBRANCH  17  18
ENDBRANCH  16  17
ENDBRANCH  13  16
ENDBRANCH   7  10
TORSDOF 7
ENDMDL
MODEL       89
REMARK 921   NORMALIZED FREE ENERGY PREDICTED BY IDOCK:   -5.98 KCAL/MOL
REMARK 922        TOTAL FREE ENERGY PREDICTED BY IDOCK:   -8.86 KCAL/MOL
REMARK 923 INTER-LIGAND FREE ENERGY PREDICTED BY IDOCK:   -8.03 KCAL/MOL
REMARK 924 INTRA-LIGAND FREE ENERGY PREDICTED BY IDOCK:   -0.83 KCAL/MOL
REMARK 927      BINDING AFFINITY PREDICTED BY RF-SCORE:    0.00 PKD
ROOT
HETATM    1  C   UNL     1      -9.858  20.415  66.879  1.00  0.00    -0.572 C  
HETATM    2  C   UNL     1     -10.295  19.108  66.271  1.00  0.00    -0.474 C  
HETATM    3  O   UNL     1     -11.031  19.098  65.284  1.00  0.00    -0.512 OA 
HETATM    4  N   UNL     1      -9.753  17.957  66.812  1.00  0.00    -0.300 N  
HETATM    5  C   UNL     1     -10.011  16.677  66.141  1.00  0.00    -0.337 C  
HETATM    6  C   UNL     1      -8.786  15.753  66.225  1.00  0.00    -0.323 C  
HETATM    7  N   UNL     1      -8.386  15.592  67.641  1.00  0.00    -0.148 NA 
HETATM    8  C   UNL     1      -9.238  17.834  68.187  1.00  0.00    -0.277 C  
HETATM    9  C   UNL     1      -8.034  16.876  68.279  1.00  0.00    -0.211 C  
ENDROOT
BRANCH   7  10
HETATM   10  C   UNL     1      -7.603  14.495  67.992  1.00  0.00    -0.134 A  
HETATM   11  C   UNL     1      -6.310  14.317  67.509  1.00  0.00    -0.028 A  
HETATM   12  C   UNL     1      -5.587  13.155  67.773  1.00  0.00    -0.119 A  
HETATM   13  C   UNL     1      -6.138  12.113  68.523  1.00  0.00    -0.051 A  
HETATM   14  C   UNL     1      -8.133  13.467  68.793  1.00  0.00     0.024 A  
HETATM   15  C   UNL     1      -7.415  12.289  69.053  1.00  0.00     0.058 A  
BRANCH  13  16
HETATM   16  O   UNL     1      -5.509  10.909  68.769  1.00  0.00    -0.041 OA 
BRANCH  16  17
HETATM   17  C   UNL     1      -6.285   9.770  68.379  1.00  0.00    -0.050 C  
BRANCH  17  18
HETATM   18  C   UNL     1      -7.068   9.953  67.088  1.00  0.00    -0.085 C  
HETATM   19  C   UNL     1      -6.993   8.775  66.156  1.00  0.00    -0.081 C  
HETATM   20  O   UNL     1      -8.240   8.802  65.467  1.00  0.00    -0.117 OA 
HETATM   21  C   UNL     1      -9.206   9.396  66.372  1.00  0.00    -0.169 C  
HETATM   22  O   UNL     1      -8.464  10.057  67.416  1.00  0.00    -0.121 OA 
BRANCH  21  23
HETATM   23  C   UNL     1     -10.044  10.450  65.644  1.00  0.00    -0.337 A  
HETATM   24 CL   UNL     1     -11.180  11.344  68.005  1.00  0.00    -0.317 Cl 
HETATM   25  C   UNL     1     -10.933  11.334  66.293  1.00  0.00    -0.205 A  
HETATM   26  C   UNL     1      -9.928  10.572  64.242  1.00  0.00    -0.398 A  
HETATM   27  C   UNL     1     -10.651  11.527  63.525  1.00  0.00    -0.487 A  
HETATM   28  C   UNL     1     -11.666  12.285  65.569  1.00  0.00    -0.433 A  
HETATM   29 CL   UNL     1     -12.396  13.569  63.312  1.00  0.00    -0.364 Cl 
HETATM   30  C   UNL     1     -11.517  12.381  64.191  1.00  0.00    -0.381 A  
ENDBRANCH  21  23
BRANCH  21  31
HETATM   31  C   UNL     1     -10.029   8.255  67.028  1.00  0.00    -0.255 C  
BRANCH  31  32
HETATM   32  N   UNL     1      -9.590   7.805  68.329  1.00  0.00    -0.153 NA 
HETATM   33  N   UNL     1      -9.622   7.506  70.529  1.00  0.00    -0.168 NA 
HETATM   34  C   UNL     1      -8.776   6.730  68.583  1.00  0.00    -0.125 A  
HETATM   35  C   UNL     1     -10.065   8.248  69.535  1.00  0.00    -0.197 A  
HETATM   36  C   UNL     1      -8.832   6.550  69.944  1.00  0.00    -0.143 A  
ENDBRANCH  31  32
ENDBRANCH  21  31
ENDBRANCH  17  18
ENDBRANCH  16  17
ENDBRANCH  13  16
ENDBRANCH   7  10
TORSDOF 7
ENDMDL
MODEL       90
REMARK 921   NORMALIZED FREE ENERGY PREDICTED BY IDOCK:   -5.98 KCAL/MOL
REMARK 922        TOTAL FREE ENERGY PREDICTED BY IDOCK:   -8.85 KCAL/MOL
REMARK 923 INTER-LIGAND FREE ENERGY PREDICTED BY IDOCK:   -8.40 KCAL/MOL
REMARK 924 INTRA-LIGAND FREE ENERGY PREDICTED BY IDOCK:   -0.45 KCAL/MOL
REMARK 927      BINDING AFFINITY PREDICTED BY RF-SCORE:    0.00 PKD
ROOT
HETATM    1  C   UNL     1      -8.436   2.971  71.672  1.00  0.00    -0.087 C  
HETATM    2  C   UNL     1      -9.066   3.636  72.867  1.00  0.00    -0.099 C  
HETATM    3  O   UNL     1      -8.773   3.272  74.006  1.00  0.00    -0.080 OA 
HETATM    4  N   UNL     1      -9.892   4.716  72.616  1.00  0.00    -0.146 N  
HETATM    5  C   UNL     1     -10.385   5.502  73.753  1.00  0.00    -0.247 C  
HETATM    6  C   UNL     1     -10.472   6.995  73.396  1.00  0.00    -0.347 C  
HETATM    7  N   UNL     1     -11.297   7.162  72.178  1.00  0.00    -0.256 NA 
HETATM    8  C   UNL     1     -10.614   4.948  71.352  1.00  0.00    -0.034 C  
HETATM    9  C   UNL     1     -10.738   6.446  71.014  1.00  0.00    -0.251 C  
ENDROOT
BRANCH   7  10
HETATM   10  C   UNL     1     -11.859   8.409  71.920  1.00  0.00    -0.336 A  
HETATM   11  C   UNL     1     -11.163   9.421  71.266  1.00  0.00    -0.437 A  
HETATM   12  C   UNL     1     -11.698  10.701  71.125  1.00  0.00    -0.248 A  
HETATM   13  C   UNL     1     -12.951  11.025  71.650  1.00  0.00    -0.456 A  
HETATM   14  C   UNL     1     -13.144   8.724  72.399  1.00  0.00    -0.444 A  
HETATM   15  C   UNL     1     -13.684  10.015  72.272  1.00  0.00    -0.197 A  
BRANCH  13  16
HETATM   16  O   UNL     1     -13.515  12.284  71.609  1.00  0.00    -0.251 OA 
BRANCH  16  17
HETATM   17  C   UNL     1     -12.577  13.320  71.301  1.00  0.00    -0.308 C  
BRANCH  17  18
HETATM   18  C   UNL     1     -12.484  13.668  69.823  1.00  0.00    -0.137 C  
HETATM   19  C   UNL     1     -12.600  15.138  69.533  1.00  0.00     0.011 C  
HETATM   20  O   UNL     1     -11.813  15.321  68.360  1.00  0.00    -0.339 OA 
HETATM   21  C   UNL     1     -10.771  14.312  68.393  1.00  0.00    -0.251 C  
HETATM   22  O   UNL     1     -11.170  13.317  69.358  1.00  0.00    -0.233 OA 
BRANCH  21  23
HETATM   23  C   UNL     1     -10.645  13.627  67.029  1.00  0.00    -0.274 A  
HETATM   24 CL   UNL     1     -10.131  11.165  68.184  1.00  0.00    -0.184 Cl 
HETATM   25  C   UNL     1     -10.362  12.255  66.862  1.00  0.00    -0.216 A  
HETATM   26  C   UNL     1     -10.831  14.392  65.857  1.00  0.00    -0.304 A  
HETATM   27  C   UNL     1     -10.749  13.821  64.586  1.00  0.00    -0.427 A  
HETATM   28  C   UNL     1     -10.268  11.686  65.583  1.00  0.00    -0.284 A  
HETATM   29 CL   UNL     1     -10.382  11.759  62.890  1.00  0.00    -0.202 Cl 
HETATM   30  C   UNL     1     -10.468  12.469  64.454  1.00  0.00    -0.359 A  
ENDBRANCH  21  23
BRANCH  21  31
HETATM   31  C   UNL     1      -9.465  14.973  68.908  1.00  0.00    -0.211 C  
BRANCH  31  32
HETATM   32  N   UNL     1      -8.223  14.434  68.402  1.00  0.00    -0.140 NA 
HETATM   33  N   UNL     1      -6.278  14.384  67.333  1.00  0.00    -0.313 NA 
HETATM   34  C   UNL     1      -7.516  13.386  68.937  1.00  0.00    -0.010 A  
HETATM   35  C   UNL     1      -7.441  14.995  67.428  1.00  0.00    -0.205 A  
HETATM   36  C   UNL     1      -6.311  13.392  68.279  1.00  0.00    -0.102 A  
ENDBRANCH  31  32
ENDBRANCH  21  31
ENDBRANCH  17  18
ENDBRANCH  16  17
ENDBRANCH  13  16
ENDBRANCH   7  10
TORSDOF 7
ENDMDL
MODEL       91
REMARK 921   NORMALIZED FREE ENERGY PREDICTED BY IDOCK:   -5.98 KCAL/MOL
REMARK 922        TOTAL FREE ENERGY PREDICTED BY IDOCK:   -8.85 KCAL/MOL
REMARK 923 INTER-LIGAND FREE ENERGY PREDICTED BY IDOCK:   -9.13 KCAL/MOL
REMARK 924 INTRA-LIGAND FREE ENERGY PREDICTED BY IDOCK:    0.27 KCAL/MOL
REMARK 927      BINDING AFFINITY PREDICTED BY RF-SCORE:    0.00 PKD
ROOT
HETATM    1  C   UNL     1      -6.415   2.097  64.417  1.00  0.00    -0.019 C  
HETATM    2  C   UNL     1      -7.721   2.832  64.263  1.00  0.00    -0.076 C  
HETATM    3  O   UNL     1      -8.448   2.608  63.295  1.00  0.00    -0.084 OA 
HETATM    4  N   UNL     1      -8.089   3.673  65.296  1.00  0.00    -0.096 N  
HETATM    5  C   UNL     1      -9.429   4.272  65.272  1.00  0.00    -0.173 C  
HETATM    6  C   UNL     1     -10.010   4.383  66.691  1.00  0.00    -0.210 C  
HETATM    7  N   UNL     1      -9.063   5.124  67.554  1.00  0.00    -0.113 NA 
HETATM    8  C   UNL     1      -7.151   4.312  66.236  1.00  0.00    -0.067 C  
HETATM    9  C   UNL     1      -7.747   4.461  67.650  1.00  0.00    -0.084 C  
ENDROOT
BRANCH   7  10
HETATM   10  C   UNL     1      -9.544   5.708  68.722  1.00  0.00    -0.131 A  
HETATM   11  C   UNL     1     -10.888   5.664  69.080  1.00  0.00    -0.281 A  
HETATM   12  C   UNL     1     -11.371   6.358  70.189  1.00  0.00    -0.485 A  
HETATM   13  C   UNL     1     -10.525   7.139  70.980  1.00  0.00    -0.215 A  
HETATM   14  C   UNL     1      -8.686   6.451  69.554  1.00  0.00    -0.133 A  
HETATM   15  C   UNL     1      -9.167   7.162  70.665  1.00  0.00    -0.158 A  
BRANCH  13  16
HETATM   16  O   UNL     1     -10.941   7.904  72.050  1.00  0.00    -0.245 OA 
BRANCH  16  17
HETATM   17  C   UNL     1     -10.830   9.313  71.823  1.00  0.00    -0.288 C  
BRANCH  17  18
HETATM   18  C   UNL     1     -11.573   9.813  70.592  1.00  0.00    -0.313 C  
HETATM   19  C   UNL     1     -12.955  10.329  70.881  1.00  0.00    -0.371 C  
HETATM   20  O   UNL     1     -13.160  11.334  69.893  1.00  0.00     0.195 OA 
HETATM   21  C   UNL     1     -11.855  11.880  69.573  1.00  0.00    -0.331 C  
HETATM   22  O   UNL     1     -10.870  10.953  70.072  1.00  0.00    -0.215 OA 
BRANCH  21  23
HETATM   23  C   UNL     1     -11.677  11.992  68.056  1.00  0.00    -0.398 A  
HETATM   24 CL   UNL     1     -10.517   9.484  67.893  1.00  0.00    -0.276 Cl 
HETATM   25  C   UNL     1     -11.096  10.984  67.257  1.00  0.00    -0.294 A  
HETATM   26  C   UNL     1     -12.126  13.156  67.396  1.00  0.00    -0.316 A  
HETATM   27  C   UNL     1     -12.010  13.307  66.013  1.00  0.00    -0.473 A  
HETATM   28  C   UNL     1     -10.970  11.144  65.869  1.00  0.00    -0.171 A  
HETATM   29 CL   UNL     1     -11.304  12.476  63.549  1.00  0.00    -0.542 Cl 
HETATM   30  C   UNL     1     -11.433  12.299  65.254  1.00  0.00    -0.351 A  
ENDBRANCH  21  23
BRANCH  21  31
HETATM   31  C   UNL     1     -11.680  13.216  70.344  1.00  0.00    -0.061 C  
BRANCH  31  32
HETATM   32  N   UNL     1     -12.859  13.750  70.990  1.00  0.00    -0.322 NA 
HETATM   33  N   UNL     1     -14.397  14.042  72.563  1.00  0.00    -0.597 NA 
HETATM   34  C   UNL     1     -13.436  14.970  70.742  1.00  0.00    -0.270 A  
HETATM   35  C   UNL     1     -13.482  13.222  72.088  1.00  0.00    -0.562 A  
HETATM   36  C   UNL     1     -14.364  15.138  71.740  1.00  0.00    -0.597 A  
ENDBRANCH  31  32
ENDBRANCH  21  31
ENDBRANCH  17  18
ENDBRANCH  16  17
ENDBRANCH  13  16
ENDBRANCH   7  10
TORSDOF 7
ENDMDL
MODEL       92
REMARK 921   NORMALIZED FREE ENERGY PREDICTED BY IDOCK:   -5.95 KCAL/MOL
REMARK 922        TOTAL FREE ENERGY PREDICTED BY IDOCK:   -8.82 KCAL/MOL
REMARK 923 INTER-LIGAND FREE ENERGY PREDICTED BY IDOCK:   -7.82 KCAL/MOL
REMARK 924 INTRA-LIGAND FREE ENERGY PREDICTED BY IDOCK:   -1.00 KCAL/MOL
REMARK 927      BINDING AFFINITY PREDICTED BY RF-SCORE:    0.00 PKD
ROOT
HETATM    1  C   UNL     1      -6.111  20.364  69.292  1.00  0.00    -0.367 C  
HETATM    2  C   UNL     1      -6.913  20.452  68.020  1.00  0.00    -0.282 C  
HETATM    3  O   UNL     1      -6.634  21.295  67.169  1.00  0.00    -0.425 OA 
HETATM    4  N   UNL     1      -7.888  19.490  67.831  1.00  0.00    -0.287 N  
HETATM    5  C   UNL     1      -8.573  19.430  66.534  1.00  0.00    -0.343 C  
HETATM    6  C   UNL     1      -8.881  17.977  66.139  1.00  0.00    -0.085 C  
HETATM    7  N   UNL     1      -9.646  17.324  67.225  1.00  0.00    -0.249 NA 
HETATM    8  C   UNL     1      -8.561  18.748  68.912  1.00  0.00    -0.199 C  
HETATM    9  C   UNL     1      -8.908  17.303  68.504  1.00  0.00    -0.269 C  
ENDROOT
BRANCH   7  10
HETATM   10  C   UNL     1     -10.389  16.185  66.925  1.00  0.00    -0.297 A  
HETATM   11  C   UNL     1     -11.162  15.526  67.877  1.00  0.00    -0.325 A  
HETATM   12  C   UNL     1     -11.801  14.321  67.590  1.00  0.00    -0.420 A  
HETATM   13  C   UNL     1     -11.678  13.716  66.337  1.00  0.00    -0.373 A  
HETATM   14  C   UNL     1     -10.315  15.602  65.647  1.00  0.00    -0.408 A  
HETATM   15  C   UNL     1     -10.945  14.381  65.355  1.00  0.00    -0.343 A  
BRANCH  13  16
HETATM   16  O   UNL     1     -12.225  12.494  66.001  1.00  0.00    -0.605 OA 
BRANCH  16  17
HETATM   17  C   UNL     1     -11.961  11.467  66.962  1.00  0.00     0.381 C  
BRANCH  17  18
HETATM   18  C   UNL     1     -10.673  10.694  66.719  1.00  0.00    -0.210 C  
HETATM   19  C   UNL     1      -9.514  11.160  67.556  1.00  0.00    -0.168 C  
HETATM   20  O   UNL     1      -8.731   9.985  67.745  1.00  0.00    -0.125 OA 
HETATM   21  C   UNL     1      -9.648   8.861  67.710  1.00  0.00    -0.147 C  
HETATM   22  O   UNL     1     -10.880   9.332  67.127  1.00  0.00    -0.217 OA 
BRANCH  21  23
HETATM   23  C   UNL     1      -9.095   7.746  66.817  1.00  0.00    -0.185 A  
HETATM   24 CL   UNL     1     -11.139   6.015  67.518  1.00  0.00    -0.334 Cl 
HETATM   25  C   UNL     1      -9.693   6.474  66.688  1.00  0.00    -0.154 A  
HETATM   26  C   UNL     1      -7.927   7.987  66.061  1.00  0.00    -0.101 A  
HETATM   27  C   UNL     1      -7.387   7.018  65.215  1.00  0.00    -0.077 A  
HETATM   28  C   UNL     1      -9.141   5.498  65.845  1.00  0.00    -0.163 A  
HETATM   29 CL   UNL     1      -7.343   4.586  64.054  1.00  0.00    -0.057 Cl 
HETATM   30  C   UNL     1      -7.997   5.776  65.108  1.00  0.00    -0.119 A  
ENDBRANCH  21  23
BRANCH  21  31
HETATM   31  C   UNL     1      -9.950   8.431  69.170  1.00  0.00    -0.196 C  
BRANCH  31  32
HETATM   32  N   UNL     1      -8.815   8.308  70.057  1.00  0.00    -0.133 NA 
HETATM   33  N   UNL     1      -7.553   8.642  71.852  1.00  0.00    -0.247 NA 
HETATM   34  C   UNL     1      -7.945   7.249  70.118  1.00  0.00    -0.112 A  
HETATM   35  C   UNL     1      -8.529   9.129  71.115  1.00  0.00    -0.113 A  
HETATM   36  C   UNL     1      -7.194   7.465  71.248  1.00  0.00    -0.067 A  
ENDBRANCH  31  32
ENDBRANCH  21  31
ENDBRANCH  17  18
ENDBRANCH  16  17
ENDBRANCH  13  16
ENDBRANCH   7  10
TORSDOF 7
ENDMDL
MODEL       93
REMARK 921   NORMALIZED FREE ENERGY PREDICTED BY IDOCK:   -5.95 KCAL/MOL
REMARK 922        TOTAL FREE ENERGY PREDICTED BY IDOCK:   -8.82 KCAL/MOL
REMARK 923 INTER-LIGAND FREE ENERGY PREDICTED BY IDOCK:   -8.38 KCAL/MOL
REMARK 924 INTRA-LIGAND FREE ENERGY PREDICTED BY IDOCK:   -0.44 KCAL/MOL
REMARK 927      BINDING AFFINITY PREDICTED BY RF-SCORE:    0.00 PKD
ROOT
HETATM    1  C   UNL     1      -5.381  20.804  68.706  1.00  0.00    -0.361 C  
HETATM    2  C   UNL     1      -6.213  20.640  67.461  1.00  0.00    -0.258 C  
HETATM    3  O   UNL     1      -5.961  21.302  66.455  1.00  0.00    -0.263 OA 
HETATM    4  N   UNL     1      -7.185  19.656  67.487  1.00  0.00    -0.227 N  
HETATM    5  C   UNL     1      -7.898  19.342  66.243  1.00  0.00    -0.299 C  
HETATM    6  C   UNL     1      -8.204  17.839  66.147  1.00  0.00    -0.158 C  
HETATM    7  N   UNL     1      -8.938  17.408  67.358  1.00  0.00    -0.229 NA 
HETATM    8  C   UNL     1      -7.826  19.137  68.708  1.00  0.00    -0.348 C  
HETATM    9  C   UNL     1      -8.170  17.639  68.598  1.00  0.00    -0.264 C  
ENDROOT
BRANCH   7  10
HETATM   10  C   UNL     1      -9.679  16.230  67.305  1.00  0.00    -0.237 A  
HETATM   11  C   UNL     1     -10.707  15.953  68.201  1.00  0.00    -0.302 A  
HETATM   12  C   UNL     1     -11.355  14.719  68.209  1.00  0.00    -0.319 A  
HETATM   13  C   UNL     1     -10.988  13.702  67.324  1.00  0.00    -0.287 A  
HETATM   14  C   UNL     1      -9.351  15.223  66.378  1.00  0.00    -0.328 A  
HETATM   15  C   UNL     1      -9.991  13.973  66.388  1.00  0.00    -0.301 A  
BRANCH  13  16
HETATM   16  O   UNL     1     -11.537  12.436  67.317  1.00  0.00    -0.330 OA 
BRANCH  16  17
HETATM   17  C   UNL     1     -11.383  11.739  68.558  1.00  0.00    -0.273 C  
BRANCH  17  18
HETATM   18  C   UNL     1     -10.416  10.565  68.506  1.00  0.00    -0.188 C  
HETATM   19  C   UNL     1      -9.058  10.867  69.075  1.00  0.00    -0.098 C  
HETATM   20  O   UNL     1      -8.615   9.615  69.591  1.00  0.00    -0.153 OA 
HETATM   21  C   UNL     1      -9.803   8.878  69.979  1.00  0.00    -0.174 C  
HETATM   22  O   UNL     1     -10.929   9.520  69.348  1.00  0.00    -0.230 OA 
BRANCH  21  23
HETATM   23  C   UNL     1      -9.730   7.436  69.469  1.00  0.00    -0.159 A  
HETATM   24 CL   UNL     1     -11.864   6.649  71.045  1.00  0.00    -0.417 Cl 
HETATM   25  C   UNL     1     -10.596   6.407  69.894  1.00  0.00    -0.243 A  
HETATM   26  C   UNL     1      -8.754   7.097  68.506  1.00  0.00    -0.126 A  
HETATM   27  C   UNL     1      -8.650   5.805  67.988  1.00  0.00    -0.105 A  
HETATM   28  C   UNL     1     -10.482   5.107  69.381  1.00  0.00    -0.203 A  
HETATM   29 CL   UNL     1      -9.402   3.226  67.779  1.00  0.00    -0.242 Cl 
HETATM   30  C   UNL     1      -9.517   4.814  68.427  1.00  0.00    -0.144 A  
ENDBRANCH  21  23
BRANCH  21  31
HETATM   31  C   UNL     1      -9.982   9.013  71.515  1.00  0.00    -0.321 C  
BRANCH  31  32
HETATM   32  N   UNL     1      -9.046   8.285  72.342  1.00  0.00    -0.215 NA 
HETATM   33  N   UNL     1      -7.088   7.565  73.101  1.00  0.00    -0.070 NA 
HETATM   34  C   UNL     1      -9.267   7.849  73.624  1.00  0.00    -0.255 A  
HETATM   35  C   UNL     1      -7.721   8.079  72.067  1.00  0.00    -0.103 A  
HETATM   36  C   UNL     1      -8.040   7.433  74.079  1.00  0.00    -0.148 A  
ENDBRANCH  31  32
ENDBRANCH  21  31
ENDBRANCH  17  18
ENDBRANCH  16  17
ENDBRANCH  13  16
ENDBRANCH   7  10
TORSDOF 7
ENDMDL
MODEL       94
REMARK 921   NORMALIZED FREE ENERGY PREDICTED BY IDOCK:   -5.93 KCAL/MOL
REMARK 922        TOTAL FREE ENERGY PREDICTED BY IDOCK:   -8.79 KCAL/MOL
REMARK 923 INTER-LIGAND FREE ENERGY PREDICTED BY IDOCK:   -9.30 KCAL/MOL
REMARK 924 INTRA-LIGAND FREE ENERGY PREDICTED BY IDOCK:    0.51 KCAL/MOL
REMARK 927      BINDING AFFINITY PREDICTED BY RF-SCORE:    0.00 PKD
ROOT
HETATM    1  C   UNL     1      -5.617   4.236  66.802  1.00  0.00    -0.018 C  
HETATM    2  C   UNL     1      -7.115   4.382  66.761  1.00  0.00    -0.067 C  
HETATM    3  O   UNL     1      -7.836   3.534  67.286  1.00  0.00    -0.078 OA 
HETATM    4  N   UNL     1      -7.612   5.546  66.203  1.00  0.00    -0.089 N  
HETATM    5  C   UNL     1      -9.053   5.812  66.301  1.00  0.00    -0.147 C  
HETATM    6  C   UNL     1      -9.325   7.312  66.494  1.00  0.00    -0.170 C  
HETATM    7  N   UNL     1      -8.670   8.075  65.408  1.00  0.00    -0.117 NA 
HETATM    8  C   UNL     1      -6.903   6.375  65.213  1.00  0.00    -0.048 C  
HETATM    9  C   UNL     1      -7.207   7.877  65.380  1.00  0.00    -0.064 C  
ENDROOT
BRANCH   7  10
HETATM   10  C   UNL     1      -9.122   9.363  65.133  1.00  0.00    -0.225 A  
HETATM   11  C   UNL     1     -10.147   9.965  65.856  1.00  0.00    -0.316 A  
HETATM   12  C   UNL     1     -10.668  11.205  65.489  1.00  0.00    -0.251 A  
HETATM   13  C   UNL     1     -10.190  11.889  64.369  1.00  0.00    -0.297 A  
HETATM   14  C   UNL     1      -8.605  10.081  64.039  1.00  0.00    -0.196 A  
HETATM   15  C   UNL     1      -9.133  11.325  63.656  1.00  0.00    -0.048 A  
BRANCH  13  16
HETATM   16  O   UNL     1     -10.700  13.086  63.907  1.00  0.00    -0.392 OA 
BRANCH  16  17
HETATM   17  C   UNL     1     -10.426  14.194  64.770  1.00  0.00    -0.408 C  
BRANCH  17  18
HETATM   18  C   UNL     1     -10.245  13.822  66.235  1.00  0.00    -0.297 C  
HETATM   19  C   UNL     1      -9.178  14.615  66.938  1.00  0.00    -0.249 C  
HETATM   20  O   UNL     1      -9.630  14.677  68.288  1.00  0.00    -0.196 OA 
HETATM   21  C   UNL     1     -11.079  14.626  68.247  1.00  0.00    -0.271 C  
HETATM   22  O   UNL     1     -11.454  14.152  66.938  1.00  0.00    -0.325 OA 
BRANCH  21  23
HETATM   23  C   UNL     1     -11.609  13.630  69.283  1.00  0.00    -0.363 A  
HETATM   24 CL   UNL     1     -12.479  15.656  70.956  1.00  0.00    -0.473 Cl 
HETATM   25  C   UNL     1     -12.228  14.009  70.492  1.00  0.00    -0.365 A  
HETATM   26  C   UNL     1     -11.492  12.246  69.027  1.00  0.00    -0.349 A  
HETATM   27  C   UNL     1     -11.974  11.290  69.923  1.00  0.00    -0.440 A  
HETATM   28  C   UNL     1     -12.701  13.046  71.396  1.00  0.00    -0.375 A  
HETATM   29 CL   UNL     1     -13.186  10.519  72.203  1.00  0.00    -0.508 Cl 
HETATM   30  C   UNL     1     -12.578  11.694  71.105  1.00  0.00    -0.335 A  
ENDBRANCH  21  23
BRANCH  21  31
HETATM   31  C   UNL     1     -11.624  16.070  68.401  1.00  0.00    -0.279 C  
BRANCH  31  32
HETATM   32  N   UNL     1     -10.690  17.145  68.154  1.00  0.00    -0.375 NA 
HETATM   33  N   UNL     1      -9.828  18.951  67.194  1.00  0.00    -0.310 NA 
HETATM   34  C   UNL     1      -9.821  17.689  69.067  1.00  0.00    -0.231 A  
HETATM   35  C   UNL     1     -10.648  17.933  67.036  1.00  0.00    -0.279 A  
HETATM   36  C   UNL     1      -9.321  18.815  68.460  1.00  0.00    -0.350 A  
ENDBRANCH  31  32
ENDBRANCH  21  31
ENDBRANCH  17  18
ENDBRANCH  16  17
ENDBRANCH  13  16
ENDBRANCH   7  10
TORSDOF 7
ENDMDL
MODEL       95
REMARK 921   NORMALIZED FREE ENERGY PREDICTED BY IDOCK:   -5.93 KCAL/MOL
REMARK 922        TOTAL FREE ENERGY PREDICTED BY IDOCK:   -8.78 KCAL/MOL
REMARK 923 INTER-LIGAND FREE ENERGY PREDICTED BY IDOCK:   -7.53 KCAL/MOL
REMARK 924 INTRA-LIGAND FREE ENERGY PREDICTED BY IDOCK:   -1.25 KCAL/MOL
REMARK 927      BINDING AFFINITY PREDICTED BY RF-SCORE:    0.00 PKD
ROOT
HETATM    1  C   UNL     1     -13.987  15.532  71.773  1.00  0.00    -0.569 C  
HETATM    2  C   UNL     1     -13.627  14.076  71.913  1.00  0.00    -0.435 C  
HETATM    3  O   UNL     1     -14.225  13.364  72.718  1.00  0.00    -0.693 OA 
HETATM    4  N   UNL     1     -12.679  13.581  71.036  1.00  0.00    -0.340 N  
HETATM    5  C   UNL     1     -12.426  12.135  71.018  1.00  0.00    -0.269 C  
HETATM    6  C   UNL     1     -12.131  11.644  69.592  1.00  0.00    -0.280 C  
HETATM    7  N   UNL     1     -11.015  12.432  69.020  1.00  0.00    -0.225 NA 
HETATM    8  C   UNL     1     -11.645  14.392  70.368  1.00  0.00    -0.226 C  
HETATM    9  C   UNL     1     -11.319  13.876  68.953  1.00  0.00    -0.282 C  
ENDROOT
BRANCH   7  10
HETATM   10  C   UNL     1     -10.307  11.902  67.946  1.00  0.00    -0.198 A  
HETATM   11  C   UNL     1      -8.918  11.951  67.870  1.00  0.00    -0.179 A  
HETATM   12  C   UNL     1      -8.234  11.525  66.733  1.00  0.00    -0.164 A  
HETATM   13  C   UNL     1      -8.917  11.044  65.614  1.00  0.00    -0.199 A  
HETATM   14  C   UNL     1     -10.988  11.364  66.839  1.00  0.00    -0.355 A  
HETATM   15  C   UNL     1     -10.306  10.944  65.684  1.00  0.00    -0.305 A  
BRANCH  13  16
HETATM   16  O   UNL     1      -8.314  10.667  64.431  1.00  0.00    -0.136 OA 
BRANCH  16  17
HETATM   17  C   UNL     1      -8.737   9.384  63.958  1.00  0.00    -0.200 C  
BRANCH  17  18
HETATM   18  C   UNL     1      -8.059   8.206  64.642  1.00  0.00    -0.148 C  
HETATM   19  C   UNL     1      -6.673   8.504  65.142  1.00  0.00    -0.064 C  
HETATM   20  O   UNL     1      -6.529   7.661  66.281  1.00  0.00    -0.047 OA 
HETATM   21  C   UNL     1      -7.856   7.480  66.839  1.00  0.00    -0.111 C  
HETATM   22  O   UNL     1      -8.803   7.885  65.830  1.00  0.00    -0.163 OA 
BRANCH  21  23
HETATM   23  C   UNL     1      -8.105   6.003  67.159  1.00  0.00    -0.106 A  
HETATM   24 CL   UNL     1      -5.725   5.786  68.556  1.00  0.00    -0.011 Cl 
HETATM   25  C   UNL     1      -7.214   5.199  67.901  1.00  0.00    -0.067 A  
HETATM   26  C   UNL     1      -9.295   5.394  66.706  1.00  0.00    -0.136 A  
HETATM   27  C   UNL     1      -9.588   4.057  66.984  1.00  0.00    -0.231 A  
HETATM   28  C   UNL     1      -7.506   3.853  68.169  1.00  0.00    -0.062 A  
HETATM   29 CL   UNL     1      -9.058   1.650  68.073  1.00  0.00    -0.171 Cl 
HETATM   30  C   UNL     1      -8.692   3.292  67.716  1.00  0.00    -0.112 A  
ENDBRANCH  21  23
BRANCH  21  31
HETATM   31  C   UNL     1      -8.013   8.440  68.048  1.00  0.00    -0.119 C  
BRANCH  31  32
HETATM   32  N   UNL     1      -9.011   8.084  69.032  1.00  0.00    -0.145 NA 
HETATM   33  N   UNL     1     -11.023   7.695  69.884  1.00  0.00    -0.234 NA 
HETATM   34  C   UNL     1      -8.816   7.285  70.131  1.00  0.00    -0.145 A  
HETATM   35  C   UNL     1     -10.356   8.316  68.933  1.00  0.00    -0.215 A  
HETATM   36  C   UNL     1     -10.073   7.039  70.624  1.00  0.00    -0.191 A  
ENDBRANCH  31  32
ENDBRANCH  21  31
ENDBRANCH  17  18
ENDBRANCH  16  17
ENDBRANCH  13  16
ENDBRANCH   7  10
TORSDOF 7
ENDMDL
MODEL       96
REMARK 921   NORMALIZED FREE ENERGY PREDICTED BY IDOCK:   -5.92 KCAL/MOL
REMARK 922        TOTAL FREE ENERGY PREDICTED BY IDOCK:   -8.77 KCAL/MOL
REMARK 923 INTER-LIGAND FREE ENERGY PREDICTED BY IDOCK:   -7.60 KCAL/MOL
REMARK 924 INTRA-LIGAND FREE ENERGY PREDICTED BY IDOCK:   -1.18 KCAL/MOL
REMARK 927      BINDING AFFINITY PREDICTED BY RF-SCORE:    0.00 PKD
ROOT
HETATM    1  C   UNL     1      -7.457   1.532  63.619  1.00  0.00    -0.052 C  
HETATM    2  C   UNL     1      -8.699   2.226  64.114  1.00  0.00    -0.092 C  
HETATM    3  O   UNL     1      -9.695   1.571  64.419  1.00  0.00    -0.127 OA 
HETATM    4  N   UNL     1      -8.617   3.594  64.294  1.00  0.00    -0.093 N  
HETATM    5  C   UNL     1      -9.740   4.286  64.939  1.00  0.00    -0.176 C  
HETATM    6  C   UNL     1      -9.243   5.434  65.831  1.00  0.00    -0.156 C  
HETATM    7  N   UNL     1      -8.388   6.342  65.034  1.00  0.00    -0.122 NA 
HETATM    8  C   UNL     1      -7.676   4.483  63.589  1.00  0.00    -0.068 C  
HETATM    9  C   UNL     1      -7.208   5.658  64.469  1.00  0.00    -0.058 C  
ENDROOT
BRANCH   7  10
HETATM   10  C   UNL     1      -8.186   7.641  65.493  1.00  0.00    -0.135 A  
HETATM   11  C   UNL     1      -8.907   8.726  65.006  1.00  0.00    -0.151 A  
HETATM   12  C   UNL     1      -8.607  10.033  65.388  1.00  0.00    -0.162 A  
HETATM   13  C   UNL     1      -7.557  10.307  66.267  1.00  0.00    -0.117 A  
HETATM   14  C   UNL     1      -7.165   7.917  66.421  1.00  0.00    -0.082 A  
HETATM   15  C   UNL     1      -6.849   9.232  66.801  1.00  0.00    -0.080 A  
BRANCH  13  16
HETATM   16  O   UNL     1      -7.159  11.576  66.638  1.00  0.00    -0.132 OA 
BRANCH  16  17
HETATM   17  C   UNL     1      -6.903  11.706  68.040  1.00  0.00    -0.072 C  
BRANCH  17  18
HETATM   18  C   UNL     1      -7.711  12.796  68.730  1.00  0.00     0.007 C  
HETATM   19  C   UNL     1      -7.215  14.188  68.457  1.00  0.00    -0.110 C  
HETATM   20  O   UNL     1      -8.390  14.992  68.526  1.00  0.00    -0.146 OA 
HETATM   21  C   UNL     1      -9.498  14.148  68.122  1.00  0.00    -0.213 C  
HETATM   22  O   UNL     1      -9.043  12.782  68.191  1.00  0.00    -0.196 OA 
BRANCH  21  23
HETATM   23  C   UNL     1     -10.673  14.306  69.091  1.00  0.00    -0.239 A  
HETATM   24 CL   UNL     1     -10.862  17.023  68.597  1.00  0.00    -0.321 Cl 
HETATM   25  C   UNL     1     -11.316  15.535  69.352  1.00  0.00    -0.316 A  
HETATM   26  C   UNL     1     -11.167  13.167  69.764  1.00  0.00    -0.017 A  
HETATM   27  C   UNL     1     -12.248  13.245  70.644  1.00  0.00    -0.417 A  
HETATM   28  C   UNL     1     -12.395  15.612  70.245  1.00  0.00    -0.402 A  
HETATM   29 CL   UNL     1     -14.201  14.563  71.952  1.00  0.00    -0.575 Cl 
HETATM   30  C   UNL     1     -12.859  14.468  70.881  1.00  0.00    -0.360 A  
ENDBRANCH  21  23
BRANCH  21  31
HETATM   31  C   UNL     1      -9.835  14.459  66.640  1.00  0.00    -0.278 C  
BRANCH  31  32
HETATM   32  N   UNL     1     -11.016  13.826  66.097  1.00  0.00    -0.291 NA 
HETATM   33  N   UNL     1     -13.040  13.653  65.202  1.00  0.00    -0.734 NA 
HETATM   34  C   UNL     1     -11.072  12.588  65.507  1.00  0.00    -0.301 A  
HETATM   35  C   UNL     1     -12.231  14.424  65.899  1.00  0.00    -0.341 A  
HETATM   36  C   UNL     1     -12.321  12.516  64.941  1.00  0.00    -0.470 A  
ENDBRANCH  31  32
ENDBRANCH  21  31
ENDBRANCH  17  18
ENDBRANCH  16  17
ENDBRANCH  13  16
ENDBRANCH   7  10
TORSDOF 7
ENDMDL
MODEL       97
REMARK 921   NORMALIZED FREE ENERGY PREDICTED BY IDOCK:   -5.91 KCAL/MOL
REMARK 922        TOTAL FREE ENERGY PREDICTED BY IDOCK:   -8.76 KCAL/MOL
REMARK 923 INTER-LIGAND FREE ENERGY PREDICTED BY IDOCK:   -7.61 KCAL/MOL
REMARK 924 INTRA-LIGAND FREE ENERGY PREDICTED BY IDOCK:   -1.15 KCAL/MOL
REMARK 927      BINDING AFFINITY PREDICTED BY RF-SCORE:    0.00 PKD
ROOT
HETATM    1  C   UNL     1     -12.092  12.938  63.519  1.00  0.00    -0.633 C  
HETATM    2  C   UNL     1     -12.371  13.442  64.911  1.00  0.00    -0.412 C  
HETATM    3  O   UNL     1     -13.272  14.257  65.107  1.00  0.00    -0.686 OA 
HETATM    4  N   UNL     1     -11.638  12.874  65.937  1.00  0.00    -0.356 N  
HETATM    5  C   UNL     1     -11.996  13.205  67.322  1.00  0.00    -0.335 C  
HETATM    6  C   UNL     1     -11.811  11.990  68.245  1.00  0.00    -0.287 C  
HETATM    7  N   UNL     1     -10.428  11.479  68.113  1.00  0.00    -0.186 NA 
HETATM    8  C   UNL     1     -10.312  12.250  65.780  1.00  0.00    -0.258 C  
HETATM    9  C   UNL     1     -10.109  11.057  66.734  1.00  0.00    -0.220 C  
ENDROOT
BRANCH   7  10
HETATM   10  C   UNL     1      -9.911  10.685  69.134  1.00  0.00    -0.211 A  
HETATM   11  C   UNL     1      -8.546  10.462  69.288  1.00  0.00    -0.159 A  
HETATM   12  C   UNL     1      -8.056   9.569  70.239  1.00  0.00    -0.200 A  
HETATM   13  C   UNL     1      -8.917   8.848  71.069  1.00  0.00    -0.241 A  
HETATM   14  C   UNL     1     -10.773   9.999  70.009  1.00  0.00    -0.348 A  
HETATM   15  C   UNL     1     -10.287   9.088  70.961  1.00  0.00    -0.348 A  
BRANCH  13  16
HETATM   16  O   UNL     1      -8.510   7.900  71.985  1.00  0.00    -0.114 OA 
BRANCH  16  17
HETATM   17  C   UNL     1      -8.543   6.563  71.476  1.00  0.00    -0.129 C  
BRANCH  17  18
HETATM   18  C   UNL     1      -7.837   6.379  70.140  1.00  0.00    -0.107 C  
HETATM   19  C   UNL     1      -7.223   5.020  69.956  1.00  0.00    -0.058 C  
HETATM   20  O   UNL     1      -7.289   4.800  68.550  1.00  0.00    -0.063 OA 
HETATM   21  C   UNL     1      -8.446   5.531  68.066  1.00  0.00    -0.098 C  
HETATM   22  O   UNL     1      -8.819   6.469  69.094  1.00  0.00    -0.128 OA 
BRANCH  21  23
HETATM   23  C   UNL     1      -8.089   6.323  66.805  1.00  0.00    -0.109 A  
HETATM   24 CL   UNL     1     -10.438   7.783  66.921  1.00  0.00    -0.407 Cl 
HETATM   25  C   UNL     1      -8.915   7.321  66.245  1.00  0.00    -0.156 A  
HETATM   26  C   UNL     1      -6.861   6.066  66.157  1.00  0.00    -0.061 A  
HETATM   27  C   UNL     1      -6.472   6.770  65.016  1.00  0.00    -0.042 A  
HETATM   28  C   UNL     1      -8.526   8.018  65.091  1.00  0.00    -0.117 A  
HETATM   29 CL   UNL     1      -6.822   8.624  63.091  1.00  0.00    -0.090 Cl 
HETATM   30  C   UNL     1      -7.306   7.745  64.487  1.00  0.00    -0.089 A  
ENDBRANCH  21  23
BRANCH  21  31
HETATM   31  C   UNL     1      -9.619   4.530  67.891  1.00  0.00    -0.157 C  
BRANCH  31  32
HETATM   32  N   UNL     1      -9.723   3.873  66.608  1.00  0.00    -0.201 NA 
HETATM   33  N   UNL     1     -10.255   3.587  64.472  1.00  0.00    -0.165 NA 
HETATM   34  C   UNL     1      -8.897   2.885  66.134  1.00  0.00    -0.143 A  
HETATM   35  C   UNL     1     -10.534   4.253  65.573  1.00  0.00    -0.150 A  
HETATM   36  C   UNL     1      -9.227   2.745  64.808  1.00  0.00    -0.143 A  
ENDBRANCH  31  32
ENDBRANCH  21  31
ENDBRANCH  17  18
ENDBRANCH  16  17
ENDBRANCH  13  16
ENDBRANCH   7  10
TORSDOF 7
ENDMDL
MODEL       98
REMARK 921   NORMALIZED FREE ENERGY PREDICTED BY IDOCK:   -5.83 KCAL/MOL
REMARK 922        TOTAL FREE ENERGY PREDICTED BY IDOCK:   -8.64 KCAL/MOL
REMARK 923 INTER-LIGAND FREE ENERGY PREDICTED BY IDOCK:   -7.76 KCAL/MOL
REMARK 924 INTRA-LIGAND FREE ENERGY PREDICTED BY IDOCK:   -0.88 KCAL/MOL
REMARK 927      BINDING AFFINITY PREDICTED BY RF-SCORE:    0.00 PKD
ROOT
HETATM    1  C   UNL     1      -6.679   3.706  65.716  1.00  0.00    -0.045 C  
HETATM    2  C   UNL     1      -7.412   3.806  67.028  1.00  0.00    -0.072 C  
HETATM    3  O   UNL     1      -7.213   2.976  67.915  1.00  0.00    -0.049 OA 
HETATM    4  N   UNL     1      -8.223   4.912  67.207  1.00  0.00    -0.106 N  
HETATM    5  C   UNL     1      -8.817   5.142  68.529  1.00  0.00    -0.101 C  
HETATM    6  C   UNL     1      -8.885   6.643  68.851  1.00  0.00    -0.131 C  
HETATM    7  N   UNL     1      -9.605   7.346  67.765  1.00  0.00    -0.139 NA 
HETATM    8  C   UNL     1      -8.839   5.689  66.117  1.00  0.00    -0.142 C  
HETATM    9  C   UNL     1      -8.945   7.189  66.454  1.00  0.00    -0.155 C  
ENDROOT
BRANCH   7  10
HETATM   10  C   UNL     1     -10.154   8.598  68.032  1.00  0.00    -0.196 A  
HETATM   11  C   UNL     1     -10.657   8.941  69.283  1.00  0.00    -0.219 A  
HETATM   12  C   UNL     1     -11.312  10.153  69.499  1.00  0.00    -0.260 A  
HETATM   13  C   UNL     1     -11.504  11.067  68.461  1.00  0.00    -0.309 A  
HETATM   14  C   UNL     1     -10.300   9.546  67.003  1.00  0.00    -0.319 A  
HETATM   15  C   UNL     1     -10.970  10.763  67.210  1.00  0.00    -0.359 A  
BRANCH  13  16
HETATM   16  O   UNL     1     -12.199  12.254  68.583  1.00  0.00    -0.199 OA 
BRANCH  16  17
HETATM   17  C   UNL     1     -11.911  12.962  69.792  1.00  0.00    -0.296 C  
BRANCH  17  18
HETATM   18  C   UNL     1     -11.685  14.456  69.609  1.00  0.00    -0.309 C  
HETATM   19  C   UNL     1     -11.120  15.141  70.822  1.00  0.00    -0.255 C  
HETATM   20  O   UNL     1     -10.349  16.212  70.285  1.00  0.00    -0.143 OA 
HETATM   21  C   UNL     1      -9.882  15.778  68.981  1.00  0.00    -0.240 C  
HETATM   22  O   UNL     1     -10.680  14.640  68.598  1.00  0.00    -0.235 OA 
BRANCH  21  23
HETATM   23  C   UNL     1     -10.096  16.881  67.941  1.00  0.00    -0.288 A  
HETATM   24 CL   UNL     1      -9.848  15.102  65.835  1.00  0.00    -0.345 Cl 
HETATM   25  C   UNL     1     -10.089  16.659  66.548  1.00  0.00    -0.305 A  
HETATM   26  C   UNL     1     -10.327  18.203  68.380  1.00  0.00    -0.371 A  
HETATM   27  C   UNL     1     -10.549  19.247  67.481  1.00  0.00    -0.581 A  
HETATM   28  C   UNL     1     -10.301  17.713  65.646  1.00  0.00    -0.120 A  
HETATM   29 CL   UNL     1     -10.824  20.280  65.007  1.00  0.00     0.133 Cl 
HETATM   30  C   UNL     1     -10.536  18.998  66.116  1.00  0.00    -0.467 A  
ENDBRANCH  21  23
BRANCH  21  31
HETATM   31  C   UNL     1      -8.413  15.298  69.122  1.00  0.00    -0.234 C  
BRANCH  31  32
HETATM   32  N   UNL     1      -7.395  16.152  68.553  1.00  0.00    -0.153 NA 
HETATM   33  N   UNL     1      -5.804  17.697  68.474  1.00  0.00    -0.168 NA 
HETATM   34  C   UNL     1      -6.668  15.899  67.416  1.00  0.00    -0.194 A  
HETATM   35  C   UNL     1      -6.845  17.255  69.149  1.00  0.00    -0.234 A  
HETATM   36  C   UNL     1      -5.678  16.850  67.404  1.00  0.00    -0.154 A  
ENDBRANCH  31  32
ENDBRANCH  21  31
ENDBRANCH  17  18
ENDBRANCH  16  17
ENDBRANCH  13  16
ENDBRANCH   7  10
TORSDOF 7
ENDMDL
MODEL       99
REMARK 921   NORMALIZED FREE ENERGY PREDICTED BY IDOCK:   -5.78 KCAL/MOL
REMARK 922        TOTAL FREE ENERGY PREDICTED BY IDOCK:   -8.57 KCAL/MOL
REMARK 923 INTER-LIGAND FREE ENERGY PREDICTED BY IDOCK:   -7.73 KCAL/MOL
REMARK 924 INTRA-LIGAND FREE ENERGY PREDICTED BY IDOCK:   -0.84 KCAL/MOL
REMARK 927      BINDING AFFINITY PREDICTED BY RF-SCORE:    0.00 PKD
ROOT
HETATM    1  C   UNL     1      -7.962   1.876  63.138  1.00  0.00    -0.057 C  
HETATM    2  C   UNL     1      -8.768   2.309  64.335  1.00  0.00    -0.100 C  
HETATM    3  O   UNL     1      -9.233   1.471  65.106  1.00  0.00    -0.124 OA 
HETATM    4  N   UNL     1      -8.863   3.670  64.562  1.00  0.00    -0.115 N  
HETATM    5  C   UNL     1      -9.486   4.132  65.808  1.00  0.00    -0.177 C  
HETATM    6  C   UNL     1      -8.791   5.396  66.338  1.00  0.00    -0.123 C  
HETATM    7  N   UNL     1      -8.780   6.432  65.281  1.00  0.00    -0.045 NA 
HETATM    8  C   UNL     1      -8.725   4.709  63.525  1.00  0.00    -0.136 C  
HETATM    9  C   UNL     1      -8.065   5.992  64.065  1.00  0.00    -0.089 C  
ENDROOT
BRANCH   7  10
HETATM   10  C   UNL     1      -8.600   7.761  65.652  1.00  0.00    -0.127 A  
HETATM   11  C   UNL     1      -9.622   8.524  66.211  1.00  0.00    -0.306 A  
HETATM   12  C   UNL     1      -9.460   9.886  66.464  1.00  0.00    -0.230 A  
HETATM   13  C   UNL     1      -8.269  10.544  66.152  1.00  0.00    -0.151 A  
HETATM   14  C   UNL     1      -7.383   8.417  65.392  1.00  0.00    -0.084 A  
HETATM   15  C   UNL     1      -7.218   9.791  65.632  1.00  0.00    -0.106 A  
BRANCH  13  16
HETATM   16  O   UNL     1      -8.060  11.899  66.312  1.00  0.00     0.008 OA 
BRANCH  16  17
HETATM   17  C   UNL     1      -7.254  12.222  67.450  1.00  0.00    -0.147 C  
BRANCH  17  18
HETATM   18  C   UNL     1      -7.902  13.192  68.426  1.00  0.00    -0.135 C  
HETATM   19  C   UNL     1      -7.279  14.561  68.431  1.00  0.00    -0.116 C  
HETATM   20  O   UNL     1      -8.357  15.429  68.770  1.00  0.00    -0.156 OA 
HETATM   21  C   UNL     1      -9.569  14.802  68.277  1.00  0.00    -0.215 C  
HETATM   22  O   UNL     1      -9.257  13.421  68.004  1.00  0.00    -0.195 OA 
BRANCH  21  23
HETATM   23  C   UNL     1     -10.664  14.839  69.347  1.00  0.00    -0.250 A  
HETATM   24 CL   UNL     1     -11.812  12.499  68.416  1.00  0.00    -0.372 Cl 
HETATM   25  C   UNL     1     -11.681  13.868  69.465  1.00  0.00    -0.313 A  
HETATM   26  C   UNL     1     -10.669  15.891  70.288  1.00  0.00    -0.313 A  
HETATM   27  C   UNL     1     -11.629  15.969  71.298  1.00  0.00    -0.506 A  
HETATM   28  C   UNL     1     -12.651  13.954  70.474  1.00  0.00    -0.382 A  
HETATM   29 CL   UNL     1     -13.791  15.082  72.642  1.00  0.00    -0.546 Cl 
HETATM   30  C   UNL     1     -12.617  14.998  71.389  1.00  0.00    -0.335 A  
ENDBRANCH  21  23
BRANCH  21  31
HETATM   31  C   UNL     1      -9.955  15.474  66.933  1.00  0.00    -0.247 C  
BRANCH  31  32
HETATM   32  N   UNL     1      -9.747  16.901  66.838  1.00  0.00    -0.250 NA 
HETATM   33  N   UNL     1      -8.842  18.816  66.173  1.00  0.00    -0.474 NA 
HETATM   34  C   UNL     1     -10.683  17.875  67.080  1.00  0.00    -0.230 A  
HETATM   35  C   UNL     1      -8.648  17.520  66.305  1.00  0.00    -0.199 A  
HETATM   36  C   UNL     1     -10.111  19.042  66.638  1.00  0.00    -0.392 A  
ENDBRANCH  31  32
ENDBRANCH  21  31
ENDBRANCH  17  18
ENDBRANCH  16  17
ENDBRANCH  13  16
ENDBRANCH   7  10
TORSDOF 7
ENDMDL
MODEL      100
REMARK 921   NORMALIZED FREE ENERGY PREDICTED BY IDOCK:   -5.74 KCAL/MOL
REMARK 922        TOTAL FREE ENERGY PREDICTED BY IDOCK:   -8.51 KCAL/MOL
REMARK 923 INTER-LIGAND FREE ENERGY PREDICTED BY IDOCK:   -7.85 KCAL/MOL
REMARK 924 INTRA-LIGAND FREE ENERGY PREDICTED BY IDOCK:   -0.66 KCAL/MOL
REMARK 927      BINDING AFFINITY PREDICTED BY RF-SCORE:    0.00 PKD
ROOT
HETATM    1  C   UNL     1     -11.724  13.734  67.037  1.00  0.00    -0.420 C  
HETATM    2  C   UNL     1     -12.002  13.823  68.515  1.00  0.00    -0.367 C  
HETATM    3  O   UNL     1     -12.544  14.822  68.986  1.00  0.00     0.005 OA 
HETATM    4  N   UNL     1     -11.711  12.702  69.272  1.00  0.00    -0.310 N  
HETATM    5  C   UNL     1     -12.127  12.678  70.679  1.00  0.00    -0.226 C  
HETATM    6  C   UNL     1     -12.565  11.266  71.101  1.00  0.00    -0.397 C  
HETATM    7  N   UNL     1     -11.479  10.305  70.804  1.00  0.00    -0.340 NA 
HETATM    8  C   UNL     1     -10.716  11.677  68.910  1.00  0.00    -0.207 C  
HETATM    9  C   UNL     1     -11.134  10.266  69.369  1.00  0.00    -0.252 C  
ENDROOT
BRANCH   7  10
HETATM   10  C   UNL     1     -11.469   9.083  71.472  1.00  0.00    -0.337 A  
HETATM   11  C   UNL     1     -10.435   8.706  72.324  1.00  0.00    -0.376 A  
HETATM   12  C   UNL     1     -10.383   7.432  72.887  1.00  0.00    -0.328 A  
HETATM   13  C   UNL     1     -11.360   6.475  72.608  1.00  0.00    -0.222 A  
HETATM   14  C   UNL     1     -12.482   8.135  71.238  1.00  0.00    -0.269 A  
HETATM   15  C   UNL     1     -12.429   6.846  71.792  1.00  0.00    -0.397 A  
BRANCH  13  16
HETATM   16  O   UNL     1     -11.340   5.176  73.075  1.00  0.00    -0.302 OA 
BRANCH  16  17
HETATM   17  C   UNL     1     -10.454   4.321  72.344  1.00  0.00    -0.126 C  
BRANCH  17  18
HETATM   18  C   UNL     1      -9.600   5.037  71.307  1.00  0.00    -0.165 C  
HETATM   19  C   UNL     1      -8.235   4.436  71.121  1.00  0.00    -0.082 C  
HETATM   20  O   UNL     1      -7.924   4.703  69.757  1.00  0.00    -0.064 OA 
HETATM   21  C   UNL     1      -9.185   4.747  69.041  1.00  0.00    -0.123 C  
HETATM   22  O   UNL     1     -10.230   4.890  70.024  1.00  0.00    -0.264 OA 
BRANCH  21  23
HETATM   23  C   UNL     1      -9.234   5.966  68.115  1.00  0.00    -0.116 A  
HETATM   24 CL   UNL     1      -6.500   5.894  67.688  1.00  0.00    -0.045 Cl 
HETATM   25  C   UNL     1      -8.098   6.525  67.492  1.00  0.00    -0.121 A  
HETATM   26  C   UNL     1     -10.480   6.574  67.845  1.00  0.00    -0.273 A  
HETATM   27  C   UNL     1     -10.590   7.674  66.994  1.00  0.00    -0.406 A  
HETATM   28  C   UNL     1      -8.211   7.638  66.646  1.00  0.00    -0.124 A  
HETATM   29 CL   UNL     1      -9.591   9.548  65.335  1.00  0.00    -0.354 Cl 
HETATM   30  C   UNL     1      -9.455   8.202  66.396  1.00  0.00    -0.218 A  
ENDBRANCH  21  23
BRANCH  21  31
HETATM   31  C   UNL     1      -9.391   3.384  68.328  1.00  0.00    -0.180 C  
BRANCH  31  32
HETATM   32  N   UNL     1      -8.616   3.158  67.128  1.00  0.00    -0.105 NA 
HETATM   33  N   UNL     1      -7.033   2.313  65.822  1.00  0.00    -0.046 NA 
HETATM   34  C   UNL     1      -9.056   3.317  65.838  1.00  0.00    -0.152 A  
HETATM   35  C   UNL     1      -7.386   2.562  67.066  1.00  0.00    -0.061 A  
HETATM   36  C   UNL     1      -8.074   2.765  65.053  1.00  0.00    -0.083 A  
ENDBRANCH  31  32
ENDBRANCH  21  31
ENDBRANCH  17  18
ENDBRANCH  16  17
ENDBRANCH  13  16
ENDBRANCH   7  10
TORSDOF 7
ENDMDL
MODEL      101
REMARK 921   NORMALIZED FREE ENERGY PREDICTED BY IDOCK:   -5.72 KCAL/MOL
REMARK 922        TOTAL FREE ENERGY PREDICTED BY IDOCK:   -8.49 KCAL/MOL
REMARK 923 INTER-LIGAND FREE ENERGY PREDICTED BY IDOCK:   -8.12 KCAL/MOL
REMARK 924 INTRA-LIGAND FREE ENERGY PREDICTED BY IDOCK:   -0.37 KCAL/MOL
REMARK 927      BINDING AFFINITY PREDICTED BY RF-SCORE:    0.00 PKD
ROOT
HETATM    1  C   UNL     1     -10.261  20.058  66.902  1.00  0.00    -0.595 C  
HETATM    2  C   UNL     1     -10.652  18.847  66.096  1.00  0.00    -0.407 C  
HETATM    3  O   UNL     1     -11.107  18.977  64.960  1.00  0.00    -0.393 OA 
HETATM    4  N   UNL     1     -10.383  17.612  66.658  1.00  0.00    -0.343 N  
HETATM    5  C   UNL     1     -10.583  16.410  65.840  1.00  0.00    -0.285 C  
HETATM    6  C   UNL     1      -9.517  15.347  66.149  1.00  0.00    -0.336 C  
HETATM    7  N   UNL     1      -9.514  15.062  67.602  1.00  0.00    -0.194 NA 
HETATM    8  C   UNL     1     -10.254  17.354  68.103  1.00  0.00    -0.350 C  
HETATM    9  C   UNL     1      -9.214  16.259  68.413  1.00  0.00    -0.203 C  
ENDROOT
BRANCH   7  10
HETATM   10  C   UNL     1      -8.958  13.865  68.045  1.00  0.00    -0.184 A  
HETATM   11  C   UNL     1      -7.612  13.744  68.377  1.00  0.00    -0.135 A  
HETATM   12  C   UNL     1      -7.048  12.511  68.700  1.00  0.00    -0.100 A  
HETATM   13  C   UNL     1      -7.810  11.340  68.690  1.00  0.00    -0.139 A  
HETATM   14  C   UNL     1      -9.735  12.692  68.090  1.00  0.00    -0.219 A  
HETATM   15  C   UNL     1      -9.171  11.444  68.403  1.00  0.00    -0.183 A  
BRANCH  13  16
HETATM   16  O   UNL     1      -7.309  10.078  68.934  1.00  0.00    -0.074 OA 
BRANCH  16  17
HETATM   17  C   UNL     1      -8.147   9.284  69.779  1.00  0.00    -0.120 C  
BRANCH  17  18
HETATM   18  C   UNL     1      -8.109   7.792  69.483  1.00  0.00    -0.126 C  
HETATM   19  C   UNL     1      -8.261   6.924  70.701  1.00  0.00    -0.120 C  
HETATM   20  O   UNL     1      -8.902   5.750  70.210  1.00  0.00    -0.137 OA 
HETATM   21  C   UNL     1      -9.708   6.158  69.074  1.00  0.00    -0.135 C  
HETATM   22  O   UNL     1      -9.247   7.463  68.670  1.00  0.00    -0.144 OA 
BRANCH  21  23
HETATM   23  C   UNL     1      -9.505   5.197  67.900  1.00  0.00    -0.155 A  
HETATM   24 CL   UNL     1      -9.625   2.976  69.549  1.00  0.00    -0.163 Cl 
HETATM   25  C   UNL     1      -9.453   3.793  68.034  1.00  0.00    -0.164 A  
HETATM   26  C   UNL     1      -9.371   5.723  66.597  1.00  0.00    -0.155 A  
HETATM   27  C   UNL     1      -9.203   4.897  65.484  1.00  0.00    -0.160 A  
HETATM   28  C   UNL     1      -9.273   2.966  66.915  1.00  0.00    -0.161 A  
HETATM   29 CL   UNL     1      -8.966   2.499  64.277  1.00  0.00    -0.104 Cl 
HETATM   30  C   UNL     1      -9.156   3.520  65.648  1.00  0.00    -0.149 A  
ENDBRANCH  21  23
BRANCH  21  31
HETATM   31  C   UNL     1     -11.180   6.302  69.545  1.00  0.00    -0.430 C  
BRANCH  31  32
HETATM   32  N   UNL     1     -11.414   7.160  70.685  1.00  0.00    -0.298 NA 
HETATM   33  N   UNL     1     -11.504   7.789  72.811  1.00  0.00    -0.379 NA 
HETATM   34  C   UNL     1     -11.405   8.532  70.681  1.00  0.00    -0.241 A  
HETATM   35  C   UNL     1     -11.490   6.759  71.991  1.00  0.00    -0.282 A  
HETATM   36  C   UNL     1     -11.435   8.895  72.005  1.00  0.00    -0.361 A  
ENDBRANCH  31  32
ENDBRANCH  21  31
ENDBRANCH  17  18
ENDBRANCH  16  17
ENDBRANCH  13  16
ENDBRANCH   7  10
TORSDOF 7
ENDMDL
MODEL      102
REMARK 921   NORMALIZED FREE ENERGY PREDICTED BY IDOCK:   -5.70 KCAL/MOL
REMARK 922        TOTAL FREE ENERGY PREDICTED BY IDOCK:   -8.46 KCAL/MOL
REMARK 923 INTER-LIGAND FREE ENERGY PREDICTED BY IDOCK:   -7.53 KCAL/MOL
REMARK 924 INTRA-LIGAND FREE ENERGY PREDICTED BY IDOCK:   -0.93 KCAL/MOL
REMARK 927      BINDING AFFINITY PREDICTED BY RF-SCORE:    0.00 PKD
ROOT
HETATM    1  C   UNL     1     -10.389  17.719  65.961  1.00  0.00    -0.304 C  
HETATM    2  C   UNL     1     -11.006  16.606  65.156  1.00  0.00    -0.151 C  
HETATM    3  O   UNL     1     -11.557  16.848  64.082  1.00  0.00    -1.091 OA 
HETATM    4  N   UNL     1     -10.831  15.320  65.634  1.00  0.00    -0.348 N  
HETATM    5  C   UNL     1     -11.260  14.194  64.796  1.00  0.00    -0.378 C  
HETATM    6  C   UNL     1     -10.304  13.000  64.944  1.00  0.00    -0.324 C  
HETATM    7  N   UNL     1     -10.184  12.640  66.375  1.00  0.00    -0.246 NA 
HETATM    8  C   UNL     1     -10.585  14.973  67.045  1.00  0.00    -0.293 C  
HETATM    9  C   UNL     1      -9.659  13.750  67.195  1.00  0.00    -0.244 C  
ENDROOT
BRANCH   7  10
HETATM   10  C   UNL     1      -9.735  11.365  66.706  1.00  0.00    -0.198 A  
HETATM   11  C   UNL     1      -8.383  11.041  66.763  1.00  0.00    -0.147 A  
HETATM   12  C   UNL     1      -7.954   9.732  66.976  1.00  0.00    -0.105 A  
HETATM   13  C   UNL     1      -8.868   8.686  67.126  1.00  0.00    -0.129 A  
HETATM   14  C   UNL     1     -10.652  10.317  66.914  1.00  0.00    -0.282 A  
HETATM   15  C   UNL     1     -10.227   8.994  67.116  1.00  0.00    -0.334 A  
BRANCH  13  16
HETATM   16  O   UNL     1      -8.519   7.358  67.273  1.00  0.00    -0.117 OA 
BRANCH  16  17
HETATM   17  C   UNL     1      -7.206   7.169  67.810  1.00  0.00    -0.091 C  
BRANCH  17  18
HETATM   18  C   UNL     1      -7.176   6.809  69.288  1.00  0.00    -0.090 C  
HETATM   19  C   UNL     1      -7.735   7.876  70.188  1.00  0.00    -0.088 C  
HETATM   20  O   UNL     1      -8.275   7.150  71.289  1.00  0.00    -0.107 OA 
HETATM   21  C   UNL     1      -8.681   5.855  70.777  1.00  0.00    -0.134 C  
HETATM   22  O   UNL     1      -8.040   5.680  69.497  1.00  0.00    -0.099 OA 
BRANCH  21  23
HETATM   23  C   UNL     1      -8.200   4.737  71.706  1.00  0.00    -0.109 A  
HETATM   24 CL   UNL     1      -9.529   2.796  70.247  1.00  0.00    -0.209 Cl 
HETATM   25  C   UNL     1      -8.535   3.376  71.537  1.00  0.00    -0.068 A  
HETATM   26  C   UNL     1      -7.361   5.061  72.794  1.00  0.00    -0.090 A  
HETATM   27  C   UNL     1      -6.874   4.084  73.663  1.00  0.00    -0.054 A  
HETATM   28  C   UNL     1      -8.054   2.398  72.419  1.00  0.00    -0.054 A  
HETATM   29 CL   UNL     1      -6.610   1.547  74.532  1.00  0.00    -0.015 Cl 
HETATM   30  C   UNL     1      -7.222   2.755  73.472  1.00  0.00    -0.041 A  
ENDBRANCH  21  23
BRANCH  21  31
HETATM   31  C   UNL     1     -10.214   5.882  70.537  1.00  0.00    -0.211 C  
BRANCH  31  32
HETATM   32  N   UNL     1     -10.971   6.855  71.293  1.00  0.00    -0.238 NA 
HETATM   33  N   UNL     1     -11.711   7.973  73.062  1.00  0.00    -0.239 NA 
HETATM   34  C   UNL     1     -11.461   8.046  70.819  1.00  0.00    -0.263 A  
HETATM   35  C   UNL     1     -11.157   6.852  72.649  1.00  0.00    -0.270 A  
HETATM   36  C   UNL     1     -11.889   8.727  71.932  1.00  0.00    -0.367 A  
ENDBRANCH  31  32
ENDBRANCH  21  31
ENDBRANCH  17  18
ENDBRANCH  16  17
ENDBRANCH  13  16
ENDBRANCH   7  10
TORSDOF 7
ENDMDL
MODEL      103
REMARK 921   NORMALIZED FREE ENERGY PREDICTED BY IDOCK:   -5.69 KCAL/MOL
REMARK 922        TOTAL FREE ENERGY PREDICTED BY IDOCK:   -8.45 KCAL/MOL
REMARK 923 INTER-LIGAND FREE ENERGY PREDICTED BY IDOCK:   -7.63 KCAL/MOL
REMARK 924 INTRA-LIGAND FREE ENERGY PREDICTED BY IDOCK:   -0.83 KCAL/MOL
REMARK 927      BINDING AFFINITY PREDICTED BY RF-SCORE:    0.00 PKD
ROOT
HETATM    1  C   UNL     1     -13.338  13.564  72.364  1.00  0.00    -0.641 C  
HETATM    2  C   UNL     1     -12.834  13.228  70.985  1.00  0.00    -0.232 C  
HETATM    3  O   UNL     1     -12.679  14.115  70.147  1.00  0.00    -0.320 OA 
HETATM    4  N   UNL     1     -12.470  11.913  70.758  1.00  0.00    -0.335 N  
HETATM    5  C   UNL     1     -11.810  11.575  69.491  1.00  0.00    -0.351 C  
HETATM    6  C   UNL     1     -10.745  10.486  69.696  1.00  0.00    -0.259 C  
HETATM    7  N   UNL     1     -11.362   9.312  70.356  1.00  0.00    -0.258 NA 
HETATM    8  C   UNL     1     -12.992  10.754  71.504  1.00  0.00    -0.456 C  
HETATM    9  C   UNL     1     -11.938   9.643  71.675  1.00  0.00    -0.394 C  
ENDROOT
BRANCH   7  10
HETATM   10  C   UNL     1     -10.724   8.079  70.254  1.00  0.00    -0.239 A  
HETATM   11  C   UNL     1     -11.373   6.939  69.788  1.00  0.00    -0.288 A  
HETATM   12  C   UNL     1     -10.756   5.689  69.808  1.00  0.00    -0.401 A  
HETATM   13  C   UNL     1      -9.463   5.527  70.312  1.00  0.00    -0.165 A  
HETATM   14  C   UNL     1      -9.402   7.921  70.709  1.00  0.00    -0.161 A  
HETATM   15  C   UNL     1      -8.779   6.663  70.744  1.00  0.00    -0.143 A  
BRANCH  13  16
HETATM   16  O   UNL     1      -8.814   4.314  70.426  1.00  0.00    -0.079 OA 
BRANCH  16  17
HETATM   17  C   UNL     1      -7.816   4.105  69.422  1.00  0.00    -0.056 C  
BRANCH  17  18
HETATM   18  C   UNL     1      -7.500   5.334  68.581  1.00  0.00    -0.071 C  
HETATM   19  C   UNL     1      -6.110   5.342  68.010  1.00  0.00    -0.026 C  
HETATM   20  O   UNL     1      -6.243   6.065  66.790  1.00  0.00    -0.027 OA 
HETATM   21  C   UNL     1      -7.597   5.842  66.317  1.00  0.00    -0.094 C  
HETATM   22  O   UNL     1      -8.357   5.325  67.427  1.00  0.00    -0.107 OA 
BRANCH  21  23
HETATM   23  C   UNL     1      -8.235   7.164  65.879  1.00  0.00    -0.132 A  
HETATM   24 CL   UNL     1      -6.579   7.364  63.671  1.00  0.00    -0.052 Cl 
HETATM   25  C   UNL     1      -7.837   7.887  64.735  1.00  0.00    -0.125 A  
HETATM   26  C   UNL     1      -9.293   7.702  66.643  1.00  0.00    -0.239 A  
HETATM   27  C   UNL     1      -9.928   8.892  66.284  1.00  0.00    -0.337 A  
HETATM   28  C   UNL     1      -8.469   9.088  64.382  1.00  0.00    -0.190 A  
HETATM   29 CL   UNL     1     -10.305  11.039  64.699  1.00  0.00    -0.392 Cl 
HETATM   30  C   UNL     1      -9.514   9.581  65.153  1.00  0.00    -0.236 A  
ENDBRANCH  21  23
BRANCH  21  31
HETATM   31  C   UNL     1      -7.558   4.747  65.219  1.00  0.00    -0.081 C  
BRANCH  31  32
HETATM   32  N   UNL     1      -8.805   4.459  64.547  1.00  0.00    -0.142 NA 
HETATM   33  N   UNL     1     -10.211   4.107  62.866  1.00  0.00    -0.131 NA 
HETATM   34  C   UNL     1      -9.867   3.765  65.071  1.00  0.00    -0.175 A  
HETATM   35  C   UNL     1      -9.066   4.655  63.218  1.00  0.00    -0.080 A  
HETATM   36  C   UNL     1     -10.707   3.538  64.010  1.00  0.00    -0.212 A  
ENDBRANCH  31  32
ENDBRANCH  21  31
ENDBRANCH  17  18
ENDBRANCH  16  17
ENDBRANCH  13  16
ENDBRANCH   7  10
TORSDOF 7
ENDMDL
MODEL      104
REMARK 921   NORMALIZED FREE ENERGY PREDICTED BY IDOCK:   -5.66 KCAL/MOL
REMARK 922        TOTAL FREE ENERGY PREDICTED BY IDOCK:   -8.41 KCAL/MOL
REMARK 923 INTER-LIGAND FREE ENERGY PREDICTED BY IDOCK:   -7.62 KCAL/MOL
REMARK 924 INTRA-LIGAND FREE ENERGY PREDICTED BY IDOCK:   -0.79 KCAL/MOL
REMARK 927      BINDING AFFINITY PREDICTED BY RF-SCORE:    0.00 PKD
ROOT
HETATM    1  C   UNL     1     -12.605  16.599  73.334  1.00  0.00    -0.165 C  
HETATM    2  C   UNL     1     -12.462  15.144  72.970  1.00  0.00    -0.421 C  
HETATM    3  O   UNL     1     -12.758  14.269  73.784  1.00  0.00    -0.361 OA 
HETATM    4  N   UNL     1     -12.085  14.861  71.670  1.00  0.00    -0.335 N  
HETATM    5  C   UNL     1     -12.104  13.463  71.222  1.00  0.00     0.104 C  
HETATM    6  C   UNL     1     -12.543  13.360  69.753  1.00  0.00     0.080 C  
HETATM    7  N   UNL     1     -11.676  14.222  68.918  1.00  0.00    -0.308 NA 
HETATM    8  C   UNL     1     -11.328  15.773  70.795  1.00  0.00    -0.390 C  
HETATM    9  C   UNL     1     -11.739  15.643  69.316  1.00  0.00    -0.375 C  
ENDROOT
BRANCH   7  10
HETATM   10  C   UNL     1     -11.602  13.968  67.551  1.00  0.00    -0.367 A  
HETATM   11  C   UNL     1     -12.408  13.024  66.923  1.00  0.00    -0.068 A  
HETATM   12  C   UNL     1     -12.236  12.697  65.579  1.00  0.00    -0.501 A  
HETATM   13  C   UNL     1     -11.236  13.295  64.810  1.00  0.00    -0.331 A  
HETATM   14  C   UNL     1     -10.632  14.609  66.758  1.00  0.00    -0.288 A  
HETATM   15  C   UNL     1     -10.445  14.275  65.407  1.00  0.00    -0.382 A  
BRANCH  13  16
HETATM   16  O   UNL     1     -10.963  12.974  63.495  1.00  0.00    -0.296 OA 
BRANCH  16  17
HETATM   17  C   UNL     1      -9.859  12.077  63.343  1.00  0.00    -0.278 C  
BRANCH  17  18
HETATM   18  C   UNL     1      -9.993  10.776  64.122  1.00  0.00    -0.343 C  
HETATM   19  C   UNL     1      -9.316   9.603  63.470  1.00  0.00     0.031 C  
HETATM   20  O   UNL     1      -8.925   8.779  64.565  1.00  0.00    -0.066 OA 
HETATM   21  C   UNL     1      -8.693   9.663  65.692  1.00  0.00    -0.141 C  
HETATM   22  O   UNL     1      -9.308  10.928  65.376  1.00  0.00    -0.192 OA 
BRANCH  21  23
HETATM   23  C   UNL     1      -9.363   9.111  66.953  1.00  0.00    -0.199 A  
HETATM   24 CL   UNL     1      -8.705  11.360  68.427  1.00  0.00    -0.153 Cl 
HETATM   25  C   UNL     1      -9.403   9.796  68.186  1.00  0.00    -0.128 A  
HETATM   26  C   UNL     1      -9.994   7.849  66.899  1.00  0.00    -0.332 A  
HETATM   27  C   UNL     1     -10.639   7.302  68.009  1.00  0.00    -0.247 A  
HETATM   28  C   UNL     1     -10.041   9.238  69.304  1.00  0.00    -0.201 A  
HETATM   29 CL   UNL     1     -11.467   7.334  70.574  1.00  0.00    -0.317 Cl 
HETATM   30  C   UNL     1     -10.661   7.999  69.209  1.00  0.00    -0.184 A  
ENDBRANCH  21  23
BRANCH  21  31
HETATM   31  C   UNL     1      -7.165   9.900  65.822  1.00  0.00    -0.110 C  
BRANCH  31  32
HETATM   32  N   UNL     1      -6.328   9.298  64.809  1.00  0.00    -0.073 NA 
HETATM   33  N   UNL     1      -5.437   7.704  63.547  1.00  0.00    -0.044 NA 
HETATM   34  C   UNL     1      -5.826   9.923  63.695  1.00  0.00    -0.117 A  
HETATM   35  C   UNL     1      -6.056   7.962  64.680  1.00  0.00    -0.048 A  
HETATM   36  C   UNL     1      -5.305   8.916  62.921  1.00  0.00    -0.070 A  
ENDBRANCH  31  32
ENDBRANCH  21  31
ENDBRANCH  17  18
ENDBRANCH  16  17
ENDBRANCH  13  16
ENDBRANCH   7  10
TORSDOF 7
ENDMDL
MODEL      105
REMARK 921   NORMALIZED FREE ENERGY PREDICTED BY IDOCK:   -5.66 KCAL/MOL
REMARK 922        TOTAL FREE ENERGY PREDICTED BY IDOCK:   -8.40 KCAL/MOL
REMARK 923 INTER-LIGAND FREE ENERGY PREDICTED BY IDOCK:   -7.97 KCAL/MOL
REMARK 924 INTRA-LIGAND FREE ENERGY PREDICTED BY IDOCK:   -0.44 KCAL/MOL
REMARK 927      BINDING AFFINITY PREDICTED BY RF-SCORE:    0.00 PKD
ROOT
HETATM    1  C   UNL     1     -11.993  12.583  63.239  1.00  0.00    -0.516 C  
HETATM    2  C   UNL     1     -12.044  13.415  64.494  1.00  0.00    -0.409 C  
HETATM    3  O   UNL     1     -12.570  14.527  64.480  1.00  0.00    -0.644 OA 
HETATM    4  N   UNL     1     -11.567  12.826  65.651  1.00  0.00    -0.349 N  
HETATM    5  C   UNL     1     -11.758  13.528  66.926  1.00  0.00    -0.384 C  
HETATM    6  C   UNL     1     -12.032  12.536  68.067  1.00  0.00    -0.223 C  
HETATM    7  N   UNL     1     -10.945  11.532  68.118  1.00  0.00    -0.212 NA 
HETATM    8  C   UNL     1     -10.576  11.737  65.695  1.00  0.00    -0.268 C  
HETATM    9  C   UNL     1     -10.825  10.763  66.863  1.00  0.00    -0.229 C  
ENDROOT
BRANCH   7  10
HETATM   10  C   UNL     1     -10.753  10.818  69.298  1.00  0.00    -0.229 A  
HETATM   11  C   UNL     1      -9.587  10.103  69.556  1.00  0.00    -0.243 A  
HETATM   12  C   UNL     1      -9.462   9.296  70.686  1.00  0.00    -0.333 A  
HETATM   13  C   UNL     1     -10.509   9.160  71.599  1.00  0.00    -0.332 A  
HETATM   14  C   UNL     1     -11.785  10.722  70.250  1.00  0.00    -0.442 A  
HETATM   15  C   UNL     1     -11.670   9.902  71.383  1.00  0.00    -0.449 A  
BRANCH  13  16
HETATM   16  O   UNL     1     -10.483   8.331  72.702  1.00  0.00    -0.320 OA 
BRANCH  16  17
HETATM   17  C   UNL     1      -9.161   8.049  73.173  1.00  0.00    -0.279 C  
BRANCH  17  18
HETATM   18  C   UNL     1      -8.372   7.086  72.297  1.00  0.00    -0.110 C  
HETATM   19  C   UNL     1      -7.008   6.751  72.834  1.00  0.00    -0.075 C  
HETATM   20  O   UNL     1      -6.771   5.426  72.367  1.00  0.00    -0.064 OA 
HETATM   21  C   UNL     1      -8.067   4.785  72.251  1.00  0.00    -0.107 C  
HETATM   22  O   UNL     1      -9.064   5.826  72.274  1.00  0.00    -0.142 OA 
BRANCH  21  23
HETATM   23  C   UNL     1      -8.182   4.047  70.914  1.00  0.00    -0.075 A  
HETATM   24 CL   UNL     1      -5.845   2.633  71.363  1.00  0.00    -0.013 Cl 
HETATM   25  C   UNL     1      -7.245   3.096  70.459  1.00  0.00    -0.037 A  
HETATM   26  C   UNL     1      -9.289   4.309  70.078  1.00  0.00    -0.234 A  
HETATM   27  C   UNL     1      -9.459   3.653  68.857  1.00  0.00    -0.218 A  
HETATM   28  C   UNL     1      -7.412   2.447  69.226  1.00  0.00    -0.043 A  
HETATM   29 CL   UNL     1      -8.736   1.903  66.940  1.00  0.00    -0.118 Cl 
HETATM   30  C   UNL     1      -8.520   2.723  68.436  1.00  0.00    -0.073 A  
ENDBRANCH  21  23
BRANCH  21  31
HETATM   31  C   UNL     1      -8.286   3.893  73.502  1.00  0.00    -0.088 C  
BRANCH  31  32
HETATM   32  N   UNL     1      -9.459   3.049  73.499  1.00  0.00    -0.094 NA 
HETATM   33  N   UNL     1     -11.611   2.504  73.522  1.00  0.00    -0.175 NA 
HETATM   34  C   UNL     1      -9.540   1.776  72.992  1.00  0.00    -0.077 A  
HETATM   35  C   UNL     1     -10.732   3.439  73.818  1.00  0.00    -0.215 A  
HETATM   36  C   UNL     1     -10.879   1.473  72.993  1.00  0.00    -0.147 A  
ENDBRANCH  31  32
ENDBRANCH  21  31
ENDBRANCH  17  18
ENDBRANCH  16  17
ENDBRANCH  13  16
ENDBRANCH   7  10
TORSDOF 7
ENDMDL
MODEL      106
REMARK 921   NORMALIZED FREE ENERGY PREDICTED BY IDOCK:   -5.64 KCAL/MOL
REMARK 922        TOTAL FREE ENERGY PREDICTED BY IDOCK:   -8.38 KCAL/MOL
REMARK 923 INTER-LIGAND FREE ENERGY PREDICTED BY IDOCK:   -8.09 KCAL/MOL
REMARK 924 INTRA-LIGAND FREE ENERGY PREDICTED BY IDOCK:   -0.29 KCAL/MOL
REMARK 927      BINDING AFFINITY PREDICTED BY RF-SCORE:    0.00 PKD
ROOT
HETATM    1  C   UNL     1      -8.518   3.308  71.735  1.00  0.00    -0.087 C  
HETATM    2  C   UNL     1      -9.856   3.841  72.176  1.00  0.00    -0.168 C  
HETATM    3  O   UNL     1     -10.501   3.257  73.046  1.00  0.00    -0.154 OA 
HETATM    4  N   UNL     1     -10.256   5.047  71.631  1.00  0.00    -0.205 N  
HETATM    5  C   UNL     1     -11.464   5.691  72.161  1.00  0.00    -0.179 C  
HETATM    6  C   UNL     1     -11.312   7.220  72.180  1.00  0.00    -0.265 C  
HETATM    7  N   UNL     1     -10.952   7.696  70.825  1.00  0.00    -0.247 NA 
HETATM    8  C   UNL     1      -9.796   5.580  70.336  1.00  0.00    -0.197 C  
HETATM    9  C   UNL     1      -9.682   7.117  70.341  1.00  0.00    -0.176 C  
ENDROOT
BRANCH   7  10
HETATM   10  C   UNL     1     -11.179   9.032  70.506  1.00  0.00    -0.260 A  
HETATM   11  C   UNL     1     -11.985   9.859  71.284  1.00  0.00    -0.489 A  
HETATM   12  C   UNL     1     -12.300  11.157  70.884  1.00  0.00    -0.500 A  
HETATM   13  C   UNL     1     -11.830  11.677  69.676  1.00  0.00    -0.352 A  
HETATM   14  C   UNL     1     -10.662   9.580  69.318  1.00  0.00    -0.240 A  
HETATM   15  C   UNL     1     -10.985  10.882  68.902  1.00  0.00    -0.278 A  
BRANCH  13  16
HETATM   16  O   UNL     1     -12.152  12.925  69.184  1.00  0.00    -0.266 OA 
BRANCH  16  17
HETATM   17  C   UNL     1     -12.660  13.818  70.181  1.00  0.00    -0.191 C  
BRANCH  17  18
HETATM   18  C   UNL     1     -12.279  15.277  69.973  1.00  0.00    -0.349 C  
HETATM   19  C   UNL     1     -11.692  15.934  71.190  1.00  0.00    -0.442 C  
HETATM   20  O   UNL     1     -10.799  16.909  70.658  1.00  0.00     0.064 OA 
HETATM   21  C   UNL     1     -10.332  16.397  69.383  1.00  0.00    -0.290 C  
HETATM   22  O   UNL     1     -11.227  15.335  68.996  1.00  0.00    -0.248 OA 
BRANCH  21  23
HETATM   23  C   UNL     1     -10.399  17.489  68.311  1.00  0.00    -0.379 A  
HETATM   24 CL   UNL     1     -10.028  19.501  70.175  1.00  0.00     0.348 Cl 
HETATM   25  C   UNL     1     -10.278  18.867  68.586  1.00  0.00    -0.311 A  
HETATM   26  C   UNL     1     -10.578  17.116  66.961  1.00  0.00    -0.227 A  
HETATM   27  C   UNL     1     -10.627  18.064  65.938  1.00  0.00    -0.225 A  
HETATM   28  C   UNL     1     -10.339  19.818  67.556  1.00  0.00    -0.578 A  
HETATM   29 CL   UNL     1     -10.549  20.581  64.978  1.00  0.00     0.373 Cl 
HETATM   30  C   UNL     1     -10.506  19.412  66.239  1.00  0.00    -0.493 A  
ENDBRANCH  21  23
BRANCH  21  31
HETATM   31  C   UNL     1      -8.925  15.778  69.589  1.00  0.00    -0.084 C  
BRANCH  31  32
HETATM   32  N   UNL     1      -7.866  16.279  68.742  1.00  0.00    -0.202 NA 
HETATM   33  N   UNL     1      -6.658  16.572  66.903  1.00  0.00    -0.195 NA 
HETATM   34  C   UNL     1      -7.170  17.448  68.920  1.00  0.00    -0.250 A  
HETATM   35  C   UNL     1      -7.512  15.780  67.517  1.00  0.00    -0.172 A  
HETATM   36  C   UNL     1      -6.452  17.620  67.763  1.00  0.00    -0.174 A  
ENDBRANCH  31  32
ENDBRANCH  21  31
ENDBRANCH  17  18
ENDBRANCH  16  17
ENDBRANCH  13  16
ENDBRANCH   7  10
TORSDOF 7
ENDMDL
MODEL      107
REMARK 921   NORMALIZED FREE ENERGY PREDICTED BY IDOCK:   -5.63 KCAL/MOL
REMARK 922        TOTAL FREE ENERGY PREDICTED BY IDOCK:   -8.36 KCAL/MOL
REMARK 923 INTER-LIGAND FREE ENERGY PREDICTED BY IDOCK:   -8.04 KCAL/MOL
REMARK 924 INTRA-LIGAND FREE ENERGY PREDICTED BY IDOCK:   -0.33 KCAL/MOL
REMARK 927      BINDING AFFINITY PREDICTED BY RF-SCORE:    0.00 PKD
ROOT
HETATM    1  C   UNL     1      -7.359   4.777  66.691  1.00  0.00    -0.082 C  
HETATM    2  C   UNL     1      -6.899   5.959  65.879  1.00  0.00    -0.060 C  
HETATM    3  O   UNL     1      -5.926   5.858  65.132  1.00  0.00    -0.024 OA 
HETATM    4  N   UNL     1      -7.677   7.101  65.945  1.00  0.00    -0.096 N  
HETATM    5  C   UNL     1      -7.369   8.214  65.039  1.00  0.00    -0.082 C  
HETATM    6  C   UNL     1      -8.653   8.920  64.575  1.00  0.00    -0.129 C  
HETATM    7  N   UNL     1      -9.438   9.340  65.758  1.00  0.00    -0.250 NA 
HETATM    8  C   UNL     1      -8.558   7.456  67.072  1.00  0.00    -0.119 C  
HETATM    9  C   UNL     1      -9.827   8.200  66.613  1.00  0.00    -0.261 C  
ENDROOT
BRANCH   7  10
HETATM   10  C   UNL     1     -10.389  10.345  65.604  1.00  0.00    -0.190 A  
HETATM   11  C   UNL     1     -10.671  10.922  64.369  1.00  0.00    -0.250 A  
HETATM   12  C   UNL     1     -11.536  12.010  64.253  1.00  0.00    -0.435 A  
HETATM   13  C   UNL     1     -12.145  12.574  65.376  1.00  0.00    -0.435 A  
HETATM   14  C   UNL     1     -11.048  10.881  66.725  1.00  0.00    -0.196 A  
HETATM   15  C   UNL     1     -11.911  11.984  66.618  1.00  0.00    -0.239 A  
BRANCH  13  16
HETATM   16  O   UNL     1     -12.958  13.689  65.348  1.00  0.00    -0.683 OA 
BRANCH  16  17
HETATM   17  C   UNL     1     -12.400  14.784  64.614  1.00  0.00    -0.333 C  
BRANCH  17  18
HETATM   18  C   UNL     1     -11.021  15.221  65.087  1.00  0.00    -0.416 C  
HETATM   19  C   UNL     1     -10.679  16.643  64.738  1.00  0.00     0.052 C  
HETATM   20  O   UNL     1      -9.814  17.057  65.792  1.00  0.00    -0.525 OA 
HETATM   21  C   UNL     1     -10.199  16.303  66.970  1.00  0.00    -0.280 C  
HETATM   22  O   UNL     1     -11.007  15.196  66.524  1.00  0.00    -0.320 OA 
BRANCH  21  23
HETATM   23  C   UNL     1      -8.961  15.737  67.671  1.00  0.00    -0.190 A  
HETATM   24 CL   UNL     1     -10.294  15.507  70.086  1.00  0.00    -0.317 Cl 
HETATM   25  C   UNL     1      -8.929  15.371  69.034  1.00  0.00    -0.230 A  
HETATM   26  C   UNL     1      -7.776  15.549  66.927  1.00  0.00    -0.200 A  
HETATM   27  C   UNL     1      -6.622  15.019  67.506  1.00  0.00    -0.153 A  
HETATM   28  C   UNL     1      -7.764  14.848  69.615  1.00  0.00    -0.072 A  
HETATM   29 CL   UNL     1      -5.205  13.999  69.559  1.00  0.00    -0.083 Cl 
HETATM   30  C   UNL     1      -6.620  14.668  68.848  1.00  0.00    -0.093 A  
ENDBRANCH  21  23
BRANCH  21  31
HETATM   31  C   UNL     1     -11.089  17.210  67.861  1.00  0.00    -0.087 C  
BRANCH  31  32
HETATM   32  N   UNL     1     -10.669  18.585  68.010  1.00  0.00    -0.302 NA 
HETATM   33  N   UNL     1      -9.586  20.333  68.844  1.00  0.00     0.084 NA 
HETATM   34  C   UNL     1     -10.674  19.544  67.029  1.00  0.00    -0.477 A  
HETATM   35  C   UNL     1     -10.015  19.113  69.091  1.00  0.00    -0.274 A  
HETATM   36  C   UNL     1      -9.978  20.603  67.559  1.00  0.00    -0.288 A  
ENDBRANCH  31  32
ENDBRANCH  21  31
ENDBRANCH  17  18
ENDBRANCH  16  17
ENDBRANCH  13  16
ENDBRANCH   7  10
TORSDOF 7
ENDMDL
MODEL      108
REMARK 921   NORMALIZED FREE ENERGY PREDICTED BY IDOCK:   -5.60 KCAL/MOL
REMARK 922        TOTAL FREE ENERGY PREDICTED BY IDOCK:   -8.32 KCAL/MOL
REMARK 923 INTER-LIGAND FREE ENERGY PREDICTED BY IDOCK:   -7.61 KCAL/MOL
REMARK 924 INTRA-LIGAND FREE ENERGY PREDICTED BY IDOCK:   -0.71 KCAL/MOL
REMARK 927      BINDING AFFINITY PREDICTED BY RF-SCORE:    0.00 PKD
ROOT
HETATM    1  C   UNL     1     -10.249   4.724  65.968  1.00  0.00    -0.308 C  
HETATM    2  C   UNL     1      -8.962   5.321  65.463  1.00  0.00    -0.155 C  
HETATM    3  O   UNL     1      -8.412   4.856  64.465  1.00  0.00    -0.132 OA 
HETATM    4  N   UNL     1      -8.504   6.453  66.111  1.00  0.00    -0.134 N  
HETATM    5  C   UNL     1      -7.354   7.169  65.546  1.00  0.00    -0.079 C  
HETATM    6  C   UNL     1      -7.501   8.687  65.734  1.00  0.00    -0.085 C  
HETATM    7  N   UNL     1      -7.719   8.987  67.168  1.00  0.00    -0.098 NA 
HETATM    8  C   UNL     1      -8.826   6.815  67.503  1.00  0.00    -0.117 C  
HETATM    9  C   UNL     1      -8.934   8.339  67.703  1.00  0.00    -0.135 C  
ENDROOT
BRANCH   7  10
HETATM   10  C   UNL     1      -7.455  10.274  67.627  1.00  0.00    -0.089 A  
HETATM   11  C   UNL     1      -7.038  11.297  66.781  1.00  0.00    -0.143 A  
HETATM   12  C   UNL     1      -6.661  12.545  67.276  1.00  0.00    -0.122 A  
HETATM   13  C   UNL     1      -6.673  12.815  68.646  1.00  0.00    -0.088 A  
HETATM   14  C   UNL     1      -7.519  10.568  69.002  1.00  0.00    -0.112 A  
HETATM   15  C   UNL     1      -7.129  11.818  69.509  1.00  0.00     0.089 A  
BRANCH  13  16
HETATM   16  O   UNL     1      -6.252  14.000  69.214  1.00  0.00    -0.093 OA 
BRANCH  16  17
HETATM   17  C   UNL     1      -7.223  15.049  69.130  1.00  0.00    -0.159 C  
BRANCH  17  18
HETATM   18  C   UNL     1      -8.610  14.591  68.707  1.00  0.00    -0.145 C  
HETATM   19  C   UNL     1      -9.724  15.180  69.527  1.00  0.00    -0.165 C  
HETATM   20  O   UNL     1     -10.819  15.253  68.619  1.00  0.00    -0.237 OA 
HETATM   21  C   UNL     1     -10.254  15.427  67.294  1.00  0.00    -0.254 C  
HETATM   22  O   UNL     1      -8.859  15.073  67.376  1.00  0.00    -0.173 OA 
BRANCH  21  23
HETATM   23  C   UNL     1     -10.927  14.480  66.296  1.00  0.00    -0.323 A  
HETATM   24 CL   UNL     1     -10.620  12.303  67.978  1.00  0.00    -0.221 Cl 
HETATM   25  C   UNL     1     -11.117  13.101  66.526  1.00  0.00    -0.294 A  
HETATM   26  C   UNL     1     -11.404  14.999  65.073  1.00  0.00    -0.395 A  
HETATM   27  C   UNL     1     -12.044  14.191  64.132  1.00  0.00    -0.437 A  
HETATM   28  C   UNL     1     -11.750  12.289  65.574  1.00  0.00    -0.433 A  
HETATM   29 CL   UNL     1     -13.017  11.843  63.236  1.00  0.00    -0.436 Cl 
HETATM   30  C   UNL     1     -12.216  12.838  64.386  1.00  0.00    -0.428 A  
ENDBRANCH  21  23
BRANCH  21  31
HETATM   31  C   UNL     1     -10.339  16.930  66.919  1.00  0.00    -0.304 C  
BRANCH  31  32
HETATM   32  N   UNL     1      -9.229  17.763  67.323  1.00  0.00    -0.250 NA 
HETATM   33  N   UNL     1      -7.446  19.068  67.117  1.00  0.00    -0.227 NA 
HETATM   34  C   UNL     1      -9.129  18.466  68.497  1.00  0.00    -0.324 A  
HETATM   35  C   UNL     1      -8.183  18.149  66.529  1.00  0.00    -0.267 A  
HETATM   36  C   UNL     1      -8.037  19.282  68.335  1.00  0.00    -0.343 A  
ENDBRANCH  31  32
ENDBRANCH  21  31
ENDBRANCH  17  18
ENDBRANCH  16  17
ENDBRANCH  13  16
ENDBRANCH   7  10
TORSDOF 7
ENDMDL
MODEL      109
REMARK 921   NORMALIZED FREE ENERGY PREDICTED BY IDOCK:   -5.57 KCAL/MOL
REMARK 922        TOTAL FREE ENERGY PREDICTED BY IDOCK:   -8.28 KCAL/MOL
REMARK 923 INTER-LIGAND FREE ENERGY PREDICTED BY IDOCK:   -7.03 KCAL/MOL
REMARK 924 INTRA-LIGAND FREE ENERGY PREDICTED BY IDOCK:   -1.25 KCAL/MOL
REMARK 927      BINDING AFFINITY PREDICTED BY RF-SCORE:    0.00 PKD
ROOT
HETATM    1  C   UNL     1      -9.536   3.513  69.743  1.00  0.00    -0.241 C  
HETATM    2  C   UNL     1      -8.799   3.939  68.500  1.00  0.00    -0.109 C  
HETATM    3  O   UNL     1      -8.753   3.195  67.521  1.00  0.00    -0.102 OA 
HETATM    4  N   UNL     1      -8.280   5.221  68.492  1.00  0.00    -0.090 N  
HETATM    5  C   UNL     1      -7.711   5.740  67.243  1.00  0.00    -0.101 C  
HETATM    6  C   UNL     1      -8.003   7.241  67.085  1.00  0.00    -0.110 C  
HETATM    7  N   UNL     1      -7.521   7.965  68.284  1.00  0.00    -0.101 NA 
HETATM    8  C   UNL     1      -7.918   5.990  69.696  1.00  0.00    -0.106 C  
HETATM    9  C   UNL     1      -8.172   7.500  69.525  1.00  0.00    -0.130 C  
ENDROOT
BRANCH   7  10
HETATM   10  C   UNL     1      -7.288   9.334  68.186  1.00  0.00    -0.079 A  
HETATM   11  C   UNL     1      -7.524  10.208  69.242  1.00  0.00    -0.111 A  
HETATM   12  C   UNL     1      -7.401  11.588  69.088  1.00  0.00    -0.057 A  
HETATM   13  C   UNL     1      -7.050  12.152  67.860  1.00  0.00    -0.101 A  
HETATM   14  C   UNL     1      -6.879   9.902  66.965  1.00  0.00    -0.083 A  
HETATM   15  C   UNL     1      -6.766  11.292  66.799  1.00  0.00    -0.140 A  
BRANCH  13  16
HETATM   16  O   UNL     1      -6.974  13.508  67.614  1.00  0.00    -0.147 OA 
BRANCH  16  17
HETATM   17  C   UNL     1      -8.000  13.988  66.740  1.00  0.00     0.399 C  
BRANCH  17  18
HETATM   18  C   UNL     1      -9.040  14.871  67.414  1.00  0.00    -0.189 C  
HETATM   19  C   UNL     1      -9.880  15.667  66.454  1.00  0.00    -0.274 C  
HETATM   20  O   UNL     1     -11.131  15.803  67.122  1.00  0.00    -0.286 OA 
HETATM   21  C   UNL     1     -11.283  14.633  67.968  1.00  0.00    -0.293 C  
HETATM   22  O   UNL     1      -9.983  14.022  68.090  1.00  0.00    -0.228 OA 
BRANCH  21  23
HETATM   23  C   UNL     1     -11.750  15.042  69.368  1.00  0.00    -0.351 A  
HETATM   24 CL   UNL     1      -9.902  17.097  69.509  1.00  0.00     0.026 Cl 
HETATM   25  C   UNL     1     -11.189  16.107  70.103  1.00  0.00    -0.370 A  
HETATM   26  C   UNL     1     -12.812  14.333  69.971  1.00  0.00    -0.037 A  
HETATM   27  C   UNL     1     -13.295  14.671  71.237  1.00  0.00    -0.447 A  
HETATM   28  C   UNL     1     -11.669  16.437  71.380  1.00  0.00    -0.293 A  
HETATM   29 CL   UNL     1     -13.326  16.152  73.488  1.00  0.00    -0.579 Cl 
HETATM   30  C   UNL     1     -12.722  15.724  71.936  1.00  0.00    -0.451 A  
ENDBRANCH  21  23
BRANCH  21  31
HETATM   31  C   UNL     1     -12.214  13.624  67.244  1.00  0.00    -0.275 C  
BRANCH  31  32
HETATM   32  N   UNL     1     -11.726  12.269  67.118  1.00  0.00    -0.502 NA 
HETATM   33  N   UNL     1     -10.532  10.570  66.335  1.00  0.00    -0.220 NA 
HETATM   34  C   UNL     1     -11.726  11.313  68.102  1.00  0.00    -0.253 A  
HETATM   35  C   UNL     1     -11.006  11.769  66.066  1.00  0.00    -0.306 A  
HETATM   36  C   UNL     1     -10.962  10.286  67.605  1.00  0.00    -0.294 A  
ENDBRANCH  31  32
ENDBRANCH  21  31
ENDBRANCH  17  18
ENDBRANCH  16  17
ENDBRANCH  13  16
ENDBRANCH   7  10
TORSDOF 7
ENDMDL
MODEL      110
REMARK 921   NORMALIZED FREE ENERGY PREDICTED BY IDOCK:   -5.55 KCAL/MOL
REMARK 922        TOTAL FREE ENERGY PREDICTED BY IDOCK:   -8.25 KCAL/MOL
REMARK 923 INTER-LIGAND FREE ENERGY PREDICTED BY IDOCK:   -7.25 KCAL/MOL
REMARK 924 INTRA-LIGAND FREE ENERGY PREDICTED BY IDOCK:   -1.00 KCAL/MOL
REMARK 927      BINDING AFFINITY PREDICTED BY RF-SCORE:    0.00 PKD
ROOT
HETATM    1  C   UNL     1     -11.691  17.333  73.762  1.00  0.00     0.370 C  
HETATM    2  C   UNL     1     -12.206  15.926  73.610  1.00  0.00    -0.528 C  
HETATM    3  O   UNL     1     -12.855  15.402  74.515  1.00  0.00    -0.287 OA 
HETATM    4  N   UNL     1     -11.999  15.315  72.387  1.00  0.00    -0.391 N  
HETATM    5  C   UNL     1     -12.635  14.017  72.134  1.00  0.00    -0.193 C  
HETATM    6  C   UNL     1     -13.081  13.897  70.668  1.00  0.00    -0.076 C  
HETATM    7  N   UNL     1     -11.925  14.156  69.779  1.00  0.00    -0.319 NA 
HETATM    8  C   UNL     1     -10.920  15.662  71.445  1.00  0.00    -0.083 C  
HETATM    9  C   UNL     1     -11.352  15.503  69.974  1.00  0.00    -0.321 C  
ENDROOT
BRANCH   7  10
HETATM   10  C   UNL     1     -11.977  13.694  68.467  1.00  0.00    -0.361 A  
HETATM   11  C   UNL     1     -11.986  12.338  68.153  1.00  0.00    -0.256 A  
HETATM   12  C   UNL     1     -11.915  11.894  66.833  1.00  0.00    -0.002 A  
HETATM   13  C   UNL     1     -11.816  12.795  65.771  1.00  0.00    -0.434 A  
HETATM   14  C   UNL     1     -11.935  14.598  67.390  1.00  0.00    -0.309 A  
HETATM   15  C   UNL     1     -11.850  14.158  66.059  1.00  0.00    -0.409 A  
BRANCH  13  16
HETATM   16  O   UNL     1     -11.676  12.430  64.447  1.00  0.00    -0.331 OA 
BRANCH  16  17
HETATM   17  C   UNL     1     -10.313  12.274  64.039  1.00  0.00    -0.397 C  
BRANCH  17  18
HETATM   18  C   UNL     1      -9.821  10.834  64.023  1.00  0.00    -0.332 C  
HETATM   19  C   UNL     1      -8.661  10.595  63.096  1.00  0.00    -0.190 C  
HETATM   20  O   UNL     1      -7.938   9.535  63.716  1.00  0.00    -0.126 OA 
HETATM   21  C   UNL     1      -8.166   9.652  65.144  1.00  0.00    -0.134 C  
HETATM   22  O   UNL     1      -9.304  10.518  65.326  1.00  0.00    -0.185 OA 
BRANCH  21  23
HETATM   23  C   UNL     1      -8.506   8.286  65.745  1.00  0.00    -0.164 A  
HETATM   24 CL   UNL     1      -6.035   7.242  65.063  1.00  0.00    -0.037 Cl 
HETATM   25  C   UNL     1      -7.625   7.184  65.742  1.00  0.00    -0.094 A  
HETATM   26  C   UNL     1      -9.766   8.098  66.356  1.00  0.00    -0.275 A  
HETATM   27  C   UNL     1     -10.126   6.882  66.938  1.00  0.00    -0.286 A  
HETATM   28  C   UNL     1      -7.994   5.960  66.318  1.00  0.00    -0.102 A  
HETATM   29 CL   UNL     1      -9.673   4.323  67.650  1.00  0.00    -0.209 Cl 
HETATM   30  C   UNL     1      -9.238   5.817  66.919  1.00  0.00    -0.122 A  
ENDBRANCH  21  23
BRANCH  21  31
HETATM   31  C   UNL     1      -6.935  10.350  65.780  1.00  0.00    -0.136 C  
BRANCH  31  32
HETATM   32  N   UNL     1      -7.142  10.991  67.059  1.00  0.00    -0.110 NA 
HETATM   33  N   UNL     1      -8.082  12.307  68.580  1.00  0.00    -0.081 NA 
HETATM   34  C   UNL     1      -6.753  10.505  68.282  1.00  0.00    -0.060 A  
HETATM   35  C   UNL     1      -7.930  12.086  67.291  1.00  0.00    -0.174 A  
HETATM   36  C   UNL     1      -7.365  11.318  69.203  1.00  0.00    -0.104 A  
ENDBRANCH  31  32
ENDBRANCH  21  31
ENDBRANCH  17  18
ENDBRANCH  16  17
ENDBRANCH  13  16
ENDBRANCH   7  10
TORSDOF 7
ENDMDL
MODEL      111
REMARK 921   NORMALIZED FREE ENERGY PREDICTED BY IDOCK:   -5.52 KCAL/MOL
REMARK 922        TOTAL FREE ENERGY PREDICTED BY IDOCK:   -8.21 KCAL/MOL
REMARK 923 INTER-LIGAND FREE ENERGY PREDICTED BY IDOCK:   -7.08 KCAL/MOL
REMARK 924 INTRA-LIGAND FREE ENERGY PREDICTED BY IDOCK:   -1.13 KCAL/MOL
REMARK 927      BINDING AFFINITY PREDICTED BY RF-SCORE:    0.00 PKD
ROOT
HETATM    1  C   UNL     1      -6.608  21.038  67.389  1.00  0.00    -0.439 C  
HETATM    2  C   UNL     1      -6.415  19.947  68.409  1.00  0.00    -0.278 C  
HETATM    3  O   UNL     1      -5.949  20.209  69.517  1.00  0.00    -0.289 OA 
HETATM    4  N   UNL     1      -6.875  18.688  68.069  1.00  0.00    -0.222 N  
HETATM    5  C   UNL     1      -6.870  17.638  69.094  1.00  0.00    -0.229 C  
HETATM    6  C   UNL     1      -8.090  16.715  68.946  1.00  0.00    -0.235 C  
HETATM    7  N   UNL     1      -8.135  16.176  67.568  1.00  0.00    -0.140 NA 
HETATM    8  C   UNL     1      -7.039  18.196  66.689  1.00  0.00    -0.211 C  
HETATM    9  C   UNL     1      -8.238  17.238  66.547  1.00  0.00    -0.276 C  
ENDROOT
BRANCH   7  10
HETATM   10  C   UNL     1      -8.872  15.019  67.329  1.00  0.00    -0.201 A  
HETATM   11  C   UNL     1      -8.949  13.979  68.250  1.00  0.00    -0.190 A  
HETATM   12  C   UNL     1      -9.590  12.780  67.945  1.00  0.00    -0.211 A  
HETATM   13  C   UNL     1     -10.170  12.566  66.692  1.00  0.00    -0.230 A  
HETATM   14  C   UNL     1      -9.506  14.821  66.088  1.00  0.00    -0.324 A  
HETATM   15  C   UNL     1     -10.142  13.611  65.769  1.00  0.00    -0.311 A  
BRANCH  13  16
HETATM   16  O   UNL     1     -10.762  11.384  66.295  1.00  0.00    -0.259 OA 
BRANCH  16  17
HETATM   17  C   UNL     1     -10.311  10.921  65.018  1.00  0.00    -0.288 C  
BRANCH  17  18
HETATM   18  C   UNL     1      -9.449   9.668  65.071  1.00  0.00    -0.245 C  
HETATM   19  C   UNL     1      -8.014   9.929  65.433  1.00  0.00    -0.134 C  
HETATM   20  O   UNL     1      -7.609   8.742  66.110  1.00  0.00    -0.091 OA 
HETATM   21  C   UNL     1      -8.794   8.196  66.743  1.00  0.00    -0.138 C  
HETATM   22  O   UNL     1      -9.936   8.829  66.131  1.00  0.00    -0.275 OA 
BRANCH  21  23
HETATM   23  C   UNL     1      -8.892   6.689  66.487  1.00  0.00    -0.144 A  
HETATM   24 CL   UNL     1     -11.265   6.487  67.897  1.00  0.00    -0.339 Cl 
HETATM   25  C   UNL     1      -9.942   5.878  66.965  1.00  0.00    -0.166 A  
HETATM   26  C   UNL     1      -7.890   6.057  65.719  1.00  0.00    -0.104 A  
HETATM   27  C   UNL     1      -7.935   4.691  65.435  1.00  0.00    -0.099 A  
HETATM   28  C   UNL     1      -9.979   4.503  66.687  1.00  0.00    -0.253 A  
HETATM   29 CL   UNL     1      -9.046   2.239  65.557  1.00  0.00    -0.123 Cl 
HETATM   30  C   UNL     1      -8.980   3.919  65.919  1.00  0.00    -0.132 A  
ENDBRANCH  21  23
BRANCH  21  31
HETATM   31  C   UNL     1      -8.778   8.597  68.242  1.00  0.00    -0.142 C  
BRANCH  31  32
HETATM   32  N   UNL     1      -7.787   7.953  69.074  1.00  0.00    -0.108 NA 
HETATM   33  N   UNL     1      -6.915   6.461  70.466  1.00  0.00    -0.062 NA 
HETATM   34  C   UNL     1      -6.425   8.034  68.922  1.00  0.00    -0.048 A  
HETATM   35  C   UNL     1      -8.032   7.001  70.027  1.00  0.00    -0.115 A  
HETATM   36  C   UNL     1      -5.912   7.087  69.773  1.00  0.00    -0.023 A  
ENDBRANCH  31  32
ENDBRANCH  21  31
ENDBRANCH  17  18
ENDBRANCH  16  17
ENDBRANCH  13  16
ENDBRANCH   7  10
TORSDOF 7
ENDMDL
MODEL      112
REMARK 921   NORMALIZED FREE ENERGY PREDICTED BY IDOCK:   -5.51 KCAL/MOL
REMARK 922        TOTAL FREE ENERGY PREDICTED BY IDOCK:   -8.20 KCAL/MOL
REMARK 923 INTER-LIGAND FREE ENERGY PREDICTED BY IDOCK:   -7.44 KCAL/MOL
REMARK 924 INTRA-LIGAND FREE ENERGY PREDICTED BY IDOCK:   -0.76 KCAL/MOL
REMARK 927      BINDING AFFINITY PREDICTED BY RF-SCORE:    0.00 PKD
ROOT
HETATM    1  C   UNL     1     -10.585  19.868  65.694  1.00  0.00    -0.431 C  
HETATM    2  C   UNL     1     -10.447  19.449  67.134  1.00  0.00    -0.466 C  
HETATM    3  O   UNL     1     -10.627  20.265  68.038  1.00  0.00    -0.251 OA 
HETATM    4  N   UNL     1     -10.212  18.107  67.373  1.00  0.00    -0.355 N  
HETATM    5  C   UNL     1     -10.246  17.624  68.759  1.00  0.00    -0.373 C  
HETATM    6  C   UNL     1     -10.845  16.211  68.837  1.00  0.00    -0.305 C  
HETATM    7  N   UNL     1     -10.099  15.310  67.930  1.00  0.00    -0.231 NA 
HETATM    8  C   UNL     1      -9.581  17.180  66.417  1.00  0.00    -0.278 C  
HETATM    9  C   UNL     1     -10.153  15.752  66.522  1.00  0.00    -0.282 C  
ENDROOT
BRANCH   7  10
HETATM   10  C   UNL     1     -10.173  13.937  68.146  1.00  0.00    -0.249 A  
HETATM   11  C   UNL     1      -9.288  13.039  67.556  1.00  0.00    -0.200 A  
HETATM   12  C   UNL     1      -9.453  11.660  67.686  1.00  0.00    -0.177 A  
HETATM   13  C   UNL     1     -10.523  11.123  68.404  1.00  0.00    -0.188 A  
HETATM   14  C   UNL     1     -11.217  13.391  68.916  1.00  0.00    -0.320 A  
HETATM   15  C   UNL     1     -11.396  12.004  69.041  1.00  0.00    -0.331 A  
BRANCH  13  16
HETATM   16  O   UNL     1     -10.787   9.773  68.521  1.00  0.00    -0.222 OA 
BRANCH  16  17
HETATM   17  C   UNL     1     -10.878   9.325  69.877  1.00  0.00    -0.234 C  
BRANCH  17  18
HETATM   18  C   UNL     1     -10.809   7.814  70.048  1.00  0.00    -0.241 C  
HETATM   19  C   UNL     1     -10.959   7.048  68.763  1.00  0.00    -0.101 C  
HETATM   20  O   UNL     1     -10.189   5.868  68.974  1.00  0.00    -0.168 OA 
HETATM   21  C   UNL     1      -9.125   6.221  69.896  1.00  0.00    -0.144 C  
HETATM   22  O   UNL     1      -9.493   7.472  70.513  1.00  0.00    -0.164 OA 
BRANCH  21  23
HETATM   23  C   UNL     1      -8.999   5.166  70.999  1.00  0.00    -0.159 A  
HETATM   24 CL   UNL     1      -7.248   6.735  72.459  1.00  0.00    -0.075 Cl 
HETATM   25  C   UNL     1      -8.193   5.321  72.146  1.00  0.00    -0.114 A  
HETATM   26  C   UNL     1      -9.734   3.966  70.888  1.00  0.00    -0.253 A  
HETATM   27  C   UNL     1      -9.676   2.976  71.870  1.00  0.00    -0.234 A  
HETATM   28  C   UNL     1      -8.128   4.320  73.126  1.00  0.00    -0.091 A  
HETATM   29 CL   UNL     1      -8.813   1.945  74.205  1.00  0.00    -0.061 Cl 
HETATM   30  C   UNL     1      -8.874   3.157  72.987  1.00  0.00    -0.084 A  
ENDBRANCH  21  23
BRANCH  21  31
HETATM   31  C   UNL     1      -7.828   6.460  69.078  1.00  0.00    -0.110 C  
BRANCH  31  32
HETATM   32  N   UNL     1      -7.995   6.800  67.683  1.00  0.00    -0.111 NA 
HETATM   33  N   UNL     1      -7.982   8.046  65.846  1.00  0.00    -0.102 NA 
HETATM   34  C   UNL     1      -7.953   5.926  66.626  1.00  0.00    -0.102 A  
HETATM   35  C   UNL     1      -8.027   8.066  67.162  1.00  0.00    -0.113 A  
HETATM   36  C   UNL     1      -7.920   6.719  65.505  1.00  0.00    -0.119 A  
ENDBRANCH  31  32
ENDBRANCH  21  31
ENDBRANCH  17  18
ENDBRANCH  16  17
ENDBRANCH  13  16
ENDBRANCH   7  10
TORSDOF 7
ENDMDL
MODEL      113
REMARK 921   NORMALIZED FREE ENERGY PREDICTED BY IDOCK:   -5.50 KCAL/MOL
REMARK 922        TOTAL FREE ENERGY PREDICTED BY IDOCK:   -8.18 KCAL/MOL
REMARK 923 INTER-LIGAND FREE ENERGY PREDICTED BY IDOCK:   -7.20 KCAL/MOL
REMARK 924 INTRA-LIGAND FREE ENERGY PREDICTED BY IDOCK:   -0.98 KCAL/MOL
REMARK 927      BINDING AFFINITY PREDICTED BY RF-SCORE:    0.00 PKD
ROOT
HETATM    1  C   UNL     1      -6.861  21.007  67.046  1.00  0.00    -0.397 C  
HETATM    2  C   UNL     1      -6.721  19.971  68.130  1.00  0.00    -0.291 C  
HETATM    3  O   UNL     1      -6.279  20.284  69.235  1.00  0.00    -0.313 OA 
HETATM    4  N   UNL     1      -7.200  18.705  67.847  1.00  0.00    -0.235 N  
HETATM    5  C   UNL     1      -7.247  17.714  68.929  1.00  0.00    -0.256 C  
HETATM    6  C   UNL     1      -8.483  16.810  68.798  1.00  0.00    -0.253 C  
HETATM    7  N   UNL     1      -8.503  16.196  67.451  1.00  0.00    -0.165 NA 
HETATM    8  C   UNL     1      -7.339  18.139  66.493  1.00  0.00    -0.233 C  
HETATM    9  C   UNL     1      -8.555  17.201  66.371  1.00  0.00    -0.265 C  
ENDROOT
BRANCH   7  10
HETATM   10  C   UNL     1      -9.260  15.043  67.256  1.00  0.00    -0.201 A  
HETATM   11  C   UNL     1      -9.653  14.222  68.308  1.00  0.00    -0.221 A  
HETATM   12  C   UNL     1     -10.305  13.010  68.083  1.00  0.00    -0.244 A  
HETATM   13  C   UNL     1     -10.577  12.563  66.788  1.00  0.00    -0.233 A  
HETATM   14  C   UNL     1      -9.586  14.616  65.955  1.00  0.00    -0.322 A  
HETATM   15  C   UNL     1     -10.231  13.391  65.721  1.00  0.00    -0.300 A  
BRANCH  13  16
HETATM   16  O   UNL     1     -11.157  11.348  66.485  1.00  0.00    -0.292 OA 
BRANCH  16  17
HETATM   17  C   UNL     1     -10.410  10.579  65.537  1.00  0.00    -0.217 C  
BRANCH  17  18
HETATM   18  C   UNL     1      -9.570   9.467  66.148  1.00  0.00    -0.239 C  
HETATM   19  C   UNL     1      -8.124   9.831  66.341  1.00  0.00    -0.116 C  
HETATM   20  O   UNL     1      -7.729   9.073  67.481  1.00  0.00    -0.095 OA 
HETATM   21  C   UNL     1      -8.913   8.903  68.302  1.00  0.00    -0.137 C  
HETATM   22  O   UNL     1     -10.053   9.215  67.477  1.00  0.00    -0.197 OA 
BRANCH  21  23
HETATM   23  C   UNL     1      -9.041   7.447  68.761  1.00  0.00    -0.131 A  
HETATM   24 CL   UNL     1      -6.309   7.036  68.601  1.00  0.00    -0.034 Cl 
HETATM   25  C   UNL     1      -7.946   6.571  68.910  1.00  0.00    -0.111 A  
HETATM   26  C   UNL     1     -10.320   6.936  69.070  1.00  0.00    -0.203 A  
HETATM   27  C   UNL     1     -10.499   5.624  69.512  1.00  0.00    -0.372 A  
HETATM   28  C   UNL     1      -8.130   5.250  69.343  1.00  0.00    -0.092 A  
HETATM   29 CL   UNL     1      -9.618   3.174  70.208  1.00  0.00    -0.221 Cl 
HETATM   30  C   UNL     1      -9.402   4.785  69.648  1.00  0.00    -0.133 A  
ENDBRANCH  21  23
BRANCH  21  31
HETATM   31  C   UNL     1      -8.864   9.942  69.454  1.00  0.00    -0.187 C  
BRANCH  31  32
HETATM   32  N   UNL     1      -7.575  10.531  69.740  1.00  0.00    -0.133 NA 
HETATM   33  N   UNL     1      -5.477  10.660  70.455  1.00  0.00    -0.065 NA 
HETATM   34  C   UNL     1      -7.015  11.607  69.099  1.00  0.00    -0.105 A  
HETATM   35  C   UNL     1      -6.613  10.002  70.558  1.00  0.00    -0.122 A  
HETATM   36  C   UNL     1      -5.715  11.650  69.537  1.00  0.00    -0.072 A  
ENDBRANCH  31  32
ENDBRANCH  21  31
ENDBRANCH  17  18
ENDBRANCH  16  17
ENDBRANCH  13  16
ENDBRANCH   7  10
TORSDOF 7
ENDMDL
MODEL      114
REMARK 921   NORMALIZED FREE ENERGY PREDICTED BY IDOCK:   -5.50 KCAL/MOL
REMARK 922        TOTAL FREE ENERGY PREDICTED BY IDOCK:   -8.18 KCAL/MOL
REMARK 923 INTER-LIGAND FREE ENERGY PREDICTED BY IDOCK:   -7.53 KCAL/MOL
REMARK 924 INTRA-LIGAND FREE ENERGY PREDICTED BY IDOCK:   -0.65 KCAL/MOL
REMARK 927      BINDING AFFINITY PREDICTED BY RF-SCORE:    0.00 PKD
ROOT
HETATM    1  C   UNL     1     -10.900  19.065  65.894  1.00  0.00    -0.272 C  
HETATM    2  C   UNL     1     -10.316  18.707  67.235  1.00  0.00    -0.400 C  
HETATM    3  O   UNL     1      -9.821  19.580  67.949  1.00  0.00    -0.336 OA 
HETATM    4  N   UNL     1     -10.457  17.395  67.646  1.00  0.00    -0.361 N  
HETATM    5  C   UNL     1     -10.063  17.041  69.016  1.00  0.00    -0.290 C  
HETATM    6  C   UNL     1     -11.001  15.975  69.603  1.00  0.00    -0.326 C  
HETATM    7  N   UNL     1     -11.046  14.806  68.696  1.00  0.00    -0.251 NA 
HETATM    8  C   UNL     1     -10.630  16.243  66.743  1.00  0.00    -0.257 C  
HETATM    9  C   UNL     1     -11.538  15.155  67.348  1.00  0.00    -0.240 C  
ENDROOT
BRANCH   7  10
HETATM   10  C   UNL     1     -11.469  13.582  69.208  1.00  0.00    -0.291 A  
HETATM   11  C   UNL     1     -11.549  12.434  68.426  1.00  0.00    -0.373 A  
HETATM   12  C   UNL     1     -12.089  11.249  68.923  1.00  0.00    -0.292 A  
HETATM   13  C   UNL     1     -12.587  11.170  70.226  1.00  0.00    -0.210 A  
HETATM   14  C   UNL     1     -11.920  13.483  70.537  1.00  0.00    -0.344 A  
HETATM   15  C   UNL     1     -12.477  12.296  71.041  1.00  0.00    -0.361 A  
BRANCH  13  16
HETATM   16  O   UNL     1     -13.195  10.054  70.765  1.00  0.00    -0.348 OA 
BRANCH  16  17
HETATM   17  C   UNL     1     -12.274   9.016  71.116  1.00  0.00    -0.275 C  
BRANCH  17  18
HETATM   18  C   UNL     1     -10.859   9.498  71.398  1.00  0.00    -0.312 C  
HETATM   19  C   UNL     1     -10.097   8.627  72.358  1.00  0.00    -0.250 C  
HETATM   20  O   UNL     1      -8.740   8.766  71.946  1.00  0.00    -0.284 OA 
HETATM   21  C   UNL     1      -8.761   9.031  70.519  1.00  0.00    -0.207 C  
HETATM   22  O   UNL     1     -10.104   9.424  70.177  1.00  0.00    -0.201 OA 
BRANCH  21  23
HETATM   23  C   UNL     1      -7.823  10.192  70.177  1.00  0.00    -0.065 A  
HETATM   24 CL   UNL     1      -5.938   9.366  72.028  1.00  0.00    -0.007 Cl 
HETATM   25  C   UNL     1      -6.575  10.404  70.799  1.00  0.00     0.109 A  
HETATM   26  C   UNL     1      -8.204  11.109  69.173  1.00  0.00    -0.007 A  
HETATM   27  C   UNL     1      -7.384  12.176  68.803  1.00  0.00    -0.090 A  
HETATM   28  C   UNL     1      -5.757  11.483  70.433  1.00  0.00    -0.155 A  
HETATM   29 CL   UNL     1      -5.142  13.662  68.968  1.00  0.00    -0.070 Cl 
HETATM   30  C   UNL     1      -6.162  12.358  69.434  1.00  0.00    -0.114 A  
ENDBRANCH  21  23
BRANCH  21  31
HETATM   31  C   UNL     1      -8.451   7.707  69.772  1.00  0.00    -0.134 C  
BRANCH  31  32
HETATM   32  N   UNL     1      -9.572   7.030  69.161  1.00  0.00    -0.149 NA 
HETATM   33  N   UNL     1     -10.885   6.249  67.550  1.00  0.00    -0.316 NA 
HETATM   34  C   UNL     1     -10.311   6.018  69.722  1.00  0.00    -0.228 A  
HETATM   35  C   UNL     1      -9.965   7.141  67.855  1.00  0.00    -0.154 A  
HETATM   36  C   UNL     1     -11.094   5.537  68.702  1.00  0.00     0.331 A  
ENDBRANCH  31  32
ENDBRANCH  21  31
ENDBRANCH  17  18
ENDBRANCH  16  17
ENDBRANCH  13  16
ENDBRANCH   7  10
TORSDOF 7
ENDMDL
MODEL      115
REMARK 921   NORMALIZED FREE ENERGY PREDICTED BY IDOCK:   -5.48 KCAL/MOL
REMARK 922        TOTAL FREE ENERGY PREDICTED BY IDOCK:   -8.15 KCAL/MOL
REMARK 923 INTER-LIGAND FREE ENERGY PREDICTED BY IDOCK:   -7.62 KCAL/MOL
REMARK 924 INTRA-LIGAND FREE ENERGY PREDICTED BY IDOCK:   -0.53 KCAL/MOL
REMARK 927      BINDING AFFINITY PREDICTED BY RF-SCORE:    0.00 PKD
ROOT
HETATM    1  C   UNL     1     -11.613   2.917  73.086  1.00  0.00     0.088 C  
HETATM    2  C   UNL     1     -10.135   3.189  72.976  1.00  0.00    -0.146 C  
HETATM    3  O   UNL     1      -9.327   2.473  73.565  1.00  0.00    -0.083 OA 
HETATM    4  N   UNL     1      -9.751   4.202  72.116  1.00  0.00    -0.154 N  
HETATM    5  C   UNL     1      -8.321   4.387  71.843  1.00  0.00    -0.106 C  
HETATM    6  C   UNL     1      -8.088   4.811  70.384  1.00  0.00    -0.083 C  
HETATM    7  N   UNL     1      -8.892   6.019  70.089  1.00  0.00    -0.142 NA 
HETATM    8  C   UNL     1     -10.601   5.340  71.723  1.00  0.00    -0.201 C  
HETATM    9  C   UNL     1     -10.339   5.794  70.273  1.00  0.00    -0.252 C  
ENDROOT
BRANCH   7  10
HETATM   10  C   UNL     1      -8.526   6.814  69.006  1.00  0.00    -0.128 A  
HETATM   11  C   UNL     1      -7.563   7.814  69.106  1.00  0.00    -0.099 A  
HETATM   12  C   UNL     1      -7.298   8.679  68.046  1.00  0.00    -0.092 A  
HETATM   13  C   UNL     1      -7.999   8.587  66.842  1.00  0.00    -0.095 A  
HETATM   14  C   UNL     1      -9.191   6.689  67.772  1.00  0.00    -0.111 A  
HETATM   15  C   UNL     1      -8.937   7.565  66.704  1.00  0.00    -0.177 A  
BRANCH  13  16
HETATM   16  O   UNL     1      -7.838   9.448  65.775  1.00  0.00    -0.097 OA 
BRANCH  16  17
HETATM   17  C   UNL     1      -9.041   9.663  65.030  1.00  0.00    -0.233 C  
BRANCH  17  18
HETATM   18  C   UNL     1      -9.323  11.121  64.695  1.00  0.00    -0.175 C  
HETATM   19  C   UNL     1     -10.437  11.316  63.705  1.00  0.00    -0.405 C  
HETATM   20  O   UNL     1     -11.002  12.573  64.065  1.00  0.00    -0.337 OA 
HETATM   21  C   UNL     1     -10.793  12.732  65.492  1.00  0.00    -0.274 C  
HETATM   22  O   UNL     1      -9.789  11.776  65.887  1.00  0.00    -0.226 OA 
BRANCH  21  23
HETATM   23  C   UNL     1     -10.262  14.135  65.803  1.00  0.00    -0.347 A  
HETATM   24 CL   UNL     1      -8.210  13.135  67.369  1.00  0.00    -0.181 Cl 
HETATM   25  C   UNL     1      -9.139  14.386  66.619  1.00  0.00    -0.240 A  
HETATM   26  C   UNL     1     -10.910  15.255  65.239  1.00  0.00    -0.417 A  
HETATM   27  C   UNL     1     -10.461  16.556  65.469  1.00  0.00    -0.320 A  
HETATM   28  C   UNL     1      -8.697  15.696  66.858  1.00  0.00    -0.283 A  
HETATM   29 CL   UNL     1      -8.789  18.373  66.549  1.00  0.00    -0.290 Cl 
HETATM   30  C   UNL     1      -9.354  16.772  66.277  1.00  0.00    -0.279 A  
ENDBRANCH  21  23
BRANCH  21  31
HETATM   31  C   UNL     1     -12.111  12.364  66.223  1.00  0.00    -0.180 C  
BRANCH  31  32
HETATM   32  N   UNL     1     -12.049  12.276  67.665  1.00  0.00    -0.473 NA 
HETATM   33  N   UNL     1     -11.541  11.455  69.664  1.00  0.00    -0.301 NA 
HETATM   34  C   UNL     1     -12.127  13.327  68.544  1.00  0.00    -0.221 A  
HETATM   35  C   UNL     1     -11.708  11.166  68.390  1.00  0.00    -0.279 A  
HETATM   36  C   UNL     1     -11.785  12.800  69.765  1.00  0.00    -0.282 A  
ENDBRANCH  31  32
ENDBRANCH  21  31
ENDBRANCH  17  18
ENDBRANCH  16  17
ENDBRANCH  13  16
ENDBRANCH   7  10
TORSDOF 7
ENDMDL
MODEL      116
REMARK 921   NORMALIZED FREE ENERGY PREDICTED BY IDOCK:   -5.47 KCAL/MOL
REMARK 922        TOTAL FREE ENERGY PREDICTED BY IDOCK:   -8.14 KCAL/MOL
REMARK 923 INTER-LIGAND FREE ENERGY PREDICTED BY IDOCK:   -7.51 KCAL/MOL
REMARK 924 INTRA-LIGAND FREE ENERGY PREDICTED BY IDOCK:   -0.63 KCAL/MOL
REMARK 927      BINDING AFFINITY PREDICTED BY RF-SCORE:    0.00 PKD
ROOT
HETATM    1  C   UNL     1     -10.336  17.702  68.585  1.00  0.00    -0.359 C  
HETATM    2  C   UNL     1      -9.027  17.215  68.020  1.00  0.00    -0.233 C  
HETATM    3  O   UNL     1      -8.014  17.908  68.115  1.00  0.00    -0.248 OA 
HETATM    4  N   UNL     1      -9.013  15.937  67.494  1.00  0.00    -0.192 N  
HETATM    5  C   UNL     1      -7.726  15.356  67.094  1.00  0.00    -0.211 C  
HETATM    6  C   UNL     1      -7.685  13.848  67.389  1.00  0.00    -0.148 C  
HETATM    7  N   UNL     1      -8.841  13.188  66.741  1.00  0.00    -0.178 NA 
HETATM    8  C   UNL     1     -10.193  15.231  66.963  1.00  0.00    -0.260 C  
HETATM    9  C   UNL     1     -10.135  13.713  67.222  1.00  0.00    -0.239 C  
ENDROOT
BRANCH   7  10
HETATM   10  C   UNL     1      -8.781  11.817  66.509  1.00  0.00    -0.173 A  
HETATM   11  C   UNL     1      -7.628  11.071  66.736  1.00  0.00    -0.139 A  
HETATM   12  C   UNL     1      -7.550   9.724  66.383  1.00  0.00    -0.099 A  
HETATM   13  C   UNL     1      -8.623   9.071  65.774  1.00  0.00    -0.160 A  
HETATM   14  C   UNL     1      -9.879  11.140  65.946  1.00  0.00    -0.275 A  
HETATM   15  C   UNL     1      -9.803   9.787  65.577  1.00  0.00    -0.378 A  
BRANCH  13  16
HETATM   16  O   UNL     1      -8.596   7.761  65.338  1.00  0.00    -0.137 OA 
BRANCH  16  17
HETATM   17  C   UNL     1      -8.382   6.814  66.389  1.00  0.00    -0.121 C  
BRANCH  17  18
HETATM   18  C   UNL     1      -9.524   6.712  67.388  1.00  0.00    -0.129 C  
HETATM   19  C   UNL     1      -9.865   5.302  67.784  1.00  0.00    -0.152 C  
HETATM   20  O   UNL     1     -10.346   5.426  69.119  1.00  0.00    -0.225 OA 
HETATM   21  C   UNL     1      -9.673   6.572  69.701  1.00  0.00    -0.156 C  
HETATM   22  O   UNL     1      -9.108   7.334  68.615  1.00  0.00    -0.135 OA 
BRANCH  21  23
HETATM   23  C   UNL     1     -10.677   7.466  70.437  1.00  0.00    -0.250 A  
HETATM   24 CL   UNL     1      -8.908   9.594  70.503  1.00  0.00    -0.239 Cl 
HETATM   25  C   UNL     1     -10.409   8.796  70.823  1.00  0.00    -0.213 A  
HETATM   26  C   UNL     1     -11.956   6.952  70.745  1.00  0.00    -0.424 A  
HETATM   27  C   UNL     1     -12.919   7.724  71.396  1.00  0.00    -0.322 A  
HETATM   28  C   UNL     1     -11.375   9.566  71.487  1.00  0.00    -0.456 A  
HETATM   29 CL   UNL     1     -13.817   9.988  72.551  1.00  0.00    -0.101 Cl 
HETATM   30  C   UNL     1     -12.626   9.030  71.764  1.00  0.00    -0.367 A  
ENDBRANCH  21  23
BRANCH  21  31
HETATM   31  C   UNL     1      -8.501   6.058  70.579  1.00  0.00    -0.132 C  
BRANCH  31  32
HETATM   32  N   UNL     1      -8.857   5.410  71.821  1.00  0.00    -0.135 NA 
HETATM   33  N   UNL     1      -9.905   4.018  73.196  1.00  0.00    -0.125 NA 
HETATM   34  C   UNL     1      -8.061   5.295  72.932  1.00  0.00    -0.109 A  
HETATM   35  C   UNL     1      -9.965   4.634  72.034  1.00  0.00    -0.189 A  
HETATM   36  C   UNL     1      -8.716   4.412  73.754  1.00  0.00    -0.105 A  
ENDBRANCH  31  32
ENDBRANCH  21  31
ENDBRANCH  17  18
ENDBRANCH  16  17
ENDBRANCH  13  16
ENDBRANCH   7  10
TORSDOF 7
ENDMDL
MODEL      117
REMARK 921   NORMALIZED FREE ENERGY PREDICTED BY IDOCK:   -5.47 KCAL/MOL
REMARK 922        TOTAL FREE ENERGY PREDICTED BY IDOCK:   -8.13 KCAL/MOL
REMARK 923 INTER-LIGAND FREE ENERGY PREDICTED BY IDOCK:   -7.95 KCAL/MOL
REMARK 924 INTRA-LIGAND FREE ENERGY PREDICTED BY IDOCK:   -0.19 KCAL/MOL
REMARK 927      BINDING AFFINITY PREDICTED BY RF-SCORE:    0.00 PKD
ROOT
HETATM    1  C   UNL     1     -11.640  16.005  64.544  1.00  0.00    -0.205 C  
HETATM    2  C   UNL     1     -12.063  14.563  64.436  1.00  0.00    -0.472 C  
HETATM    3  O   UNL     1     -12.322  14.074  63.337  1.00  0.00    -0.748 OA 
HETATM    4  N   UNL     1     -12.044  13.819  65.601  1.00  0.00    -0.391 N  
HETATM    5  C   UNL     1     -12.276  12.372  65.514  1.00  0.00    -0.286 C  
HETATM    6  C   UNL     1     -11.416  11.612  66.537  1.00  0.00    -0.187 C  
HETATM    7  N   UNL     1     -11.666  12.156  67.891  1.00  0.00    -0.426 NA 
HETATM    8  C   UNL     1     -12.166  14.378  66.959  1.00  0.00    -0.239 C  
HETATM    9  C   UNL     1     -11.336  13.592  67.993  1.00  0.00    -0.285 C  
ENDROOT
BRANCH   7  10
HETATM   10  C   UNL     1     -11.344  11.371  68.994  1.00  0.00    -0.280 A  
HETATM   11  C   UNL     1     -10.192  10.591  69.045  1.00  0.00    -0.233 A  
HETATM   12  C   UNL     1      -9.948   9.719  70.104  1.00  0.00    -0.315 A  
HETATM   13  C   UNL     1     -10.858   9.580  71.154  1.00  0.00    -0.355 A  
HETATM   14  C   UNL     1     -12.232  11.270  70.081  1.00  0.00    -0.410 A  
HETATM   15  C   UNL     1     -11.998  10.384  71.145  1.00  0.00    -0.460 A  
BRANCH  13  16
HETATM   16  O   UNL     1     -10.717   8.691  72.200  1.00  0.00    -0.327 OA 
BRANCH  16  17
HETATM   17  C   UNL     1      -9.399   8.669  72.756  1.00  0.00    -0.035 C  
BRANCH  17  18
HETATM   18  C   UNL     1      -8.347   8.035  71.859  1.00  0.00    -0.131 C  
HETATM   19  C   UNL     1      -7.019   7.819  72.531  1.00  0.00    -0.074 C  
HETATM   20  O   UNL     1      -6.488   6.667  71.884  1.00  0.00    -0.048 OA 
HETATM   21  C   UNL     1      -7.621   5.864  71.462  1.00  0.00    -0.099 C  
HETATM   22  O   UNL     1      -8.787   6.711  71.512  1.00  0.00    -0.138 OA 
BRANCH  21  23
HETATM   23  C   UNL     1      -7.436   5.396  70.016  1.00  0.00    -0.069 A  
HETATM   24 CL   UNL     1     -10.145   5.597  69.483  1.00  0.00    -0.267 Cl 
HETATM   25  C   UNL     1      -8.495   5.251  69.095  1.00  0.00    -0.098 A  
HETATM   26  C   UNL     1      -6.136   5.097  69.551  1.00  0.00    -0.021 A  
HETATM   27  C   UNL     1      -5.902   4.685  68.239  1.00  0.00    -0.025 A  
HETATM   28  C   UNL     1      -8.258   4.826  67.779  1.00  0.00    -0.100 A  
HETATM   29 CL   UNL     1      -6.676   4.059  65.734  1.00  0.00    -0.044 Cl 
HETATM   30  C   UNL     1      -6.964   4.552  67.356  1.00  0.00    -0.060 A  
ENDBRANCH  21  23
BRANCH  21  31
HETATM   31  C   UNL     1      -7.823   4.721  72.491  1.00  0.00    -0.092 C  
BRANCH  31  32
HETATM   32  N   UNL     1      -9.118   4.644  73.129  1.00  0.00    -0.116 NA 
HETATM   33  N   UNL     1     -10.784   5.188  74.491  1.00  0.00    -0.315 NA 
HETATM   34  C   UNL     1     -10.250   4.078  72.598  1.00  0.00    -0.167 A  
HETATM   35  C   UNL     1      -9.488   5.290  74.277  1.00  0.00    -0.136 A  
HETATM   36  C   UNL     1     -11.267   4.449  73.442  1.00  0.00    -0.295 A  
ENDBRANCH  31  32
ENDBRANCH  21  31
ENDBRANCH  17  18
ENDBRANCH  16  17
ENDBRANCH  13  16
ENDBRANCH   7  10
TORSDOF 7
ENDMDL
MODEL      118
REMARK 921   NORMALIZED FREE ENERGY PREDICTED BY IDOCK:   -5.44 KCAL/MOL
REMARK 922        TOTAL FREE ENERGY PREDICTED BY IDOCK:   -8.10 KCAL/MOL
REMARK 923 INTER-LIGAND FREE ENERGY PREDICTED BY IDOCK:   -7.41 KCAL/MOL
REMARK 924 INTRA-LIGAND FREE ENERGY PREDICTED BY IDOCK:   -0.69 KCAL/MOL
REMARK 927      BINDING AFFINITY PREDICTED BY RF-SCORE:    0.00 PKD
ROOT
HETATM    1  C   UNL     1      -7.618   3.484  70.250  1.00  0.00    -0.044 C  
HETATM    2  C   UNL     1      -8.696   4.536  70.279  1.00  0.00    -0.081 C  
HETATM    3  O   UNL     1      -9.743   4.334  70.893  1.00  0.00    -0.172 OA 
HETATM    4  N   UNL     1      -8.402   5.745  69.676  1.00  0.00    -0.111 N  
HETATM    5  C   UNL     1      -9.349   6.856  69.833  1.00  0.00    -0.150 C  
HETATM    6  C   UNL     1      -8.610   8.199  69.945  1.00  0.00    -0.130 C  
HETATM    7  N   UNL     1      -7.712   8.366  68.780  1.00  0.00    -0.100 NA 
HETATM    8  C   UNL     1      -7.413   5.931  68.600  1.00  0.00    -0.086 C  
HETATM    9  C   UNL     1      -6.700   7.295  68.688  1.00  0.00    -0.060 C  
ENDROOT
BRANCH   7  10
HETATM   10  C   UNL     1      -7.283   9.648  68.449  1.00  0.00    -0.074 A  
HETATM   11  C   UNL     1      -6.677  10.495  69.373  1.00  0.00    -0.076 A  
HETATM   12  C   UNL     1      -6.364  11.816  69.056  1.00  0.00    -0.078 A  
HETATM   13  C   UNL     1      -6.661  12.350  67.801  1.00  0.00    -0.115 A  
HETATM   14  C   UNL     1      -7.528  10.174  67.167  1.00  0.00    -0.091 A  
HETATM   15  C   UNL     1      -7.228  11.507  66.845  1.00  0.00    -0.137 A  
BRANCH  13  16
HETATM   16  O   UNL     1      -6.443  13.664  67.438  1.00  0.00    -0.278 OA 
BRANCH  16  17
HETATM   17  C   UNL     1      -7.636  14.454  67.410  1.00  0.00    -0.172 C  
BRANCH  17  18
HETATM   18  C   UNL     1      -8.570  14.227  68.590  1.00  0.00    -0.149 C  
HETATM   19  C   UNL     1      -8.967  15.488  69.305  1.00  0.00    -0.267 C  
HETATM   20  O   UNL     1     -10.271  15.204  69.805  1.00  0.00    -0.236 OA 
HETATM   21  C   UNL     1     -10.873  14.254  68.888  1.00  0.00    -0.257 C  
HETATM   22  O   UNL     1      -9.809  13.697  68.090  1.00  0.00    -0.223 OA 
BRANCH  21  23
HETATM   23  C   UNL     1     -11.535  13.110  69.662  1.00  0.00    -0.261 A  
HETATM   24 CL   UNL     1     -10.759  11.235  67.779  1.00  0.00    -0.244 Cl 
HETATM   25  C   UNL     1     -11.529  11.766  69.234  1.00  0.00    -0.306 A  
HETATM   26  C   UNL     1     -12.184  13.393  70.883  1.00  0.00    -0.367 A  
HETATM   27  C   UNL     1     -12.789  12.390  71.643  1.00  0.00    -0.375 A  
HETATM   28  C   UNL     1     -12.147  10.761  69.994  1.00  0.00    -0.423 A  
HETATM   29 CL   UNL     1     -13.497   9.837  72.138  1.00  0.00    -0.518 Cl 
HETATM   30  C   UNL     1     -12.767  11.076  71.196  1.00  0.00    -0.419 A  
ENDBRANCH  21  23
BRANCH  21  31
HETATM   31  C   UNL     1     -11.824  15.027  67.937  1.00  0.00    -0.218 C  
BRANCH  31  32
HETATM   32  N   UNL     1     -11.206  15.963  67.024  1.00  0.00    -0.114 NA 
HETATM   33  N   UNL     1     -10.490  16.800  65.097  1.00  0.00    -0.678 NA 
HETATM   34  C   UNL     1     -11.074  17.315  67.217  1.00  0.00     0.136 A  
HETATM   35  C   UNL     1     -10.829  15.699  65.735  1.00  0.00    -0.306 A  
HETATM   36  C   UNL     1     -10.655  17.812  66.008  1.00  0.00    -0.229 A  
ENDBRANCH  31  32
ENDBRANCH  21  31
ENDBRANCH  17  18
ENDBRANCH  16  17
ENDBRANCH  13  16
ENDBRANCH   7  10
TORSDOF 7
ENDMDL
MODEL      119
REMARK 921   NORMALIZED FREE ENERGY PREDICTED BY IDOCK:   -5.44 KCAL/MOL
REMARK 922        TOTAL FREE ENERGY PREDICTED BY IDOCK:   -8.10 KCAL/MOL
REMARK 923 INTER-LIGAND FREE ENERGY PREDICTED BY IDOCK:   -7.11 KCAL/MOL
REMARK 924 INTRA-LIGAND FREE ENERGY PREDICTED BY IDOCK:   -0.99 KCAL/MOL
REMARK 927      BINDING AFFINITY PREDICTED BY RF-SCORE:    0.00 PKD
ROOT
HETATM    1  C   UNL     1      -9.232  17.703  67.741  1.00  0.00    -0.251 C  
HETATM    2  C   UNL     1      -7.922  17.406  68.422  1.00  0.00    -0.259 C  
HETATM    3  O   UNL     1      -7.351  18.278  69.076  1.00  0.00    -0.272 OA 
HETATM    4  N   UNL     1      -7.465  16.103  68.352  1.00  0.00    -0.147 N  
HETATM    5  C   UNL     1      -6.288  15.728  69.146  1.00  0.00    -0.134 C  
HETATM    6  C   UNL     1      -6.418  14.293  69.681  1.00  0.00    -0.140 C  
HETATM    7  N   UNL     1      -6.671  13.368  68.553  1.00  0.00    -0.087 NA 
HETATM    8  C   UNL     1      -7.820  15.141  67.293  1.00  0.00    -0.211 C  
HETATM    9  C   UNL     1      -7.911  13.696  67.820  1.00  0.00    -0.171 C  
ENDROOT
BRANCH   7  10
HETATM   10  C   UNL     1      -6.400  12.014  68.728  1.00  0.00    -0.071 A  
HETATM   11  C   UNL     1      -6.328  11.123  67.661  1.00  0.00    -0.054 A  
HETATM   12  C   UNL     1      -6.177   9.752  67.865  1.00  0.00    -0.052 A  
HETATM   13  C   UNL     1      -6.107   9.214  69.151  1.00  0.00    -0.042 A  
HETATM   14  C   UNL     1      -6.273  11.473  70.021  1.00  0.00    -0.142 A  
HETATM   15  C   UNL     1      -6.133  10.092  70.234  1.00  0.00    -0.090 A  
BRANCH  13  16
HETATM   16  O   UNL     1      -6.024   7.865  69.432  1.00  0.00    -0.032 OA 
BRANCH  16  17
HETATM   17  C   UNL     1      -7.299   7.243  69.625  1.00  0.00    -0.088 C  
BRANCH  17  18
HETATM   18  C   UNL     1      -8.485   8.088  69.185  1.00  0.00    -0.136 C  
HETATM   19  C   UNL     1      -9.422   7.382  68.245  1.00  0.00    -0.142 C  
HETATM   20  O   UNL     1     -10.694   7.959  68.528  1.00  0.00    -0.144 OA 
HETATM   21  C   UNL     1     -10.671   8.359  69.922  1.00  0.00    -0.227 C  
HETATM   22  O   UNL     1      -9.291   8.373  70.340  1.00  0.00    -0.156 OA 
BRANCH  21  23
HETATM   23  C   UNL     1     -11.231   9.775  70.083  1.00  0.00    -0.324 A  
HETATM   24 CL   UNL     1      -9.935  10.669  67.806  1.00  0.00    -0.186 Cl 
HETATM   25  C   UNL     1     -10.948  10.837  69.198  1.00  0.00    -0.244 A  
HETATM   26  C   UNL     1     -12.093  10.054  71.166  1.00  0.00    -0.475 A  
HETATM   27  C   UNL     1     -12.650  11.320  71.354  1.00  0.00    -0.456 A  
HETATM   28  C   UNL     1     -11.500  12.111  69.395  1.00  0.00    -0.355 A  
HETATM   29 CL   UNL     1     -13.051  13.900  70.687  1.00  0.00    -0.221 Cl 
HETATM   30  C   UNL     1     -12.353  12.344  70.467  1.00  0.00    -0.262 A  
ENDBRANCH  21  23
BRANCH  21  31
HETATM   31  C   UNL     1     -11.406   7.275  70.754  1.00  0.00    -0.285 C  
BRANCH  31  32
HETATM   32  N   UNL     1     -10.716   6.777  71.923  1.00  0.00    -0.221 NA 
HETATM   33  N   UNL     1     -10.196   6.540  74.068  1.00  0.00    -0.326 NA 
HETATM   34  C   UNL     1     -10.075   5.569  72.033  1.00  0.00    -0.186 A  
HETATM   35  C   UNL     1     -10.751   7.332  73.174  1.00  0.00    -0.365 A  
HETATM   36  C   UNL     1      -9.787   5.434  73.369  1.00  0.00    -0.161 A  
ENDBRANCH  31  32
ENDBRANCH  21  31
ENDBRANCH  17  18
ENDBRANCH  16  17
ENDBRANCH  13  16
ENDBRANCH   7  10
TORSDOF 7
ENDMDL
MODEL      120
REMARK 921   NORMALIZED FREE ENERGY PREDICTED BY IDOCK:   -5.40 KCAL/MOL
REMARK 922        TOTAL FREE ENERGY PREDICTED BY IDOCK:   -8.03 KCAL/MOL
REMARK 923 INTER-LIGAND FREE ENERGY PREDICTED BY IDOCK:   -6.87 KCAL/MOL
REMARK 924 INTRA-LIGAND FREE ENERGY PREDICTED BY IDOCK:   -1.17 KCAL/MOL
REMARK 927      BINDING AFFINITY PREDICTED BY RF-SCORE:    0.00 PKD
ROOT
HETATM    1  C   UNL     1     -12.950  14.592  73.409  1.00  0.00    -0.483 C  
HETATM    2  C   UNL     1     -12.300  15.473  72.375  1.00  0.00    -0.406 C  
HETATM    3  O   UNL     1     -12.003  16.636  72.649  1.00  0.00    -0.490 OA 
HETATM    4  N   UNL     1     -11.975  14.882  71.168  1.00  0.00    -0.315 N  
HETATM    5  C   UNL     1     -11.184  15.651  70.200  1.00  0.00    -0.336 C  
HETATM    6  C   UNL     1     -10.207  14.742  69.439  1.00  0.00    -0.130 C  
HETATM    7  N   UNL     1     -10.955  13.626  68.816  1.00  0.00    -0.258 NA 
HETATM    8  C   UNL     1     -12.640  13.692  70.607  1.00  0.00    -0.296 C  
HETATM    9  C   UNL     1     -11.669  12.800  69.810  1.00  0.00    -0.282 C  
ENDROOT
BRANCH   7  10
HETATM   10  C   UNL     1     -10.370  12.943  67.754  1.00  0.00    -0.222 A  
HETATM   11  C   UNL     1     -11.122  12.278  66.789  1.00  0.00    -0.345 A  
HETATM   12  C   UNL     1     -10.518  11.498  65.804  1.00  0.00    -0.308 A  
HETATM   13  C   UNL     1      -9.131  11.340  65.753  1.00  0.00    -0.203 A  
HETATM   14  C   UNL     1      -8.970  12.826  67.665  1.00  0.00    -0.191 A  
HETATM   15  C   UNL     1      -8.356  12.032  66.683  1.00  0.00    -0.085 A  
BRANCH  13  16
HETATM   16  O   UNL     1      -8.469  10.533  64.850  1.00  0.00    -0.176 OA 
BRANCH  16  17
HETATM   17  C   UNL     1      -7.352   9.840  65.417  1.00  0.00    -0.118 C  
BRANCH  17  18
HETATM   18  C   UNL     1      -7.272   8.366  65.048  1.00  0.00    -0.084 C  
HETATM   19  C   UNL     1      -6.144   7.630  65.716  1.00  0.00    -0.038 C  
HETATM   20  O   UNL     1      -6.634   6.300  65.854  1.00  0.00    -0.045 OA 
HETATM   21  C   UNL     1      -8.077   6.396  65.978  1.00  0.00    -0.120 C  
HETATM   22  O   UNL     1      -8.457   7.714  65.533  1.00  0.00    -0.137 OA 
BRANCH  21  23
HETATM   23  C   UNL     1      -8.762   5.372  65.069  1.00  0.00    -0.116 A  
HETATM   24 CL   UNL     1      -6.649   5.374  63.281  1.00  0.00    -0.026 Cl 
HETATM   25  C   UNL     1      -8.199   4.883  63.872  1.00  0.00    -0.122 A  
HETATM   26  C   UNL     1     -10.027   4.864  65.438  1.00  0.00    -0.049 A  
HETATM   27  C   UNL     1     -10.692   3.914  64.662  1.00  0.00    -0.136 A  
HETATM   28  C   UNL     1      -8.875   3.936  63.087  1.00  0.00    -0.104 A  
HETATM   29 CL   UNL     1     -10.923   2.270  62.539  1.00  0.00    -0.171 Cl 
HETATM   30  C   UNL     1     -10.113   3.452  63.489  1.00  0.00    -0.183 A  
ENDBRANCH  21  23
BRANCH  21  31
HETATM   31  C   UNL     1      -8.448   6.279  67.480  1.00  0.00    -0.108 C  
BRANCH  31  32
HETATM   32  N   UNL     1      -9.083   7.429  68.082  1.00  0.00    -0.132 NA 
HETATM   33  N   UNL     1      -9.280   9.472  68.927  1.00  0.00    -0.142 NA 
HETATM   34  C   UNL     1     -10.416   7.750  68.009  1.00  0.00    -0.185 A  
HETATM   35  C   UNL     1      -8.442   8.494  68.656  1.00  0.00    -0.131 A  
HETATM   36  C   UNL     1     -10.507   9.024  68.513  1.00  0.00    -0.196 A  
ENDBRANCH  31  32
ENDBRANCH  21  31
ENDBRANCH  17  18
ENDBRANCH  16  17
ENDBRANCH  13  16
ENDBRANCH   7  10
TORSDOF 7
ENDMDL
MODEL      121
REMARK 921   NORMALIZED FREE ENERGY PREDICTED BY IDOCK:   -5.39 KCAL/MOL
REMARK 922        TOTAL FREE ENERGY PREDICTED BY IDOCK:   -8.03 KCAL/MOL
REMARK 923 INTER-LIGAND FREE ENERGY PREDICTED BY IDOCK:   -7.90 KCAL/MOL
REMARK 924 INTRA-LIGAND FREE ENERGY PREDICTED BY IDOCK:   -0.13 KCAL/MOL
REMARK 927      BINDING AFFINITY PREDICTED BY RF-SCORE:    0.00 PKD
ROOT
HETATM    1  C   UNL     1      -6.823   4.006  71.283  1.00  0.00    -0.031 C  
HETATM    2  C   UNL     1      -7.160   5.293  71.990  1.00  0.00    -0.084 C  
HETATM    3  O   UNL     1      -6.567   5.607  73.022  1.00  0.00    -0.068 OA 
HETATM    4  N   UNL     1      -8.077   6.122  71.371  1.00  0.00    -0.116 N  
HETATM    5  C   UNL     1      -8.303   7.460  71.930  1.00  0.00    -0.106 C  
HETATM    6  C   UNL     1      -8.555   8.489  70.817  1.00  0.00    -0.154 C  
HETATM    7  N   UNL     1      -9.671   8.025  69.961  1.00  0.00    -0.172 NA 
HETATM    8  C   UNL     1      -9.110   5.674  70.420  1.00  0.00    -0.144 C  
HETATM    9  C   UNL     1      -9.392   6.722  69.325  1.00  0.00    -0.144 C  
ENDROOT
BRANCH   7  10
HETATM   10  C   UNL     1     -10.344   8.960  69.179  1.00  0.00    -0.220 A  
HETATM   11  C   UNL     1     -10.379   8.884  67.790  1.00  0.00    -0.301 A  
HETATM   12  C   UNL     1     -10.953   9.894  67.019  1.00  0.00    -0.098 A  
HETATM   13  C   UNL     1     -11.505  11.032  67.610  1.00  0.00    -0.224 A  
HETATM   14  C   UNL     1     -10.951  10.082  69.773  1.00  0.00    -0.317 A  
HETATM   15  C   UNL     1     -11.520  11.108  69.002  1.00  0.00    -0.364 A  
BRANCH  13  16
HETATM   16  O   UNL     1     -12.030  12.101  66.911  1.00  0.00    -0.603 OA 
BRANCH  16  17
HETATM   17  C   UNL     1     -11.494  12.237  65.591  1.00  0.00    -0.368 C  
BRANCH  17  18
HETATM   18  C   UNL     1     -10.747  13.540  65.346  1.00  0.00    -0.304 C  
HETATM   19  C   UNL     1     -11.557  14.581  64.624  1.00  0.00    -0.408 C  
HETATM   20  O   UNL     1     -11.046  15.817  65.115  1.00  0.00    -0.363 OA 
HETATM   21  C   UNL     1     -10.574  15.568  66.465  1.00  0.00    -0.307 C  
HETATM   22  O   UNL     1     -10.454  14.140  66.619  1.00  0.00    -0.274 OA 
BRANCH  21  23
HETATM   23  C   UNL     1      -9.189  16.187  66.671  1.00  0.00    -0.273 A  
HETATM   24 CL   UNL     1      -8.044  13.726  67.217  1.00  0.00    -0.178 Cl 
HETATM   25  C   UNL     1      -8.038  15.443  67.005  1.00  0.00    -0.230 A  
HETATM   26  C   UNL     1      -9.028  17.580  66.508  1.00  0.00    -0.284 A  
HETATM   27  C   UNL     1      -7.787  18.199  66.663  1.00  0.00    -0.268 A  
HETATM   28  C   UNL     1      -6.793  16.069  67.171  1.00  0.00    -0.223 A  
HETATM   29 CL   UNL     1      -5.139  18.199  67.169  1.00  0.00    -0.133 Cl 
HETATM   30  C   UNL     1      -6.673  17.441  66.993  1.00  0.00    -0.183 A  
ENDBRANCH  21  23
BRANCH  21  31
HETATM   31  C   UNL     1     -11.657  16.061  67.460  1.00  0.00     0.162 C  
BRANCH  31  32
HETATM   32  N   UNL     1     -11.538  15.602  68.826  1.00  0.00    -0.370 NA 
HETATM   33  N   UNL     1     -10.643  15.314  70.837  1.00  0.00    -0.105 NA 
HETATM   34  C   UNL     1     -12.575  15.288  69.668  1.00  0.00    -0.052 A  
HETATM   35  C   UNL     1     -10.392  15.591  69.574  1.00  0.00    -0.271 A  
HETATM   36  C   UNL     1     -12.001  15.140  70.907  1.00  0.00    -0.328 A  
ENDBRANCH  31  32
ENDBRANCH  21  31
ENDBRANCH  17  18
ENDBRANCH  16  17
ENDBRANCH  13  16
ENDBRANCH   7  10
TORSDOF 7
ENDMDL
MODEL      122
REMARK 921   NORMALIZED FREE ENERGY PREDICTED BY IDOCK:   -5.39 KCAL/MOL
REMARK 922        TOTAL FREE ENERGY PREDICTED BY IDOCK:   -8.03 KCAL/MOL
REMARK 923 INTER-LIGAND FREE ENERGY PREDICTED BY IDOCK:   -6.55 KCAL/MOL
REMARK 924 INTRA-LIGAND FREE ENERGY PREDICTED BY IDOCK:   -1.48 KCAL/MOL
REMARK 927      BINDING AFFINITY PREDICTED BY RF-SCORE:    0.00 PKD
ROOT
HETATM    1  C   UNL     1     -11.922  17.420  73.533  1.00  0.00     0.598 C  
HETATM    2  C   UNL     1     -12.488  16.025  73.479  1.00  0.00    -0.571 C  
HETATM    3  O   UNL     1     -13.273  15.640  74.345  1.00  0.00    -0.113 OA 
HETATM    4  N   UNL     1     -12.159  15.262  72.374  1.00  0.00    -0.372 N  
HETATM    5  C   UNL     1     -12.826  13.967  72.191  1.00  0.00    -0.298 C  
HETATM    6  C   UNL     1     -13.087  13.686  70.703  1.00  0.00     0.029 C  
HETATM    7  N   UNL     1     -11.816  13.790  69.952  1.00  0.00    -0.316 NA 
HETATM    8  C   UNL     1     -10.952  15.450  71.549  1.00  0.00    -0.091 C  
HETATM    9  C   UNL     1     -11.202  15.129  70.063  1.00  0.00    -0.277 C  
ENDROOT
BRANCH   7  10
HETATM   10  C   UNL     1     -11.725  13.173  68.707  1.00  0.00    -0.324 A  
HETATM   11  C   UNL     1     -11.596  11.795  68.565  1.00  0.00    -0.380 A  
HETATM   12  C   UNL     1     -11.384  11.206  67.319  1.00  0.00    -0.302 A  
HETATM   13  C   UNL     1     -11.277  11.980  66.161  1.00  0.00    -0.343 A  
HETATM   14  C   UNL     1     -11.672  13.944  67.531  1.00  0.00    -0.416 A  
HETATM   15  C   UNL     1     -11.446  13.359  66.274  1.00  0.00    -0.354 A  
BRANCH  13  16
HETATM   16  O   UNL     1     -11.002  11.475  64.906  1.00  0.00    -0.298 OA 
BRANCH  16  17
HETATM   17  C   UNL     1      -9.606  11.459  64.591  1.00  0.00    -0.199 C  
BRANCH  17  18
HETATM   18  C   UNL     1      -9.050  10.080  64.266  1.00  0.00    -0.255 C  
HETATM   19  C   UNL     1      -7.610  10.089  63.832  1.00  0.00    -0.138 C  
HETATM   20  O   UNL     1      -7.110   8.830  64.272  1.00  0.00    -0.087 OA 
HETATM   21  C   UNL     1      -7.875   8.463  65.449  1.00  0.00    -0.108 C  
HETATM   22  O   UNL     1      -9.052   9.296  65.470  1.00  0.00    -0.193 OA 
BRANCH  21  23
HETATM   23  C   UNL     1      -8.328   7.003  65.360  1.00  0.00    -0.121 A  
HETATM   24 CL   UNL     1     -10.325   7.388  67.238  1.00  0.00    -0.325 Cl 
HETATM   25  C   UNL     1      -9.389   6.462  66.116  1.00  0.00    -0.076 A  
HETATM   26  C   UNL     1      -7.667   6.132  64.466  1.00  0.00    -0.105 A  
HETATM   27  C   UNL     1      -8.046   4.796  64.327  1.00  0.00    -0.111 A  
HETATM   28  C   UNL     1      -9.761   5.116  65.982  1.00  0.00    -0.182 A  
HETATM   29 CL   UNL     1      -9.573   2.652  64.903  1.00  0.00    -0.090 Cl 
HETATM   30  C   UNL     1      -9.094   4.293  65.085  1.00  0.00    -0.145 A  
ENDBRANCH  21  23
BRANCH  21  31
HETATM   31  C   UNL     1      -7.032   8.804  66.706  1.00  0.00    -0.080 C  
BRANCH  31  32
HETATM   32  N   UNL     1      -7.535   9.860  67.556  1.00  0.00    -0.090 NA 
HETATM   33  N   UNL     1      -8.335  10.834  69.383  1.00  0.00    -0.069 NA 
HETATM   34  C   UNL     1      -7.275  11.200  67.422  1.00  0.00    -0.107 A  
HETATM   35  C   UNL     1      -8.189   9.690  68.747  1.00  0.00    -0.106 A  
HETATM   36  C   UNL     1      -7.756  11.776  68.573  1.00  0.00    -0.137 A  
ENDBRANCH  31  32
ENDBRANCH  21  31
ENDBRANCH  17  18
ENDBRANCH  16  17
ENDBRANCH  13  16
ENDBRANCH   7  10
TORSDOF 7
ENDMDL
MODEL      123
REMARK 921   NORMALIZED FREE ENERGY PREDICTED BY IDOCK:   -5.30 KCAL/MOL
REMARK 922        TOTAL FREE ENERGY PREDICTED BY IDOCK:   -7.90 KCAL/MOL
REMARK 923 INTER-LIGAND FREE ENERGY PREDICTED BY IDOCK:   -7.69 KCAL/MOL
REMARK 924 INTRA-LIGAND FREE ENERGY PREDICTED BY IDOCK:   -0.21 KCAL/MOL
REMARK 927      BINDING AFFINITY PREDICTED BY RF-SCORE:    0.00 PKD
ROOT
HETATM    1  C   UNL     1      -9.834   3.679  70.887  1.00  0.00    -0.159 C  
HETATM    2  C   UNL     1      -9.398   4.087  69.505  1.00  0.00    -0.173 C  
HETATM    3  O   UNL     1      -9.688   3.391  68.532  1.00  0.00    -0.117 OA 
HETATM    4  N   UNL     1      -8.757   5.307  69.389  1.00  0.00    -0.100 N  
HETATM    5  C   UNL     1      -8.472   5.825  68.045  1.00  0.00    -0.106 C  
HETATM    6  C   UNL     1      -8.623   7.354  67.999  1.00  0.00    -0.122 C  
HETATM    7  N   UNL     1      -7.772   7.964  69.046  1.00  0.00    -0.099 NA 
HETATM    8  C   UNL     1      -8.014   5.975  70.472  1.00  0.00    -0.111 C  
HETATM    9  C   UNL     1      -8.131   7.510  70.404  1.00  0.00    -0.111 C  
ENDROOT
BRANCH   7  10
HETATM   10  C   UNL     1      -7.418   9.305  68.919  1.00  0.00    -0.075 A  
HETATM   11  C   UNL     1      -7.420   9.965  67.694  1.00  0.00    -0.090 A  
HETATM   12  C   UNL     1      -6.948  11.270  67.567  1.00  0.00    -0.091 A  
HETATM   13  C   UNL     1      -6.438  11.966  68.666  1.00  0.00    -0.062 A  
HETATM   14  C   UNL     1      -6.956  10.029  70.033  1.00  0.00    -0.135 A  
HETATM   15  C   UNL     1      -6.467  11.340  69.911  1.00  0.00    -0.132 A  
BRANCH  13  16
HETATM   16  O   UNL     1      -5.893  13.232  68.605  1.00  0.00    -0.076 OA 
BRANCH  16  17
HETATM   17  C   UNL     1      -6.772  14.255  69.084  1.00  0.00    -0.118 C  
BRANCH  17  18
HETATM   18  C   UNL     1      -8.198  14.156  68.561  1.00  0.00    -0.146 C  
HETATM   19  C   UNL     1      -9.148  15.137  69.190  1.00  0.00    -0.215 C  
HETATM   20  O   UNL     1     -10.103  15.397  68.165  1.00  0.00    -0.219 OA 
HETATM   21  C   UNL     1      -9.414  15.229  66.899  1.00  0.00    -0.234 C  
HETATM   22  O   UNL     1      -8.194  14.510  67.168  1.00  0.00    -0.202 OA 
BRANCH  21  23
HETATM   23  C   UNL     1     -10.259  14.389  65.937  1.00  0.00    -0.341 A  
HETATM   24 CL   UNL     1     -11.340  16.639  64.740  1.00  0.00    -0.167 Cl 
HETATM   25  C   UNL     1     -11.127  14.938  64.970  1.00  0.00    -0.414 A  
HETATM   26  C   UNL     1     -10.170  12.981  65.996  1.00  0.00    -0.292 A  
HETATM   27  C   UNL     1     -10.900  12.163  65.133  1.00  0.00    -0.343 A  
HETATM   28  C   UNL     1     -11.868  14.112  64.111  1.00  0.00    -0.364 A  
HETATM   29 CL   UNL     1     -12.634  11.726  63.116  1.00  0.00    -0.494 Cl 
HETATM   30  C   UNL     1     -11.746  12.732  64.191  1.00  0.00    -0.401 A  
ENDBRANCH  21  23
BRANCH  21  31
HETATM   31  C   UNL     1      -9.027  16.633  66.363  1.00  0.00    -0.291 C  
BRANCH  31  32
HETATM   32  N   UNL     1      -9.177  17.741  67.280  1.00  0.00    -0.250 NA 
HETATM   33  N   UNL     1      -8.584  19.439  68.580  1.00  0.00    -0.363 NA 
HETATM   34  C   UNL     1     -10.300  18.514  67.439  1.00  0.00    -0.400 A  
HETATM   35  C   UNL     1      -8.173  18.331  67.999  1.00  0.00    -0.264 A  
HETATM   36  C   UNL     1      -9.901  19.568  68.224  1.00  0.00    -0.416 A  
ENDBRANCH  31  32
ENDBRANCH  21  31
ENDBRANCH  17  18
ENDBRANCH  16  17
ENDBRANCH  13  16
ENDBRANCH   7  10
TORSDOF 7
ENDMDL
MODEL      124
REMARK 921   NORMALIZED FREE ENERGY PREDICTED BY IDOCK:   -5.29 KCAL/MOL
REMARK 922        TOTAL FREE ENERGY PREDICTED BY IDOCK:   -7.88 KCAL/MOL
REMARK 923 INTER-LIGAND FREE ENERGY PREDICTED BY IDOCK:   -7.53 KCAL/MOL
REMARK 924 INTRA-LIGAND FREE ENERGY PREDICTED BY IDOCK:   -0.35 KCAL/MOL
REMARK 927      BINDING AFFINITY PREDICTED BY RF-SCORE:    0.00 PKD
ROOT
HETATM    1  C   UNL     1     -10.653  18.191  67.227  1.00  0.00    -0.384 C  
HETATM    2  C   UNL     1      -9.224  17.780  66.986  1.00  0.00    -0.255 C  
HETATM    3  O   UNL     1      -8.332  18.627  66.951  1.00  0.00    -0.249 OA 
HETATM    4  N   UNL     1      -8.971  16.423  66.909  1.00  0.00    -0.204 N  
HETATM    5  C   UNL     1      -7.575  15.971  66.852  1.00  0.00    -0.233 C  
HETATM    6  C   UNL     1      -7.388  14.655  67.624  1.00  0.00    -0.185 C  
HETATM    7  N   UNL     1      -8.343  13.645  67.114  1.00  0.00    -0.171 NA 
HETATM    8  C   UNL     1      -9.961  15.402  66.522  1.00  0.00    -0.268 C  
HETATM    9  C   UNL     1      -9.750  14.069  67.266  1.00  0.00    -0.237 C  
ENDROOT
BRANCH   7  10
HETATM   10  C   UNL     1      -8.077  12.299  67.349  1.00  0.00    -0.175 A  
HETATM   11  C   UNL     1      -8.556  11.288  66.521  1.00  0.00    -0.170 A  
HETATM   12  C   UNL     1      -8.383   9.942  66.839  1.00  0.00    -0.124 A  
HETATM   13  C   UNL     1      -7.733   9.552  68.012  1.00  0.00    -0.087 A  
HETATM   14  C   UNL     1      -7.374  11.901  68.501  1.00  0.00    -0.111 A  
HETATM   15  C   UNL     1      -7.207  10.547  68.834  1.00  0.00    -0.086 A  
BRANCH  13  16
HETATM   16  O   UNL     1      -7.583   8.243  68.425  1.00  0.00    -0.097 OA 
BRANCH  16  17
HETATM   17  C   UNL     1      -8.710   7.415  68.118  1.00  0.00    -0.122 C  
BRANCH  17  18
HETATM   18  C   UNL     1     -10.042   7.954  68.617  1.00  0.00    -0.197 C  
HETATM   19  C   UNL     1     -11.011   6.887  69.045  1.00  0.00    -0.181 C  
HETATM   20  O   UNL     1     -11.780   7.511  70.069  1.00  0.00    -0.045 OA 
HETATM   21  C   UNL     1     -10.919   8.496  70.698  1.00  0.00    -0.239 C  
HETATM   22  O   UNL     1      -9.804   8.717  69.811  1.00  0.00    -0.178 OA 
BRANCH  21  23
HETATM   23  C   UNL     1     -11.660   9.825  70.869  1.00  0.00    -0.441 A  
HETATM   24 CL   UNL     1     -13.421   8.737  72.707  1.00  0.00    -0.339 Cl 
HETATM   25  C   UNL     1     -12.766  10.002  71.727  1.00  0.00    -0.428 A  
HETATM   26  C   UNL     1     -11.221  10.954  70.145  1.00  0.00    -0.317 A  
HETATM   27  C   UNL     1     -11.843  12.197  70.274  1.00  0.00    -0.339 A  
HETATM   28  C   UNL     1     -13.397  11.250  71.846  1.00  0.00    -0.413 A  
HETATM   29 CL   UNL     1     -13.688  13.874  71.298  1.00  0.00    -0.237 Cl 
HETATM   30  C   UNL     1     -12.929  12.341  71.126  1.00  0.00    -0.138 A  
ENDBRANCH  21  23
BRANCH  21  31
HETATM   31  C   UNL     1     -10.364   7.891  72.015  1.00  0.00    -0.225 C  
BRANCH  31  32
HETATM   32  N   UNL     1      -9.482   6.752  71.883  1.00  0.00    -0.147 NA 
HETATM   33  N   UNL     1      -8.849   4.673  71.434  1.00  0.00    -0.121 NA 
HETATM   34  C   UNL     1      -8.125   6.797  71.687  1.00  0.00    -0.106 A  
HETATM   35  C   UNL     1      -9.870   5.448  71.735  1.00  0.00    -0.174 A  
HETATM   36  C   UNL     1      -7.762   5.507  71.386  1.00  0.00    -0.109 A  
ENDBRANCH  31  32
ENDBRANCH  21  31
ENDBRANCH  17  18
ENDBRANCH  16  17
ENDBRANCH  13  16
ENDBRANCH   7  10
TORSDOF 7
ENDMDL
MODEL      125
REMARK 921   NORMALIZED FREE ENERGY PREDICTED BY IDOCK:   -5.28 KCAL/MOL
REMARK 922        TOTAL FREE ENERGY PREDICTED BY IDOCK:   -7.87 KCAL/MOL
REMARK 923 INTER-LIGAND FREE ENERGY PREDICTED BY IDOCK:   -6.81 KCAL/MOL
REMARK 924 INTRA-LIGAND FREE ENERGY PREDICTED BY IDOCK:   -1.06 KCAL/MOL
REMARK 927      BINDING AFFINITY PREDICTED BY RF-SCORE:    0.00 PKD
ROOT
HETATM    1  C   UNL     1     -13.494  13.374  72.450  1.00  0.00    -0.685 C  
HETATM    2  C   UNL     1     -12.884  13.099  71.100  1.00  0.00    -0.264 C  
HETATM    3  O   UNL     1     -12.668  14.023  70.317  1.00  0.00    -0.318 OA 
HETATM    4  N   UNL     1     -12.499  11.795  70.845  1.00  0.00    -0.363 N  
HETATM    5  C   UNL     1     -11.743  11.514  69.619  1.00  0.00    -0.351 C  
HETATM    6  C   UNL     1     -10.694  10.416  69.857  1.00  0.00    -0.279 C  
HETATM    7  N   UNL     1     -11.357   9.215  70.414  1.00  0.00    -0.248 NA 
HETATM    8  C   UNL     1     -13.074  10.605  71.495  1.00  0.00    -0.424 C  
HETATM    9  C   UNL     1     -12.033   9.487  71.698  1.00  0.00    -0.401 C  
ENDROOT
BRANCH   7  10
HETATM   10  C   UNL     1     -10.709   7.987  70.308  1.00  0.00    -0.239 A  
HETATM   11  C   UNL     1     -11.297   6.884  69.696  1.00  0.00    -0.254 A  
HETATM   12  C   UNL     1     -10.684   5.631  69.707  1.00  0.00    -0.401 A  
HETATM   13  C   UNL     1      -9.459   5.429  70.346  1.00  0.00    -0.164 A  
HETATM   14  C   UNL     1      -9.449   7.792  70.902  1.00  0.00    -0.165 A  
HETATM   15  C   UNL     1      -8.832   6.530  70.927  1.00  0.00    -0.147 A  
BRANCH  13  16
HETATM   16  O   UNL     1      -8.826   4.208  70.455  1.00  0.00    -0.076 OA 
BRANCH  16  17
HETATM   17  C   UNL     1      -7.401   4.292  70.342  1.00  0.00    -0.045 C  
BRANCH  17  18
HETATM   18  C   UNL     1      -6.882   4.282  68.912  1.00  0.00    -0.047 C  
HETATM   19  C   UNL     1      -6.714   2.905  68.332  1.00  0.00    -0.040 C  
HETATM   20  O   UNL     1      -6.945   3.088  66.938  1.00  0.00    -0.051 OA 
HETATM   21  C   UNL     1      -7.864   4.203  66.809  1.00  0.00    -0.097 C  
HETATM   22  O   UNL     1      -7.866   4.904  68.069  1.00  0.00    -0.082 OA 
BRANCH  21  23
HETATM   23  C   UNL     1      -7.381   5.173  65.727  1.00  0.00    -0.077 A  
HETATM   24 CL   UNL     1      -9.342   7.024  66.348  1.00  0.00    -0.199 Cl 
HETATM   25  C   UNL     1      -7.982   6.422  65.466  1.00  0.00    -0.116 A  
HETATM   26  C   UNL     1      -6.262   4.821  64.940  1.00  0.00    -0.034 A  
HETATM   27  C   UNL     1      -5.763   5.672  63.952  1.00  0.00    -0.014 A  
HETATM   28  C   UNL     1      -7.486   7.270  64.464  1.00  0.00    -0.092 A  
HETATM   29 CL   UNL     1      -5.754   7.950  62.512  1.00  0.00    -0.067 Cl 
HETATM   30  C   UNL     1      -6.376   6.894  63.718  1.00  0.00    -0.043 A  
ENDBRANCH  21  23
BRANCH  21  31
HETATM   31  C   UNL     1      -9.291   3.638  66.581  1.00  0.00    -0.188 C  
BRANCH  31  32
HETATM   32  N   UNL     1      -9.631   3.264  65.227  1.00  0.00    -0.129 NA 
HETATM   33  N   UNL     1      -9.896   1.960  63.450  1.00  0.00    -0.112 NA 
HETATM   34  C   UNL     1     -10.532   3.902  64.412  1.00  0.00    -0.224 A  
HETATM   35  C   UNL     1      -9.265   2.105  64.597  1.00  0.00    -0.133 A  
HETATM   36  C   UNL     1     -10.697   3.066  63.335  1.00  0.00    -0.246 A  
ENDBRANCH  31  32
ENDBRANCH  21  31
ENDBRANCH  17  18
ENDBRANCH  16  17
ENDBRANCH  13  16
ENDBRANCH   7  10
TORSDOF 7
ENDMDL
MODEL      126
REMARK 921   NORMALIZED FREE ENERGY PREDICTED BY IDOCK:   -5.27 KCAL/MOL
REMARK 922        TOTAL FREE ENERGY PREDICTED BY IDOCK:   -7.86 KCAL/MOL
REMARK 923 INTER-LIGAND FREE ENERGY PREDICTED BY IDOCK:   -7.22 KCAL/MOL
REMARK 924 INTRA-LIGAND FREE ENERGY PREDICTED BY IDOCK:   -0.64 KCAL/MOL
REMARK 927      BINDING AFFINITY PREDICTED BY RF-SCORE:    0.00 PKD
ROOT
HETATM    1  C   UNL     1     -10.140  19.439  67.314  1.00  0.00    -0.497 C  
HETATM    2  C   UNL     1     -10.633  18.617  66.152  1.00  0.00    -0.363 C  
HETATM    3  O   UNL     1     -10.848  19.149  65.063  1.00  0.00    -0.372 OA 
HETATM    4  N   UNL     1     -10.729  17.252  66.351  1.00  0.00    -0.152 N  
HETATM    5  C   UNL     1     -11.033  16.394  65.199  1.00  0.00    -0.232 C  
HETATM    6  C   UNL     1     -10.283  15.056  65.292  1.00  0.00    -0.377 C  
HETATM    7  N   UNL     1     -10.589  14.410  66.589  1.00  0.00    -0.279 NA 
HETATM    8  C   UNL     1     -10.907  16.602  67.661  1.00  0.00    -0.258 C  
HETATM    9  C   UNL     1     -10.189  15.241  67.743  1.00  0.00    -0.237 C  
ENDROOT
BRANCH   7  10
HETATM   10  C   UNL     1     -10.381  13.040  66.716  1.00  0.00    -0.254 A  
HETATM   11  C   UNL     1     -11.287  12.204  67.363  1.00  0.00    -0.393 A  
HETATM   12  C   UNL     1     -11.005  10.857  67.587  1.00  0.00    -0.350 A  
HETATM   13  C   UNL     1      -9.793  10.294  67.183  1.00  0.00    -0.185 A  
HETATM   14  C   UNL     1      -9.185  12.455  66.260  1.00  0.00    -0.150 A  
HETATM   15  C   UNL     1      -8.889  11.102  66.494  1.00  0.00    -0.174 A  
BRANCH  13  16
HETATM   16  O   UNL     1      -9.417   8.988  67.428  1.00  0.00    -0.139 OA 
BRANCH  16  17
HETATM   17  C   UNL     1     -10.495   8.157  67.868  1.00  0.00    -0.197 C  
BRANCH  17  18
HETATM   18  C   UNL     1     -10.253   7.462  69.200  1.00  0.00    -0.196 C  
HETATM   19  C   UNL     1     -11.246   6.378  69.514  1.00  0.00    -0.412 C  
HETATM   20  O   UNL     1     -10.505   5.449  70.299  1.00  0.00    -0.271 OA 
HETATM   21  C   UNL     1      -9.122   5.548  69.871  1.00  0.00    -0.134 C  
HETATM   22  O   UNL     1      -8.991   6.777  69.130  1.00  0.00    -0.133 OA 
BRANCH  21  23
HETATM   23  C   UNL     1      -8.190   5.621  71.083  1.00  0.00    -0.121 A  
HETATM   24 CL   UNL     1      -9.547   3.595  72.394  1.00  0.00    -0.188 Cl 
HETATM   25  C   UNL     1      -8.319   4.801  72.224  1.00  0.00    -0.116 A  
HETATM   26  C   UNL     1      -7.125   6.548  71.075  1.00  0.00    -0.069 A  
HETATM   27  C   UNL     1      -6.230   6.648  72.142  1.00  0.00    -0.042 A  
HETATM   28  C   UNL     1      -7.425   4.912  73.300  1.00  0.00    -0.088 A  
HETATM   29 CL   UNL     1      -5.273   5.939  74.559  1.00  0.00    -0.032 Cl 
HETATM   30  C   UNL     1      -6.383   5.828  73.251  1.00  0.00    -0.063 A  
ENDBRANCH  21  23
BRANCH  21  31
HETATM   31  C   UNL     1      -8.827   4.376  68.898  1.00  0.00    -0.098 C  
BRANCH  31  32
HETATM   32  N   UNL     1      -8.942   4.661  67.485  1.00  0.00    -0.109 NA 
HETATM   33  N   UNL     1      -9.891   4.843  65.487  1.00  0.00    -0.130 NA 
HETATM   34  C   UNL     1      -8.170   5.542  66.771  1.00  0.00    -0.105 A  
HETATM   35  C   UNL     1      -9.959   4.256  66.663  1.00  0.00    -0.177 A  
HETATM   36  C   UNL     1      -8.790   5.657  65.551  1.00  0.00    -0.130 A  
ENDBRANCH  31  32
ENDBRANCH  21  31
ENDBRANCH  17  18
ENDBRANCH  16  17
ENDBRANCH  13  16
ENDBRANCH   7  10
TORSDOF 7
ENDMDL
MODEL      127
REMARK 921   NORMALIZED FREE ENERGY PREDICTED BY IDOCK:   -5.26 KCAL/MOL
REMARK 922        TOTAL FREE ENERGY PREDICTED BY IDOCK:   -7.84 KCAL/MOL
REMARK 923 INTER-LIGAND FREE ENERGY PREDICTED BY IDOCK:   -7.48 KCAL/MOL
REMARK 924 INTRA-LIGAND FREE ENERGY PREDICTED BY IDOCK:   -0.36 KCAL/MOL
REMARK 927      BINDING AFFINITY PREDICTED BY RF-SCORE:    0.00 PKD
ROOT
HETATM    1  C   UNL     1      -6.710   5.211  71.201  1.00  0.00    -0.040 C  
HETATM    2  C   UNL     1      -7.028   5.669  69.801  1.00  0.00    -0.062 C  
HETATM    3  O   UNL     1      -7.533   4.890  68.993  1.00  0.00    -0.059 OA 
HETATM    4  N   UNL     1      -6.815   7.006  69.520  1.00  0.00    -0.049 N  
HETATM    5  C   UNL     1      -7.274   7.534  68.229  1.00  0.00    -0.093 C  
HETATM    6  C   UNL     1      -7.793   8.973  68.374  1.00  0.00    -0.103 C  
HETATM    7  N   UNL     1      -6.748   9.813  69.002  1.00  0.00    -0.049 NA 
HETATM    8  C   UNL     1      -5.862   7.875  70.232  1.00  0.00    -0.022 C  
HETATM    9  C   UNL     1      -6.363   9.328  70.343  1.00  0.00    -0.060 C  
ENDROOT
BRANCH   7  10
HETATM   10  C   UNL     1      -6.818  11.194  68.844  1.00  0.00    -0.086 A  
HETATM   11  C   UNL     1      -7.140  11.790  67.628  1.00  0.00    -0.107 A  
HETATM   12  C   UNL     1      -7.087  13.173  67.457  1.00  0.00    -0.156 A  
HETATM   13  C   UNL     1      -6.694  14.017  68.498  1.00  0.00    -0.099 A  
HETATM   14  C   UNL     1      -6.477  12.052  69.905  1.00  0.00    -0.029 A  
HETATM   15  C   UNL     1      -6.409  13.445  69.737  1.00  0.00    -0.083 A  
BRANCH  13  16
HETATM   16  O   UNL     1      -6.554  15.386  68.385  1.00  0.00    -0.105 OA 
BRANCH  16  17
HETATM   17  C   UNL     1      -7.647  16.119  68.946  1.00  0.00    -0.201 C  
BRANCH  17  18
HETATM   18  C   UNL     1      -9.022  15.606  68.545  1.00  0.00    -0.192 C  
HETATM   19  C   UNL     1     -10.161  16.431  69.076  1.00  0.00    -0.269 C  
HETATM   20  O   UNL     1     -11.181  16.286  68.091  1.00  0.00    -0.350 OA 
HETATM   21  C   UNL     1     -10.510  16.071  66.823  1.00  0.00    -0.308 C  
HETATM   22  O   UNL     1      -9.145  15.710  67.116  1.00  0.00    -0.197 OA 
BRANCH  21  23
HETATM   23  C   UNL     1     -11.156  14.908  66.065  1.00  0.00    -0.334 A  
HETATM   24 CL   UNL     1     -10.986  13.232  68.262  1.00  0.00    -0.266 Cl 
HETATM   25  C   UNL     1     -11.392  13.637  66.630  1.00  0.00    -0.326 A  
HETATM   26  C   UNL     1     -11.560  15.101  64.726  1.00  0.00    -0.364 A  
HETATM   27  C   UNL     1     -12.173  14.085  63.990  1.00  0.00    -0.395 A  
HETATM   28  C   UNL     1     -11.997  12.614  65.884  1.00  0.00    -0.497 A  
HETATM   29 CL   UNL     1     -13.159  11.598  63.673  1.00  0.00    -0.193 Cl 
HETATM   30  C   UNL     1     -12.390  12.845  64.572  1.00  0.00    -0.417 A  
ENDBRANCH  21  23
BRANCH  21  31
HETATM   31  C   UNL     1     -10.487  17.415  66.048  1.00  0.00    -0.276 C  
BRANCH  31  32
HETATM   32  N   UNL     1     -10.044  18.579  66.782  1.00  0.00    -0.357 NA 
HETATM   33  N   UNL     1      -8.723  20.255  67.392  1.00  0.00    -0.344 NA 
HETATM   34  C   UNL     1     -10.849  19.494  67.413  1.00  0.00    -0.414 A  
HETATM   35  C   UNL     1      -8.769  19.076  66.808  1.00  0.00    -0.309 A  
HETATM   36  C   UNL     1     -10.016  20.529  67.758  1.00  0.00    -0.269 A  
ENDBRANCH  31  32
ENDBRANCH  21  31
ENDBRANCH  17  18
ENDBRANCH  16  17
ENDBRANCH  13  16
ENDBRANCH   7  10
TORSDOF 7
ENDMDL
MODEL      128
REMARK 921   NORMALIZED FREE ENERGY PREDICTED BY IDOCK:   -5.26 KCAL/MOL
REMARK 922        TOTAL FREE ENERGY PREDICTED BY IDOCK:   -7.84 KCAL/MOL
REMARK 923 INTER-LIGAND FREE ENERGY PREDICTED BY IDOCK:   -7.39 KCAL/MOL
REMARK 924 INTRA-LIGAND FREE ENERGY PREDICTED BY IDOCK:   -0.45 KCAL/MOL
REMARK 927      BINDING AFFINITY PREDICTED BY RF-SCORE:    0.00 PKD
ROOT
HETATM    1  C   UNL     1      -8.884   2.289  65.534  1.00  0.00    -0.124 C  
HETATM    2  C   UNL     1      -8.984   2.730  66.971  1.00  0.00    -0.156 C  
HETATM    3  O   UNL     1      -8.621   1.980  67.876  1.00  0.00    -0.070 OA 
HETATM    4  N   UNL     1      -9.402   4.028  67.196  1.00  0.00    -0.170 N  
HETATM    5  C   UNL     1      -9.346   4.557  68.564  1.00  0.00    -0.143 C  
HETATM    6  C   UNL     1      -8.963   6.045  68.567  1.00  0.00    -0.114 C  
HETATM    7  N   UNL     1      -9.897   6.795  67.697  1.00  0.00    -0.124 NA 
HETATM    8  C   UNL     1     -10.229   4.820  66.268  1.00  0.00    -0.282 C  
HETATM    9  C   UNL     1      -9.874   6.319  66.299  1.00  0.00    -0.009 C  
ENDROOT
BRANCH   7  10
HETATM   10  C   UNL     1     -10.016   8.170  67.876  1.00  0.00    -0.182 A  
HETATM   11  C   UNL     1     -10.502   9.014  66.882  1.00  0.00    -0.293 A  
HETATM   12  C   UNL     1     -10.500  10.400  67.035  1.00  0.00    -0.309 A  
HETATM   13  C   UNL     1      -9.995  11.000  68.191  1.00  0.00    -0.177 A  
HETATM   14  C   UNL     1      -9.561   8.777  69.062  1.00  0.00    -0.162 A  
HETATM   15  C   UNL     1      -9.544  10.172  69.218  1.00  0.00    -0.239 A  
BRANCH  13  16
HETATM   16  O   UNL     1      -9.899  12.363  68.386  1.00  0.00    -0.217 OA 
BRANCH  16  17
HETATM   17  C   UNL     1      -8.653  12.771  68.960  1.00  0.00     0.495 C  
BRANCH  17  18
HETATM   18  C   UNL     1      -8.049  14.019  68.334  1.00  0.00    -0.148 C  
HETATM   19  C   UNL     1      -8.209  14.092  66.841  1.00  0.00     0.057 C  
HETATM   20  O   UNL     1      -8.279  15.489  66.570  1.00  0.00    -0.248 OA 
HETATM   21  C   UNL     1      -8.858  16.114  67.744  1.00  0.00    -0.183 C  
HETATM   22  O   UNL     1      -8.768  15.163  68.824  1.00  0.00    -0.173 OA 
BRANCH  21  23
HETATM   23  C   UNL     1      -8.056  17.358  68.138  1.00  0.00    -0.232 A  
HETATM   24 CL   UNL     1      -9.369  18.934  66.278  1.00  0.00    -0.326 Cl 
HETATM   25  C   UNL     1      -8.223  18.624  67.536  1.00  0.00    -0.253 A  
HETATM   26  C   UNL     1      -7.097  17.259  69.170  1.00  0.00    -0.204 A  
HETATM   27  C   UNL     1      -6.350  18.362  69.586  1.00  0.00    -0.199 A  
HETATM   28  C   UNL     1      -7.463  19.728  67.950  1.00  0.00    -0.322 A  
HETATM   29 CL   UNL     1      -5.628  20.957  69.498  1.00  0.00    -0.414 Cl 
HETATM   30  C   UNL     1      -6.536  19.593  68.975  1.00  0.00    -0.323 A  
ENDBRANCH  21  23
BRANCH  21  31
HETATM   31  C   UNL     1     -10.362  16.375  67.468  1.00  0.00    -0.288 C  
BRANCH  31  32
HETATM   32  N   UNL     1     -10.993  15.537  66.473  1.00  0.00    -0.287 NA 
HETATM   33  N   UNL     1     -12.355  14.000  65.632  1.00  0.00    -0.454 NA 
HETATM   34  C   UNL     1     -11.111  15.817  65.135  1.00  0.00    -0.324 A  
HETATM   35  C   UNL     1     -11.750  14.424  66.722  1.00  0.00    -0.397 A  
HETATM   36  C   UNL     1     -11.976  14.870  64.644  1.00  0.00    -0.401 A  
ENDBRANCH  31  32
ENDBRANCH  21  31
ENDBRANCH  17  18
ENDBRANCH  16  17
ENDBRANCH  13  16
ENDBRANCH   7  10
TORSDOF 7
ENDMDL
MODEL      129
REMARK 921   NORMALIZED FREE ENERGY PREDICTED BY IDOCK:   -5.24 KCAL/MOL
REMARK 922        TOTAL FREE ENERGY PREDICTED BY IDOCK:   -7.81 KCAL/MOL
REMARK 923 INTER-LIGAND FREE ENERGY PREDICTED BY IDOCK:   -7.34 KCAL/MOL
REMARK 924 INTRA-LIGAND FREE ENERGY PREDICTED BY IDOCK:   -0.47 KCAL/MOL
REMARK 927      BINDING AFFINITY PREDICTED BY RF-SCORE:    0.00 PKD
ROOT
HETATM    1  C   UNL     1      -9.868  19.783  67.674  1.00  0.00    -0.514 C  
HETATM    2  C   UNL     1     -10.178  18.916  66.482  1.00  0.00    -0.414 C  
HETATM    3  O   UNL     1     -10.027  19.352  65.341  1.00  0.00    -0.216 OA 
HETATM    4  N   UNL     1     -10.535  17.605  66.741  1.00  0.00    -0.320 N  
HETATM    5  C   UNL     1     -10.674  16.679  65.611  1.00  0.00    -0.214 C  
HETATM    6  C   UNL     1     -10.192  15.269  65.990  1.00  0.00    -0.317 C  
HETATM    7  N   UNL     1     -10.910  14.813  67.201  1.00  0.00    -0.303 NA 
HETATM    8  C   UNL     1     -11.135  17.129  68.000  1.00  0.00    -0.113 C  
HETATM    9  C   UNL     1     -10.685  15.700  68.360  1.00  0.00    -0.271 C  
ENDROOT
BRANCH   7  10
HETATM   10  C   UNL     1     -10.960  13.448  67.471  1.00  0.00    -0.267 A  
HETATM   11  C   UNL     1     -11.089  12.947  68.763  1.00  0.00    -0.305 A  
HETATM   12  C   UNL     1     -11.014  11.580  69.026  1.00  0.00    -0.285 A  
HETATM   13  C   UNL     1     -10.792  10.656  68.003  1.00  0.00    -0.261 A  
HETATM   14  C   UNL     1     -10.793  12.510  66.436  1.00  0.00    -0.290 A  
HETATM   15  C   UNL     1     -10.704  11.132  66.696  1.00  0.00    -0.322 A  
BRANCH  13  16
HETATM   16  O   UNL     1     -10.641   9.298  68.195  1.00  0.00    -0.221 OA 
BRANCH  16  17
HETATM   17  C   UNL     1     -10.575   8.553  66.974  1.00  0.00    -0.235 C  
BRANCH  17  18
HETATM   18  C   UNL     1      -9.218   7.925  66.692  1.00  0.00    -0.177 C  
HETATM   19  C   UNL     1      -8.117   8.423  67.586  1.00  0.00    -0.118 C  
HETATM   20  O   UNL     1      -7.230   7.313  67.690  1.00  0.00    -0.085 OA 
HETATM   21  C   UNL     1      -8.037   6.117  67.546  1.00  0.00    -0.109 C  
HETATM   22  O   UNL     1      -9.301   6.520  66.981  1.00  0.00    -0.131 OA 
BRANCH  21  23
HETATM   23  C   UNL     1      -7.374   5.137  66.573  1.00  0.00    -0.086 A  
HETATM   24 CL   UNL     1      -9.619   3.521  66.489  1.00  0.00    -0.169 Cl 
HETATM   25  C   UNL     1      -8.004   3.978  66.073  1.00  0.00    -0.094 A  
HETATM   26  C   UNL     1      -6.059   5.396  66.128  1.00  0.00    -0.030 A  
HETATM   27  C   UNL     1      -5.409   4.551  65.228  1.00  0.00    -0.013 A  
HETATM   28  C   UNL     1      -7.344   3.125  65.177  1.00  0.00    -0.071 A  
HETATM   29 CL   UNL     1      -5.261   2.384  63.631  1.00  0.00    -0.007 Cl 
HETATM   30  C   UNL     1      -6.054   3.418  64.754  1.00  0.00    -0.023 A  
ENDBRANCH  21  23
BRANCH  21  31
HETATM   31  C   UNL     1      -8.313   5.538  68.959  1.00  0.00    -0.102 C  
BRANCH  31  32
HETATM   32  N   UNL     1      -9.467   6.058  69.657  1.00  0.00    -0.143 NA 
HETATM   33  N   UNL     1     -11.602   6.323  70.206  1.00  0.00    -0.374 NA 
HETATM   34  C   UNL     1      -9.476   6.591  70.922  1.00  0.00    -0.172 A  
HETATM   35  C   UNL     1     -10.772   5.928  69.263  1.00  0.00    -0.331 A  
HETATM   36  C   UNL     1     -10.804   6.722  71.247  1.00  0.00    -0.232 A  
ENDBRANCH  31  32
ENDBRANCH  21  31
ENDBRANCH  17  18
ENDBRANCH  16  17
ENDBRANCH  13  16
ENDBRANCH   7  10
TORSDOF 7
ENDMDL
MODEL      130
REMARK 921   NORMALIZED FREE ENERGY PREDICTED BY IDOCK:   -5.20 KCAL/MOL
REMARK 922        TOTAL FREE ENERGY PREDICTED BY IDOCK:   -7.76 KCAL/MOL
REMARK 923 INTER-LIGAND FREE ENERGY PREDICTED BY IDOCK:   -7.11 KCAL/MOL
REMARK 924 INTRA-LIGAND FREE ENERGY PREDICTED BY IDOCK:   -0.65 KCAL/MOL
REMARK 927      BINDING AFFINITY PREDICTED BY RF-SCORE:    0.00 PKD
ROOT
HETATM    1  C   UNL     1      -9.321  16.056  65.671  1.00  0.00    -0.124 C  
HETATM    2  C   UNL     1     -10.407  15.092  65.273  1.00  0.00    -0.396 C  
HETATM    3  O   UNL     1     -11.292  15.443  64.492  1.00  0.00    -0.385 OA 
HETATM    4  N   UNL     1     -10.296  13.798  65.746  1.00  0.00    -0.299 N  
HETATM    5  C   UNL     1     -11.230  12.783  65.243  1.00  0.00    -0.293 C  
HETATM    6  C   UNL     1     -10.537  11.419  65.096  1.00  0.00    -0.293 C  
HETATM    7  N   UNL     1      -9.914  11.042  66.384  1.00  0.00    -0.214 NA 
HETATM    8  C   UNL     1      -9.565  13.407  66.965  1.00  0.00    -0.244 C  
HETATM    9  C   UNL     1      -8.904  12.021  66.833  1.00  0.00    -0.197 C  
ENDROOT
BRANCH   7  10
HETATM   10  C   UNL     1      -9.615   9.701  66.612  1.00  0.00    -0.187 A  
HETATM   11  C   UNL     1      -8.327   9.191  66.481  1.00  0.00    -0.119 A  
HETATM   12  C   UNL     1      -8.068   7.826  66.594  1.00  0.00    -0.111 A  
HETATM   13  C   UNL     1      -9.096   6.910  66.828  1.00  0.00    -0.145 A  
HETATM   14  C   UNL     1     -10.639   8.781  66.904  1.00  0.00    -0.263 A  
HETATM   15  C   UNL     1     -10.388   7.404  67.006  1.00  0.00    -0.384 A  
BRANCH  13  16
HETATM   16  O   UNL     1      -8.926   5.542  66.885  1.00  0.00    -0.112 OA 
BRANCH  16  17
HETATM   17  C   UNL     1      -8.733   5.046  68.214  1.00  0.00    -0.102 C  
BRANCH  17  18
HETATM   18  C   UNL     1      -9.807   5.467  69.206  1.00  0.00    -0.182 C  
HETATM   19  C   UNL     1     -10.041   4.474  70.311  1.00  0.00    -0.160 C  
HETATM   20  O   UNL     1     -10.449   5.277  71.415  1.00  0.00    -0.220 OA 
HETATM   21  C   UNL     1      -9.811   6.570  71.250  1.00  0.00    -0.181 C  
HETATM   22  O   UNL     1      -9.356   6.651  69.884  1.00  0.00    -0.152 OA 
BRANCH  21  23
HETATM   23  C   UNL     1     -10.820   7.698  71.483  1.00  0.00    -0.256 A  
HETATM   24 CL   UNL     1      -9.201   9.560  70.228  1.00  0.00    -0.284 Cl 
HETATM   25  C   UNL     1     -10.617   9.031  71.068  1.00  0.00    -0.271 A  
HETATM   26  C   UNL     1     -12.036   7.407  72.139  1.00  0.00    -0.307 A  
HETATM   27  C   UNL     1     -13.003   8.389  72.363  1.00  0.00    -0.297 A  
HETATM   28  C   UNL     1     -11.586  10.018  71.304  1.00  0.00    -0.430 A  
HETATM   29 CL   UNL     1     -13.971  10.899  72.203  1.00  0.00     0.224 Cl 
HETATM   30  C   UNL     1     -12.775   9.691  71.943  1.00  0.00    -0.411 A  
ENDBRANCH  21  23
BRANCH  21  31
HETATM   31  C   UNL     1      -8.561   6.620  72.168  1.00  0.00    -0.118 C  
BRANCH  31  32
HETATM   32  N   UNL     1      -7.291   6.309  71.551  1.00  0.00    -0.087 NA 
HETATM   33  N   UNL     1      -5.596   5.073  70.826  1.00  0.00    -0.011 NA 
HETATM   34  C   UNL     1      -6.649   7.058  70.597  1.00  0.00    -0.052 A  
HETATM   35  C   UNL     1      -6.610   5.127  71.664  1.00  0.00    -0.036 A  
HETATM   36  C   UNL     1      -5.623   6.264  70.147  1.00  0.00    -0.014 A  
ENDBRANCH  31  32
ENDBRANCH  21  31
ENDBRANCH  17  18
ENDBRANCH  16  17
ENDBRANCH  13  16
ENDBRANCH   7  10
TORSDOF 7
ENDMDL
MODEL      131
REMARK 921   NORMALIZED FREE ENERGY PREDICTED BY IDOCK:   -5.17 KCAL/MOL
REMARK 922        TOTAL FREE ENERGY PREDICTED BY IDOCK:   -7.72 KCAL/MOL
REMARK 923 INTER-LIGAND FREE ENERGY PREDICTED BY IDOCK:   -7.66 KCAL/MOL
REMARK 924 INTRA-LIGAND FREE ENERGY PREDICTED BY IDOCK:   -0.06 KCAL/MOL
REMARK 927      BINDING AFFINITY PREDICTED BY RF-SCORE:    0.00 PKD
ROOT
HETATM    1  C   UNL     1      -9.356  20.382  66.909  1.00  0.00    -0.477 C  
HETATM    2  C   UNL     1     -10.067  19.165  66.379  1.00  0.00    -0.419 C  
HETATM    3  O   UNL     1     -10.876  19.271  65.457  1.00  0.00    -0.412 OA 
HETATM    4  N   UNL     1      -9.691  17.944  66.908  1.00  0.00    -0.296 N  
HETATM    5  C   UNL     1     -10.228  16.720  66.301  1.00  0.00    -0.332 C  
HETATM    6  C   UNL     1      -9.182  15.594  66.311  1.00  0.00    -0.330 C  
HETATM    7  N   UNL     1      -8.696  15.387  67.694  1.00  0.00    -0.163 NA 
HETATM    8  C   UNL     1      -9.089  17.753  68.240  1.00  0.00    -0.281 C  
HETATM    9  C   UNL     1      -8.069  16.598  68.262  1.00  0.00    -0.198 C  
ENDROOT
BRANCH   7  10
HETATM   10  C   UNL     1      -8.090  14.174  68.013  1.00  0.00    -0.149 A  
HETATM   11  C   UNL     1      -6.825  14.100  68.588  1.00  0.00    -0.101 A  
HETATM   12  C   UNL     1      -6.185  12.878  68.787  1.00  0.00    -0.076 A  
HETATM   13  C   UNL     1      -6.783  11.676  68.403  1.00  0.00    -0.064 A  
HETATM   14  C   UNL     1      -8.712  12.957  67.679  1.00  0.00    -0.185 A  
HETATM   15  C   UNL     1      -8.068  11.723  67.865  1.00  0.00    -0.144 A  
BRANCH  13  16
HETATM   16  O   UNL     1      -6.184  10.436  68.507  1.00  0.00    -0.047 OA 
BRANCH  16  17
HETATM   17  C   UNL     1      -6.765   9.448  67.649  1.00  0.00    -0.068 C  
BRANCH  17  18
HETATM   18  C   UNL     1      -7.889   8.644  68.284  1.00  0.00    -0.102 C  
HETATM   19  C   UNL     1      -7.535   7.209  68.557  1.00  0.00    -0.106 C  
HETATM   20  O   UNL     1      -8.312   6.874  69.703  1.00  0.00    -0.129 OA 
HETATM   21  C   UNL     1      -8.490   8.099  70.460  1.00  0.00    -0.125 C  
HETATM   22  O   UNL     1      -8.161   9.195  69.583  1.00  0.00    -0.103 OA 
BRANCH  21  23
HETATM   23  C   UNL     1      -9.952   8.255  70.888  1.00  0.00    -0.223 A  
HETATM   24 CL   UNL     1     -10.379   5.520  70.840  1.00  0.00    -0.294 Cl 
HETATM   25  C   UNL     1     -10.838   7.172  71.070  1.00  0.00    -0.240 A  
HETATM   26  C   UNL     1     -10.461   9.549  71.133  1.00  0.00    -0.358 A  
HETATM   27  C   UNL     1     -11.779   9.754  71.545  1.00  0.00    -0.450 A  
HETATM   28  C   UNL     1     -12.165   7.382  71.473  1.00  0.00    -0.368 A  
HETATM   29 CL   UNL     1     -14.246   8.918  72.237  1.00  0.00    -0.499 Cl 
HETATM   30  C   UNL     1     -12.627   8.669  71.715  1.00  0.00    -0.349 A  
ENDBRANCH  21  23
BRANCH  21  31
HETATM   31  C   UNL     1      -7.470   8.105  71.629  1.00  0.00    -0.085 C  
BRANCH  31  32
HETATM   32  N   UNL     1      -7.635   7.083  72.638  1.00  0.00    -0.088 NA 
HETATM   33  N   UNL     1      -7.225   5.224  73.779  1.00  0.00    -0.082 NA 
HETATM   34  C   UNL     1      -8.235   7.242  73.862  1.00  0.00    -0.138 A  
HETATM   35  C   UNL     1      -7.052   5.844  72.631  1.00  0.00    -0.085 A  
HETATM   36  C   UNL     1      -7.947   6.093  74.556  1.00  0.00    -0.101 A  
ENDBRANCH  31  32
ENDBRANCH  21  31
ENDBRANCH  17  18
ENDBRANCH  16  17
ENDBRANCH  13  16
ENDBRANCH   7  10
TORSDOF 7
ENDMDL
MODEL      132
REMARK 921   NORMALIZED FREE ENERGY PREDICTED BY IDOCK:   -5.13 KCAL/MOL
REMARK 922        TOTAL FREE ENERGY PREDICTED BY IDOCK:   -7.66 KCAL/MOL
REMARK 923 INTER-LIGAND FREE ENERGY PREDICTED BY IDOCK:   -7.27 KCAL/MOL
REMARK 924 INTRA-LIGAND FREE ENERGY PREDICTED BY IDOCK:   -0.40 KCAL/MOL
REMARK 927      BINDING AFFINITY PREDICTED BY RF-SCORE:    0.00 PKD
ROOT
HETATM    1  C   UNL     1     -10.315  20.033  65.457  1.00  0.00    -0.282 C  
HETATM    2  C   UNL     1     -10.354  19.621  66.905  1.00  0.00    -0.465 C  
HETATM    3  O   UNL     1     -11.133  20.169  67.685  1.00  0.00    -0.002 OA 
HETATM    4  N   UNL     1      -9.556  18.552  67.271  1.00  0.00    -0.289 N  
HETATM    5  C   UNL     1      -9.693  18.005  68.626  1.00  0.00    -0.350 C  
HETATM    6  C   UNL     1      -9.515  16.478  68.626  1.00  0.00    -0.243 C  
HETATM    7  N   UNL     1      -8.221  16.134  67.993  1.00  0.00    -0.149 NA 
HETATM    8  C   UNL     1      -8.334  18.132  66.562  1.00  0.00    -0.265 C  
HETATM    9  C   UNL     1      -8.132  16.605  66.596  1.00  0.00    -0.274 C  
ENDROOT
BRANCH   7  10
HETATM   10  C   UNL     1      -7.660  14.888  68.259  1.00  0.00    -0.113 A  
HETATM   11  C   UNL     1      -6.958  14.620  69.430  1.00  0.00    -0.163 A  
HETATM   12  C   UNL     1      -6.300  13.407  69.625  1.00  0.00    -0.093 A  
HETATM   13  C   UNL     1      -6.307  12.413  68.644  1.00  0.00    -0.073 A  
HETATM   14  C   UNL     1      -7.711  13.863  67.296  1.00  0.00    -0.104 A  
HETATM   15  C   UNL     1      -7.040  12.643  67.481  1.00  0.00    -0.152 A  
BRANCH  13  16
HETATM   16  O   UNL     1      -5.625  11.217  68.738  1.00  0.00    -0.040 OA 
BRANCH  16  17
HETATM   17  C   UNL     1      -5.794  10.561  69.999  1.00  0.00    -0.071 C  
BRANCH  17  18
HETATM   18  C   UNL     1      -6.729   9.360  69.964  1.00  0.00    -0.063 C  
HETATM   19  C   UNL     1      -7.377   9.053  71.285  1.00  0.00    -0.069 C  
HETATM   20  O   UNL     1      -8.632   8.481  70.928  1.00  0.00    -0.131 OA 
HETATM   21  C   UNL     1      -9.012   9.066  69.656  1.00  0.00    -0.153 C  
HETATM   22  O   UNL     1      -7.829   9.669  69.093  1.00  0.00    -0.081 OA 
BRANCH  21  23
HETATM   23  C   UNL     1      -9.498   7.981  68.691  1.00  0.00    -0.147 A  
HETATM   24 CL   UNL     1     -10.317   9.849  66.821  1.00  0.00    -0.294 Cl 
HETATM   25  C   UNL     1     -10.083   8.250  67.436  1.00  0.00    -0.233 A  
HETATM   26  C   UNL     1      -9.349   6.624  69.053  1.00  0.00    -0.133 A  
HETATM   27  C   UNL     1      -9.755   5.590  68.207  1.00  0.00    -0.167 A  
HETATM   28  C   UNL     1     -10.499   7.209  66.593  1.00  0.00    -0.205 A  
HETATM   29 CL   UNL     1     -10.813   4.614  65.929  1.00  0.00    -0.210 Cl 
HETATM   30  C   UNL     1     -10.327   5.886  66.979  1.00  0.00    -0.243 A  
ENDBRANCH  21  23
BRANCH  21  31
HETATM   31  C   UNL     1     -10.038  10.199  69.925  1.00  0.00    -0.222 C  
BRANCH  31  32
HETATM   32  N   UNL     1     -11.158   9.869  70.777  1.00  0.00    -0.327 NA 
HETATM   33  N   UNL     1     -13.258   9.803  71.493  1.00  0.00    -0.387 NA 
HETATM   34  C   UNL     1     -11.243   8.791  71.623  1.00  0.00    -0.324 A  
HETATM   35  C   UNL     1     -12.394  10.455  70.743  1.00  0.00    -0.367 A  
HETATM   36  C   UNL     1     -12.554   8.757  72.031  1.00  0.00    -0.385 A  
ENDBRANCH  31  32
ENDBRANCH  21  31
ENDBRANCH  17  18
ENDBRANCH  16  17
ENDBRANCH  13  16
ENDBRANCH   7  10
TORSDOF 7
ENDMDL
MODEL      133
REMARK 921   NORMALIZED FREE ENERGY PREDICTED BY IDOCK:   -5.12 KCAL/MOL
REMARK 922        TOTAL FREE ENERGY PREDICTED BY IDOCK:   -7.64 KCAL/MOL
REMARK 923 INTER-LIGAND FREE ENERGY PREDICTED BY IDOCK:   -7.71 KCAL/MOL
REMARK 924 INTRA-LIGAND FREE ENERGY PREDICTED BY IDOCK:    0.07 KCAL/MOL
REMARK 927      BINDING AFFINITY PREDICTED BY RF-SCORE:    0.00 PKD
ROOT
HETATM    1  C   UNL     1     -10.208  19.627  67.294  1.00  0.00    -0.559 C  
HETATM    2  C   UNL     1     -10.625  18.666  66.212  1.00  0.00    -0.348 C  
HETATM    3  O   UNL     1     -10.953  19.086  65.102  1.00  0.00    -0.471 OA 
HETATM    4  N   UNL     1     -10.523  17.318  66.503  1.00  0.00    -0.297 N  
HETATM    5  C   UNL     1     -10.748  16.348  65.424  1.00  0.00    -0.296 C  
HETATM    6  C   UNL     1      -9.817  15.135  65.569  1.00  0.00    -0.321 C  
HETATM    7  N   UNL     1      -9.981  14.546  66.918  1.00  0.00    -0.254 NA 
HETATM    8  C   UNL     1     -10.559  16.744  67.859  1.00  0.00    -0.350 C  
HETATM    9  C   UNL     1      -9.657  15.502  67.995  1.00  0.00    -0.203 C  
ENDROOT
BRANCH   7  10
HETATM   10  C   UNL     1      -9.580  13.229  67.123  1.00  0.00    -0.240 A  
HETATM   11  C   UNL     1      -8.241  12.863  67.223  1.00  0.00    -0.176 A  
HETATM   12  C   UNL     1      -7.855  11.526  67.307  1.00  0.00    -0.153 A  
HETATM   13  C   UNL     1      -8.797  10.496  67.277  1.00  0.00    -0.136 A  
HETATM   14  C   UNL     1     -10.530  12.191  67.151  1.00  0.00    -0.241 A  
HETATM   15  C   UNL     1     -10.147  10.841  67.221  1.00  0.00    -0.233 A  
BRANCH  13  16
HETATM   16  O   UNL     1      -8.487   9.151  67.289  1.00  0.00    -0.120 OA 
BRANCH  16  17
HETATM   17  C   UNL     1      -9.469   8.334  66.643  1.00  0.00    -0.209 C  
BRANCH  17  18
HETATM   18  C   UNL     1     -10.226   7.402  67.578  1.00  0.00    -0.224 C  
HETATM   19  C   UNL     1     -11.017   6.338  66.870  1.00  0.00    -0.329 C  
HETATM   20  O   UNL     1     -11.016   5.244  67.783  1.00  0.00     0.057 OA 
HETATM   21  C   UNL     1      -9.787   5.338  68.548  1.00  0.00    -0.152 C  
HETATM   22  O   UNL     1      -9.268   6.670  68.361  1.00  0.00    -0.125 OA 
BRANCH  21  23
HETATM   23  C   UNL     1     -10.070   5.144  70.041  1.00  0.00    -0.345 A  
HETATM   24 CL   UNL     1     -11.165   7.675  70.280  1.00  0.00    -0.260 Cl 
HETATM   25  C   UNL     1     -10.666   6.124  70.862  1.00  0.00    -0.258 A  
HETATM   26  C   UNL     1      -9.734   3.914  70.648  1.00  0.00    -0.248 A  
HETATM   27  C   UNL     1      -9.985   3.670  72.000  1.00  0.00    -0.232 A  
HETATM   28  C   UNL     1     -10.906   5.880  72.222  1.00  0.00    -0.292 A  
HETATM   29 CL   UNL     1     -10.897   4.350  74.443  1.00  0.00    -0.211 Cl 
HETATM   30  C   UNL     1     -10.572   4.654  72.782  1.00  0.00    -0.208 A  
ENDBRANCH  21  23
BRANCH  21  31
HETATM   31  C   UNL     1      -8.760   4.342  67.949  1.00  0.00    -0.106 C  
BRANCH  31  32
HETATM   32  N   UNL     1      -7.363   4.649  68.157  1.00  0.00    -0.065 NA 
HETATM   33  N   UNL     1      -5.379   5.581  67.803  1.00  0.00    -0.004 NA 
HETATM   34  C   UNL     1      -6.686   4.578  69.348  1.00  0.00    -0.045 A  
HETATM   35  C   UNL     1      -6.528   5.248  67.252  1.00  0.00    -0.052 A  
HETATM   36  C   UNL     1      -5.476   5.182  69.111  1.00  0.00    -0.008 A  
ENDBRANCH  31  32
ENDBRANCH  21  31
ENDBRANCH  17  18
ENDBRANCH  16  17
ENDBRANCH  13  16
ENDBRANCH   7  10
TORSDOF 7
ENDMDL
MODEL      134
REMARK 921   NORMALIZED FREE ENERGY PREDICTED BY IDOCK:   -5.10 KCAL/MOL
REMARK 922        TOTAL FREE ENERGY PREDICTED BY IDOCK:   -7.62 KCAL/MOL
REMARK 923 INTER-LIGAND FREE ENERGY PREDICTED BY IDOCK:   -6.81 KCAL/MOL
REMARK 924 INTRA-LIGAND FREE ENERGY PREDICTED BY IDOCK:   -0.81 KCAL/MOL
REMARK 927      BINDING AFFINITY PREDICTED BY RF-SCORE:    0.00 PKD
ROOT
HETATM    1  C   UNL     1      -9.545  20.745  66.999  1.00  0.00    -0.411 C  
HETATM    2  C   UNL     1      -8.087  20.433  67.210  1.00  0.00    -0.338 C  
HETATM    3  O   UNL     1      -7.281  21.340  67.415  1.00  0.00    -0.511 OA 
HETATM    4  N   UNL     1      -7.737  19.096  67.258  1.00  0.00    -0.233 N  
HETATM    5  C   UNL     1      -6.363  18.742  67.636  1.00  0.00    -0.204 C  
HETATM    6  C   UNL     1      -6.335  17.454  68.473  1.00  0.00    -0.176 C  
HETATM    7  N   UNL     1      -7.026  16.372  67.735  1.00  0.00    -0.130 NA 
HETATM    8  C   UNL     1      -8.498  18.002  66.628  1.00  0.00    -0.262 C  
HETATM    9  C   UNL     1      -8.437  16.698  67.445  1.00  0.00    -0.188 C  
ENDROOT
BRANCH   7  10
HETATM   10  C   UNL     1      -6.759  15.051  68.084  1.00  0.00    -0.128 A  
HETATM   11  C   UNL     1      -7.747  14.072  68.113  1.00  0.00    -0.143 A  
HETATM   12  C   UNL     1      -7.486  12.785  68.581  1.00  0.00    -0.092 A  
HETATM   13  C   UNL     1      -6.222  12.430  69.056  1.00  0.00    -0.083 A  
HETATM   14  C   UNL     1      -5.472  14.673  68.510  1.00  0.00    -0.102 A  
HETATM   15  C   UNL     1      -5.205  13.382  68.995  1.00  0.00    -0.069 A  
BRANCH  13  16
HETATM   16  O   UNL     1      -5.906  11.199  69.595  1.00  0.00    -0.057 OA 
BRANCH  16  17
HETATM   17  C   UNL     1      -5.388  10.272  68.636  1.00  0.00    -0.038 C  
BRANCH  17  18
HETATM   18  C   UNL     1      -5.974  10.417  67.239  1.00  0.00    -0.053 C  
HETATM   19  C   UNL     1      -5.272   9.594  66.194  1.00  0.00    -0.039 C  
HETATM   20  O   UNL     1      -6.296   9.288  65.252  1.00  0.00    -0.063 OA 
HETATM   21  C   UNL     1      -7.546   9.250  65.989  1.00  0.00    -0.096 C  
HETATM   22  O   UNL     1      -7.315   9.901  67.255  1.00  0.00    -0.086 OA 
BRANCH  21  23
HETATM   23  C   UNL     1      -8.631  10.032  65.244  1.00  0.00    -0.166 A  
HETATM   24 CL   UNL     1      -8.250   8.573  62.923  1.00  0.00    -0.183 Cl 
HETATM   25  C   UNL     1      -8.989   9.794  63.900  1.00  0.00    -0.243 A  
HETATM   26  C   UNL     1      -9.337  11.048  65.926  1.00  0.00    -0.229 A  
HETATM   27  C   UNL     1     -10.350  11.781  65.306  1.00  0.00    -0.317 A  
HETATM   28  C   UNL     1     -10.000  10.540  63.277  1.00  0.00    -0.231 A  
HETATM   29 CL   UNL     1     -11.938  12.415  63.223  1.00  0.00    -0.554 Cl 
HETATM   30  C   UNL     1     -10.679  11.524  63.984  1.00  0.00    -0.384 A  
ENDBRANCH  21  23
BRANCH  21  31
HETATM   31  C   UNL     1      -7.899   7.767  66.277  1.00  0.00    -0.091 C  
BRANCH  31  32
HETATM   32  N   UNL     1      -8.974   7.528  67.213  1.00  0.00    -0.123 NA 
HETATM   33  N   UNL     1     -10.941   6.822  67.962  1.00  0.00    -0.233 NA 
HETATM   34  C   UNL     1      -8.853   7.425  68.577  1.00  0.00    -0.126 A  
HETATM   35  C   UNL     1     -10.255   7.168  66.892  1.00  0.00    -0.260 A  
HETATM   36  C   UNL     1     -10.072   6.964  69.012  1.00  0.00    -0.170 A  
ENDBRANCH  31  32
ENDBRANCH  21  31
ENDBRANCH  17  18
ENDBRANCH  16  17
ENDBRANCH  13  16
ENDBRANCH   7  10
TORSDOF 7
ENDMDL
MODEL      135
REMARK 921   NORMALIZED FREE ENERGY PREDICTED BY IDOCK:   -5.09 KCAL/MOL
REMARK 922        TOTAL FREE ENERGY PREDICTED BY IDOCK:   -7.61 KCAL/MOL
REMARK 923 INTER-LIGAND FREE ENERGY PREDICTED BY IDOCK:   -6.83 KCAL/MOL
REMARK 924 INTRA-LIGAND FREE ENERGY PREDICTED BY IDOCK:   -0.78 KCAL/MOL
REMARK 927      BINDING AFFINITY PREDICTED BY RF-SCORE:    0.00 PKD
ROOT
HETATM    1  C   UNL     1     -12.087  15.813  64.071  1.00  0.00     0.194 C  
HETATM    2  C   UNL     1     -12.251  14.318  63.983  1.00  0.00    -0.299 C  
HETATM    3  O   UNL     1     -12.292  13.762  62.886  1.00  0.00    -0.528 OA 
HETATM    4  N   UNL     1     -12.251  13.620  65.177  1.00  0.00    -0.407 N  
HETATM    5  C   UNL     1     -12.230  12.153  65.133  1.00  0.00    -0.146 C  
HETATM    6  C   UNL     1     -11.387  11.578  66.281  1.00  0.00    -0.153 C  
HETATM    7  N   UNL     1     -11.884  12.109  67.571  1.00  0.00    -0.553 NA 
HETATM    8  C   UNL     1     -12.626  14.188  66.484  1.00  0.00    -0.128 C  
HETATM    9  C   UNL     1     -11.809  13.582  67.642  1.00  0.00    -0.363 C  
ENDROOT
BRANCH   7  10
HETATM   10  C   UNL     1     -11.573  11.420  68.740  1.00  0.00    -0.313 A  
HETATM   11  C   UNL     1     -10.373  10.734  68.905  1.00  0.00    -0.220 A  
HETATM   12  C   UNL     1     -10.131   9.950  70.032  1.00  0.00    -0.308 A  
HETATM   13  C   UNL     1     -11.090   9.808  71.036  1.00  0.00    -0.361 A  
HETATM   14  C   UNL     1     -12.515  11.319  69.780  1.00  0.00    -0.193 A  
HETATM   15  C   UNL     1     -12.282  10.521  70.912  1.00  0.00    -0.490 A  
BRANCH  13  16
HETATM   16  O   UNL     1     -10.948   8.999  72.145  1.00  0.00    -0.348 OA 
BRANCH  16  17
HETATM   17  C   UNL     1     -11.906   7.937  72.203  1.00  0.00    -0.334 C  
BRANCH  17  18
HETATM   18  C   UNL     1     -11.319   6.547  72.007  1.00  0.00    -0.285 C  
HETATM   19  C   UNL     1     -11.524   5.988  70.627  1.00  0.00    -0.158 C  
HETATM   20  O   UNL     1     -10.390   5.149  70.424  1.00  0.00    -0.266 OA 
HETATM   21  C   UNL     1      -9.306   5.715  71.204  1.00  0.00    -0.153 C  
HETATM   22  O   UNL     1      -9.892   6.635  72.146  1.00  0.00    -0.159 OA 
BRANCH  21  23
HETATM   23  C   UNL     1      -8.586   4.619  71.995  1.00  0.00    -0.124 A  
HETATM   24 CL   UNL     1      -7.571   3.464  69.694  1.00  0.00    -0.045 Cl 
HETATM   25  C   UNL     1      -7.813   3.599  71.401  1.00  0.00    -0.060 A  
HETATM   26  C   UNL     1      -8.678   4.617  73.404  1.00  0.00    -0.100 A  
HETATM   27  C   UNL     1      -8.029   3.656  74.181  1.00  0.00    -0.078 A  
HETATM   28  C   UNL     1      -7.171   2.628  72.184  1.00  0.00    -0.039 A  
HETATM   29 CL   UNL     1      -6.462   1.490  74.523  1.00  0.00    -0.008 Cl 
HETATM   30  C   UNL     1      -7.276   2.665  73.568  1.00  0.00    -0.040 A  
ENDBRANCH  21  23
BRANCH  21  31
HETATM   31  C   UNL     1      -8.392   6.530  70.252  1.00  0.00    -0.127 C  
BRANCH  31  32
HETATM   32  N   UNL     1      -7.200   7.107  70.833  1.00  0.00    -0.069 NA 
HETATM   33  N   UNL     1      -5.233   8.131  70.919  1.00  0.00    -0.026 NA 
HETATM   34  C   UNL     1      -7.078   7.600  72.108  1.00  0.00    -0.066 A  
HETATM   35  C   UNL     1      -6.057   7.440  70.159  1.00  0.00    -0.024 A  
HETATM   36  C   UNL     1      -5.868   8.249  72.128  1.00  0.00    -0.048 A  
ENDBRANCH  31  32
ENDBRANCH  21  31
ENDBRANCH  17  18
ENDBRANCH  16  17
ENDBRANCH  13  16
ENDBRANCH   7  10
TORSDOF 7
ENDMDL
MODEL      136
REMARK 921   NORMALIZED FREE ENERGY PREDICTED BY IDOCK:   -5.06 KCAL/MOL
REMARK 922        TOTAL FREE ENERGY PREDICTED BY IDOCK:   -7.57 KCAL/MOL
REMARK 923 INTER-LIGAND FREE ENERGY PREDICTED BY IDOCK:   -6.51 KCAL/MOL
REMARK 924 INTRA-LIGAND FREE ENERGY PREDICTED BY IDOCK:   -1.05 KCAL/MOL
REMARK 927      BINDING AFFINITY PREDICTED BY RF-SCORE:    0.00 PKD
ROOT
HETATM    1  C   UNL     1      -6.599   3.418  64.942  1.00  0.00    -0.039 C  
HETATM    2  C   UNL     1      -8.046   3.450  65.360  1.00  0.00    -0.090 C  
HETATM    3  O   UNL     1      -8.641   2.404  65.615  1.00  0.00    -0.104 OA 
HETATM    4  N   UNL     1      -8.617   4.698  65.530  1.00  0.00    -0.123 N  
HETATM    5  C   UNL     1      -9.965   4.780  66.105  1.00  0.00    -0.241 C  
HETATM    6  C   UNL     1     -10.105   6.013  67.011  1.00  0.00    -0.179 C  
HETATM    7  N   UNL     1      -9.726   7.227  66.253  1.00  0.00    -0.067 NA 
HETATM    8  C   UNL     1      -8.157   5.932  64.870  1.00  0.00    -0.132 C  
HETATM    9  C   UNL     1      -8.334   7.176  65.762  1.00  0.00    -0.143 C  
ENDROOT
BRANCH   7  10
HETATM   10  C   UNL     1     -10.173   8.464  66.709  1.00  0.00    -0.306 A  
HETATM   11  C   UNL     1     -10.808   8.622  67.937  1.00  0.00    -0.061 A  
HETATM   12  C   UNL     1     -11.356   9.844  68.324  1.00  0.00    -0.045 A  
HETATM   13  C   UNL     1     -11.303  10.959  67.485  1.00  0.00    -0.232 A  
HETATM   14  C   UNL     1     -10.072   9.605  65.891  1.00  0.00    -0.304 A  
HETATM   15  C   UNL     1     -10.633  10.836  66.268  1.00  0.00    -0.257 A  
BRANCH  13  16
HETATM   16  O   UNL     1     -11.879  12.181  67.770  1.00  0.00    -0.452 OA 
BRANCH  16  17
HETATM   17  C   UNL     1     -11.328  12.816  68.928  1.00  0.00    -0.296 C  
BRANCH  17  18
HETATM   18  C   UNL     1     -11.430  14.334  68.923  1.00  0.00    -0.286 C  
HETATM   19  C   UNL     1     -11.342  14.957  70.289  1.00  0.00    -0.254 C  
HETATM   20  O   UNL     1     -10.747  16.229  70.050  1.00  0.00    -0.321 OA 
HETATM   21  C   UNL     1      -9.901  16.082  68.880  1.00  0.00    -0.232 C  
HETATM   22  O   UNL     1     -10.293  14.862  68.219  1.00  0.00    -0.225 OA 
BRANCH  21  23
HETATM   23  C   UNL     1     -10.127  17.243  67.907  1.00  0.00    -0.317 A  
HETATM   24 CL   UNL     1      -9.758  19.132  69.896  1.00  0.00     0.337 Cl 
HETATM   25  C   UNL     1     -10.084  18.602  68.282  1.00  0.00    -0.389 A  
HETATM   26  C   UNL     1     -10.383  16.959  66.547  1.00  0.00    -0.299 A  
HETATM   27  C   UNL     1     -10.577  17.975  65.609  1.00  0.00    -0.104 A  
HETATM   28  C   UNL     1     -10.290  19.620  67.339  1.00  0.00    -0.581 A  
HETATM   29 CL   UNL     1     -10.751  20.555  64.852  1.00  0.00     0.513 Cl 
HETATM   30  C   UNL     1     -10.529  19.302  66.009  1.00  0.00    -0.487 A  
ENDBRANCH  21  23
BRANCH  21  31
HETATM   31  C   UNL     1      -8.434  15.912  69.355  1.00  0.00    -0.191 C  
BRANCH  31  32
HETATM   32  N   UNL     1      -7.656  14.884  68.702  1.00  0.00    -0.116 NA 
HETATM   33  N   UNL     1      -6.107  13.988  67.388  1.00  0.00    -0.321 NA 
HETATM   34  C   UNL     1      -7.453  13.607  69.162  1.00  0.00     0.098 A  
HETATM   35  C   UNL     1      -6.834  15.061  67.622  1.00  0.00    -0.179 A  
HETATM   36  C   UNL     1      -6.475  13.085  68.351  1.00  0.00    -0.084 A  
ENDBRANCH  31  32
ENDBRANCH  21  31
ENDBRANCH  17  18
ENDBRANCH  16  17
ENDBRANCH  13  16
ENDBRANCH   7  10
TORSDOF 7
ENDMDL
MODEL      137
REMARK 921   NORMALIZED FREE ENERGY PREDICTED BY IDOCK:   -4.98 KCAL/MOL
REMARK 922        TOTAL FREE ENERGY PREDICTED BY IDOCK:   -7.44 KCAL/MOL
REMARK 923 INTER-LIGAND FREE ENERGY PREDICTED BY IDOCK:   -6.75 KCAL/MOL
REMARK 924 INTRA-LIGAND FREE ENERGY PREDICTED BY IDOCK:   -0.69 KCAL/MOL
REMARK 927      BINDING AFFINITY PREDICTED BY RF-SCORE:    0.00 PKD
ROOT
HETATM    1  C   UNL     1      -6.780  19.871  69.370  1.00  0.00    -0.355 C  
HETATM    2  C   UNL     1      -6.071  19.139  68.260  1.00  0.00    -0.222 C  
HETATM    3  O   UNL     1      -5.282  19.736  67.529  1.00  0.00    -0.168 OA 
HETATM    4  N   UNL     1      -6.280  17.775  68.182  1.00  0.00    -0.171 N  
HETATM    5  C   UNL     1      -5.477  16.995  67.232  1.00  0.00    -0.146 C  
HETATM    6  C   UNL     1      -5.135  15.610  67.804  1.00  0.00    -0.101 C  
HETATM    7  N   UNL     1      -6.383  14.922  68.206  1.00  0.00    -0.110 NA 
HETATM    8  C   UNL     1      -7.470  17.074  68.697  1.00  0.00    -0.229 C  
HETATM    9  C   UNL     1      -7.136  15.668  69.234  1.00  0.00    -0.189 C  
ENDROOT
BRANCH   7  10
HETATM   10  C   UNL     1      -6.366  13.536  68.341  1.00  0.00    -0.093 A  
HETATM   11  C   UNL     1      -6.438  12.906  69.579  1.00  0.00    -0.075 A  
HETATM   12  C   UNL     1      -6.297  11.525  69.704  1.00  0.00    -0.133 A  
HETATM   13  C   UNL     1      -6.062  10.717  68.590  1.00  0.00    -0.039 A  
HETATM   14  C   UNL     1      -6.185  12.712  67.214  1.00  0.00    -0.094 A  
HETATM   15  C   UNL     1      -6.029  11.322  67.334  1.00  0.00    -0.062 A  
BRANCH  13  16
HETATM   16  O   UNL     1      -5.846   9.354  68.643  1.00  0.00    -0.040 OA 
BRANCH  16  17
HETATM   17  C   UNL     1      -7.052   8.588  68.719  1.00  0.00    -0.067 C  
BRANCH  17  18
HETATM   18  C   UNL     1      -8.100   8.958  67.680  1.00  0.00    -0.106 C  
HETATM   19  C   UNL     1      -8.915   7.791  67.193  1.00  0.00    -0.126 C  
HETATM   20  O   UNL     1     -10.178   8.365  66.870  1.00  0.00    -0.265 OA 
HETATM   21  C   UNL     1     -10.355   9.507  67.747  1.00  0.00    -0.239 C  
HETATM   22  O   UNL     1      -9.062   9.828  68.297  1.00  0.00    -0.123 OA 
BRANCH  21  23
HETATM   23  C   UNL     1     -10.848  10.721  66.953  1.00  0.00    -0.288 A  
HETATM   24 CL   UNL     1     -11.601  12.064  69.253  1.00  0.00    -0.354 Cl 
HETATM   25  C   UNL     1     -11.409  11.872  67.545  1.00  0.00    -0.314 A  
HETATM   26  C   UNL     1     -10.733  10.713  65.546  1.00  0.00    -0.105 A  
HETATM   27  C   UNL     1     -11.146  11.797  64.769  1.00  0.00    -0.356 A  
HETATM   28  C   UNL     1     -11.833  12.955  66.761  1.00  0.00    -0.452 A  
HETATM   29 CL   UNL     1     -12.189  14.258  64.427  1.00  0.00    -0.486 Cl 
HETATM   30  C   UNL     1     -11.694  12.915  65.380  1.00  0.00    -0.375 A  
ENDBRANCH  21  23
BRANCH  21  31
HETATM   31  C   UNL     1     -11.277   9.085  68.921  1.00  0.00     0.295 C  
BRANCH  31  32
HETATM   32  N   UNL     1     -10.623   8.630  70.127  1.00  0.00    -0.220 NA 
HETATM   33  N   UNL     1      -9.422   7.317  71.454  1.00  0.00    -0.160 NA 
HETATM   34  C   UNL     1     -10.193   9.420  71.164  1.00  0.00    -0.291 A  
HETATM   35  C   UNL     1     -10.145   7.367  70.355  1.00  0.00    -0.192 A  
HETATM   36  C   UNL     1      -9.434   8.593  71.955  1.00  0.00    -0.299 A  
ENDBRANCH  31  32
ENDBRANCH  21  31
ENDBRANCH  17  18
ENDBRANCH  16  17
ENDBRANCH  13  16
ENDBRANCH   7  10
TORSDOF 7
ENDMDL
MODEL      138
REMARK 921   NORMALIZED FREE ENERGY PREDICTED BY IDOCK:   -4.97 KCAL/MOL
REMARK 922        TOTAL FREE ENERGY PREDICTED BY IDOCK:   -7.44 KCAL/MOL
REMARK 923 INTER-LIGAND FREE ENERGY PREDICTED BY IDOCK:   -6.91 KCAL/MOL
REMARK 924 INTRA-LIGAND FREE ENERGY PREDICTED BY IDOCK:   -0.53 KCAL/MOL
REMARK 927      BINDING AFFINITY PREDICTED BY RF-SCORE:    0.00 PKD
ROOT
HETATM    1  C   UNL     1      -6.624  17.914  66.737  1.00  0.00    -0.216 C  
HETATM    2  C   UNL     1      -7.760  16.929  66.643  1.00  0.00    -0.263 C  
HETATM    3  O   UNL     1      -8.737  17.174  65.935  1.00  0.00    -0.526 OA 
HETATM    4  N   UNL     1      -7.597  15.725  67.303  1.00  0.00    -0.190 N  
HETATM    5  C   UNL     1      -8.595  14.669  67.095  1.00  0.00    -0.223 C  
HETATM    6  C   UNL     1      -7.937  13.281  67.085  1.00  0.00    -0.065 C  
HETATM    7  N   UNL     1      -7.155  13.098  68.328  1.00  0.00    -0.093 NA 
HETATM    8  C   UNL     1      -6.717  15.515  68.466  1.00  0.00    -0.113 C  
HETATM    9  C   UNL     1      -6.088  14.108  68.479  1.00  0.00    -0.091 C  
ENDROOT
BRANCH   7  10
HETATM   10  C   UNL     1      -6.838  11.804  68.732  1.00  0.00    -0.095 A  
HETATM   11  C   UNL     1      -5.695  11.143  68.290  1.00  0.00    -0.045 A  
HETATM   12  C   UNL     1      -5.457   9.806  68.607  1.00  0.00    -0.036 A  
HETATM   13  C   UNL     1      -6.365   9.070  69.370  1.00  0.00    -0.044 A  
HETATM   14  C   UNL     1      -7.722  11.074  69.547  1.00  0.00     0.039 A  
HETATM   15  C   UNL     1      -7.495   9.724  69.860  1.00  0.00    -0.142 A  
BRANCH  13  16
HETATM   16  O   UNL     1      -6.230   7.728  69.668  1.00  0.00    -0.030 OA 
BRANCH  16  17
HETATM   17  C   UNL     1      -6.918   6.869  68.753  1.00  0.00    -0.075 C  
BRANCH  17  18
HETATM   18  C   UNL     1      -7.474   7.573  67.524  1.00  0.00    -0.104 C  
HETATM   19  C   UNL     1      -7.677   6.667  66.341  1.00  0.00    -0.102 C  
HETATM   20  O   UNL     1      -8.779   7.247  65.649  1.00  0.00    -0.143 OA 
HETATM   21  C   UNL     1      -9.597   7.911  66.646  1.00  0.00    -0.226 C  
HETATM   22  O   UNL     1      -8.793   8.051  67.834  1.00  0.00    -0.130 OA 
BRANCH  21  23
HETATM   23  C   UNL     1      -9.990   9.312  66.169  1.00  0.00    -0.348 A  
HETATM   24 CL   UNL     1     -11.209   9.915  68.580  1.00  0.00    -0.185 Cl 
HETATM   25  C   UNL     1     -10.700  10.241  66.960  1.00  0.00    -0.216 A  
HETATM   26  C   UNL     1      -9.619   9.725  64.871  1.00  0.00    -0.316 A  
HETATM   27  C   UNL     1      -9.931  10.997  64.387  1.00  0.00    -0.368 A  
HETATM   28  C   UNL     1     -11.021  11.514  66.467  1.00  0.00    -0.346 A  
HETATM   29 CL   UNL     1     -11.001  13.461  64.601  1.00  0.00    -0.363 Cl 
HETATM   30  C   UNL     1     -10.630  11.888  65.188  1.00  0.00    -0.287 A  
ENDBRANCH  21  23
BRANCH  21  31
HETATM   31  C   UNL     1     -10.795   6.986  66.991  1.00  0.00    -0.343 C  
BRANCH  31  32
HETATM   32  N   UNL     1     -10.740   6.305  68.265  1.00  0.00    -0.259 NA 
HETATM   33  N   UNL     1     -10.039   4.879  69.815  1.00  0.00    -0.248 NA 
HETATM   34  C   UNL     1     -11.172   6.802  69.469  1.00  0.00    -0.266 A  
HETATM   35  C   UNL     1     -10.075   5.136  68.524  1.00  0.00    -0.144 A  
HETATM   36  C   UNL     1     -10.705   5.918  70.411  1.00  0.00    -0.303 A  
ENDBRANCH  31  32
ENDBRANCH  21  31
ENDBRANCH  17  18
ENDBRANCH  16  17
ENDBRANCH  13  16
ENDBRANCH   7  10
TORSDOF 7
ENDMDL
MODEL      139
REMARK 921   NORMALIZED FREE ENERGY PREDICTED BY IDOCK:   -4.95 KCAL/MOL
REMARK 922        TOTAL FREE ENERGY PREDICTED BY IDOCK:   -7.41 KCAL/MOL
REMARK 923 INTER-LIGAND FREE ENERGY PREDICTED BY IDOCK:   -6.06 KCAL/MOL
REMARK 924 INTRA-LIGAND FREE ENERGY PREDICTED BY IDOCK:   -1.35 KCAL/MOL
REMARK 927      BINDING AFFINITY PREDICTED BY RF-SCORE:    0.00 PKD
ROOT
HETATM    1  C   UNL     1      -7.765   2.326  64.451  1.00  0.00    -0.072 C  
HETATM    2  C   UNL     1      -8.642   2.474  65.666  1.00  0.00    -0.114 C  
HETATM    3  O   UNL     1      -9.208   1.492  66.146  1.00  0.00    -0.080 OA 
HETATM    4  N   UNL     1      -8.691   3.726  66.250  1.00  0.00    -0.113 N  
HETATM    5  C   UNL     1      -9.389   3.876  67.533  1.00  0.00    -0.191 C  
HETATM    6  C   UNL     1      -8.679   4.899  68.433  1.00  0.00    -0.101 C  
HETATM    7  N   UNL     1      -8.534   6.179  67.702  1.00  0.00    -0.109 NA 
HETATM    8  C   UNL     1      -8.421   4.994  65.550  1.00  0.00    -0.134 C  
HETATM    9  C   UNL     1      -7.745   6.036  66.462  1.00  0.00    -0.103 C  
ENDROOT
BRANCH   7  10
HETATM   10  C   UNL     1      -8.322   7.344  68.435  1.00  0.00    -0.125 A  
HETATM   11  C   UNL     1      -9.369   8.126  68.912  1.00  0.00    -0.147 A  
HETATM   12  C   UNL     1      -9.139   9.351  69.537  1.00  0.00    -0.169 A  
HETATM   13  C   UNL     1      -7.845   9.851  69.697  1.00  0.00    -0.154 A  
HETATM   14  C   UNL     1      -7.017   7.825  68.648  1.00  0.00    -0.067 A  
HETATM   15  C   UNL     1      -6.778   9.063  69.266  1.00  0.00    -0.049 A  
BRANCH  13  16
HETATM   16  O   UNL     1      -7.543  11.081  70.245  1.00  0.00     0.284 OA 
BRANCH  16  17
HETATM   17  C   UNL     1      -6.523  11.789  69.532  1.00  0.00    -0.120 C  
BRANCH  17  18
HETATM   18  C   UNL     1      -7.045  12.818  68.541  1.00  0.00    -0.101 C  
HETATM   19  C   UNL     1      -7.026  12.353  67.111  1.00  0.00    -0.077 C  
HETATM   20  O   UNL     1      -8.123  13.038  66.512  1.00  0.00     0.214 OA 
HETATM   21  C   UNL     1      -9.104  13.253  67.559  1.00  0.00    -0.208 C  
HETATM   22  O   UNL     1      -8.436  13.050  68.820  1.00  0.00    -0.016 OA 
BRANCH  21  23
HETATM   23  C   UNL     1      -9.620  14.695  67.521  1.00  0.00    -0.206 A  
HETATM   24 CL   UNL     1     -11.294  14.273  69.685  1.00  0.00    -0.296 Cl 
HETATM   25  C   UNL     1     -10.581  15.209  68.417  1.00  0.00    -0.238 A  
HETATM   26  C   UNL     1      -9.108  15.582  66.549  1.00  0.00    -0.336 A  
HETATM   27  C   UNL     1      -9.524  16.913  66.478  1.00  0.00    -0.296 A  
HETATM   28  C   UNL     1     -11.006  16.543  68.336  1.00  0.00    -0.348 A  
HETATM   29 CL   UNL     1     -10.974  19.032  67.297  1.00  0.00    -0.475 Cl 
HETATM   30  C   UNL     1     -10.471  17.389  67.373  1.00  0.00    -0.336 A  
ENDBRANCH  21  23
BRANCH  21  31
HETATM   31  C   UNL     1     -10.206  12.169  67.427  1.00  0.00    -0.198 C  
BRANCH  31  32
HETATM   32  N   UNL     1     -10.658  11.864  66.088  1.00  0.00    -0.249 NA 
HETATM   33  N   UNL     1     -11.560  12.200  64.087  1.00  0.00    -0.365 NA 
HETATM   34  C   UNL     1     -10.175  10.869  65.276  1.00  0.00    -0.288 A  
HETATM   35  C   UNL     1     -11.501  12.632  65.330  1.00  0.00    -0.331 A  
HETATM   36  C   UNL     1     -10.726  11.113  64.042  1.00  0.00    -0.339 A  
ENDBRANCH  31  32
ENDBRANCH  21  31
ENDBRANCH  17  18
ENDBRANCH  16  17
ENDBRANCH  13  16
ENDBRANCH   7  10
TORSDOF 7
ENDMDL
MODEL      140
REMARK 921   NORMALIZED FREE ENERGY PREDICTED BY IDOCK:   -4.94 KCAL/MOL
REMARK 922        TOTAL FREE ENERGY PREDICTED BY IDOCK:   -7.39 KCAL/MOL
REMARK 923 INTER-LIGAND FREE ENERGY PREDICTED BY IDOCK:   -6.69 KCAL/MOL
REMARK 924 INTRA-LIGAND FREE ENERGY PREDICTED BY IDOCK:   -0.69 KCAL/MOL
REMARK 927      BINDING AFFINITY PREDICTED BY RF-SCORE:    0.00 PKD
ROOT
HETATM    1  C   UNL     1     -10.144  19.442  67.311  1.00  0.00    -0.497 C  
HETATM    2  C   UNL     1     -10.659  18.647  66.140  1.00  0.00    -0.363 C  
HETATM    3  O   UNL     1     -10.873  19.199  65.061  1.00  0.00    -0.372 OA 
HETATM    4  N   UNL     1     -10.777  17.281  66.318  1.00  0.00    -0.157 N  
HETATM    5  C   UNL     1     -11.105  16.446  65.156  1.00  0.00    -0.170 C  
HETATM    6  C   UNL     1     -10.377  15.094  65.223  1.00  0.00    -0.396 C  
HETATM    7  N   UNL     1     -10.685  14.434  66.512  1.00  0.00    -0.301 NA 
HETATM    8  C   UNL     1     -10.957  16.613  67.620  1.00  0.00    -0.193 C  
HETATM    9  C   UNL     1     -10.262  15.239  67.676  1.00  0.00    -0.242 C  
ENDROOT
BRANCH   7  10
HETATM   10  C   UNL     1     -10.500  13.058  66.617  1.00  0.00    -0.264 A  
HETATM   11  C   UNL     1     -11.411  12.229  67.263  1.00  0.00    -0.426 A  
HETATM   12  C   UNL     1     -11.151  10.874  67.464  1.00  0.00    -0.375 A  
HETATM   13  C   UNL     1      -9.954  10.296  67.036  1.00  0.00    -0.201 A  
HETATM   14  C   UNL     1      -9.320  12.459  66.137  1.00  0.00    -0.155 A  
HETATM   15  C   UNL     1      -9.045  11.098  66.347  1.00  0.00    -0.198 A  
BRANCH  13  16
HETATM   16  O   UNL     1      -9.598   8.980  67.258  1.00  0.00    -0.147 OA 
BRANCH  16  17
HETATM   17  C   UNL     1     -10.684   8.162  67.704  1.00  0.00    -0.133 C  
BRANCH  17  18
HETATM   18  C   UNL     1     -10.431   7.440  69.019  1.00  0.00    -0.210 C  
HETATM   19  C   UNL     1     -11.437   6.368  69.331  1.00  0.00    -0.305 C  
HETATM   20  O   UNL     1     -10.699   5.412  70.086  1.00  0.00    -0.298 OA 
HETATM   21  C   UNL     1      -9.322   5.495  69.636  1.00  0.00    -0.134 C  
HETATM   22  O   UNL     1      -9.182   6.736  68.915  1.00  0.00    -0.133 OA 
BRANCH  21  23
HETATM   23  C   UNL     1      -8.368   5.531  70.833  1.00  0.00    -0.120 A  
HETATM   24 CL   UNL     1      -6.224   6.276  69.248  1.00  0.00    -0.032 Cl 
HETATM   25  C   UNL     1      -6.999   5.860  70.737  1.00  0.00    -0.063 A  
HETATM   26  C   UNL     1      -8.869   5.234  72.120  1.00  0.00    -0.135 A  
HETATM   27  C   UNL     1      -8.053   5.270  73.252  1.00  0.00    -0.111 A  
HETATM   28  C   UNL     1      -6.179   5.885  71.875  1.00  0.00    -0.044 A  
HETATM   29 CL   UNL     1      -5.707   5.657  74.521  1.00  0.00    -0.048 Cl 
HETATM   30  C   UNL     1      -6.710   5.597  73.126  1.00  0.00    -0.074 A  
ENDBRANCH  21  23
BRANCH  21  31
HETATM   31  C   UNL     1      -9.063   4.336  68.637  1.00  0.00    -0.129 C  
BRANCH  31  32
HETATM   32  N   UNL     1      -8.443   3.146  69.174  1.00  0.00    -0.060 NA 
HETATM   33  N   UNL     1      -6.822   1.738  69.738  1.00  0.00    -0.033 NA 
HETATM   34  C   UNL     1      -8.964   2.327  70.145  1.00  0.00    -0.092 A  
HETATM   35  C   UNL     1      -7.154   2.741  68.952  1.00  0.00    -0.044 A  
HETATM   36  C   UNL     1      -7.937   1.485  70.493  1.00  0.00    -0.038 A  
ENDBRANCH  31  32
ENDBRANCH  21  31
ENDBRANCH  17  18
ENDBRANCH  16  17
ENDBRANCH  13  16
ENDBRANCH   7  10
TORSDOF 7
ENDMDL
MODEL      141
REMARK 921   NORMALIZED FREE ENERGY PREDICTED BY IDOCK:   -4.93 KCAL/MOL
REMARK 922        TOTAL FREE ENERGY PREDICTED BY IDOCK:   -7.38 KCAL/MOL
REMARK 923 INTER-LIGAND FREE ENERGY PREDICTED BY IDOCK:   -7.22 KCAL/MOL
REMARK 924 INTRA-LIGAND FREE ENERGY PREDICTED BY IDOCK:   -0.15 KCAL/MOL
REMARK 927      BINDING AFFINITY PREDICTED BY RF-SCORE:    0.00 PKD
ROOT
HETATM    1  C   UNL     1      -7.084  19.808  69.085  1.00  0.00    -0.349 C  
HETATM    2  C   UNL     1      -6.315  19.002  68.072  1.00  0.00    -0.216 C  
HETATM    3  O   UNL     1      -5.512  19.554  67.320  1.00  0.00    -0.169 OA 
HETATM    4  N   UNL     1      -6.487  17.630  68.107  1.00  0.00    -0.174 N  
HETATM    5  C   UNL     1      -5.628  16.793  67.260  1.00  0.00    -0.154 C  
HETATM    6  C   UNL     1      -5.274  15.474  67.965  1.00  0.00    -0.126 C  
HETATM    7  N   UNL     1      -6.520  14.788  68.379  1.00  0.00    -0.096 NA 
HETATM    8  C   UNL     1      -7.678  16.944  68.638  1.00  0.00    -0.235 C  
HETATM    9  C   UNL     1      -7.330  15.601  69.309  1.00  0.00    -0.207 C  
ENDROOT
BRANCH   7  10
HETATM   10  C   UNL     1      -6.473  13.421  68.637  1.00  0.00    -0.091 A  
HETATM   11  C   UNL     1      -6.416  12.907  69.929  1.00  0.00     0.046 A  
HETATM   12  C   UNL     1      -6.248  11.543  70.164  1.00  0.00    -0.132 A  
HETATM   13  C   UNL     1      -6.113  10.637  69.110  1.00  0.00    -0.042 A  
HETATM   14  C   UNL     1      -6.394  12.498  67.578  1.00  0.00    -0.154 A  
HETATM   15  C   UNL     1      -6.211  11.125  67.807  1.00  0.00    -0.051 A  
BRANCH  13  16
HETATM   16  O   UNL     1      -5.878   9.286  69.265  1.00  0.00    -0.035 OA 
BRANCH  16  17
HETATM   17  C   UNL     1      -7.068   8.519  69.476  1.00  0.00    -0.052 C  
BRANCH  17  18
HETATM   18  C   UNL     1      -8.361   9.295  69.272  1.00  0.00    -0.124 C  
HETATM   19  C   UNL     1      -9.035   9.022  67.956  1.00  0.00    -0.132 C  
HETATM   20  O   UNL     1     -10.421   9.198  68.236  1.00  0.00    -0.211 OA 
HETATM   21  C   UNL     1     -10.613   8.854  69.632  1.00  0.00    -0.226 C  
HETATM   22  O   UNL     1      -9.312   8.854  70.255  1.00  0.00    -0.163 OA 
BRANCH  21  23
HETATM   23  C   UNL     1     -11.474   9.911  70.330  1.00  0.00    -0.372 A  
HETATM   24 CL   UNL     1     -12.398   8.089  72.198  1.00  0.00    -0.353 Cl 
HETATM   25  C   UNL     1     -12.284   9.646  71.455  1.00  0.00    -0.399 A  
HETATM   26  C   UNL     1     -11.462  11.237  69.845  1.00  0.00    -0.373 A  
HETATM   27  C   UNL     1     -12.211  12.247  70.450  1.00  0.00    -0.371 A  
HETATM   28  C   UNL     1     -13.043  10.662  72.055  1.00  0.00    -0.501 A  
HETATM   29 CL   UNL     1     -13.908  13.203  72.313  1.00  0.00    -0.631 Cl 
HETATM   30  C   UNL     1     -12.998  11.956  71.555  1.00  0.00    -0.323 A  
ENDBRANCH  21  23
BRANCH  21  31
HETATM   31  C   UNL     1     -11.174   7.410  69.708  1.00  0.00    -0.091 C  
BRANCH  31  32
HETATM   32  N   UNL     1     -10.215   6.355  69.951  1.00  0.00    -0.177 NA 
HETATM   33  N   UNL     1      -9.160   4.736  71.044  1.00  0.00    -0.128 NA 
HETATM   34  C   UNL     1      -9.598   5.585  68.998  1.00  0.00    -0.136 A  
HETATM   35  C   UNL     1      -9.909   5.812  71.170  1.00  0.00    -0.180 A  
HETATM   36  C   UNL     1      -8.975   4.580  69.695  1.00  0.00    -0.096 A  
ENDBRANCH  31  32
ENDBRANCH  21  31
ENDBRANCH  17  18
ENDBRANCH  16  17
ENDBRANCH  13  16
ENDBRANCH   7  10
TORSDOF 7
ENDMDL
MODEL      142
REMARK 921   NORMALIZED FREE ENERGY PREDICTED BY IDOCK:   -4.82 KCAL/MOL
REMARK 922        TOTAL FREE ENERGY PREDICTED BY IDOCK:   -7.23 KCAL/MOL
REMARK 923 INTER-LIGAND FREE ENERGY PREDICTED BY IDOCK:   -6.31 KCAL/MOL
REMARK 924 INTRA-LIGAND FREE ENERGY PREDICTED BY IDOCK:   -0.91 KCAL/MOL
REMARK 927      BINDING AFFINITY PREDICTED BY RF-SCORE:    0.00 PKD
ROOT
HETATM    1  C   UNL     1     -10.186  20.125  67.469  1.00  0.00    -0.520 C  
HETATM    2  C   UNL     1      -9.190  19.328  66.668  1.00  0.00    -0.338 C  
HETATM    3  O   UNL     1      -8.374  19.900  65.947  1.00  0.00    -0.347 OA 
HETATM    4  N   UNL     1      -9.184  17.960  66.866  1.00  0.00    -0.257 N  
HETATM    5  C   UNL     1      -8.119  17.164  66.244  1.00  0.00    -0.290 C  
HETATM    6  C   UNL     1      -7.693  16.002  67.156  1.00  0.00    -0.207 C  
HETATM    7  N   UNL     1      -8.882  15.195  67.512  1.00  0.00    -0.176 NA 
HETATM    8  C   UNL     1     -10.335  17.173  67.343  1.00  0.00    -0.333 C  
HETATM    9  C   UNL     1      -9.908  15.983  68.224  1.00  0.00    -0.219 C  
ENDROOT
BRANCH   7  10
HETATM   10  C   UNL     1      -8.692  13.889  67.954  1.00  0.00    -0.184 A  
HETATM   11  C   UNL     1      -7.428  13.355  68.183  1.00  0.00    -0.133 A  
HETATM   12  C   UNL     1      -7.252  12.010  68.508  1.00  0.00    -0.101 A  
HETATM   13  C   UNL     1      -8.339  11.139  68.602  1.00  0.00    -0.154 A  
HETATM   14  C   UNL     1      -9.789  13.020  68.105  1.00  0.00    -0.228 A  
HETATM   15  C   UNL     1      -9.619  11.662  68.419  1.00  0.00    -0.195 A  
BRANCH  13  16
HETATM   16  O   UNL     1      -8.238   9.786  68.853  1.00  0.00    -0.108 OA 
BRANCH  16  17
HETATM   17  C   UNL     1      -6.940   9.249  68.575  1.00  0.00    -0.067 C  
BRANCH  17  18
HETATM   18  C   UNL     1      -6.950   7.835  68.013  1.00  0.00    -0.080 C  
HETATM   19  C   UNL     1      -6.128   6.858  68.806  1.00  0.00    -0.026 C  
HETATM   20  O   UNL     1      -6.797   5.614  68.617  1.00  0.00    -0.055 OA 
HETATM   21  C   UNL     1      -8.200   5.919  68.412  1.00  0.00    -0.109 C  
HETATM   22  O   UNL     1      -8.290   7.324  68.099  1.00  0.00    -0.123 OA 
BRANCH  21  23
HETATM   23  C   UNL     1      -8.751   5.131  67.221  1.00  0.00    -0.103 A  
HETATM   24 CL   UNL     1     -11.237   6.330  67.430  1.00  0.00    -0.361 Cl 
HETATM   25  C   UNL     1     -10.071   5.256  66.739  1.00  0.00    -0.224 A  
HETATM   26  C   UNL     1      -7.902   4.229  66.542  1.00  0.00    -0.098 A  
HETATM   27  C   UNL     1      -8.341   3.497  65.438  1.00  0.00    -0.098 A  
HETATM   28  C   UNL     1     -10.513   4.510  65.636  1.00  0.00    -0.261 A  
HETATM   29 CL   UNL     1     -10.184   2.752  63.617  1.00  0.00    -0.162 Cl 
HETATM   30  C   UNL     1      -9.646   3.641  64.987  1.00  0.00    -0.171 A  
ENDBRANCH  21  23
BRANCH  21  31
HETATM   31  C   UNL     1      -8.953   5.683  69.748  1.00  0.00    -0.127 C  
BRANCH  31  32
HETATM   32  N   UNL     1      -8.902   4.345  70.292  1.00  0.00    -0.077 NA 
HETATM   33  N   UNL     1      -8.565   2.734  71.781  1.00  0.00    -0.071 NA 
HETATM   34  C   UNL     1      -9.645   3.271  69.872  1.00  0.00    -0.102 A  
HETATM   35  C   UNL     1      -8.257   3.968  71.439  1.00  0.00    -0.077 A  
HETATM   36  C   UNL     1      -9.440   2.299  70.820  1.00  0.00    -0.133 A  
ENDBRANCH  31  32
ENDBRANCH  21  31
ENDBRANCH  17  18
ENDBRANCH  16  17
ENDBRANCH  13  16
ENDBRANCH   7  10
TORSDOF 7
ENDMDL
MODEL      143
REMARK 921   NORMALIZED FREE ENERGY PREDICTED BY IDOCK:   -4.80 KCAL/MOL
REMARK 922        TOTAL FREE ENERGY PREDICTED BY IDOCK:   -7.20 KCAL/MOL
REMARK 923 INTER-LIGAND FREE ENERGY PREDICTED BY IDOCK:   -6.13 KCAL/MOL
REMARK 924 INTRA-LIGAND FREE ENERGY PREDICTED BY IDOCK:   -1.07 KCAL/MOL
REMARK 927      BINDING AFFINITY PREDICTED BY RF-SCORE:    0.00 PKD
ROOT
HETATM    1  C   UNL     1     -10.511  17.894  67.314  1.00  0.00    -0.373 C  
HETATM    2  C   UNL     1      -9.017  17.703  67.287  1.00  0.00    -0.240 C  
HETATM    3  O   UNL     1      -8.266  18.663  67.458  1.00  0.00    -0.250 OA 
HETATM    4  N   UNL     1      -8.558  16.405  67.163  1.00  0.00    -0.173 N  
HETATM    5  C   UNL     1      -7.119  16.152  67.310  1.00  0.00    -0.196 C  
HETATM    6  C   UNL     1      -6.863  14.810  68.013  1.00  0.00    -0.140 C  
HETATM    7  N   UNL     1      -7.567  13.730  67.285  1.00  0.00    -0.121 NA 
HETATM    8  C   UNL     1      -9.313  15.298  66.550  1.00  0.00    -0.281 C  
HETATM    9  C   UNL     1      -9.027  13.945  67.228  1.00  0.00    -0.221 C  
ENDROOT
BRANCH   7  10
HETATM   10  C   UNL     1      -7.145  12.417  67.471  1.00  0.00    -0.145 A  
HETATM   11  C   UNL     1      -7.361  11.422  66.522  1.00  0.00    -0.063 A  
HETATM   12  C   UNL     1      -7.041  10.089  66.776  1.00  0.00    -0.091 A  
HETATM   13  C   UNL     1      -6.503   9.694  68.003  1.00  0.00    -0.057 A  
HETATM   14  C   UNL     1      -6.551  12.023  68.685  1.00  0.00    -0.075 A  
HETATM   15  C   UNL     1      -6.238  10.681  68.953  1.00  0.00    -0.044 A  
BRANCH  13  16
HETATM   16  O   UNL     1      -6.223   8.388  68.351  1.00  0.00    -0.051 OA 
BRANCH  16  17
HETATM   17  C   UNL     1      -6.937   7.424  67.570  1.00  0.00    -0.079 C  
BRANCH  17  18
HETATM   18  C   UNL     1      -8.252   6.965  68.184  1.00  0.00    -0.119 C  
HETATM   19  C   UNL     1      -8.399   5.471  68.263  1.00  0.00    -0.098 C  
HETATM   20  O   UNL     1      -9.214   5.265  69.414  1.00  0.00    -0.108 OA 
HETATM   21  C   UNL     1      -8.946   6.367  70.318  1.00  0.00    -0.154 C  
HETATM   22  O   UNL     1      -8.286   7.397  69.555  1.00  0.00    -0.129 OA 
BRANCH  21  23
HETATM   23  C   UNL     1     -10.256   6.945  70.862  1.00  0.00    -0.214 A  
HETATM   24 CL   UNL     1     -10.809   4.642  72.296  1.00  0.00    -0.152 Cl 
HETATM   25  C   UNL     1     -11.123   6.245  71.728  1.00  0.00    -0.273 A  
HETATM   26  C   UNL     1     -10.631   8.257  70.499  1.00  0.00    -0.233 A  
HETATM   27  C   UNL     1     -11.803   8.844  70.979  1.00  0.00    -0.324 A  
HETATM   28  C   UNL     1     -12.306   6.834  72.199  1.00  0.00    -0.234 A  
HETATM   29 CL   UNL     1     -14.072   8.859  72.433  1.00  0.00    -0.518 Cl 
HETATM   30  C   UNL     1     -12.636   8.131  71.829  1.00  0.00    -0.330 A  
ENDBRANCH  21  23
BRANCH  21  31
HETATM   31  C   UNL     1      -7.954   5.877  71.406  1.00  0.00    -0.113 C  
BRANCH  31  32
HETATM   32  N   UNL     1      -7.637   6.812  72.462  1.00  0.00    -0.095 NA 
HETATM   33  N   UNL     1      -7.465   7.618  74.523  1.00  0.00    -0.137 NA 
HETATM   34  C   UNL     1      -6.682   7.797  72.412  1.00  0.00    -0.065 A  
HETATM   35  C   UNL     1      -8.090   6.752  73.752  1.00  0.00    -0.105 A  
HETATM   36  C   UNL     1      -6.577   8.261  73.701  1.00  0.00    -0.121 A  
ENDBRANCH  31  32
ENDBRANCH  21  31
ENDBRANCH  17  18
ENDBRANCH  16  17
ENDBRANCH  13  16
ENDBRANCH   7  10
TORSDOF 7
ENDMDL
MODEL      144
REMARK 921   NORMALIZED FREE ENERGY PREDICTED BY IDOCK:   -4.80 KCAL/MOL
REMARK 922        TOTAL FREE ENERGY PREDICTED BY IDOCK:   -7.20 KCAL/MOL
REMARK 923 INTER-LIGAND FREE ENERGY PREDICTED BY IDOCK:   -6.70 KCAL/MOL
REMARK 924 INTRA-LIGAND FREE ENERGY PREDICTED BY IDOCK:   -0.50 KCAL/MOL
REMARK 927      BINDING AFFINITY PREDICTED BY RF-SCORE:    0.00 PKD
ROOT
HETATM    1  C   UNL     1      -9.164  20.524  67.260  1.00  0.00    -0.500 C  
HETATM    2  C   UNL     1     -10.086  19.408  66.846  1.00  0.00    -0.388 C  
HETATM    3  O   UNL     1     -11.114  19.654  66.215  1.00  0.00    -0.286 OA 
HETATM    4  N   UNL     1      -9.668  18.119  67.121  1.00  0.00    -0.291 N  
HETATM    5  C   UNL     1     -10.445  16.997  66.581  1.00  0.00    -0.253 C  
HETATM    6  C   UNL     1      -9.527  15.833  66.176  1.00  0.00    -0.340 C  
HETATM    7  N   UNL     1      -8.684  15.447  67.330  1.00  0.00    -0.170 NA 
HETATM    8  C   UNL     1      -8.726  17.750  68.194  1.00  0.00    -0.266 C  
HETATM    9  C   UNL     1      -7.832  16.557  67.805  1.00  0.00    -0.152 C  
ENDROOT
BRANCH   7  10
HETATM   10  C   UNL     1      -8.105  14.181  67.339  1.00  0.00    -0.189 A  
HETATM   11  C   UNL     1      -6.761  13.976  67.634  1.00  0.00    -0.188 A  
HETATM   12  C   UNL     1      -6.172  12.718  67.519  1.00  0.00    -0.159 A  
HETATM   13  C   UNL     1      -6.905  11.611  67.086  1.00  0.00    -0.143 A  
HETATM   14  C   UNL     1      -8.854  13.052  66.957  1.00  0.00    -0.213 A  
HETATM   15  C   UNL     1      -8.264  11.784  66.827  1.00  0.00    -0.147 A  
BRANCH  13  16
HETATM   16  O   UNL     1      -6.376  10.352  66.885  1.00  0.00    -0.066 OA 
BRANCH  16  17
HETATM   17  C   UNL     1      -7.078   9.590  65.898  1.00  0.00    -0.096 C  
BRANCH  17  18
HETATM   18  C   UNL     1      -8.090   8.605  66.465  1.00  0.00    -0.103 C  
HETATM   19  C   UNL     1      -7.827   7.174  66.086  1.00  0.00    -0.105 C  
HETATM   20  O   UNL     1      -8.331   6.427  67.189  1.00  0.00    -0.112 OA 
HETATM   21  C   UNL     1      -8.195   7.270  68.362  1.00  0.00    -0.125 C  
HETATM   22  O   UNL     1      -7.980   8.618  67.898  1.00  0.00    -0.105 OA 
BRANCH  21  23
HETATM   23  C   UNL     1      -9.485   7.252  69.187  1.00  0.00    -0.148 A  
HETATM   24 CL   UNL     1     -10.059   4.648  68.445  1.00  0.00    -0.129 Cl 
HETATM   25  C   UNL     1     -10.351   6.141  69.267  1.00  0.00    -0.221 A  
HETATM   26  C   UNL     1      -9.841   8.399  69.930  1.00  0.00    -0.186 A  
HETATM   27  C   UNL     1     -10.993   8.436  70.717  1.00  0.00    -0.276 A  
HETATM   28  C   UNL     1     -11.515   6.186  70.049  1.00  0.00    -0.369 A  
HETATM   29 CL   UNL     1     -13.238   7.366  71.755  1.00  0.00    -0.385 Cl 
HETATM   30  C   UNL     1     -11.826   7.328  70.774  1.00  0.00    -0.288 A  
ENDBRANCH  21  23
BRANCH  21  31
HETATM   31  C   UNL     1      -6.925   6.828  69.137  1.00  0.00    -0.078 C  
BRANCH  31  32
HETATM   32  N   UNL     1      -6.917   5.477  69.651  1.00  0.00    -0.060 NA 
HETATM   33  N   UNL     1      -6.375   3.330  69.803  1.00  0.00    -0.028 NA 
HETATM   34  C   UNL     1      -7.204   5.098  70.938  1.00  0.00    -0.064 A  
HETATM   35  C   UNL     1      -6.434   4.373  69.001  1.00  0.00    -0.040 A  
HETATM   36  C   UNL     1      -6.838   3.777  71.014  1.00  0.00    -0.032 A  
ENDBRANCH  31  32
ENDBRANCH  21  31
ENDBRANCH  17  18
ENDBRANCH  16  17
ENDBRANCH  13  16
ENDBRANCH   7  10
TORSDOF 7
ENDMDL
MODEL      145
REMARK 921   NORMALIZED FREE ENERGY PREDICTED BY IDOCK:   -4.80 KCAL/MOL
REMARK 922        TOTAL FREE ENERGY PREDICTED BY IDOCK:   -7.19 KCAL/MOL
REMARK 923 INTER-LIGAND FREE ENERGY PREDICTED BY IDOCK:   -6.04 KCAL/MOL
REMARK 924 INTRA-LIGAND FREE ENERGY PREDICTED BY IDOCK:   -1.15 KCAL/MOL
REMARK 927      BINDING AFFINITY PREDICTED BY RF-SCORE:    0.00 PKD
ROOT
HETATM    1  C   UNL     1      -9.503   2.576  64.453  1.00  0.00    -0.141 C  
HETATM    2  C   UNL     1      -9.011   3.876  63.874  1.00  0.00    -0.118 C  
HETATM    3  O   UNL     1      -9.090   4.086  62.664  1.00  0.00    -0.098 OA 
HETATM    4  N   UNL     1      -8.572   4.831  64.773  1.00  0.00    -0.141 N  
HETATM    5  C   UNL     1      -8.251   6.173  64.271  1.00  0.00    -0.044 C  
HETATM    6  C   UNL     1      -8.647   7.253  65.289  1.00  0.00     0.014 C  
HETATM    7  N   UNL     1      -8.010   6.958  66.593  1.00  0.00    -0.106 NA 
HETATM    8  C   UNL     1      -8.055   4.544  66.123  1.00  0.00    -0.103 C  
HETATM    9  C   UNL     1      -8.416   5.646  67.136  1.00  0.00    -0.110 C  
ENDROOT
BRANCH   7  10
HETATM   10  C   UNL     1      -7.872   7.990  67.516  1.00  0.00    -0.118 A  
HETATM   11  C   UNL     1      -8.960   8.545  68.184  1.00  0.00    -0.142 A  
HETATM   12  C   UNL     1      -8.818   9.657  69.012  1.00  0.00    -0.147 A  
HETATM   13  C   UNL     1      -7.577  10.272  69.194  1.00  0.00    -0.111 A  
HETATM   14  C   UNL     1      -6.614   8.578  67.746  1.00  0.00    -0.062 A  
HETATM   15  C   UNL     1      -6.466   9.707  68.568  1.00  0.00    -0.051 A  
BRANCH  13  16
HETATM   16  O   UNL     1      -7.371  11.413  69.943  1.00  0.00     0.145 OA 
BRANCH  16  17
HETATM   17  C   UNL     1      -6.383  12.288  69.390  1.00  0.00    -0.118 C  
BRANCH  17  18
HETATM   18  C   UNL     1      -6.948  13.440  68.572  1.00  0.00    -0.102 C  
HETATM   19  C   UNL     1      -7.296  13.072  67.157  1.00  0.00     0.044 C  
HETATM   20  O   UNL     1      -8.383  13.933  66.834  1.00  0.00    -0.138 OA 
HETATM   21  C   UNL     1      -9.083  14.207  68.075  1.00  0.00    -0.191 C  
HETATM   22  O   UNL     1      -8.202  13.835  69.154  1.00  0.00     0.124 OA 
BRANCH  21  23
HETATM   23  C   UNL     1      -9.383  15.704  68.202  1.00  0.00    -0.194 A  
HETATM   24 CL   UNL     1     -11.217  15.281  70.231  1.00  0.00    -0.294 Cl 
HETATM   25  C   UNL     1     -10.308  16.245  69.120  1.00  0.00    -0.272 A  
HETATM   26  C   UNL     1      -8.695  16.615  67.370  1.00  0.00    -0.202 A  
HETATM   27  C   UNL     1      -8.911  17.991  67.453  1.00  0.00    -0.246 A  
HETATM   28  C   UNL     1     -10.531  17.628  69.192  1.00  0.00    -0.128 A  
HETATM   29 CL   UNL     1     -10.083  20.190  68.479  1.00  0.00    -0.471 Cl 
HETATM   30  C   UNL     1      -9.828  18.493  68.365  1.00  0.00    -0.372 A  
ENDBRANCH  21  23
BRANCH  21  31
HETATM   31  C   UNL     1     -10.332  13.289  68.147  1.00  0.00    -0.244 C  
BRANCH  31  32
HETATM   32  N   UNL     1     -11.177  13.253  66.974  1.00  0.00    -0.283 NA 
HETATM   33  N   UNL     1     -12.249  12.399  65.229  1.00  0.00    -0.553 NA 
HETATM   34  C   UNL     1     -12.189  14.130  66.678  1.00  0.00    -0.418 A  
HETATM   35  C   UNL     1     -11.245  12.233  66.064  1.00  0.00    -0.332 A  
HETATM   36  C   UNL     1     -12.851  13.569  65.614  1.00  0.00    -0.321 A  
ENDBRANCH  31  32
ENDBRANCH  21  31
ENDBRANCH  17  18
ENDBRANCH  16  17
ENDBRANCH  13  16
ENDBRANCH   7  10
TORSDOF 7
ENDMDL
MODEL      146
REMARK 921   NORMALIZED FREE ENERGY PREDICTED BY IDOCK:   -4.76 KCAL/MOL
REMARK 922        TOTAL FREE ENERGY PREDICTED BY IDOCK:   -7.14 KCAL/MOL
REMARK 923 INTER-LIGAND FREE ENERGY PREDICTED BY IDOCK:   -6.39 KCAL/MOL
REMARK 924 INTRA-LIGAND FREE ENERGY PREDICTED BY IDOCK:   -0.75 KCAL/MOL
REMARK 927      BINDING AFFINITY PREDICTED BY RF-SCORE:    0.00 PKD
ROOT
HETATM    1  C   UNL     1     -10.802  20.040  65.495  1.00  0.00    -0.179 C  
HETATM    2  C   UNL     1      -9.989  19.732  66.725  1.00  0.00    -0.427 C  
HETATM    3  O   UNL     1      -9.700  20.628  67.518  1.00  0.00    -0.438 OA 
HETATM    4  N   UNL     1      -9.684  18.403  66.953  1.00  0.00    -0.305 N  
HETATM    5  C   UNL     1      -9.049  18.037  68.225  1.00  0.00    -0.278 C  
HETATM    6  C   UNL     1      -9.553  16.672  68.721  1.00  0.00    -0.254 C  
HETATM    7  N   UNL     1      -9.349  15.658  67.662  1.00  0.00    -0.205 NA 
HETATM    8  C   UNL     1      -9.605  17.366  65.910  1.00  0.00    -0.025 C  
HETATM    9  C   UNL     1     -10.072  15.987  66.417  1.00  0.00    -0.300 C  
ENDROOT
BRANCH   7  10
HETATM   10  C   UNL     1      -9.326  14.314  68.023  1.00  0.00    -0.200 A  
HETATM   11  C   UNL     1      -8.139  13.603  68.179  1.00  0.00    -0.156 A  
HETATM   12  C   UNL     1      -8.138  12.230  68.420  1.00  0.00    -0.151 A  
HETATM   13  C   UNL     1      -9.330  11.507  68.501  1.00  0.00    -0.170 A  
HETATM   14  C   UNL     1     -10.525  13.591  68.161  1.00  0.00    -0.249 A  
HETATM   15  C   UNL     1     -10.531  12.206  68.391  1.00  0.00    -0.242 A  
BRANCH  13  16
HETATM   16  O   UNL     1      -9.405  10.139  68.671  1.00  0.00    -0.149 OA 
BRANCH  16  17
HETATM   17  C   UNL     1     -10.227   9.488  67.697  1.00  0.00    -0.220 C  
BRANCH  17  18
HETATM   18  C   UNL     1     -10.577   8.045  68.032  1.00  0.00    -0.128 C  
HETATM   19  C   UNL     1     -10.969   7.220  66.838  1.00  0.00    -0.067 C  
HETATM   20  O   UNL     1     -10.553   5.901  67.181  1.00  0.00    -0.235 OA 
HETATM   21  C   UNL     1      -9.410   6.038  68.063  1.00  0.00    -0.114 C  
HETATM   22  O   UNL     1      -9.397   7.399  68.538  1.00  0.00    -0.142 OA 
BRANCH  21  23
HETATM   23  C   UNL     1      -9.554   5.113  69.275  1.00  0.00    -0.223 A  
HETATM   24 CL   UNL     1      -9.622   2.849  67.683  1.00  0.00    -0.162 Cl 
HETATM   25  C   UNL     1      -9.657   3.709  69.183  1.00  0.00    -0.102 A  
HETATM   26  C   UNL     1      -9.575   5.676  70.569  1.00  0.00    -0.221 A  
HETATM   27  C   UNL     1      -9.684   4.883  71.713  1.00  0.00    -0.223 A  
HETATM   28  C   UNL     1      -9.778   2.915  70.334  1.00  0.00    -0.062 A  
HETATM   29 CL   UNL     1      -9.903   2.525  73.000  1.00  0.00    -0.160 Cl 
HETATM   30  C   UNL     1      -9.784   3.505  71.591  1.00  0.00    -0.163 A  
ENDBRANCH  21  23
BRANCH  21  31
HETATM   31  C   UNL     1      -8.120   5.816  67.230  1.00  0.00    -0.102 C  
BRANCH  31  32
HETATM   32  N   UNL     1      -7.453   7.001  66.740  1.00  0.00    -0.081 NA 
HETATM   33  N   UNL     1      -6.053   8.723  66.721  1.00  0.00    -0.056 NA 
HETATM   34  C   UNL     1      -7.301   7.360  65.424  1.00  0.00    -0.072 A  
HETATM   35  C   UNL     1      -6.693   7.862  67.485  1.00  0.00    -0.069 A  
HETATM   36  C   UNL     1      -6.413   8.408  65.437  1.00  0.00    -0.055 A  
ENDBRANCH  31  32
ENDBRANCH  21  31
ENDBRANCH  17  18
ENDBRANCH  16  17
ENDBRANCH  13  16
ENDBRANCH   7  10
TORSDOF 7
ENDMDL
MODEL      147
REMARK 921   NORMALIZED FREE ENERGY PREDICTED BY IDOCK:   -4.63 KCAL/MOL
REMARK 922        TOTAL FREE ENERGY PREDICTED BY IDOCK:   -6.95 KCAL/MOL
REMARK 923 INTER-LIGAND FREE ENERGY PREDICTED BY IDOCK:   -6.56 KCAL/MOL
REMARK 924 INTRA-LIGAND FREE ENERGY PREDICTED BY IDOCK:   -0.39 KCAL/MOL
REMARK 927      BINDING AFFINITY PREDICTED BY RF-SCORE:    0.00 PKD
ROOT
HETATM    1  C   UNL     1      -8.003  16.195  68.115  1.00  0.00    -0.148 C  
HETATM    2  C   UNL     1      -6.789  15.645  68.817  1.00  0.00    -0.118 C  
HETATM    3  O   UNL     1      -6.054  16.392  69.463  1.00  0.00    -0.164 OA 
HETATM    4  N   UNL     1      -6.614  14.274  68.776  1.00  0.00    -0.087 N  
HETATM    5  C   UNL     1      -5.548  13.678  69.591  1.00  0.00    -0.096 C  
HETATM    6  C   UNL     1      -5.979  12.313  70.150  1.00  0.00    -0.148 C  
HETATM    7  N   UNL     1      -6.411  11.438  69.036  1.00  0.00    -0.057 NA 
HETATM    8  C   UNL     1      -7.154  13.387  67.731  1.00  0.00    -0.156 C  
HETATM    9  C   UNL     1      -7.549  12.003  68.283  1.00  0.00    -0.117 C  
ENDROOT
BRANCH   7  10
HETATM   10  C   UNL     1      -6.430  10.061  69.239  1.00  0.00    -0.049 A  
HETATM   11  C   UNL     1      -6.775   9.163  68.234  1.00  0.00    -0.060 A  
HETATM   12  C   UNL     1      -6.907   7.799  68.488  1.00  0.00    -0.066 A  
HETATM   13  C   UNL     1      -6.713   7.278  69.769  1.00  0.00    -0.044 A  
HETATM   14  C   UNL     1      -6.180   9.525  70.516  1.00  0.00    -0.071 A  
HETATM   15  C   UNL     1      -6.324   8.154  70.782  1.00  0.00    -0.036 A  
BRANCH  13  16
HETATM   16  O   UNL     1      -6.890   5.953  70.110  1.00  0.00    -0.049 OA 
BRANCH  16  17
HETATM   17  C   UNL     1      -8.194   5.665  70.626  1.00  0.00    -0.118 C  
BRANCH  17  18
HETATM   18  C   UNL     1      -9.300   6.549  70.068  1.00  0.00    -0.157 C  
HETATM   19  C   UNL     1     -10.554   5.801  69.706  1.00  0.00    -0.318 C  
HETATM   20  O   UNL     1     -11.594   6.751  69.919  1.00  0.00    -0.322 OA 
HETATM   21  C   UNL     1     -11.141   7.640  70.972  1.00  0.00    -0.257 C  
HETATM   22  O   UNL     1      -9.716   7.458  71.101  1.00  0.00    -0.164 OA 
BRANCH  21  23
HETATM   23  C   UNL     1     -11.400   9.100  70.589  1.00  0.00    -0.323 A  
HETATM   24 CL   UNL     1     -12.837   9.572  72.907  1.00  0.00     0.137 Cl 
HETATM   25  C   UNL     1     -12.138  10.001  71.385  1.00  0.00    -0.407 A  
HETATM   26  C   UNL     1     -10.869   9.597  69.379  1.00  0.00    -0.239 A  
HETATM   27  C   UNL     1     -11.055  10.923  68.985  1.00  0.00    -0.302 A  
HETATM   28  C   UNL     1     -12.333  11.331  70.981  1.00  0.00    -0.472 A  
HETATM   29 CL   UNL     1     -12.003  13.425  69.314  1.00  0.00    -0.372 Cl 
HETATM   30  C   UNL     1     -11.786  11.786  69.789  1.00  0.00    -0.349 A  
ENDBRANCH  21  23
BRANCH  21  31
HETATM   31  C   UNL     1     -11.797   7.195  72.306  1.00  0.00    -0.239 C  
BRANCH  31  32
HETATM   32  N   UNL     1     -10.983   6.394  73.192  1.00  0.00    -0.246 NA 
HETATM   33  N   UNL     1      -9.936   4.601  73.978  1.00  0.00    -0.153 NA 
HETATM   34  C   UNL     1     -10.001   6.858  74.031  1.00  0.00    -0.336 A  
HETATM   35  C   UNL     1     -10.913   5.027  73.205  1.00  0.00    -0.309 A  
HETATM   36  C   UNL     1      -9.354   5.735  74.483  1.00  0.00    -0.151 A  
ENDBRANCH  31  32
ENDBRANCH  21  31
ENDBRANCH  17  18
ENDBRANCH  16  17
ENDBRANCH  13  16
ENDBRANCH   7  10
TORSDOF 7
ENDMDL
MODEL      148
REMARK 921   NORMALIZED FREE ENERGY PREDICTED BY IDOCK:   -4.58 KCAL/MOL
REMARK 922        TOTAL FREE ENERGY PREDICTED BY IDOCK:   -6.88 KCAL/MOL
REMARK 923 INTER-LIGAND FREE ENERGY PREDICTED BY IDOCK:   -5.98 KCAL/MOL
REMARK 924 INTRA-LIGAND FREE ENERGY PREDICTED BY IDOCK:   -0.90 KCAL/MOL
REMARK 927      BINDING AFFINITY PREDICTED BY RF-SCORE:    0.00 PKD
ROOT
HETATM    1  C   UNL     1     -10.373  20.280  69.626  1.00  0.00     0.211 C  
HETATM    2  C   UNL     1      -9.984  19.812  68.248  1.00  0.00    -0.444 C  
HETATM    3  O   UNL     1      -9.671  20.627  67.381  1.00  0.00    -0.457 OA 
HETATM    4  N   UNL     1      -9.907  18.445  68.054  1.00  0.00    -0.321 N  
HETATM    5  C   UNL     1      -9.363  17.945  66.785  1.00  0.00    -0.275 C  
HETATM    6  C   UNL     1      -8.543  16.664  67.001  1.00  0.00    -0.195 C  
HETATM    7  N   UNL     1      -9.372  15.662  67.707  1.00  0.00    -0.201 NA 
HETATM    8  C   UNL     1     -10.638  17.439  68.844  1.00  0.00    -0.243 C  
HETATM    9  C   UNL     1      -9.833  16.138  69.027  1.00  0.00    -0.245 C  
ENDROOT
BRANCH   7  10
HETATM   10  C   UNL     1      -9.006  14.321  67.630  1.00  0.00    -0.194 A  
HETATM   11  C   UNL     1      -7.706  13.887  67.869  1.00  0.00    -0.161 A  
HETATM   12  C   UNL     1      -7.331  12.559  67.668  1.00  0.00    -0.134 A  
HETATM   13  C   UNL     1      -8.245  11.611  67.205  1.00  0.00    -0.165 A  
HETATM   14  C   UNL     1      -9.938  13.350  67.217  1.00  0.00    -0.232 A  
HETATM   15  C   UNL     1      -9.564  12.014  67.001  1.00  0.00    -0.200 A  
BRANCH  13  16
HETATM   16  O   UNL     1      -7.932  10.297  66.920  1.00  0.00    -0.110 OA 
BRANCH  16  17
HETATM   17  C   UNL     1      -8.639   9.774  65.790  1.00  0.00    -0.135 C  
BRANCH  17  18
HETATM   18  C   UNL     1      -8.193   8.385  65.356  1.00  0.00    -0.144 C  
HETATM   19  C   UNL     1      -6.751   8.085  65.656  1.00  0.00    -0.048 C  
HETATM   20  O   UNL     1      -6.730   6.677  65.871  1.00  0.00    -0.046 OA 
HETATM   21  C   UNL     1      -8.034   6.314  66.393  1.00  0.00    -0.109 C  
HETATM   22  O   UNL     1      -8.924   7.415  66.124  1.00  0.00    -0.163 OA 
BRANCH  21  23
HETATM   23  C   UNL     1      -8.574   5.077  65.670  1.00  0.00    -0.135 A  
HETATM   24 CL   UNL     1      -6.158   3.746  65.897  1.00  0.00    -0.027 Cl 
HETATM   25  C   UNL     1      -7.810   3.919  65.414  1.00  0.00    -0.089 A  
HETATM   26  C   UNL     1      -9.918   5.068  65.236  1.00  0.00     0.093 A  
HETATM   27  C   UNL     1     -10.474   3.963  64.589  1.00  0.00    -0.196 A  
HETATM   28  C   UNL     1      -8.367   2.815  64.753  1.00  0.00    -0.088 A  
HETATM   29 CL   UNL     1     -10.383   1.470  63.568  1.00  0.00    -0.132 Cl 
HETATM   30  C   UNL     1      -9.696   2.839  64.351  1.00  0.00    -0.124 A  
ENDBRANCH  21  23
BRANCH  21  31
HETATM   31  C   UNL     1      -7.920   6.164  67.933  1.00  0.00    -0.110 C  
BRANCH  31  32
HETATM   32  N   UNL     1      -9.118   6.423  68.700  1.00  0.00    -0.128 NA 
HETATM   33  N   UNL     1     -10.712   7.596  69.705  1.00  0.00    -0.245 NA 
HETATM   34  C   UNL     1     -10.188   5.576  68.842  1.00  0.00    -0.214 A  
HETATM   35  C   UNL     1      -9.476   7.625  69.249  1.00  0.00    -0.158 A  
HETATM   36  C   UNL     1     -11.166   6.330  69.441  1.00  0.00    -0.420 A  
ENDBRANCH  31  32
ENDBRANCH  21  31
ENDBRANCH  17  18
ENDBRANCH  16  17
ENDBRANCH  13  16
ENDBRANCH   7  10
TORSDOF 7
ENDMDL
MODEL      149
REMARK 921   NORMALIZED FREE ENERGY PREDICTED BY IDOCK:   -4.53 KCAL/MOL
REMARK 922        TOTAL FREE ENERGY PREDICTED BY IDOCK:   -6.81 KCAL/MOL
REMARK 923 INTER-LIGAND FREE ENERGY PREDICTED BY IDOCK:   -6.65 KCAL/MOL
REMARK 924 INTRA-LIGAND FREE ENERGY PREDICTED BY IDOCK:   -0.17 KCAL/MOL
REMARK 927      BINDING AFFINITY PREDICTED BY RF-SCORE:    0.00 PKD
ROOT
HETATM    1  C   UNL     1     -10.051   3.175  63.975  1.00  0.00    -0.175 C  
HETATM    2  C   UNL     1      -8.644   3.267  64.506  1.00  0.00    -0.094 C  
HETATM    3  O   UNL     1      -7.814   2.405  64.216  1.00  0.00    -0.074 OA 
HETATM    4  N   UNL     1      -8.326   4.398  65.234  1.00  0.00    -0.110 N  
HETATM    5  C   UNL     1      -6.926   4.615  65.619  1.00  0.00    -0.063 C  
HETATM    6  C   UNL     1      -6.566   6.108  65.577  1.00  0.00    -0.047 C  
HETATM    7  N   UNL     1      -7.519   6.868  66.416  1.00  0.00    -0.073 NA 
HETATM    8  C   UNL     1      -9.297   5.229  65.967  1.00  0.00    -0.158 C  
HETATM    9  C   UNL     1      -8.916   6.722  65.960  1.00  0.00    -0.106 C  
ENDROOT
BRANCH   7  10
HETATM   10  C   UNL     1      -7.149   8.132  66.867  1.00  0.00    -0.078 A  
HETATM   11  C   UNL     1      -6.383   9.004  66.099  1.00  0.00    -0.064 A  
HETATM   12  C   UNL     1      -5.919  10.214  66.612  1.00  0.00    -0.060 A  
HETATM   13  C   UNL     1      -6.193  10.596  67.928  1.00  0.00    -0.054 A  
HETATM   14  C   UNL     1      -7.469   8.546  68.173  1.00  0.00    -0.097 A  
HETATM   15  C   UNL     1      -6.995   9.758  68.701  1.00  0.00    -0.063 A  
BRANCH  13  16
HETATM   16  O   UNL     1      -5.714  11.744  68.525  1.00  0.00    -0.049 OA 
BRANCH  16  17
HETATM   17  C   UNL     1      -6.739  12.553  69.111  1.00  0.00    -0.089 C  
BRANCH  17  18
HETATM   18  C   UNL     1      -7.390  13.538  68.152  1.00  0.00    -0.121 C  
HETATM   19  C   UNL     1      -8.208  12.888  67.071  1.00  0.00    -0.080 C  
HETATM   20  O   UNL     1      -9.231  13.840  66.792  1.00  0.00    -0.246 OA 
HETATM   21  C   UNL     1      -9.464  14.575  68.022  1.00  0.00    -0.209 C  
HETATM   22  O   UNL     1      -8.340  14.326  68.889  1.00  0.00    -0.130 OA 
BRANCH  21  23
HETATM   23  C   UNL     1      -9.527  16.079  67.743  1.00  0.00    -0.217 A  
HETATM   24 CL   UNL     1     -11.125  15.716  65.512  1.00  0.00    -0.271 Cl 
HETATM   25  C   UNL     1     -10.230  16.649  66.661  1.00  0.00    -0.303 A  
HETATM   26  C   UNL     1      -8.859  16.967  68.615  1.00  0.00    -0.267 A  
HETATM   27  C   UNL     1      -8.896  18.349  68.424  1.00  0.00    -0.340 A  
HETATM   28  C   UNL     1     -10.256  18.038  66.466  1.00  0.00    -0.383 A  
HETATM   29 CL   UNL     1      -9.656  20.584  67.123  1.00  0.00    -0.581 Cl 
HETATM   30  C   UNL     1      -9.596  18.881  67.350  1.00  0.00    -0.306 A  
ENDBRANCH  21  23
BRANCH  21  31
HETATM   31  C   UNL     1     -10.728  13.991  68.708  1.00  0.00    -0.259 C  
BRANCH  31  32
HETATM   32  N   UNL     1     -11.347  14.808  69.727  1.00  0.00    -0.272 NA 
HETATM   33  N   UNL     1     -12.954  15.631  71.019  1.00  0.00    -0.491 NA 
HETATM   34  C   UNL     1     -10.721  15.352  70.821  1.00  0.00    -0.162 A  
HETATM   35  C   UNL     1     -12.691  15.014  69.885  1.00  0.00    -0.090 A  
HETATM   36  C   UNL     1     -11.735  15.830  71.614  1.00  0.00    -0.464 A  
ENDBRANCH  31  32
ENDBRANCH  21  31
ENDBRANCH  17  18
ENDBRANCH  16  17
ENDBRANCH  13  16
ENDBRANCH   7  10
TORSDOF 7
ENDMDL
MODEL      150
REMARK 921   NORMALIZED FREE ENERGY PREDICTED BY IDOCK:   -4.50 KCAL/MOL
REMARK 922        TOTAL FREE ENERGY PREDICTED BY IDOCK:   -6.77 KCAL/MOL
REMARK 923 INTER-LIGAND FREE ENERGY PREDICTED BY IDOCK:   -5.83 KCAL/MOL
REMARK 924 INTRA-LIGAND FREE ENERGY PREDICTED BY IDOCK:   -0.94 KCAL/MOL
REMARK 927      BINDING AFFINITY PREDICTED BY RF-SCORE:    0.00 PKD
ROOT
HETATM    1  C   UNL     1      -9.216   1.834  67.690  1.00  0.00    -0.173 C  
HETATM    2  C   UNL     1      -8.787   2.960  66.785  1.00  0.00    -0.142 C  
HETATM    3  O   UNL     1      -9.031   2.915  65.580  1.00  0.00    -0.136 OA 
HETATM    4  N   UNL     1      -8.210   4.061  67.392  1.00  0.00    -0.098 N  
HETATM    5  C   UNL     1      -7.939   5.251  66.576  1.00  0.00    -0.104 C  
HETATM    6  C   UNL     1      -8.170   6.538  67.382  1.00  0.00    -0.121 C  
HETATM    7  N   UNL     1      -7.363   6.493  68.623  1.00  0.00    -0.085 NA 
HETATM    8  C   UNL     1      -7.515   4.039  68.691  1.00  0.00    -0.055 C  
HETATM    9  C   UNL     1      -7.712   5.345  69.484  1.00  0.00    -0.077 C  
ENDROOT
BRANCH   7  10
HETATM   10  C   UNL     1      -7.079   7.689  69.277  1.00  0.00    -0.076 A  
HETATM   11  C   UNL     1      -8.041   8.393  69.995  1.00  0.00    -0.115 A  
HETATM   12  C   UNL     1      -7.771   9.648  70.540  1.00  0.00    -0.152 A  
HETATM   13  C   UNL     1      -6.525  10.257  70.374  1.00  0.00    -0.131 A  
HETATM   14  C   UNL     1      -5.808   8.282  69.160  1.00  0.00    -0.035 A  
HETATM   15  C   UNL     1      -5.533   9.550  69.695  1.00  0.00    -0.034 A  
BRANCH  13  16
HETATM   16  O   UNL     1      -6.206  11.522  70.826  1.00  0.00    -0.325 OA 
BRANCH  16  17
HETATM   17  C   UNL     1      -5.200  12.171  70.042  1.00  0.00    -0.089 C  
BRANCH  17  18
HETATM   18  C   UNL     1      -5.718  13.299  69.162  1.00  0.00    -0.076 C  
HETATM   19  C   UNL     1      -5.773  12.956  67.699  1.00  0.00    -0.130 C  
HETATM   20  O   UNL     1      -6.863  13.729  67.205  1.00  0.00    -0.194 OA 
HETATM   21  C   UNL     1      -7.794  13.892  68.306  1.00  0.00    -0.146 C  
HETATM   22  O   UNL     1      -7.086  13.558  69.517  1.00  0.00     0.030 OA 
BRANCH  21  23
HETATM   23  C   UNL     1      -8.251  15.350  68.409  1.00  0.00    -0.142 A  
HETATM   24 CL   UNL     1      -5.824  16.298  67.476  1.00  0.00    -0.170 Cl 
HETATM   25  C   UNL     1      -7.441  16.453  68.068  1.00  0.00    -0.144 A  
HETATM   26  C   UNL     1      -9.561  15.628  68.858  1.00  0.00    -0.224 A  
HETATM   27  C   UNL     1     -10.042  16.935  68.955  1.00  0.00    -0.297 A  
HETATM   28  C   UNL     1      -7.924  17.766  68.176  1.00  0.00    -0.263 A  
HETATM   29 CL   UNL     1      -9.817  19.610  68.715  1.00  0.00    -0.515 Cl 
HETATM   30  C   UNL     1      -9.221  18.000  68.612  1.00  0.00    -0.267 A  
ENDBRANCH  21  23
BRANCH  21  31
HETATM   31  C   UNL     1      -8.943  12.864  68.131  1.00  0.00    -0.202 C  
BRANCH  31  32
HETATM   32  N   UNL     1      -9.172  12.370  66.792  1.00  0.00    -0.208 NA 
HETATM   33  N   UNL     1      -9.208  10.934  65.100  1.00  0.00    -0.210 NA 
HETATM   34  C   UNL     1     -10.091  12.854  65.896  1.00  0.00    -0.289 A  
HETATM   35  C   UNL     1      -8.655  11.219  66.261  1.00  0.00    -0.172 A  
HETATM   36  C   UNL     1     -10.113  11.938  64.873  1.00  0.00    -0.263 A  
ENDBRANCH  31  32
ENDBRANCH  21  31
ENDBRANCH  17  18
ENDBRANCH  16  17
ENDBRANCH  13  16
ENDBRANCH   7  10
TORSDOF 7
ENDMDL
MODEL      151
REMARK 921   NORMALIZED FREE ENERGY PREDICTED BY IDOCK:   -4.45 KCAL/MOL
REMARK 922        TOTAL FREE ENERGY PREDICTED BY IDOCK:   -6.70 KCAL/MOL
REMARK 923 INTER-LIGAND FREE ENERGY PREDICTED BY IDOCK:   -6.53 KCAL/MOL
REMARK 924 INTRA-LIGAND FREE ENERGY PREDICTED BY IDOCK:   -0.17 KCAL/MOL
REMARK 927      BINDING AFFINITY PREDICTED BY RF-SCORE:    0.00 PKD
ROOT
HETATM    1  C   UNL     1      -5.313  17.808  70.653  1.00  0.00    -0.268 C  
HETATM    2  C   UNL     1      -5.531  17.229  69.280  1.00  0.00    -0.174 C  
HETATM    3  O   UNL     1      -5.308  17.907  68.278  1.00  0.00    -0.151 OA 
HETATM    4  N   UNL     1      -5.889  15.894  69.216  1.00  0.00    -0.116 N  
HETATM    5  C   UNL     1      -5.939  15.243  67.902  1.00  0.00    -0.150 C  
HETATM    6  C   UNL     1      -5.468  13.783  67.991  1.00  0.00    -0.115 C  
HETATM    7  N   UNL     1      -6.262  13.071  69.018  1.00  0.00    -0.088 NA 
HETATM    8  C   UNL     1      -6.568  15.152  70.293  1.00  0.00    -0.038 C  
HETATM    9  C   UNL     1      -6.127  13.678  70.358  1.00  0.00    -0.108 C  
ENDROOT
BRANCH   7  10
HETATM   10  C   UNL     1      -6.314  11.681  68.975  1.00  0.00    -0.072 A  
HETATM   11  C   UNL     1      -6.457  10.903  70.120  1.00  0.00    -0.145 A  
HETATM   12  C   UNL     1      -6.385   9.511  70.071  1.00  0.00    -0.054 A  
HETATM   13  C   UNL     1      -6.151   8.840  68.869  1.00  0.00    -0.044 A  
HETATM   14  C   UNL     1      -6.134  10.998  67.758  1.00  0.00    -0.047 A  
HETATM   15  C   UNL     1      -6.048   9.597  67.702  1.00  0.00    -0.052 A  
BRANCH  13  16
HETATM   16  O   UNL     1      -6.001   7.473  68.752  1.00  0.00    -0.025 OA 
BRANCH  16  17
HETATM   17  C   UNL     1      -7.244   6.764  68.714  1.00  0.00    -0.092 C  
BRANCH  17  18
HETATM   18  C   UNL     1      -8.404   7.557  68.130  1.00  0.00    -0.125 C  
HETATM   19  C   UNL     1      -9.551   6.706  67.662  1.00  0.00    -0.124 C  
HETATM   20  O   UNL     1     -10.695   7.533  67.853  1.00  0.00    -0.202 OA 
HETATM   21  C   UNL     1     -10.394   8.411  68.969  1.00  0.00    -0.218 C  
HETATM   22  O   UNL     1      -8.967   8.368  69.174  1.00  0.00    -0.145 OA 
BRANCH  21  23
HETATM   23  C   UNL     1     -10.782   9.854  68.634  1.00  0.00    -0.256 A  
HETATM   24 CL   UNL     1     -10.134   9.531  65.962  1.00  0.00    -0.353 Cl 
HETATM   25  C   UNL     1     -10.690  10.413  67.342  1.00  0.00    -0.283 A  
HETATM   26  C   UNL     1     -11.276  10.688  69.661  1.00  0.00    -0.351 A  
HETATM   27  C   UNL     1     -11.664  12.006  69.414  1.00  0.00    -0.402 A  
HETATM   28  C   UNL     1     -11.072  11.741  67.099  1.00  0.00    -0.350 A  
HETATM   29 CL   UNL     1     -12.056  14.145  67.823  1.00  0.00    -0.380 Cl 
HETATM   30  C   UNL     1     -11.562  12.528  68.133  1.00  0.00    -0.340 A  
ENDBRANCH  21  23
BRANCH  21  31
HETATM   31  C   UNL     1     -11.072   7.837  70.240  1.00  0.00    -0.234 C  
BRANCH  31  32
HETATM   32  N   UNL     1     -10.231   7.671  71.405  1.00  0.00    -0.186 NA 
HETATM   33  N   UNL     1      -9.447   8.022  73.451  1.00  0.00    -0.271 NA 
HETATM   34  C   UNL     1      -9.548   6.534  71.755  1.00  0.00    -0.152 A  
HETATM   35  C   UNL     1     -10.130   8.545  72.454  1.00  0.00    -0.295 A  
HETATM   36  C   UNL     1      -9.095   6.766  73.030  1.00  0.00    -0.127 A  
ENDBRANCH  31  32
ENDBRANCH  21  31
ENDBRANCH  17  18
ENDBRANCH  16  17
ENDBRANCH  13  16
ENDBRANCH   7  10
TORSDOF 7
ENDMDL
MODEL      152
REMARK 921   NORMALIZED FREE ENERGY PREDICTED BY IDOCK:   -4.44 KCAL/MOL
REMARK 922        TOTAL FREE ENERGY PREDICTED BY IDOCK:   -6.69 KCAL/MOL
REMARK 923 INTER-LIGAND FREE ENERGY PREDICTED BY IDOCK:   -6.42 KCAL/MOL
REMARK 924 INTRA-LIGAND FREE ENERGY PREDICTED BY IDOCK:   -0.27 KCAL/MOL
REMARK 927      BINDING AFFINITY PREDICTED BY RF-SCORE:    0.00 PKD
ROOT
HETATM    1  C   UNL     1      -6.681   7.134  71.148  1.00  0.00    -0.051 C  
HETATM    2  C   UNL     1      -7.177   7.693  69.840  1.00  0.00    -0.072 C  
HETATM    3  O   UNL     1      -7.940   7.036  69.133  1.00  0.00    -0.115 OA 
HETATM    4  N   UNL     1      -6.814   8.994  69.542  1.00  0.00    -0.047 N  
HETATM    5  C   UNL     1      -7.416   9.640  68.369  1.00  0.00    -0.080 C  
HETATM    6  C   UNL     1      -7.668  11.133  68.629  1.00  0.00    -0.135 C  
HETATM    7  N   UNL     1      -6.406  11.778  69.058  1.00  0.00    -0.071 NA 
HETATM    8  C   UNL     1      -5.621   9.678  70.072  1.00  0.00    -0.040 C  
HETATM    9  C   UNL     1      -5.859  11.184  70.295  1.00  0.00    -0.137 C  
ENDROOT
BRANCH   7  10
HETATM   10  C   UNL     1      -6.288  13.159  68.935  1.00  0.00    -0.093 A  
HETATM   11  C   UNL     1      -6.371  13.809  67.707  1.00  0.00    -0.171 A  
HETATM   12  C   UNL     1      -6.130  15.177  67.587  1.00  0.00    -0.127 A  
HETATM   13  C   UNL     1      -5.779  15.950  68.696  1.00  0.00    -0.101 A  
HETATM   14  C   UNL     1      -5.990  13.953  70.058  1.00  0.00    -0.143 A  
HETATM   15  C   UNL     1      -5.733  15.329  69.943  1.00  0.00    -0.126 A  
BRANCH  13  16
HETATM   16  O   UNL     1      -5.462  17.293  68.644  1.00  0.00    -0.139 OA 
BRANCH  16  17
HETATM   17  C   UNL     1      -6.437  18.134  69.267  1.00  0.00    -0.255 C  
BRANCH  17  18
HETATM   18  C   UNL     1      -7.879  17.777  68.939  1.00  0.00    -0.184 C  
HETATM   19  C   UNL     1      -8.864  18.872  69.243  1.00  0.00     0.111 C  
HETATM   20  O   UNL     1      -9.895  18.686  68.278  1.00  0.00    -0.331 OA 
HETATM   21  C   UNL     1      -9.273  18.096  67.108  1.00  0.00    -0.256 C  
HETATM   22  O   UNL     1      -7.986  17.589  67.518  1.00  0.00    -0.196 OA 
BRANCH  21  23
HETATM   23  C   UNL     1     -10.105  16.918  66.595  1.00  0.00    -0.306 A  
HETATM   24 CL   UNL     1     -10.477  15.918  69.149  1.00  0.00    -0.219 Cl 
HETATM   25  C   UNL     1     -10.660  15.924  67.430  1.00  0.00    -0.315 A  
HETATM   26  C   UNL     1     -10.356  16.806  65.210  1.00  0.00    -0.077 A  
HETATM   27  C   UNL     1     -11.124  15.766  64.684  1.00  0.00    -0.376 A  
HETATM   28  C   UNL     1     -11.422  14.874  66.897  1.00  0.00    -0.318 A  
HETATM   29 CL   UNL     1     -12.616  13.531  64.886  1.00  0.00    -0.412 Cl 
HETATM   30  C   UNL     1     -11.656  14.804  65.530  1.00  0.00    -0.301 A  
ENDBRANCH  21  23
BRANCH  21  31
HETATM   31  C   UNL     1      -9.028  19.218  66.066  1.00  0.00    -0.114 C  
BRANCH  31  32
HETATM   32  N   UNL     1      -7.709  19.809  66.046  1.00  0.00    -0.327 NA 
HETATM   33  N   UNL     1      -5.728  20.410  65.247  1.00  0.00    -0.182 NA 
HETATM   34  C   UNL     1      -7.274  20.846  66.834  1.00  0.00    -0.243 A  
HETATM   35  C   UNL     1      -6.736  19.573  65.113  1.00  0.00    -0.198 A  
HETATM   36  C   UNL     1      -6.062  21.215  66.304  1.00  0.00    -0.277 A  
ENDBRANCH  31  32
ENDBRANCH  21  31
ENDBRANCH  17  18
ENDBRANCH  16  17
ENDBRANCH  13  16
ENDBRANCH   7  10
TORSDOF 7
ENDMDL
MODEL      153
REMARK 921   NORMALIZED FREE ENERGY PREDICTED BY IDOCK:   -4.43 KCAL/MOL
REMARK 922        TOTAL FREE ENERGY PREDICTED BY IDOCK:   -6.67 KCAL/MOL
REMARK 923 INTER-LIGAND FREE ENERGY PREDICTED BY IDOCK:   -5.41 KCAL/MOL
REMARK 924 INTRA-LIGAND FREE ENERGY PREDICTED BY IDOCK:   -1.25 KCAL/MOL
REMARK 927      BINDING AFFINITY PREDICTED BY RF-SCORE:    0.00 PKD
ROOT
HETATM    1  C   UNL     1      -8.408  15.624  69.404  1.00  0.00    -0.238 C  
HETATM    2  C   UNL     1      -7.386  14.965  68.515  1.00  0.00    -0.119 C  
HETATM    3  O   UNL     1      -6.317  15.525  68.277  1.00  0.00    -0.103 OA 
HETATM    4  N   UNL     1      -7.673  13.684  68.079  1.00  0.00    -0.127 N  
HETATM    5  C   UNL     1      -6.634  12.937  67.361  1.00  0.00    -0.126 C  
HETATM    6  C   UNL     1      -6.683  11.442  67.715  1.00  0.00    -0.070 C  
HETATM    7  N   UNL     1      -8.046  10.921  67.464  1.00  0.00    -0.115 NA 
HETATM    8  C   UNL     1      -9.030  13.123  67.950  1.00  0.00    -0.200 C  
HETATM    9  C   UNL     1      -9.074  11.616  68.266  1.00  0.00    -0.187 C  
ENDROOT
BRANCH   7  10
HETATM   10  C   UNL     1      -8.215   9.549  67.302  1.00  0.00    -0.114 A  
HETATM   11  C   UNL     1      -7.168   8.645  67.450  1.00  0.00    -0.080 A  
HETATM   12  C   UNL     1      -7.328   7.290  67.165  1.00  0.00    -0.094 A  
HETATM   13  C   UNL     1      -8.545   6.785  66.704  1.00  0.00    -0.123 A  
HETATM   14  C   UNL     1      -9.456   9.027  66.891  1.00  0.00    -0.219 A  
HETATM   15  C   UNL     1      -9.621   7.665  66.590  1.00  0.00    -0.271 A  
BRANCH  13  16
HETATM   16  O   UNL     1      -8.760   5.472  66.339  1.00  0.00    -0.118 OA 
BRANCH  16  17
HETATM   17  C   UNL     1      -8.614   4.547  67.422  1.00  0.00    -0.104 C  
BRANCH  17  18
HETATM   18  C   UNL     1      -9.641   4.711  68.533  1.00  0.00    -0.158 C  
HETATM   19  C   UNL     1      -9.682   3.560  69.500  1.00  0.00    -0.003 C  
HETATM   20  O   UNL     1     -10.079   4.159  70.730  1.00  0.00    -0.164 OA 
HETATM   21  C   UNL     1      -9.592   5.526  70.706  1.00  0.00    -0.170 C  
HETATM   22  O   UNL     1      -9.260   5.838  69.339  1.00  0.00    -0.124 OA 
BRANCH  21  23
HETATM   23  C   UNL     1     -10.688   6.493  71.162  1.00  0.00    -0.285 A  
HETATM   24 CL   UNL     1     -11.143   5.063  73.488  1.00  0.00    -0.385 Cl 
HETATM   25  C   UNL     1     -11.412   6.350  72.365  1.00  0.00    -0.282 A  
HETATM   26  C   UNL     1     -11.001   7.607  70.353  1.00  0.00    -0.256 A  
HETATM   27  C   UNL     1     -11.976   8.534  70.725  1.00  0.00    -0.129 A  
HETATM   28  C   UNL     1     -12.399   7.277  72.730  1.00  0.00     0.356 A  
HETATM   29 CL   UNL     1     -13.862   9.516  72.381  1.00  0.00    -0.427 Cl 
HETATM   30  C   UNL     1     -12.671   8.367  71.913  1.00  0.00    -0.355 A  
ENDBRANCH  21  23
BRANCH  21  31
HETATM   31  C   UNL     1      -8.283   5.594  71.537  1.00  0.00    -0.119 C  
BRANCH  31  32
HETATM   32  N   UNL     1      -7.915   6.890  72.061  1.00  0.00    -0.095 NA 
HETATM   33  N   UNL     1      -7.309   8.417  73.554  1.00  0.00    -0.290 NA 
HETATM   34  C   UNL     1      -7.352   7.920  71.351  1.00  0.00    -0.066 A  
HETATM   35  C   UNL     1      -7.880   7.242  73.383  1.00  0.00    -0.097 A  
HETATM   36  C   UNL     1      -6.964   8.838  72.296  1.00  0.00     0.039 A  
ENDBRANCH  31  32
ENDBRANCH  21  31
ENDBRANCH  17  18
ENDBRANCH  16  17
ENDBRANCH  13  16
ENDBRANCH   7  10
TORSDOF 7
ENDMDL
MODEL      154
REMARK 921   NORMALIZED FREE ENERGY PREDICTED BY IDOCK:   -4.40 KCAL/MOL
REMARK 922        TOTAL FREE ENERGY PREDICTED BY IDOCK:   -6.63 KCAL/MOL
REMARK 923 INTER-LIGAND FREE ENERGY PREDICTED BY IDOCK:   -7.70 KCAL/MOL
REMARK 924 INTRA-LIGAND FREE ENERGY PREDICTED BY IDOCK:    1.07 KCAL/MOL
REMARK 927      BINDING AFFINITY PREDICTED BY RF-SCORE:    0.00 PKD
ROOT
HETATM    1  C   UNL     1      -8.063   2.222  72.729  1.00  0.00    -0.054 C  
HETATM    2  C   UNL     1      -8.883   3.472  72.915  1.00  0.00    -0.092 C  
HETATM    3  O   UNL     1      -9.150   3.876  74.046  1.00  0.00    -0.094 OA 
HETATM    4  N   UNL     1      -9.222   4.171  71.770  1.00  0.00    -0.122 N  
HETATM    5  C   UNL     1      -9.866   5.482  71.913  1.00  0.00    -0.168 C  
HETATM    6  C   UNL     1      -9.396   6.451  70.816  1.00  0.00    -0.158 C  
HETATM    7  N   UNL     1      -9.624   5.837  69.487  1.00  0.00    -0.137 NA 
HETATM    8  C   UNL     1      -9.325   3.582  70.423  1.00  0.00    -0.169 C  
HETATM    9  C   UNL     1      -8.893   4.565  69.318  1.00  0.00    -0.090 C  
ENDROOT
BRANCH   7  10
HETATM   10  C   UNL     1      -9.681   6.668  68.371  1.00  0.00    -0.126 A  
HETATM   11  C   UNL     1      -8.762   6.582  67.330  1.00  0.00    -0.117 A  
HETATM   12  C   UNL     1      -8.761   7.500  66.281  1.00  0.00    -0.165 A  
HETATM   13  C   UNL     1      -9.676   8.555  66.240  1.00  0.00    -0.229 A  
HETATM   14  C   UNL     1     -10.637   7.698  68.297  1.00  0.00    -0.175 A  
HETATM   15  C   UNL     1     -10.634   8.633  67.249  1.00  0.00    -0.308 A  
BRANCH  13  16
HETATM   16  O   UNL     1      -9.693   9.538  65.271  1.00  0.00    -0.293 OA 
BRANCH  16  17
HETATM   17  C   UNL     1      -8.800  10.622  65.543  1.00  0.00    -0.188 C  
BRANCH  17  18
HETATM   18  C   UNL     1      -9.034  11.312  66.879  1.00  0.00    -0.162 C  
HETATM   19  C   UNL     1      -8.072  12.431  67.165  1.00  0.00    -0.167 C  
HETATM   20  O   UNL     1      -8.825  13.336  67.966  1.00  0.00    -0.175 OA 
HETATM   21  C   UNL     1     -10.214  13.187  67.573  1.00  0.00    -0.225 C  
HETATM   22  O   UNL     1     -10.320  11.952  66.838  1.00  0.00    -0.206 OA 
BRANCH  21  23
HETATM   23  C   UNL     1     -11.112  13.084  68.809  1.00  0.00    -0.311 A  
HETATM   24 CL   UNL     1     -11.433  15.830  68.946  1.00  0.00    -0.357 Cl 
HETATM   25  C   UNL     1     -11.677  14.199  69.465  1.00  0.00    -0.312 A  
HETATM   26  C   UNL     1     -11.417  11.809  69.332  1.00  0.00    -0.371 A  
HETATM   27  C   UNL     1     -12.245  11.650  70.444  1.00  0.00    -0.434 A  
HETATM   28  C   UNL     1     -12.501  14.036  70.589  1.00  0.00    -0.435 A  
HETATM   29 CL   UNL     1     -13.820  12.570  72.428  1.00  0.00    -0.368 Cl 
HETATM   30  C   UNL     1     -12.786  12.765  71.068  1.00  0.00    -0.176 A  
ENDBRANCH  21  23
BRANCH  21  31
HETATM   31  C   UNL     1     -10.575  14.345  66.606  1.00  0.00    -0.282 C  
BRANCH  31  32
HETATM   32  N   UNL     1      -9.616  15.421  66.495  1.00  0.00    -0.256 NA 
HETATM   33  N   UNL     1      -8.741  17.345  65.818  1.00  0.00    -0.480 NA 
HETATM   34  C   UNL     1      -8.677  15.768  67.434  1.00  0.00    -0.183 A  
HETATM   35  C   UNL     1      -9.607  16.395  65.534  1.00  0.00     0.086 A  
HETATM   36  C   UNL     1      -8.169  16.971  67.007  1.00  0.00    -0.204 A  
ENDBRANCH  31  32
ENDBRANCH  21  31
ENDBRANCH  17  18
ENDBRANCH  16  17
ENDBRANCH  13  16
ENDBRANCH   7  10
TORSDOF 7
ENDMDL
MODEL      155
REMARK 921   NORMALIZED FREE ENERGY PREDICTED BY IDOCK:   -4.39 KCAL/MOL
REMARK 922        TOTAL FREE ENERGY PREDICTED BY IDOCK:   -6.62 KCAL/MOL
REMARK 923 INTER-LIGAND FREE ENERGY PREDICTED BY IDOCK:   -5.21 KCAL/MOL
REMARK 924 INTRA-LIGAND FREE ENERGY PREDICTED BY IDOCK:   -1.41 KCAL/MOL
REMARK 927      BINDING AFFINITY PREDICTED BY RF-SCORE:    0.00 PKD
ROOT
HETATM    1  C   UNL     1     -10.906   2.123  73.113  1.00  0.00    -0.264 C  
HETATM    2  C   UNL     1      -9.457   2.395  73.420  1.00  0.00    -0.083 C  
HETATM    3  O   UNL     1      -8.814   1.615  74.123  1.00  0.00    -0.057 OA 
HETATM    4  N   UNL     1      -8.883   3.489  72.799  1.00  0.00    -0.089 N  
HETATM    5  C   UNL     1      -7.435   3.690  72.927  1.00  0.00    -0.060 C  
HETATM    6  C   UNL     1      -6.840   4.263  71.631  1.00  0.00    -0.031 C  
HETATM    7  N   UNL     1      -7.563   5.501  71.262  1.00  0.00    -0.096 NA 
HETATM    8  C   UNL     1      -9.624   4.668  72.316  1.00  0.00    -0.152 C  
HETATM    9  C   UNL     1      -9.005   5.268  71.039  1.00  0.00    -0.138 C  
ENDROOT
BRANCH   7  10
HETATM   10  C   UNL     1      -6.945   6.402  70.400  1.00  0.00    -0.063 A  
HETATM   11  C   UNL     1      -6.747   7.738  70.733  1.00  0.00    -0.038 A  
HETATM   12  C   UNL     1      -6.238   8.652  69.812  1.00  0.00    -0.035 A  
HETATM   13  C   UNL     1      -5.919   8.266  68.508  1.00  0.00    -0.041 A  
HETATM   14  C   UNL     1      -6.570   6.005  69.103  1.00  0.00    -0.051 A  
HETATM   15  C   UNL     1      -6.068   6.922  68.166  1.00  0.00    -0.033 A  
BRANCH  13  16
HETATM   16  O   UNL     1      -5.474   9.125  67.524  1.00  0.00    -0.037 OA 
BRANCH  16  17
HETATM   17  C   UNL     1      -6.114   8.925  66.260  1.00  0.00    -0.063 C  
BRANCH  17  18
HETATM   18  C   UNL     1      -6.881  10.134  65.744  1.00  0.00    -0.118 C  
HETATM   19  C   UNL     1      -7.434   9.960  64.357  1.00  0.00    -0.137 C  
HETATM   20  O   UNL     1      -8.614  10.757  64.354  1.00  0.00    -0.144 OA 
HETATM   21  C   UNL     1      -9.115  10.770  65.715  1.00  0.00    -0.188 C  
HETATM   22  O   UNL     1      -8.045  10.317  66.568  1.00  0.00    -0.116 OA 
BRANCH  21  23
HETATM   23  C   UNL     1      -9.487  12.194  66.136  1.00  0.00    -0.231 A  
HETATM   24 CL   UNL     1     -11.356  12.427  64.108  1.00  0.00    -0.405 Cl 
HETATM   25  C   UNL     1     -10.455  12.981  65.476  1.00  0.00    -0.285 A  
HETATM   26  C   UNL     1      -8.846  12.770  67.255  1.00  0.00    -0.198 A  
HETATM   27  C   UNL     1      -9.157  14.056  67.698  1.00  0.00    -0.192 A  
HETATM   28  C   UNL     1     -10.758  14.277  65.918  1.00  0.00    -0.304 A  
HETATM   29 CL   UNL     1     -10.509  16.384  67.583  1.00  0.00    -0.296 Cl 
HETATM   30  C   UNL     1     -10.113  14.806  67.028  1.00  0.00    -0.245 A  
ENDBRANCH  21  23
BRANCH  21  31
HETATM   31  C   UNL     1     -10.272   9.741  65.821  1.00  0.00    -0.152 C  
BRANCH  31  32
HETATM   32  N   UNL     1     -10.316   8.937  67.022  1.00  0.00    -0.268 NA 
HETATM   33  N   UNL     1      -9.739   7.357  68.470  1.00  0.00    -0.149 NA 
HETATM   34  C   UNL     1     -10.834   9.318  68.234  1.00  0.00    -0.080 A  
HETATM   35  C   UNL     1      -9.678   7.741  67.212  1.00  0.00    -0.171 A  
HETATM   36  C   UNL     1     -10.443   8.341  69.115  1.00  0.00    -0.206 A  
ENDBRANCH  31  32
ENDBRANCH  21  31
ENDBRANCH  17  18
ENDBRANCH  16  17
ENDBRANCH  13  16
ENDBRANCH   7  10
TORSDOF 7
ENDMDL
MODEL      156
REMARK 921   NORMALIZED FREE ENERGY PREDICTED BY IDOCK:   -4.39 KCAL/MOL
REMARK 922        TOTAL FREE ENERGY PREDICTED BY IDOCK:   -6.62 KCAL/MOL
REMARK 923 INTER-LIGAND FREE ENERGY PREDICTED BY IDOCK:   -5.99 KCAL/MOL
REMARK 924 INTRA-LIGAND FREE ENERGY PREDICTED BY IDOCK:   -0.62 KCAL/MOL
REMARK 927      BINDING AFFINITY PREDICTED BY RF-SCORE:    0.00 PKD
ROOT
HETATM    1  C   UNL     1     -10.679  19.681  65.608  1.00  0.00    -0.428 C  
HETATM    2  C   UNL     1      -9.979  19.556  66.936  1.00  0.00    -0.386 C  
HETATM    3  O   UNL     1     -10.123  20.423  67.797  1.00  0.00    -0.391 OA 
HETATM    4  N   UNL     1      -9.267  18.391  67.157  1.00  0.00    -0.260 N  
HETATM    5  C   UNL     1      -8.718  18.148  68.497  1.00  0.00    -0.296 C  
HETATM    6  C   UNL     1      -8.782  16.655  68.857  1.00  0.00    -0.238 C  
HETATM    7  N   UNL     1      -8.105  15.866  67.804  1.00  0.00    -0.140 NA 
HETATM    8  C   UNL     1      -8.701  17.536  66.099  1.00  0.00    -0.120 C  
HETATM    9  C   UNL     1      -8.727  16.042  66.476  1.00  0.00    -0.303 C  
ENDROOT
BRANCH   7  10
HETATM   10  C   UNL     1      -7.667  14.580  68.112  1.00  0.00    -0.128 A  
HETATM   11  C   UNL     1      -6.724  14.331  69.104  1.00  0.00    -0.118 A  
HETATM   12  C   UNL     1      -6.209  13.053  69.316  1.00  0.00    -0.103 A  
HETATM   13  C   UNL     1      -6.609  11.971  68.529  1.00  0.00    -0.062 A  
HETATM   14  C   UNL     1      -8.109  13.477  67.359  1.00  0.00    -0.184 A  
HETATM   15  C   UNL     1      -7.585  12.189  67.558  1.00  0.00    -0.151 A  
BRANCH  13  16
HETATM   16  O   UNL     1      -6.095  10.694  68.636  1.00  0.00    -0.041 OA 
BRANCH  16  17
HETATM   17  C   UNL     1      -6.360  10.076  69.899  1.00  0.00    -0.066 C  
BRANCH  17  18
HETATM   18  C   UNL     1      -6.656   8.585  69.822  1.00  0.00    -0.039 C  
HETATM   19  C   UNL     1      -7.036   7.970  71.140  1.00  0.00    -0.055 C  
HETATM   20  O   UNL     1      -7.916   6.907  70.783  1.00  0.00    -0.103 OA 
HETATM   21  C   UNL     1      -8.576   7.306  69.554  1.00  0.00    -0.134 C  
HETATM   22  O   UNL     1      -7.817   8.397  68.996  1.00  0.00    -0.098 OA 
BRANCH  21  23
HETATM   23  C   UNL     1      -8.566   6.155  68.543  1.00  0.00    -0.113 A  
HETATM   24 CL   UNL     1      -8.122   4.270  70.522  1.00  0.00    -0.065 Cl 
HETATM   25  C   UNL     1      -8.368   4.803  68.895  1.00  0.00    -0.082 A  
HETATM   26  C   UNL     1      -8.777   6.439  67.176  1.00  0.00    -0.110 A  
HETATM   27  C   UNL     1      -8.798   5.430  66.212  1.00  0.00    -0.131 A  
HETATM   28  C   UNL     1      -8.380   3.792  67.922  1.00  0.00    -0.100 A  
HETATM   29 CL   UNL     1      -8.643   2.864  65.403  1.00  0.00    -0.102 Cl 
HETATM   30  C   UNL     1      -8.601   4.110  66.588  1.00  0.00    -0.112 A  
ENDBRANCH  21  23
BRANCH  21  31
HETATM   31  C   UNL     1      -9.987   7.843  69.907  1.00  0.00    -0.192 C  
BRANCH  31  32
HETATM   32  N   UNL     1     -10.413   9.044  69.224  1.00  0.00    -0.226 NA 
HETATM   33  N   UNL     1     -10.657  11.213  68.820  1.00  0.00    -0.193 NA 
HETATM   34  C   UNL     1     -10.701   9.157  67.887  1.00  0.00    -0.162 A  
HETATM   35  C   UNL     1     -10.413  10.309  69.746  1.00  0.00    -0.259 A  
HETATM   36  C   UNL     1     -10.822  10.505  67.658  1.00  0.00    -0.300 A  
ENDBRANCH  31  32
ENDBRANCH  21  31
ENDBRANCH  17  18
ENDBRANCH  16  17
ENDBRANCH  13  16
ENDBRANCH   7  10
TORSDOF 7
ENDMDL
MODEL      157
REMARK 921   NORMALIZED FREE ENERGY PREDICTED BY IDOCK:   -4.37 KCAL/MOL
REMARK 922        TOTAL FREE ENERGY PREDICTED BY IDOCK:   -6.59 KCAL/MOL
REMARK 923 INTER-LIGAND FREE ENERGY PREDICTED BY IDOCK:   -7.41 KCAL/MOL
REMARK 924 INTRA-LIGAND FREE ENERGY PREDICTED BY IDOCK:    0.82 KCAL/MOL
REMARK 927      BINDING AFFINITY PREDICTED BY RF-SCORE:    0.00 PKD
ROOT
HETATM    1  C   UNL     1      -8.259   3.110  74.530  1.00  0.00    -0.069 C  
HETATM    2  C   UNL     1      -8.872   3.262  73.162  1.00  0.00    -0.080 C  
HETATM    3  O   UNL     1      -9.070   2.273  72.458  1.00  0.00    -0.076 OA 
HETATM    4  N   UNL     1      -9.277   4.533  72.799  1.00  0.00    -0.127 N  
HETATM    5  C   UNL     1     -10.036   4.699  71.554  1.00  0.00    -0.185 C  
HETATM    6  C   UNL     1     -11.104   5.795  71.699  1.00  0.00    -0.226 C  
HETATM    7  N   UNL     1     -10.462   7.049  72.155  1.00  0.00    -0.206 NA 
HETATM    8  C   UNL     1      -8.723   5.783  73.349  1.00  0.00    -0.120 C  
HETATM    9  C   UNL     1      -9.783   6.897  73.457  1.00  0.00    -0.220 C  
ENDROOT
BRANCH   7  10
HETATM   10  C   UNL     1     -11.130   8.253  71.947  1.00  0.00    -0.292 A  
HETATM   11  C   UNL     1     -12.466   8.435  72.293  1.00  0.00    -0.417 A  
HETATM   12  C   UNL     1     -13.151   9.605  71.966  1.00  0.00    -0.537 A  
HETATM   13  C   UNL     1     -12.527  10.637  71.263  1.00  0.00    -0.410 A  
HETATM   14  C   UNL     1     -10.490   9.319  71.288  1.00  0.00    -0.408 A  
HETATM   15  C   UNL     1     -11.177  10.494  70.944  1.00  0.00    -0.067 A  
BRANCH  13  16
HETATM   16  O   UNL     1     -13.158  11.793  70.848  1.00  0.00    -0.112 OA 
BRANCH  16  17
HETATM   17  C   UNL     1     -12.254  12.866  70.563  1.00  0.00    -0.314 C  
BRANCH  17  18
HETATM   18  C   UNL     1     -11.996  13.096  69.081  1.00  0.00    -0.281 C  
HETATM   19  C   UNL     1     -11.794  14.540  68.714  1.00  0.00    -0.315 C  
HETATM   20  O   UNL     1     -10.910  14.490  67.597  1.00  0.00    -0.264 OA 
HETATM   21  C   UNL     1     -10.098  13.299  67.758  1.00  0.00    -0.229 C  
HETATM   22  O   UNL     1     -10.752  12.465  68.735  1.00  0.00    -0.230 OA 
BRANCH  21  23
HETATM   23  C   UNL     1     -10.023  12.520  66.442  1.00  0.00    -0.262 A  
HETATM   24 CL   UNL     1     -12.632  13.165  65.779  1.00  0.00    -0.445 Cl 
HETATM   25  C   UNL     1     -11.094  12.414  65.530  1.00  0.00    -0.300 A  
HETATM   26  C   UNL     1      -8.817  11.872  66.095  1.00  0.00    -0.063 A  
HETATM   27  C   UNL     1      -8.682  11.164  64.900  1.00  0.00     0.080 A  
HETATM   28  C   UNL     1     -10.958  11.692  64.334  1.00  0.00    -0.399 A  
HETATM   29 CL   UNL     1      -9.583  10.219  62.543  1.00  0.00    -0.288 Cl 
HETATM   30  C   UNL     1      -9.753  11.077  64.023  1.00  0.00    -0.288 A  
ENDBRANCH  21  23
BRANCH  21  31
HETATM   31  C   UNL     1      -8.722  13.720  68.340  1.00  0.00    -0.162 C  
BRANCH  31  32
HETATM   32  N   UNL     1      -7.795  12.654  68.646  1.00  0.00    -0.089 NA 
HETATM   33  N   UNL     1      -5.851  11.661  69.048  1.00  0.00    -0.051 NA 
HETATM   34  C   UNL     1      -8.087  11.495  69.322  1.00  0.00     0.255 A  
HETATM   35  C   UNL     1      -6.436  12.701  68.492  1.00  0.00    -0.074 A  
HETATM   36  C   UNL     1      -6.870  10.914  69.580  1.00  0.00    -0.137 A  
ENDBRANCH  31  32
ENDBRANCH  21  31
ENDBRANCH  17  18
ENDBRANCH  16  17
ENDBRANCH  13  16
ENDBRANCH   7  10
TORSDOF 7
ENDMDL
MODEL      158
REMARK 921   NORMALIZED FREE ENERGY PREDICTED BY IDOCK:   -4.37 KCAL/MOL
REMARK 922        TOTAL FREE ENERGY PREDICTED BY IDOCK:   -6.58 KCAL/MOL
REMARK 923 INTER-LIGAND FREE ENERGY PREDICTED BY IDOCK:   -5.54 KCAL/MOL
REMARK 924 INTRA-LIGAND FREE ENERGY PREDICTED BY IDOCK:   -1.04 KCAL/MOL
REMARK 927      BINDING AFFINITY PREDICTED BY RF-SCORE:    0.00 PKD
ROOT
HETATM    1  C   UNL     1      -5.405  10.370  62.730  1.00  0.00    -0.133 C  
HETATM    2  C   UNL     1      -6.822  10.121  63.175  1.00  0.00    -0.131 C  
HETATM    3  O   UNL     1      -7.679   9.785  62.359  1.00  0.00    -0.113 OA 
HETATM    4  N   UNL     1      -7.068  10.192  64.534  1.00  0.00    -0.137 N  
HETATM    5  C   UNL     1      -8.389   9.785  65.030  1.00  0.00    -0.145 C  
HETATM    6  C   UNL     1      -8.275   9.083  66.393  1.00  0.00    -0.111 C  
HETATM    7  N   UNL     1      -7.548   9.960  67.339  1.00  0.00    -0.091 NA 
HETATM    8  C   UNL     1      -6.266  10.967  65.497  1.00  0.00     0.022 C  
HETATM    9  C   UNL     1      -6.184  10.284  66.876  1.00  0.00    -0.068 C  
ENDROOT
BRANCH   7  10
HETATM   10  C   UNL     1      -7.697   9.735  68.705  1.00  0.00    -0.080 A  
HETATM   11  C   UNL     1      -6.612   9.520  69.549  1.00  0.00    -0.044 A  
HETATM   12  C   UNL     1      -6.786   9.176  70.888  1.00  0.00    -0.096 A  
HETATM   13  C   UNL     1      -8.061   9.018  71.436  1.00  0.00    -0.044 A  
HETATM   14  C   UNL     1      -8.980   9.629  69.274  1.00  0.00    -0.173 A  
HETATM   15  C   UNL     1      -9.163   9.271  70.620  1.00  0.00    -0.321 A  
BRANCH  13  16
HETATM   16  O   UNL     1      -8.312   8.615  72.732  1.00  0.00    -0.388 OA 
BRANCH  16  17
HETATM   17  C   UNL     1      -7.317   7.729  73.257  1.00  0.00    -0.109 C  
BRANCH  17  18
HETATM   18  C   UNL     1      -7.515   6.267  72.884  1.00  0.00    -0.096 C  
HETATM   19  C   UNL     1      -7.712   5.358  74.065  1.00  0.00    -0.097 C  
HETATM   20  O   UNL     1      -8.548   4.319  73.563  1.00  0.00    -0.093 OA 
HETATM   21  C   UNL     1      -9.358   4.904  72.511  1.00  0.00    -0.135 C  
HETATM   22  O   UNL     1      -8.739   6.152  72.140  1.00  0.00    -0.131 OA 
BRANCH  21  23
HETATM   23  C   UNL     1      -9.372   3.996  71.278  1.00  0.00    -0.212 A  
HETATM   24 CL   UNL     1     -10.028   1.768  72.785  1.00  0.00    -0.163 Cl 
HETATM   25  C   UNL     1      -9.653   2.614  71.324  1.00  0.00    -0.156 A  
HETATM   26  C   UNL     1      -9.105   4.555  70.010  1.00  0.00    -0.161 A  
HETATM   27  C   UNL     1      -9.123   3.783  68.847  1.00  0.00    -0.201 A  
HETATM   28  C   UNL     1      -9.660   1.837  70.156  1.00  0.00    -0.086 A  
HETATM   29 CL   UNL     1      -9.441   1.475  67.492  1.00  0.00    -0.095 Cl 
HETATM   30  C   UNL     1      -9.402   2.426  68.924  1.00  0.00    -0.151 A  
ENDBRANCH  21  23
BRANCH  21  31
HETATM   31  C   UNL     1     -10.759   5.226  73.094  1.00  0.00    -0.266 C  
BRANCH  31  32
HETATM   32  N   UNL     1     -11.442   6.375  72.543  1.00  0.00    -0.267 NA 
HETATM   33  N   UNL     1     -11.983   8.506  72.242  1.00  0.00    -0.380 NA 
HETATM   34  C   UNL     1     -12.025   6.453  71.303  1.00  0.00    -0.227 A  
HETATM   35  C   UNL     1     -11.453   7.635  73.076  1.00  0.00    -0.213 A  
HETATM   36  C   UNL     1     -12.327   7.781  71.131  1.00  0.00    -0.247 A  
ENDBRANCH  31  32
ENDBRANCH  21  31
ENDBRANCH  17  18
ENDBRANCH  16  17
ENDBRANCH  13  16
ENDBRANCH   7  10
TORSDOF 7
ENDMDL
MODEL      159
REMARK 921   NORMALIZED FREE ENERGY PREDICTED BY IDOCK:   -4.29 KCAL/MOL
REMARK 922        TOTAL FREE ENERGY PREDICTED BY IDOCK:   -6.47 KCAL/MOL
REMARK 923 INTER-LIGAND FREE ENERGY PREDICTED BY IDOCK:   -6.71 KCAL/MOL
REMARK 924 INTRA-LIGAND FREE ENERGY PREDICTED BY IDOCK:    0.24 KCAL/MOL
REMARK 927      BINDING AFFINITY PREDICTED BY RF-SCORE:    0.00 PKD
ROOT
HETATM    1  C   UNL     1      -9.425  20.081  66.529  1.00  0.00    -0.518 C  
HETATM    2  C   UNL     1     -10.075  18.789  66.108  1.00  0.00    -0.384 C  
HETATM    3  O   UNL     1     -10.920  18.782  65.213  1.00  0.00    -0.531 OA 
HETATM    4  N   UNL     1      -9.604  17.632  66.702  1.00  0.00    -0.284 N  
HETATM    5  C   UNL     1     -10.082  16.339  66.198  1.00  0.00    -0.344 C  
HETATM    6  C   UNL     1      -8.966  15.283  66.242  1.00  0.00    -0.279 C  
HETATM    7  N   UNL     1      -8.421  15.200  67.616  1.00  0.00    -0.153 NA 
HETATM    8  C   UNL     1      -8.945  17.569  68.019  1.00  0.00    -0.258 C  
HETATM    9  C   UNL     1      -7.854  16.483  68.078  1.00  0.00    -0.157 C  
ENDROOT
BRANCH   7  10
HETATM   10  C   UNL     1      -7.729  14.051  67.990  1.00  0.00    -0.149 A  
HETATM   11  C   UNL     1      -6.340  14.009  68.069  1.00  0.00    -0.146 A  
HETATM   12  C   UNL     1      -5.660  12.820  68.326  1.00  0.00    -0.070 A  
HETATM   13  C   UNL     1      -6.346  11.616  68.500  1.00  0.00    -0.052 A  
HETATM   14  C   UNL     1      -8.419  12.847  68.222  1.00  0.00    -0.161 A  
HETATM   15  C   UNL     1      -7.740  11.643  68.468  1.00  0.00    -0.134 A  
BRANCH  13  16
HETATM   16  O   UNL     1      -5.740  10.390  68.691  1.00  0.00    -0.041 OA 
BRANCH  16  17
HETATM   17  C   UNL     1      -5.296   9.778  67.477  1.00  0.00    -0.036 C  
BRANCH  17  18
HETATM   18  C   UNL     1      -6.058  10.215  66.235  1.00  0.00    -0.073 C  
HETATM   19  C   UNL     1      -5.503   9.663  64.951  1.00  0.00    -0.057 C  
HETATM   20  O   UNL     1      -6.642   9.549  64.104  1.00  0.00    -0.092 OA 
HETATM   21  C   UNL     1      -7.785   9.316  64.968  1.00  0.00    -0.109 C  
HETATM   22  O   UNL     1      -7.388   9.674  66.307  1.00  0.00    -0.092 OA 
BRANCH  21  23
HETATM   23  C   UNL     1      -8.955  10.216  64.562  1.00  0.00    -0.253 A  
HETATM   24 CL   UNL     1      -7.601  11.172  62.346  1.00  0.00    -0.063 Cl 
HETATM   25  C   UNL     1      -8.943  11.058  63.430  1.00  0.00    -0.139 A  
HETATM   26  C   UNL     1     -10.130  10.209  65.346  1.00  0.00    -0.342 A  
HETATM   27  C   UNL     1     -11.237  10.992  65.016  1.00  0.00     0.099 A  
HETATM   28  C   UNL     1     -10.054  11.852  63.107  1.00  0.00    -0.341 A  
HETATM   29 CL   UNL     1     -12.564  12.764  63.479  1.00  0.00    -0.430 Cl 
HETATM   30  C   UNL     1     -11.196  11.810  63.896  1.00  0.00    -0.414 A  
ENDBRANCH  21  23
BRANCH  21  31
HETATM   31  C   UNL     1      -8.103   7.797  64.959  1.00  0.00    -0.139 C  
BRANCH  31  32
HETATM   32  N   UNL     1      -8.177   7.143  66.246  1.00  0.00    -0.117 NA 
HETATM   33  N   UNL     1      -7.547   6.503  68.276  1.00  0.00    -0.101 NA 
HETATM   34  C   UNL     1      -9.325   6.802  66.917  1.00  0.00    -0.150 A  
HETATM   35  C   UNL     1      -7.130   6.932  67.103  1.00  0.00    -0.080 A  
HETATM   36  C   UNL     1      -8.912   6.435  68.173  1.00  0.00    -0.116 A  
ENDBRANCH  31  32
ENDBRANCH  21  31
ENDBRANCH  17  18
ENDBRANCH  16  17
ENDBRANCH  13  16
ENDBRANCH   7  10
TORSDOF 7
ENDMDL
MODEL      160
REMARK 921   NORMALIZED FREE ENERGY PREDICTED BY IDOCK:   -4.28 KCAL/MOL
REMARK 922        TOTAL FREE ENERGY PREDICTED BY IDOCK:   -6.46 KCAL/MOL
REMARK 923 INTER-LIGAND FREE ENERGY PREDICTED BY IDOCK:   -6.19 KCAL/MOL
REMARK 924 INTRA-LIGAND FREE ENERGY PREDICTED BY IDOCK:   -0.27 KCAL/MOL
REMARK 927      BINDING AFFINITY PREDICTED BY RF-SCORE:    0.00 PKD
ROOT
HETATM    1  C   UNL     1      -7.592  20.532  67.323  1.00  0.00    -0.386 C  
HETATM    2  C   UNL     1      -8.803  20.036  66.577  1.00  0.00    -0.337 C  
HETATM    3  O   UNL     1      -9.239  20.665  65.613  1.00  0.00     0.209 OA 
HETATM    4  N   UNL     1      -9.319  18.814  66.968  1.00  0.00    -0.290 N  
HETATM    5  C   UNL     1     -10.384  18.210  66.159  1.00  0.00    -0.385 C  
HETATM    6  C   UNL     1     -10.238  16.681  66.107  1.00  0.00    -0.348 C  
HETATM    7  N   UNL     1     -10.186  16.144  67.486  1.00  0.00    -0.261 NA 
HETATM    8  C   UNL     1      -9.157  18.222  68.308  1.00  0.00    -0.305 C  
HETATM    9  C   UNL     1      -9.052  16.685  68.261  1.00  0.00    -0.218 C  
ENDROOT
BRANCH   7  10
HETATM   10  C   UNL     1     -10.485  14.800  67.689  1.00  0.00    -0.254 A  
HETATM   11  C   UNL     1     -10.100  14.115  68.838  1.00  0.00    -0.155 A  
HETATM   12  C   UNL     1     -10.301  12.742  68.971  1.00  0.00     0.040 A  
HETATM   13  C   UNL     1     -10.883  11.992  67.946  1.00  0.00    -0.215 A  
HETATM   14  C   UNL     1     -11.122  14.051  66.683  1.00  0.00    -0.312 A  
HETATM   15  C   UNL     1     -11.315  12.665  66.804  1.00  0.00    -0.373 A  
BRANCH  13  16
HETATM   16  O   UNL     1     -11.052  10.623  67.978  1.00  0.00    -0.259 OA 
BRANCH  16  17
HETATM   17  C   UNL     1     -11.120  10.026  66.679  1.00  0.00     0.261 C  
BRANCH  17  18
HETATM   18  C   UNL     1     -10.071   8.953  66.423  1.00  0.00    -0.263 C  
HETATM   19  C   UNL     1      -8.743   9.232  67.069  1.00  0.00    -0.124 C  
HETATM   20  O   UNL     1      -8.215   7.937  67.343  1.00  0.00    -0.120 OA 
HETATM   21  C   UNL     1      -9.351   7.059  67.557  1.00  0.00    -0.123 C  
HETATM   22  O   UNL     1     -10.515   7.732  67.036  1.00  0.00    -0.309 OA 
BRANCH  21  23
HETATM   23  C   UNL     1      -9.170   5.752  66.780  1.00  0.00    -0.135 A  
HETATM   24 CL   UNL     1      -6.594   5.409  67.731  1.00  0.00    -0.052 Cl 
HETATM   25  C   UNL     1      -7.990   4.979  66.805  1.00  0.00    -0.104 A  
HETATM   26  C   UNL     1     -10.239   5.266  65.995  1.00  0.00    -0.167 A  
HETATM   27  C   UNL     1     -10.142   4.071  65.281  1.00  0.00    -0.174 A  
HETATM   28  C   UNL     1      -7.891   3.784  66.077  1.00  0.00    -0.090 A  
HETATM   29 CL   UNL     1      -8.851   1.853  64.458  1.00  0.00    -0.101 Cl 
HETATM   30  C   UNL     1      -8.968   3.333  65.325  1.00  0.00    -0.142 A  
ENDBRANCH  21  23
BRANCH  21  31
HETATM   31  C   UNL     1      -9.551   6.881  69.085  1.00  0.00    -0.144 C  
BRANCH  31  32
HETATM   32  N   UNL     1      -8.683   7.650  69.946  1.00  0.00    -0.139 NA 
HETATM   33  N   UNL     1      -6.888   8.151  71.153  1.00  0.00    -0.043 NA 
HETATM   34  C   UNL     1      -8.677   9.016  70.080  1.00  0.00    -0.157 A  
HETATM   35  C   UNL     1      -7.593   7.172  70.623  1.00  0.00    -0.092 A  
HETATM   36  C   UNL     1      -7.547   9.301  70.806  1.00  0.00    -0.133 A  
ENDBRANCH  31  32
ENDBRANCH  21  31
ENDBRANCH  17  18
ENDBRANCH  16  17
ENDBRANCH  13  16
ENDBRANCH   7  10
TORSDOF 7
ENDMDL
MODEL      161
REMARK 921   NORMALIZED FREE ENERGY PREDICTED BY IDOCK:   -4.25 KCAL/MOL
REMARK 922        TOTAL FREE ENERGY PREDICTED BY IDOCK:   -6.42 KCAL/MOL
REMARK 923 INTER-LIGAND FREE ENERGY PREDICTED BY IDOCK:   -6.51 KCAL/MOL
REMARK 924 INTRA-LIGAND FREE ENERGY PREDICTED BY IDOCK:    0.09 KCAL/MOL
REMARK 927      BINDING AFFINITY PREDICTED BY RF-SCORE:    0.00 PKD
ROOT
HETATM    1  C   UNL     1      -8.633   2.707  65.230  1.00  0.00    -0.105 C  
HETATM    2  C   UNL     1      -8.497   3.225  66.638  1.00  0.00    -0.107 C  
HETATM    3  O   UNL     1      -7.903   2.563  67.488  1.00  0.00    -0.064 OA 
HETATM    4  N   UNL     1      -8.980   4.498  66.882  1.00  0.00    -0.112 N  
HETATM    5  C   UNL     1      -8.712   5.112  68.189  1.00  0.00    -0.102 C  
HETATM    6  C   UNL     1      -8.471   6.623  68.050  1.00  0.00    -0.116 C  
HETATM    7  N   UNL     1      -9.617   7.242  67.346  1.00  0.00    -0.137 NA 
HETATM    8  C   UNL     1     -10.036   5.163  66.099  1.00  0.00    -0.194 C  
HETATM    9  C   UNL     1      -9.817   6.685  65.993  1.00  0.00     0.269 C  
ENDROOT
BRANCH   7  10
HETATM   10  C   UNL     1      -9.823   8.612  67.484  1.00  0.00    -0.180 A  
HETATM   11  C   UNL     1     -10.971   9.245  67.019  1.00  0.00     0.088 A  
HETATM   12  C   UNL     1     -11.106  10.632  67.056  1.00  0.00    -0.217 A  
HETATM   13  C   UNL     1     -10.084  11.446  67.550  1.00  0.00    -0.183 A  
HETATM   14  C   UNL     1      -8.819   9.432  68.032  1.00  0.00    -0.124 A  
HETATM   15  C   UNL     1      -8.943  10.831  68.062  1.00  0.00    -0.139 A  
BRANCH  13  16
HETATM   16  O   UNL     1     -10.118  12.826  67.557  1.00  0.00    -0.209 OA 
BRANCH  16  17
HETATM   17  C   UNL     1      -8.825  13.428  67.678  1.00  0.00    -0.200 C  
BRANCH  17  18
HETATM   18  C   UNL     1      -8.624  14.668  66.819  1.00  0.00    -0.162 C  
HETATM   19  C   UNL     1      -9.699  14.878  65.790  1.00  0.00    -0.324 C  
HETATM   20  O   UNL     1      -9.761  16.293  65.640  1.00  0.00    -0.464 OA 
HETATM   21  C   UNL     1      -9.366  16.866  66.913  1.00  0.00    -0.241 C  
HETATM   22  O   UNL     1      -8.715  15.825  67.667  1.00  0.00    -0.167 OA 
BRANCH  21  23
HETATM   23  C   UNL     1      -8.358  18.000  66.701  1.00  0.00    -0.284 A  
HETATM   24 CL   UNL     1     -10.116  19.900  67.680  1.00  0.00    -0.537 Cl 
HETATM   25  C   UNL     1      -8.620  19.352  67.009  1.00  0.00    -0.289 A  
HETATM   26  C   UNL     1      -7.082  17.696  66.179  1.00  0.00    -0.347 A  
HETATM   27  C   UNL     1      -6.115  18.682  65.981  1.00  0.00    -0.225 A  
HETATM   28  C   UNL     1      -7.650  20.343  66.799  1.00  0.00    -0.320 A  
HETATM   29 CL   UNL     1      -5.206  21.218  66.067  1.00  0.00    -0.247 Cl 
HETATM   30  C   UNL     1      -6.402  20.003  66.294  1.00  0.00    -0.185 A  
ENDBRANCH  21  23
BRANCH  21  31
HETATM   31  C   UNL     1     -10.648  17.277  67.684  1.00  0.00    -0.350 C  
BRANCH  31  32
HETATM   32  N   UNL     1     -11.327  16.232  68.416  1.00  0.00    -0.357 NA 
HETATM   33  N   UNL     1     -12.534  14.401  68.759  1.00  0.00    -0.026 NA 
HETATM   34  C   UNL     1     -11.021  15.800  69.683  1.00  0.00    -0.306 A  
HETATM   35  C   UNL     1     -12.254  15.364  67.906  1.00  0.00     0.453 A  
HETATM   36  C   UNL     1     -11.759  14.656  69.861  1.00  0.00    -0.299 A  
ENDBRANCH  31  32
ENDBRANCH  21  31
ENDBRANCH  17  18
ENDBRANCH  16  17
ENDBRANCH  13  16
ENDBRANCH   7  10
TORSDOF 7
ENDMDL
MODEL      162
REMARK 921   NORMALIZED FREE ENERGY PREDICTED BY IDOCK:   -4.21 KCAL/MOL
REMARK 922        TOTAL FREE ENERGY PREDICTED BY IDOCK:   -6.37 KCAL/MOL
REMARK 923 INTER-LIGAND FREE ENERGY PREDICTED BY IDOCK:   -5.67 KCAL/MOL
REMARK 924 INTRA-LIGAND FREE ENERGY PREDICTED BY IDOCK:   -0.70 KCAL/MOL
REMARK 927      BINDING AFFINITY PREDICTED BY RF-SCORE:    0.00 PKD
ROOT
HETATM    1  C   UNL     1      -8.202  17.971  66.570  1.00  0.00    -0.298 C  
HETATM    2  C   UNL     1      -9.222  16.943  66.982  1.00  0.00    -0.234 C  
HETATM    3  O   UNL     1     -10.412  17.107  66.713  1.00  0.00    -0.315 OA 
HETATM    4  N   UNL     1      -8.741  15.789  67.573  1.00  0.00    -0.172 N  
HETATM    5  C   UNL     1      -9.677  14.687  67.829  1.00  0.00    -0.215 C  
HETATM    6  C   UNL     1      -8.999  13.325  67.617  1.00  0.00    -0.199 C  
HETATM    7  N   UNL     1      -7.777  13.249  68.450  1.00  0.00    -0.134 NA 
HETATM    8  C   UNL     1      -7.461  15.683  68.295  1.00  0.00    -0.115 C  
HETATM    9  C   UNL     1      -6.798  14.304  68.117  1.00  0.00    -0.124 C  
ENDROOT
BRANCH   7  10
HETATM   10  C   UNL     1      -7.252  11.995  68.748  1.00  0.00    -0.108 A  
HETATM   11  C   UNL     1      -5.905  11.690  68.579  1.00  0.00    -0.049 A  
HETATM   12  C   UNL     1      -5.420  10.396  68.767  1.00  0.00    -0.041 A  
HETATM   13  C   UNL     1      -6.272   9.347  69.120  1.00  0.00    -0.041 A  
HETATM   14  C   UNL     1      -8.097  10.947  69.158  1.00  0.00    -0.104 A  
HETATM   15  C   UNL     1      -7.618   9.639  69.337  1.00  0.00    -0.097 A  
BRANCH  13  16
HETATM   16  O   UNL     1      -5.878   8.032  69.258  1.00  0.00    -0.032 OA 
BRANCH  16  17
HETATM   17  C   UNL     1      -5.651   7.370  68.010  1.00  0.00    -0.026 C  
BRANCH  17  18
HETATM   18  C   UNL     1      -6.077   8.168  66.786  1.00  0.00    -0.053 C  
HETATM   19  C   UNL     1      -5.357   7.781  65.524  1.00  0.00    -0.029 C  
HETATM   20  O   UNL     1      -6.307   8.040  64.494  1.00  0.00    -0.055 OA 
HETATM   21  C   UNL     1      -7.621   7.858  65.080  1.00  0.00    -0.098 C  
HETATM   22  O   UNL     1      -7.457   7.874  66.512  1.00  0.00    -0.085 OA 
BRANCH  21  23
HETATM   23  C   UNL     1      -8.545   9.017  64.694  1.00  0.00    -0.190 A  
HETATM   24 CL   UNL     1     -10.120   8.660  66.942  1.00  0.00    -0.329 Cl 
HETATM   25  C   UNL     1      -9.660   9.420  65.459  1.00  0.00    -0.258 A  
HETATM   26  C   UNL     1      -8.277   9.746  63.515  1.00  0.00    -0.156 A  
HETATM   27  C   UNL     1      -9.071  10.824  63.122  1.00  0.00    -0.276 A  
HETATM   28  C   UNL     1     -10.463  10.498  65.055  1.00  0.00    -0.221 A  
HETATM   29 CL   UNL     1     -11.131  12.535  63.420  1.00  0.00    -0.488 Cl 
HETATM   30  C   UNL     1     -10.161  11.197  63.894  1.00  0.00    -0.362 A  
ENDBRANCH  21  23
BRANCH  21  31
HETATM   31  C   UNL     1      -8.144   6.453  64.680  1.00  0.00    -0.100 C  
BRANCH  31  32
HETATM   32  N   UNL     1      -8.605   5.603  65.755  1.00  0.00    -0.143 NA 
HETATM   33  N   UNL     1     -10.036   4.560  67.093  1.00  0.00    -0.157 NA 
HETATM   34  C   UNL     1      -7.920   4.550  66.306  1.00  0.00    -0.103 A  
HETATM   35  C   UNL     1      -9.872   5.576  66.272  1.00  0.00    -0.145 A  
HETATM   36  C   UNL     1      -8.831   3.907  67.107  1.00  0.00    -0.122 A  
ENDBRANCH  31  32
ENDBRANCH  21  31
ENDBRANCH  17  18
ENDBRANCH  16  17
ENDBRANCH  13  16
ENDBRANCH   7  10
TORSDOF 7
ENDMDL
MODEL      163
REMARK 921   NORMALIZED FREE ENERGY PREDICTED BY IDOCK:   -4.21 KCAL/MOL
REMARK 922        TOTAL FREE ENERGY PREDICTED BY IDOCK:   -6.36 KCAL/MOL
REMARK 923 INTER-LIGAND FREE ENERGY PREDICTED BY IDOCK:   -5.71 KCAL/MOL
REMARK 924 INTRA-LIGAND FREE ENERGY PREDICTED BY IDOCK:   -0.66 KCAL/MOL
REMARK 927      BINDING AFFINITY PREDICTED BY RF-SCORE:    0.00 PKD
ROOT
HETATM    1  C   UNL     1      -7.537  19.987  69.891  1.00  0.00     0.435 C  
HETATM    2  C   UNL     1      -6.428  19.411  69.051  1.00  0.00    -0.299 C  
HETATM    3  O   UNL     1      -5.478  20.116  68.710  1.00  0.00    -0.210 OA 
HETATM    4  N   UNL     1      -6.491  18.057  68.779  1.00  0.00    -0.219 N  
HETATM    5  C   UNL     1      -5.347  17.419  68.116  1.00  0.00    -0.133 C  
HETATM    6  C   UNL     1      -5.127  15.993  68.645  1.00  0.00    -0.094 C  
HETATM    7  N   UNL     1      -6.380  15.217  68.506  1.00  0.00    -0.088 NA 
HETATM    8  C   UNL     1      -7.730  17.258  68.765  1.00  0.00    -0.261 C  
HETATM    9  C   UNL     1      -7.502  15.815  69.257  1.00  0.00    -0.220 C  
ENDROOT
BRANCH   7  10
HETATM   10  C   UNL     1      -6.307  13.827  68.512  1.00  0.00    -0.092 A  
HETATM   11  C   UNL     1      -6.909  13.053  69.499  1.00  0.00     0.099 A  
HETATM   12  C   UNL     1      -6.724  11.672  69.557  1.00  0.00    -0.089 A  
HETATM   13  C   UNL     1      -5.911  11.011  68.634  1.00  0.00    -0.042 A  
HETATM   14  C   UNL     1      -5.535  13.149  67.551  1.00  0.00    -0.015 A  
HETATM   15  C   UNL     1      -5.333  11.761  67.611  1.00  0.00    -0.065 A  
BRANCH  13  16
HETATM   16  O   UNL     1      -5.628   9.660  68.668  1.00  0.00    -0.037 OA 
BRANCH  16  17
HETATM   17  C   UNL     1      -6.763   8.832  68.395  1.00  0.00    -0.064 C  
BRANCH  17  18
HETATM   18  C   UNL     1      -7.518   9.195  67.125  1.00  0.00    -0.087 C  
HETATM   19  C   UNL     1      -7.660   8.058  66.153  1.00  0.00    -0.086 C  
HETATM   20  O   UNL     1      -8.892   8.325  65.488  1.00  0.00    -0.169 OA 
HETATM   21  C   UNL     1      -9.729   9.044  66.430  1.00  0.00    -0.268 C  
HETATM   22  O   UNL     1      -8.870   9.528  67.483  1.00  0.00    -0.125 OA 
BRANCH  21  23
HETATM   23  C   UNL     1     -10.379  10.254  65.754  1.00  0.00    -0.236 A  
HETATM   24 CL   UNL     1     -11.393  11.193  68.153  1.00  0.00    -0.353 Cl 
HETATM   25  C   UNL     1     -11.126  11.232  66.444  1.00  0.00    -0.193 A  
HETATM   26  C   UNL     1     -10.225  10.428  64.361  1.00  0.00    -0.245 A  
HETATM   27  C   UNL     1     -10.778  11.521  63.692  1.00  0.00    -0.491 A  
HETATM   28  C   UNL     1     -11.690  12.324  65.767  1.00  0.00    -0.445 A  
HETATM   29 CL   UNL     1     -12.176  13.822  63.578  1.00  0.00    -0.381 Cl 
HETATM   30  C   UNL     1     -11.508  12.466  64.398  1.00  0.00    -0.347 A  
ENDBRANCH  21  23
BRANCH  21  31
HETATM   31  C   UNL     1     -10.729   8.040  67.061  1.00  0.00    -0.193 C  
BRANCH  31  32
HETATM   32  N   UNL     1     -10.269   6.679  67.218  1.00  0.00    -0.173 NA 
HETATM   33  N   UNL     1      -9.629   4.635  66.633  1.00  0.00    -0.165 NA 
HETATM   34  C   UNL     1      -9.541   6.186  68.272  1.00  0.00    -0.120 A  
HETATM   35  C   UNL     1     -10.307   5.701  66.261  1.00  0.00    -0.121 A  
HETATM   36  C   UNL     1      -9.137   4.935  67.877  1.00  0.00    -0.113 A  
ENDBRANCH  31  32
ENDBRANCH  21  31
ENDBRANCH  17  18
ENDBRANCH  16  17
ENDBRANCH  13  16
ENDBRANCH   7  10
TORSDOF 7
ENDMDL
MODEL      164
REMARK 921   NORMALIZED FREE ENERGY PREDICTED BY IDOCK:   -4.10 KCAL/MOL
REMARK 922        TOTAL FREE ENERGY PREDICTED BY IDOCK:   -6.21 KCAL/MOL
REMARK 923 INTER-LIGAND FREE ENERGY PREDICTED BY IDOCK:   -6.32 KCAL/MOL
REMARK 924 INTRA-LIGAND FREE ENERGY PREDICTED BY IDOCK:    0.11 KCAL/MOL
REMARK 927      BINDING AFFINITY PREDICTED BY RF-SCORE:    0.00 PKD
ROOT
HETATM    1  C   UNL     1      -8.778   4.206  73.767  1.00  0.00    -0.094 C  
HETATM    2  C   UNL     1     -10.186   4.375  73.260  1.00  0.00    -0.162 C  
HETATM    3  O   UNL     1     -11.063   3.575  73.585  1.00  0.00    -0.226 OA 
HETATM    4  N   UNL     1     -10.446   5.507  72.510  1.00  0.00    -0.206 N  
HETATM    5  C   UNL     1     -11.837   5.803  72.144  1.00  0.00    -0.108 C  
HETATM    6  C   UNL     1     -12.100   7.317  72.157  1.00  0.00    -0.250 C  
HETATM    7  N   UNL     1     -11.117   7.996  71.283  1.00  0.00    -0.242 NA 
HETATM    8  C   UNL     1      -9.438   6.257  71.739  1.00  0.00    -0.150 C  
HETATM    9  C   UNL     1      -9.724   7.771  71.717  1.00  0.00    -0.164 C  
ENDROOT
BRANCH   7  10
HETATM   10  C   UNL     1     -11.416   9.270  70.808  1.00  0.00    -0.292 A  
HETATM   11  C   UNL     1     -12.085  10.216  71.579  1.00  0.00    -0.442 A  
HETATM   12  C   UNL     1     -12.483  11.442  71.046  1.00  0.00    -0.486 A  
HETATM   13  C   UNL     1     -12.237  11.765  69.710  1.00  0.00    -0.203 A  
HETATM   14  C   UNL     1     -11.121   9.623  69.478  1.00  0.00    -0.198 A  
HETATM   15  C   UNL     1     -11.530  10.850  68.932  1.00  0.00    -0.369 A  
BRANCH  13  16
HETATM   16  O   UNL     1     -12.658  12.928  69.097  1.00  0.00     0.198 OA 
BRANCH  16  17
HETATM   17  C   UNL     1     -11.583  13.783  68.695  1.00  0.00    -0.334 C  
BRANCH  17  18
HETATM   18  C   UNL     1     -10.580  13.133  67.754  1.00  0.00    -0.234 C  
HETATM   19  C   UNL     1     -10.273  13.951  66.530  1.00  0.00    -0.280 C  
HETATM   20  O   UNL     1      -8.927  13.607  66.214  1.00  0.00    -0.056 OA 
HETATM   21  C   UNL     1      -8.279  13.262  67.465  1.00  0.00    -0.184 C  
HETATM   22  O   UNL     1      -9.319  13.031  68.436  1.00  0.00    -0.206 OA 
BRANCH  21  23
HETATM   23  C   UNL     1      -7.476  11.966  67.312  1.00  0.00    -0.151 A  
HETATM   24 CL   UNL     1      -6.368  12.221  69.836  1.00  0.00    -0.105 Cl 
HETATM   25  C   UNL     1      -6.616  11.453  68.306  1.00  0.00    -0.058 A  
HETATM   26  C   UNL     1      -7.597  11.220  66.120  1.00  0.00     0.032 A  
HETATM   27  C   UNL     1      -6.907  10.022  65.930  1.00  0.00    -0.108 A  
HETATM   28  C   UNL     1      -5.915  10.255  68.108  1.00  0.00    -0.041 A  
HETATM   29 CL   UNL     1      -5.228   8.059  66.701  1.00  0.00    -0.027 Cl 
HETATM   30  C   UNL     1      -6.068   9.543  66.926  1.00  0.00    -0.064 A  
ENDBRANCH  21  23
BRANCH  21  31
HETATM   31  C   UNL     1      -7.450  14.484  67.940  1.00  0.00    -0.150 C  
BRANCH  31  32
HETATM   32  N   UNL     1      -7.895  15.783  67.489  1.00  0.00    -0.145 NA 
HETATM   33  N   UNL     1      -8.822  17.798  67.589  1.00  0.00    -0.246 NA 
HETATM   34  C   UNL     1      -7.370  16.501  66.444  1.00  0.00    -0.109 A  
HETATM   35  C   UNL     1      -8.776  16.603  68.141  1.00  0.00    -0.201 A  
HETATM   36  C   UNL     1      -7.938  17.747  66.542  1.00  0.00    -0.264 A  
ENDBRANCH  31  32
ENDBRANCH  21  31
ENDBRANCH  17  18
ENDBRANCH  16  17
ENDBRANCH  13  16
ENDBRANCH   7  10
TORSDOF 7
ENDMDL
MODEL      165
REMARK 921   NORMALIZED FREE ENERGY PREDICTED BY IDOCK:   -4.10 KCAL/MOL
REMARK 922        TOTAL FREE ENERGY PREDICTED BY IDOCK:   -6.21 KCAL/MOL
REMARK 923 INTER-LIGAND FREE ENERGY PREDICTED BY IDOCK:   -6.97 KCAL/MOL
REMARK 924 INTRA-LIGAND FREE ENERGY PREDICTED BY IDOCK:    0.76 KCAL/MOL
REMARK 927      BINDING AFFINITY PREDICTED BY RF-SCORE:    0.00 PKD
ROOT
HETATM    1  C   UNL     1     -10.720  19.575  67.624  1.00  0.00    -0.527 C  
HETATM    2  C   UNL     1      -9.567  18.739  68.114  1.00  0.00    -0.332 C  
HETATM    3  O   UNL     1      -8.816  19.168  68.990  1.00  0.00    -0.315 OA 
HETATM    4  N   UNL     1      -9.467  17.456  67.606  1.00  0.00    -0.248 N  
HETATM    5  C   UNL     1      -8.469  16.548  68.183  1.00  0.00    -0.191 C  
HETATM    6  C   UNL     1      -8.997  15.105  68.230  1.00  0.00    -0.175 C  
HETATM    7  N   UNL     1      -9.434  14.697  66.875  1.00  0.00    -0.236 NA 
HETATM    8  C   UNL     1     -10.016  17.019  66.310  1.00  0.00    -0.310 C  
HETATM    9  C   UNL     1     -10.508  15.559  66.344  1.00  0.00    -0.306 C  
ENDROOT
BRANCH   7  10
HETATM   10  C   UNL     1      -9.539  13.338  66.591  1.00  0.00    -0.262 A  
HETATM   11  C   UNL     1      -8.587  12.412  67.009  1.00  0.00    -0.191 A  
HETATM   12  C   UNL     1      -8.645  11.077  66.612  1.00  0.00    -0.157 A  
HETATM   13  C   UNL     1      -9.653  10.616  65.763  1.00  0.00    -0.210 A  
HETATM   14  C   UNL     1     -10.585  12.857  65.782  1.00  0.00    -0.293 A  
HETATM   15  C   UNL     1     -10.642  11.517  65.367  1.00  0.00    -0.336 A  
BRANCH  13  16
HETATM   16  O   UNL     1      -9.737   9.328  65.276  1.00  0.00    -0.216 OA 
BRANCH  16  17
HETATM   17  C   UNL     1      -8.952   8.386  66.014  1.00  0.00    -0.184 C  
BRANCH  17  18
HETATM   18  C   UNL     1      -9.734   7.581  67.041  1.00  0.00    -0.198 C  
HETATM   19  C   UNL     1     -10.455   6.394  66.467  1.00  0.00    -0.080 C  
HETATM   20  O   UNL     1     -10.475   5.452  67.536  1.00  0.00    -0.207 OA 
HETATM   21  C   UNL     1      -9.293   5.706  68.339  1.00  0.00    -0.119 C  
HETATM   22  O   UNL     1      -8.802   7.012  67.975  1.00  0.00    -0.125 OA 
BRANCH  21  23
HETATM   23  C   UNL     1      -9.652   5.732  69.827  1.00  0.00    -0.199 A  
HETATM   24 CL   UNL     1      -9.192   3.016  70.102  1.00  0.00    -0.201 Cl 
HETATM   25  C   UNL     1      -9.635   4.592  70.659  1.00  0.00    -0.191 A  
HETATM   26  C   UNL     1     -10.013   6.958  70.426  1.00  0.00    -0.190 A  
HETATM   27  C   UNL     1     -10.332   7.048  71.782  1.00  0.00    -0.216 A  
HETATM   28  C   UNL     1      -9.966   4.684  72.019  1.00  0.00    -0.251 A  
HETATM   29 CL   UNL     1     -10.682   6.021  74.249  1.00  0.00    -0.066 Cl 
HETATM   30  C   UNL     1     -10.306   5.910  72.574  1.00  0.00    -0.196 A  
ENDBRANCH  21  23
BRANCH  21  31
HETATM   31  C   UNL     1      -8.207   4.668  67.953  1.00  0.00    -0.099 C  
BRANCH  31  32
HETATM   32  N   UNL     1      -6.999   4.669  68.747  1.00  0.00    -0.051 NA 
HETATM   33  N   UNL     1      -5.394   5.456  70.062  1.00  0.00    -0.004 NA 
HETATM   34  C   UNL     1      -6.423   3.577  69.348  1.00  0.00    -0.033 A  
HETATM   35  C   UNL     1      -6.334   5.777  69.198  1.00  0.00    -0.040 A  
HETATM   36  C   UNL     1      -5.454   4.091  70.173  1.00  0.00    -0.012 A  
ENDBRANCH  31  32
ENDBRANCH  21  31
ENDBRANCH  17  18
ENDBRANCH  16  17
ENDBRANCH  13  16
ENDBRANCH   7  10
TORSDOF 7
ENDMDL
MODEL      166
REMARK 921   NORMALIZED FREE ENERGY PREDICTED BY IDOCK:   -4.09 KCAL/MOL
REMARK 922        TOTAL FREE ENERGY PREDICTED BY IDOCK:   -6.19 KCAL/MOL
REMARK 923 INTER-LIGAND FREE ENERGY PREDICTED BY IDOCK:   -5.81 KCAL/MOL
REMARK 924 INTRA-LIGAND FREE ENERGY PREDICTED BY IDOCK:   -0.39 KCAL/MOL
REMARK 927      BINDING AFFINITY PREDICTED BY RF-SCORE:    0.00 PKD
ROOT
HETATM    1  C   UNL     1      -9.898  14.929  65.863  1.00  0.00    -0.362 C  
HETATM    2  C   UNL     1     -11.055  14.306  66.599  1.00  0.00    -0.321 C  
HETATM    3  O   UNL     1     -12.210  14.638  66.335  1.00  0.00    -0.300 OA 
HETATM    4  N   UNL     1     -10.752  13.295  67.493  1.00  0.00    -0.248 N  
HETATM    5  C   UNL     1     -11.856  12.540  68.099  1.00  0.00    -0.317 C  
HETATM    6  C   UNL     1     -11.479  11.062  68.283  1.00  0.00    -0.304 C  
HETATM    7  N   UNL     1     -10.221  10.967  69.058  1.00  0.00    -0.213 NA 
HETATM    8  C   UNL     1      -9.453  13.129  68.168  1.00  0.00    -0.222 C  
HETATM    9  C   UNL     1      -9.092  11.647  68.390  1.00  0.00    -0.180 C  
ENDROOT
BRANCH   7  10
HETATM   10  C   UNL     1      -9.923   9.769  69.702  1.00  0.00    -0.223 A  
HETATM   11  C   UNL     1      -8.639   9.453  70.134  1.00  0.00    -0.233 A  
HETATM   12  C   UNL     1      -8.335   8.201  70.666  1.00  0.00    -0.123 A  
HETATM   13  C   UNL     1      -9.308   7.204  70.773  1.00  0.00    -0.160 A  
HETATM   14  C   UNL     1     -10.912   8.782  69.863  1.00  0.00    -0.184 A  
HETATM   15  C   UNL     1     -10.611   7.513  70.386  1.00  0.00    -0.236 A  
BRANCH  13  16
HETATM   16  O   UNL     1      -9.068   5.923  71.226  1.00  0.00    -0.139 OA 
BRANCH  16  17
HETATM   17  C   UNL     1      -9.217   4.922  70.214  1.00  0.00    -0.137 C  
BRANCH  17  18
HETATM   18  C   UNL     1      -8.305   5.103  69.010  1.00  0.00    -0.087 C  
HETATM   19  C   UNL     1      -7.934   3.817  68.326  1.00  0.00    -0.071 C  
HETATM   20  O   UNL     1      -7.756   4.190  66.962  1.00  0.00    -0.090 OA 
HETATM   21  C   UNL     1      -8.632   5.322  66.721  1.00  0.00    -0.106 C  
HETATM   22  O   UNL     1      -9.021   5.844  68.007  1.00  0.00    -0.119 OA 
BRANCH  21  23
HETATM   23  C   UNL     1      -7.886   6.425  65.966  1.00  0.00    -0.103 A  
HETATM   24 CL   UNL     1      -5.416   5.436  66.729  1.00  0.00    -0.015 Cl 
HETATM   25  C   UNL     1      -6.480   6.540  65.929  1.00  0.00    -0.043 A  
HETATM   26  C   UNL     1      -8.628   7.388  65.246  1.00  0.00    -0.014 A  
HETATM   27  C   UNL     1      -8.004   8.405  64.523  1.00  0.00    -0.146 A  
HETATM   28  C   UNL     1      -5.856   7.570  65.210  1.00  0.00    -0.038 A  
HETATM   29 CL   UNL     1      -5.848   9.735  63.602  1.00  0.00    -0.101 Cl 
HETATM   30  C   UNL     1      -6.619   8.492  64.506  1.00  0.00    -0.066 A  
ENDBRANCH  21  23
BRANCH  21  31
HETATM   31  C   UNL     1      -9.913   4.806  66.013  1.00  0.00    -0.237 C  
BRANCH  31  32
HETATM   32  N   UNL     1      -9.727   3.815  64.978  1.00  0.00    -0.178 NA 
HETATM   33  N   UNL     1      -9.463   1.810  64.064  1.00  0.00    -0.122 NA 
HETATM   34  C   UNL     1     -10.089   3.942  63.660  1.00  0.00    -0.177 A  
HETATM   35  C   UNL     1      -9.343   2.515  65.169  1.00  0.00    -0.082 A  
HETATM   36  C   UNL     1      -9.941   2.686  63.124  1.00  0.00    -0.107 A  
ENDBRANCH  31  32
ENDBRANCH  21  31
ENDBRANCH  17  18
ENDBRANCH  16  17
ENDBRANCH  13  16
ENDBRANCH   7  10
TORSDOF 7
ENDMDL
MODEL      167
REMARK 921   NORMALIZED FREE ENERGY PREDICTED BY IDOCK:   -4.06 KCAL/MOL
REMARK 922        TOTAL FREE ENERGY PREDICTED BY IDOCK:   -6.15 KCAL/MOL
REMARK 923 INTER-LIGAND FREE ENERGY PREDICTED BY IDOCK:   -6.11 KCAL/MOL
REMARK 924 INTRA-LIGAND FREE ENERGY PREDICTED BY IDOCK:   -0.04 KCAL/MOL
REMARK 927      BINDING AFFINITY PREDICTED BY RF-SCORE:    0.00 PKD
ROOT
HETATM    1  C   UNL     1     -10.581  17.975  67.430  1.00  0.00    -0.378 C  
HETATM    2  C   UNL     1      -9.084  17.847  67.324  1.00  0.00    -0.251 C  
HETATM    3  O   UNL     1      -8.366  18.838  67.455  1.00  0.00    -0.262 OA 
HETATM    4  N   UNL     1      -8.577  16.569  67.175  1.00  0.00    -0.179 N  
HETATM    5  C   UNL     1      -7.124  16.378  67.245  1.00  0.00    -0.181 C  
HETATM    6  C   UNL     1      -6.774  15.049  67.933  1.00  0.00    -0.156 C  
HETATM    7  N   UNL     1      -7.469  13.939  67.242  1.00  0.00    -0.111 NA 
HETATM    8  C   UNL     1      -9.317  15.431  66.602  1.00  0.00    -0.263 C  
HETATM    9  C   UNL     1      -8.938  14.092  67.263  1.00  0.00    -0.218 C  
ENDROOT
BRANCH   7  10
HETATM   10  C   UNL     1      -6.983  12.645  67.404  1.00  0.00    -0.142 A  
HETATM   11  C   UNL     1      -7.120  11.668  66.423  1.00  0.00     0.137 A  
HETATM   12  C   UNL     1      -6.736  10.347  66.650  1.00  0.00    -0.090 A  
HETATM   13  C   UNL     1      -6.211   9.946  67.881  1.00  0.00    -0.051 A  
HETATM   14  C   UNL     1      -6.401  12.249  68.623  1.00  0.00    -0.071 A  
HETATM   15  C   UNL     1      -6.024  10.918  68.863  1.00  0.00    -0.040 A  
BRANCH  13  16
HETATM   16  O   UNL     1      -5.872   8.647  68.201  1.00  0.00    -0.041 OA 
BRANCH  16  17
HETATM   17  C   UNL     1      -6.711   7.668  67.580  1.00  0.00    -0.068 C  
BRANCH  17  18
HETATM   18  C   UNL     1      -8.153   7.675  68.065  1.00  0.00    -0.123 C  
HETATM   19  C   UNL     1      -8.770   6.308  68.164  1.00  0.00    -0.115 C  
HETATM   20  O   UNL     1      -9.709   6.430  69.229  1.00  0.00    -0.136 OA 
HETATM   21  C   UNL     1      -9.190   7.441  70.130  1.00  0.00    -0.151 C  
HETATM   22  O   UNL     1      -8.173   8.171  69.414  1.00  0.00    -0.117 OA 
BRANCH  21  23
HETATM   23  C   UNL     1     -10.295   8.426  70.523  1.00  0.00    -0.220 A  
HETATM   24 CL   UNL     1      -9.896   9.956  68.250  1.00  0.00    -0.159 Cl 
HETATM   25  C   UNL     1     -10.655   9.551  69.751  1.00  0.00    -0.236 A  
HETATM   26  C   UNL     1     -11.017   8.208  71.716  1.00  0.00    -0.322 A  
HETATM   27  C   UNL     1     -12.048   9.060  72.117  1.00  0.00    -0.412 A  
HETATM   28  C   UNL     1     -11.684  10.412  70.161  1.00  0.00    -0.394 A  
HETATM   29 CL   UNL     1     -13.659  11.200  71.820  1.00  0.00    -0.183 Cl 
HETATM   30  C   UNL     1     -12.379  10.159  71.337  1.00  0.00    -0.416 A  
ENDBRANCH  21  23
BRANCH  21  31
HETATM   31  C   UNL     1      -8.506   6.727  71.326  1.00  0.00    -0.124 C  
BRANCH  31  32
HETATM   32  N   UNL     1      -8.878   5.349  71.556  1.00  0.00    -0.134 NA 
HETATM   33  N   UNL     1     -10.182   3.610  72.005  1.00  0.00    -0.128 NA 
HETATM   34  C   UNL     1      -8.222   4.242  71.078  1.00  0.00    -0.076 A  
HETATM   35  C   UNL     1     -10.047   4.915  72.119  1.00  0.00    -0.192 A  
HETATM   36  C   UNL     1      -9.059   3.186  71.344  1.00  0.00    -0.106 A  
ENDBRANCH  31  32
ENDBRANCH  21  31
ENDBRANCH  17  18
ENDBRANCH  16  17
ENDBRANCH  13  16
ENDBRANCH   7  10
TORSDOF 7
ENDMDL
MODEL      168
REMARK 921   NORMALIZED FREE ENERGY PREDICTED BY IDOCK:   -4.05 KCAL/MOL
REMARK 922        TOTAL FREE ENERGY PREDICTED BY IDOCK:   -6.13 KCAL/MOL
REMARK 923 INTER-LIGAND FREE ENERGY PREDICTED BY IDOCK:   -5.23 KCAL/MOL
REMARK 924 INTRA-LIGAND FREE ENERGY PREDICTED BY IDOCK:   -0.91 KCAL/MOL
REMARK 927      BINDING AFFINITY PREDICTED BY RF-SCORE:    0.00 PKD
ROOT
HETATM    1  C   UNL     1     -10.818  15.393  66.867  1.00  0.00    -0.313 C  
HETATM    2  C   UNL     1     -11.330  14.454  67.929  1.00  0.00    -0.301 C  
HETATM    3  O   UNL     1     -12.512  14.489  68.270  1.00  0.00    -0.057 OA 
HETATM    4  N   UNL     1     -10.439  13.512  68.409  1.00  0.00    -0.242 N  
HETATM    5  C   UNL     1     -10.939  12.468  69.311  1.00  0.00    -0.080 C  
HETATM    6  C   UNL     1     -10.227  11.130  69.057  1.00  0.00    -0.176 C  
HETATM    7  N   UNL     1      -8.762  11.326  69.158  1.00  0.00     0.044 NA 
HETATM    8  C   UNL     1      -8.972  13.655  68.393  1.00  0.00    -0.160 C  
HETATM    9  C   UNL     1      -8.254  12.308  68.179  1.00  0.00    -0.168 C  
ENDROOT
BRANCH   7  10
HETATM   10  C   UNL     1      -7.956  10.215  69.390  1.00  0.00    -0.154 A  
HETATM   11  C   UNL     1      -6.649  10.130  68.920  1.00  0.00    -0.049 A  
HETATM   12  C   UNL     1      -5.899   8.963  69.057  1.00  0.00    -0.040 A  
HETATM   13  C   UNL     1      -6.436   7.823  69.658  1.00  0.00    -0.031 A  
HETATM   14  C   UNL     1      -8.474   9.083  70.045  1.00  0.00    -0.149 A  
HETATM   15  C   UNL     1      -7.729   7.899  70.175  1.00  0.00    -0.088 A  
BRANCH  13  16
HETATM   16  O   UNL     1      -5.780   6.614  69.769  1.00  0.00    -0.014 OA 
BRANCH  16  17
HETATM   17  C   UNL     1      -6.250   5.623  68.850  1.00  0.00    -0.029 C  
BRANCH  17  18
HETATM   18  C   UNL     1      -6.494   6.137  67.439  1.00  0.00    -0.046 C  
HETATM   19  C   UNL     1      -6.446   5.069  66.383  1.00  0.00    -0.041 C  
HETATM   20  O   UNL     1      -7.347   5.533  65.382  1.00  0.00    -0.070 OA 
HETATM   21  C   UNL     1      -8.353   6.328  66.061  1.00  0.00    -0.138 C  
HETATM   22  O   UNL     1      -7.836   6.645  67.369  1.00  0.00    -0.109 OA 
BRANCH  21  23
HETATM   23  C   UNL     1      -8.591   7.643  65.313  1.00  0.00    -0.044 A  
HETATM   24 CL   UNL     1      -7.482   6.650  62.979  1.00  0.00    -0.073 Cl 
HETATM   25  C   UNL     1      -8.232   7.857  63.965  1.00  0.00    -0.022 A  
HETATM   26  C   UNL     1      -9.218   8.713  65.988  1.00  0.00    -0.276 A  
HETATM   27  C   UNL     1      -9.480   9.929  65.354  1.00  0.00    -0.319 A  
HETATM   28  C   UNL     1      -8.486   9.083  63.334  1.00  0.00    -0.176 A  
HETATM   29 CL   UNL     1      -9.450  11.600  63.240  1.00  0.00    -0.301 Cl 
HETATM   30  C   UNL     1      -9.114  10.109  64.028  1.00  0.00    -0.254 A  
ENDBRANCH  21  23
BRANCH  21  31
HETATM   31  C   UNL     1      -9.620   5.454  66.252  1.00  0.00    -0.160 C  
BRANCH  31  32
HETATM   32  N   UNL     1     -10.223   5.465  67.566  1.00  0.00    -0.192 NA 
HETATM   33  N   UNL     1     -10.468   5.031  69.729  1.00  0.00    -0.214 NA 
HETATM   34  C   UNL     1     -11.080   6.419  68.056  1.00  0.00    -0.267 A  
HETATM   35  C   UNL     1      -9.894   4.642  68.609  1.00  0.00    -0.120 A  
HETATM   36  C   UNL     1     -11.195   6.144  69.396  1.00  0.00    -0.396 A  
ENDBRANCH  31  32
ENDBRANCH  21  31
ENDBRANCH  17  18
ENDBRANCH  16  17
ENDBRANCH  13  16
ENDBRANCH   7  10
TORSDOF 7
ENDMDL
MODEL      169
REMARK 921   NORMALIZED FREE ENERGY PREDICTED BY IDOCK:   -4.04 KCAL/MOL
REMARK 922        TOTAL FREE ENERGY PREDICTED BY IDOCK:   -6.13 KCAL/MOL
REMARK 923 INTER-LIGAND FREE ENERGY PREDICTED BY IDOCK:   -5.27 KCAL/MOL
REMARK 924 INTRA-LIGAND FREE ENERGY PREDICTED BY IDOCK:   -0.85 KCAL/MOL
REMARK 927      BINDING AFFINITY PREDICTED BY RF-SCORE:    0.00 PKD
ROOT
HETATM    1  C   UNL     1     -12.359  15.388  70.036  1.00  0.00    -0.368 C  
HETATM    2  C   UNL     1     -11.456  15.732  68.880  1.00  0.00    -0.378 C  
HETATM    3  O   UNL     1     -11.259  16.908  68.575  1.00  0.00    -0.289 OA 
HETATM    4  N   UNL     1     -10.803  14.679  68.265  1.00  0.00    -0.239 N  
HETATM    5  C   UNL     1      -9.782  14.981  67.254  1.00  0.00    -0.220 C  
HETATM    6  C   UNL     1      -8.622  13.975  67.324  1.00  0.00    -0.216 C  
HETATM    7  N   UNL     1      -9.156  12.599  67.211  1.00  0.00    -0.184 NA 
HETATM    8  C   UNL     1     -11.273  13.282  68.262  1.00  0.00    -0.277 C  
HETATM    9  C   UNL     1     -10.109  12.272  68.291  1.00  0.00    -0.218 C  
ENDROOT
BRANCH   7  10
HETATM   10  C   UNL     1      -8.292  11.579  66.824  1.00  0.00    -0.165 A  
HETATM   11  C   UNL     1      -8.602  10.685  65.804  1.00  0.00    -0.186 A  
HETATM   12  C   UNL     1      -7.780   9.597  65.512  1.00  0.00    -0.112 A  
HETATM   13  C   UNL     1      -6.617   9.351  66.244  1.00  0.00    -0.070 A  
HETATM   14  C   UNL     1      -7.090  11.359  67.522  1.00  0.00    -0.106 A  
HETATM   15  C   UNL     1      -6.264  10.258  67.242  1.00  0.00    -0.058 A  
BRANCH  13  16
HETATM   16  O   UNL     1      -5.791   8.261  66.057  1.00  0.00    -0.042 OA 
BRANCH  16  17
HETATM   17  C   UNL     1      -6.007   7.212  67.007  1.00  0.00    -0.033 C  
BRANCH  17  18
HETATM   18  C   UNL     1      -6.412   5.880  66.394  1.00  0.00    -0.043 C  
HETATM   19  C   UNL     1      -5.730   4.691  67.011  1.00  0.00    -0.022 C  
HETATM   20  O   UNL     1      -6.681   3.639  66.875  1.00  0.00    -0.044 OA 
HETATM   21  C   UNL     1      -7.994   4.256  66.899  1.00  0.00    -0.098 C  
HETATM   22  O   UNL     1      -7.808   5.666  66.662  1.00  0.00    -0.099 OA 
BRANCH  21  23
HETATM   23  C   UNL     1      -8.869   3.696  65.773  1.00  0.00    -0.127 A  
HETATM   24 CL   UNL     1     -10.565   5.882  65.850  1.00  0.00     0.243 Cl 
HETATM   25  C   UNL     1     -10.012   4.351  65.267  1.00  0.00    -0.200 A  
HETATM   26  C   UNL     1      -8.523   2.460  65.184  1.00  0.00    -0.099 A  
HETATM   27  C   UNL     1      -9.270   1.909  64.142  1.00  0.00    -0.118 A  
HETATM   28  C   UNL     1     -10.767   3.789  64.227  1.00  0.00    -0.216 A  
HETATM   29 CL   UNL     1     -11.302   1.906  62.371  1.00  0.00    -0.211 Cl 
HETATM   30  C   UNL     1     -10.389   2.576  63.666  1.00  0.00    -0.160 A  
ENDBRANCH  21  23
BRANCH  21  31
HETATM   31  C   UNL     1      -8.587   4.089  68.323  1.00  0.00    -0.095 C  
BRANCH  31  32
HETATM   32  N   UNL     1      -9.228   5.250  68.897  1.00  0.00    -0.115 NA 
HETATM   33  N   UNL     1     -10.836   6.484  69.802  1.00  0.00    -0.265 NA 
HETATM   34  C   UNL     1      -8.601   6.284  69.546  1.00  0.00    -0.132 A  
HETATM   35  C   UNL     1     -10.576   5.423  69.067  1.00  0.00    -0.146 A  
HETATM   36  C   UNL     1      -9.613   7.016  70.117  1.00  0.00    -0.164 A  
ENDBRANCH  31  32
ENDBRANCH  21  31
ENDBRANCH  17  18
ENDBRANCH  16  17
ENDBRANCH  13  16
ENDBRANCH   7  10
TORSDOF 7
ENDMDL
MODEL      170
REMARK 921   NORMALIZED FREE ENERGY PREDICTED BY IDOCK:   -3.97 KCAL/MOL
REMARK 922        TOTAL FREE ENERGY PREDICTED BY IDOCK:   -6.02 KCAL/MOL
REMARK 923 INTER-LIGAND FREE ENERGY PREDICTED BY IDOCK:   -5.58 KCAL/MOL
REMARK 924 INTRA-LIGAND FREE ENERGY PREDICTED BY IDOCK:   -0.45 KCAL/MOL
REMARK 927      BINDING AFFINITY PREDICTED BY RF-SCORE:    0.00 PKD
ROOT
HETATM    1  C   UNL     1      -9.134   2.206  65.660  1.00  0.00    -0.080 C  
HETATM    2  C   UNL     1      -9.209   2.436  67.146  1.00  0.00    -0.096 C  
HETATM    3  O   UNL     1      -9.319   1.483  67.917  1.00  0.00    -0.153 OA 
HETATM    4  N   UNL     1      -9.050   3.739  67.584  1.00  0.00    -0.143 N  
HETATM    5  C   UNL     1      -8.940   3.986  69.027  1.00  0.00    -0.115 C  
HETATM    6  C   UNL     1      -7.956   5.130  69.317  1.00  0.00    -0.080 C  
HETATM    7  N   UNL     1      -8.361   6.333  68.555  1.00  0.00    -0.115 NA 
HETATM    8  C   UNL     1      -9.335   4.939  66.778  1.00  0.00    -0.138 C  
HETATM    9  C   UNL     1      -8.375   6.101  67.097  1.00  0.00    -0.105 C  
ENDROOT
BRANCH   7  10
HETATM   10  C   UNL     1      -7.897   7.576  68.976  1.00  0.00    -0.120 A  
HETATM   11  C   UNL     1      -8.637   8.406  69.812  1.00  0.00    -0.132 A  
HETATM   12  C   UNL     1      -8.210   9.696  70.124  1.00  0.00    -0.206 A  
HETATM   13  C   UNL     1      -7.026  10.215  69.597  1.00  0.00    -0.103 A  
HETATM   14  C   UNL     1      -6.676   8.083  68.492  1.00  0.00    -0.066 A  
HETATM   15  C   UNL     1      -6.246   9.386  68.791  1.00  0.00    -0.044 A  
BRANCH  13  16
HETATM   16  O   UNL     1      -6.574  11.502  69.806  1.00  0.00    -0.130 OA 
BRANCH  16  17
HETATM   17  C   UNL     1      -5.827  12.031  68.706  1.00  0.00    -0.051 C  
BRANCH  17  18
HETATM   18  C   UNL     1      -6.618  12.955  67.793  1.00  0.00    -0.140 C  
HETATM   19  C   UNL     1      -7.683  12.257  66.992  1.00  0.00    -0.089 C  
HETATM   20  O   UNL     1      -8.691  13.250  66.821  1.00  0.00    -0.182 OA 
HETATM   21  C   UNL     1      -8.616  14.126  67.975  1.00  0.00    -0.172 C  
HETATM   22  O   UNL     1      -7.345  13.887  68.612  1.00  0.00    -0.108 OA 
BRANCH  21  23
HETATM   23  C   UNL     1      -8.660  15.593  67.537  1.00  0.00    -0.185 A  
HETATM   24 CL   UNL     1      -9.876  14.958  65.133  1.00  0.00    -0.270 Cl 
HETATM   25  C   UNL     1      -9.192  16.030  66.306  1.00  0.00    -0.333 A  
HETATM   26  C   UNL     1      -8.155  16.584  68.407  1.00  0.00    -0.196 A  
HETATM   27  C   UNL     1      -8.186  17.939  68.073  1.00  0.00    -0.257 A  
HETATM   28  C   UNL     1      -9.212  17.391  65.968  1.00  0.00    -0.093 A  
HETATM   29 CL   UNL     1      -8.769  20.008  66.447  1.00  0.00    -0.376 Cl 
HETATM   30  C   UNL     1      -8.715  18.338  66.854  1.00  0.00    -0.267 A  
ENDBRANCH  21  23
BRANCH  21  31
HETATM   31  C   UNL     1      -9.730  13.715  68.974  1.00  0.00     0.190 C  
BRANCH  31  32
HETATM   32  N   UNL     1     -10.709  12.765  68.498  1.00  0.00    -0.248 NA 
HETATM   33  N   UNL     1     -12.205  11.849  67.138  1.00  0.00    -0.279 NA 
HETATM   34  C   UNL     1     -10.796  11.443  68.856  1.00  0.00    -0.215 A  
HETATM   35  C   UNL     1     -11.589  12.965  67.468  1.00  0.00    -0.356 A  
HETATM   36  C   UNL     1     -11.706  10.894  67.986  1.00  0.00    -0.124 A  
ENDBRANCH  31  32
ENDBRANCH  21  31
ENDBRANCH  17  18
ENDBRANCH  16  17
ENDBRANCH  13  16
ENDBRANCH   7  10
TORSDOF 7
ENDMDL
MODEL      171
REMARK 921   NORMALIZED FREE ENERGY PREDICTED BY IDOCK:   -3.90 KCAL/MOL
REMARK 922        TOTAL FREE ENERGY PREDICTED BY IDOCK:   -5.93 KCAL/MOL
REMARK 923 INTER-LIGAND FREE ENERGY PREDICTED BY IDOCK:   -5.45 KCAL/MOL
REMARK 924 INTRA-LIGAND FREE ENERGY PREDICTED BY IDOCK:   -0.49 KCAL/MOL
REMARK 927      BINDING AFFINITY PREDICTED BY RF-SCORE:    0.00 PKD
ROOT
HETATM    1  C   UNL     1      -9.944  16.885  68.731  1.00  0.00    -0.276 C  
HETATM    2  C   UNL     1      -8.520  16.396  68.694  1.00  0.00    -0.229 C  
HETATM    3  O   UNL     1      -7.597  17.147  69.007  1.00  0.00    -0.244 OA 
HETATM    4  N   UNL     1      -8.328  15.060  68.392  1.00  0.00    -0.147 N  
HETATM    5  C   UNL     1      -6.977  14.499  68.516  1.00  0.00    -0.105 C  
HETATM    6  C   UNL     1      -7.025  13.049  69.025  1.00  0.00    -0.056 C  
HETATM    7  N   UNL     1      -7.904  12.248  68.143  1.00  0.00    -0.139 NA 
HETATM    8  C   UNL     1      -9.267  14.227  67.619  1.00  0.00    -0.194 C  
HETATM    9  C   UNL     1      -9.287  12.764  68.102  1.00  0.00    -0.214 C  
ENDROOT
BRANCH   7  10
HETATM   10  C   UNL     1      -7.764  10.862  68.145  1.00  0.00    -0.103 A  
HETATM   11  C   UNL     1      -6.817  10.209  68.927  1.00  0.00    -0.054 A  
HETATM   12  C   UNL     1      -6.609   8.834  68.825  1.00  0.00    -0.054 A  
HETATM   13  C   UNL     1      -7.335   8.057  67.920  1.00  0.00    -0.093 A  
HETATM   14  C   UNL     1      -8.532  10.067  67.275  1.00  0.00    -0.122 A  
HETATM   15  C   UNL     1      -8.320   8.684  67.158  1.00  0.00    -0.107 A  
BRANCH  13  16
HETATM   16  O   UNL     1      -7.140   6.706  67.716  1.00  0.00    -0.079 OA 
BRANCH  16  17
HETATM   17  C   UNL     1      -7.747   5.884  68.718  1.00  0.00    -0.091 C  
BRANCH  17  18
HETATM   18  C   UNL     1      -9.176   6.271  69.070  1.00  0.00    -0.127 C  
HETATM   19  C   UNL     1     -10.034   5.114  69.500  1.00  0.00    -0.231 C  
HETATM   20  O   UNL     1     -10.962   5.693  70.413  1.00  0.00    -0.285 OA 
HETATM   21  C   UNL     1     -10.291   6.821  71.032  1.00  0.00    -0.206 C  
HETATM   22  O   UNL     1      -9.140   7.132  70.220  1.00  0.00    -0.155 OA 
BRANCH  21  23
HETATM   23  C   UNL     1     -11.208   8.048  71.046  1.00  0.00    -0.287 A  
HETATM   24 CL   UNL     1     -13.457   6.503  71.514  1.00  0.00     0.018 Cl 
HETATM   25  C   UNL     1     -12.603   7.983  71.247  1.00  0.00    -0.239 A  
HETATM   26  C   UNL     1     -10.644   9.329  70.862  1.00  0.00    -0.366 A  
HETATM   27  C   UNL     1     -11.425  10.486  70.884  1.00  0.00    -0.304 A  
HETATM   28  C   UNL     1     -13.387   9.146  71.258  1.00  0.00    -0.286 A  
HETATM   29 CL   UNL     1     -13.757  11.815  71.128  1.00  0.00     0.834 Cl 
HETATM   30  C   UNL     1     -12.795  10.390  71.084  1.00  0.00    -0.414 A  
ENDBRANCH  21  23
BRANCH  21  31
HETATM   31  C   UNL     1      -9.779   6.380  72.428  1.00  0.00    -0.153 C  
BRANCH  31  32
HETATM   32  N   UNL     1     -10.004   5.000  72.795  1.00  0.00    -0.159 NA 
HETATM   33  N   UNL     1     -11.125   3.174  73.372  1.00  0.00    -0.201 NA 
HETATM   34  C   UNL     1      -9.197   3.936  72.477  1.00  0.00    -0.114 A  
HETATM   35  C   UNL     1     -11.148   4.490  73.345  1.00  0.00    -0.322 A  
HETATM   36  C   UNL     1      -9.922   2.821  72.819  1.00  0.00    -0.142 A  
ENDBRANCH  31  32
ENDBRANCH  21  31
ENDBRANCH  17  18
ENDBRANCH  16  17
ENDBRANCH  13  16
ENDBRANCH   7  10
TORSDOF 7
ENDMDL
MODEL      172
REMARK 921   NORMALIZED FREE ENERGY PREDICTED BY IDOCK:   -3.87 KCAL/MOL
REMARK 922        TOTAL FREE ENERGY PREDICTED BY IDOCK:   -5.88 KCAL/MOL
REMARK 923 INTER-LIGAND FREE ENERGY PREDICTED BY IDOCK:   -6.52 KCAL/MOL
REMARK 924 INTRA-LIGAND FREE ENERGY PREDICTED BY IDOCK:    0.64 KCAL/MOL
REMARK 927      BINDING AFFINITY PREDICTED BY RF-SCORE:    0.00 PKD
ROOT
HETATM    1  C   UNL     1     -14.153  15.460  71.087  1.00  0.00    -0.363 C  
HETATM    2  C   UNL     1     -13.780  14.104  71.627  1.00  0.00    -0.367 C  
HETATM    3  O   UNL     1     -14.399  13.620  72.573  1.00  0.00    -0.707 OA 
HETATM    4  N   UNL     1     -12.793  13.414  70.947  1.00  0.00    -0.250 N  
HETATM    5  C   UNL     1     -12.520  12.022  71.327  1.00  0.00    -0.198 C  
HETATM    6  C   UNL     1     -12.165  11.173  70.096  1.00  0.00    -0.337 C  
HETATM    7  N   UNL     1     -11.039  11.804  69.371  1.00  0.00    -0.216 NA 
HETATM    8  C   UNL     1     -11.745  14.038  70.120  1.00  0.00    -0.261 C  
HETATM    9  C   UNL     1     -11.358  13.169  68.908  1.00  0.00    -0.289 C  
ENDROOT
BRANCH   7  10
HETATM   10  C   UNL     1     -10.283  11.021  68.504  1.00  0.00    -0.192 A  
HETATM   11  C   UNL     1      -8.912  11.200  68.338  1.00  0.00    -0.165 A  
HETATM   12  C   UNL     1      -8.195  10.490  67.377  1.00  0.00    -0.118 A  
HETATM   13  C   UNL     1      -8.826   9.578  66.528  1.00  0.00    -0.139 A  
HETATM   14  C   UNL     1     -10.905  10.060  67.685  1.00  0.00    -0.336 A  
HETATM   15  C   UNL     1     -10.190   9.351  66.706  1.00  0.00    -0.320 A  
BRANCH  13  16
HETATM   16  O   UNL     1      -8.196   8.889  65.512  1.00  0.00    -0.115 OA 
BRANCH  16  17
HETATM   17  C   UNL     1      -8.647   7.538  65.373  1.00  0.00    -0.049 C  
BRANCH  17  18
HETATM   18  C   UNL     1      -8.222   6.612  66.504  1.00  0.00    -0.114 C  
HETATM   19  C   UNL     1      -6.761   6.697  66.847  1.00  0.00    -0.056 C  
HETATM   20  O   UNL     1      -6.715   6.397  68.239  1.00  0.00    -0.063 OA 
HETATM   21  C   UNL     1      -7.978   6.836  68.803  1.00  0.00    -0.119 C  
HETATM   22  O   UNL     1      -8.892   7.030  67.705  1.00  0.00    -0.124 OA 
BRANCH  21  23
HETATM   23  C   UNL     1      -8.559   5.756  69.720  1.00  0.00    -0.127 A  
HETATM   24 CL   UNL     1     -10.427   7.501  70.782  1.00  0.00    -0.212 Cl 
HETATM   25  C   UNL     1      -9.627   5.977  70.615  1.00  0.00    -0.173 A  
HETATM   26  C   UNL     1      -8.017   4.453  69.676  1.00  0.00    -0.057 A  
HETATM   27  C   UNL     1      -8.517   3.422  70.473  1.00  0.00    -0.097 A  
HETATM   28  C   UNL     1     -10.121   4.942  71.423  1.00  0.00    -0.268 A  
HETATM   29 CL   UNL     1     -10.197   2.398  72.315  1.00  0.00    -0.230 Cl 
HETATM   30  C   UNL     1      -9.569   3.670  71.344  1.00  0.00    -0.167 A  
ENDBRANCH  21  23
BRANCH  21  31
HETATM   31  C   UNL     1      -7.758   8.213  69.484  1.00  0.00    -0.102 C  
BRANCH  31  32
HETATM   32  N   UNL     1      -6.904   8.230  70.650  1.00  0.00    -0.037 NA 
HETATM   33  N   UNL     1      -5.294   7.593  72.039  1.00  0.00    -0.036 NA 
HETATM   34  C   UNL     1      -6.601   9.327  71.417  1.00  0.00    -0.022 A  
HETATM   35  C   UNL     1      -6.101   7.205  71.073  1.00  0.00    -0.036 A  
HETATM   36  C   UNL     1      -5.589   8.916  72.248  1.00  0.00    -0.064 A  
ENDBRANCH  31  32
ENDBRANCH  21  31
ENDBRANCH  17  18
ENDBRANCH  16  17
ENDBRANCH  13  16
ENDBRANCH   7  10
TORSDOF 7
ENDMDL
MODEL      173
REMARK 921   NORMALIZED FREE ENERGY PREDICTED BY IDOCK:   -3.85 KCAL/MOL
REMARK 922        TOTAL FREE ENERGY PREDICTED BY IDOCK:   -5.85 KCAL/MOL
REMARK 923 INTER-LIGAND FREE ENERGY PREDICTED BY IDOCK:   -5.92 KCAL/MOL
REMARK 924 INTRA-LIGAND FREE ENERGY PREDICTED BY IDOCK:    0.07 KCAL/MOL
REMARK 927      BINDING AFFINITY PREDICTED BY RF-SCORE:    0.00 PKD
ROOT
HETATM    1  C   UNL     1     -12.212  15.091  64.074  1.00  0.00    -0.117 C  
HETATM    2  C   UNL     1     -10.938  15.312  64.847  1.00  0.00    -0.430 C  
HETATM    3  O   UNL     1     -10.528  16.454  65.053  1.00  0.00    -0.642 OA 
HETATM    4  N   UNL     1     -10.331  14.190  65.381  1.00  0.00    -0.344 N  
HETATM    5  C   UNL     1      -9.190  14.373  66.286  1.00  0.00    -0.170 C  
HETATM    6  C   UNL     1      -9.200  13.320  67.406  1.00  0.00    -0.216 C  
HETATM    7  N   UNL     1      -9.251  11.967  66.809  1.00  0.00    -0.189 NA 
HETATM    8  C   UNL     1     -10.485  12.821  64.859  1.00  0.00    -0.321 C  
HETATM    9  C   UNL     1     -10.454  11.760  65.977  1.00  0.00    -0.246 C  
ENDROOT
BRANCH   7  10
HETATM   10  C   UNL     1      -8.843  10.882  67.580  1.00  0.00    -0.133 A  
HETATM   11  C   UNL     1      -9.121  10.787  68.940  1.00  0.00    -0.170 A  
HETATM   12  C   UNL     1      -8.601   9.756  69.721  1.00  0.00    -0.215 A  
HETATM   13  C   UNL     1      -7.765   8.782  69.171  1.00  0.00    -0.093 A  
HETATM   14  C   UNL     1      -8.046   9.867  67.019  1.00  0.00    -0.110 A  
HETATM   15  C   UNL     1      -7.508   8.833  67.802  1.00  0.00    -0.093 A  
BRANCH  13  16
HETATM   16  O   UNL     1      -7.161   7.772  69.893  1.00  0.00    -0.059 OA 
BRANCH  16  17
HETATM   17  C   UNL     1      -6.202   7.025  69.136  1.00  0.00    -0.031 C  
BRANCH  17  18
HETATM   18  C   UNL     1      -6.675   5.644  68.707  1.00  0.00    -0.053 C  
HETATM   19  C   UNL     1      -6.984   4.722  69.853  1.00  0.00    -0.052 C  
HETATM   20  O   UNL     1      -8.013   3.876  69.346  1.00  0.00    -0.055 OA 
HETATM   21  C   UNL     1      -8.747   4.653  68.364  1.00  0.00    -0.099 C  
HETATM   22  O   UNL     1      -7.929   5.789  68.020  1.00  0.00    -0.099 OA 
BRANCH  21  23
HETATM   23  C   UNL     1      -8.975   3.829  67.093  1.00  0.00    -0.159 A  
HETATM   24 CL   UNL     1      -7.758   1.595  68.184  1.00  0.00    -0.053 Cl 
HETATM   25  C   UNL     1      -8.565   2.488  66.942  1.00  0.00    -0.111 A  
HETATM   26  C   UNL     1      -9.644   4.424  66.001  1.00  0.00    -0.190 A  
HETATM   27  C   UNL     1      -9.899   3.719  64.824  1.00  0.00    -0.191 A  
HETATM   28  C   UNL     1      -8.813   1.785  65.753  1.00  0.00    -0.124 A  
HETATM   29 CL   UNL     1      -9.810   1.525  63.261  1.00  0.00    -0.106 Cl 
HETATM   30  C   UNL     1      -9.483   2.401  64.704  1.00  0.00    -0.109 A  
ENDBRANCH  21  23
BRANCH  21  31
HETATM   31  C   UNL     1     -10.042   5.186  69.030  1.00  0.00    -0.187 C  
BRANCH  31  32
HETATM   32  N   UNL     1     -10.042   5.269  70.474  1.00  0.00    -0.227 NA 
HETATM   33  N   UNL     1     -10.151   6.194  72.488  1.00  0.00    -0.177 NA 
HETATM   34  C   UNL     1     -10.373   4.260  71.343  1.00  0.00     0.039 A  
HETATM   35  C   UNL     1      -9.904   6.413  71.213  1.00  0.00    -0.181 A  
HETATM   36  C   UNL     1     -10.459   4.862  72.575  1.00  0.00    -0.205 A  
ENDBRANCH  31  32
ENDBRANCH  21  31
ENDBRANCH  17  18
ENDBRANCH  16  17
ENDBRANCH  13  16
ENDBRANCH   7  10
TORSDOF 7
ENDMDL
MODEL      174
REMARK 921   NORMALIZED FREE ENERGY PREDICTED BY IDOCK:   -3.81 KCAL/MOL
REMARK 922        TOTAL FREE ENERGY PREDICTED BY IDOCK:   -5.81 KCAL/MOL
REMARK 923 INTER-LIGAND FREE ENERGY PREDICTED BY IDOCK:   -5.39 KCAL/MOL
REMARK 924 INTRA-LIGAND FREE ENERGY PREDICTED BY IDOCK:   -0.41 KCAL/MOL
REMARK 927      BINDING AFFINITY PREDICTED BY RF-SCORE:    0.00 PKD
ROOT
HETATM    1  C   UNL     1      -6.799  19.327  66.242  1.00  0.00    -0.231 C  
HETATM    2  C   UNL     1      -7.990  18.464  66.569  1.00  0.00    -0.271 C  
HETATM    3  O   UNL     1      -9.129  18.858  66.322  1.00  0.00    -0.357 OA 
HETATM    4  N   UNL     1      -7.725  17.197  67.058  1.00  0.00    -0.175 N  
HETATM    5  C   UNL     1      -8.844  16.261  67.223  1.00  0.00    -0.188 C  
HETATM    6  C   UNL     1      -8.414  14.823  66.893  1.00  0.00    -0.198 C  
HETATM    7  N   UNL     1      -7.234  14.462  67.710  1.00  0.00    -0.158 NA 
HETATM    8  C   UNL     1      -6.491  16.807  67.762  1.00  0.00    -0.146 C  
HETATM    9  C   UNL     1      -6.081  15.352  67.463  1.00  0.00    -0.066 C  
ENDROOT
BRANCH   7  10
HETATM   10  C   UNL     1      -6.941  13.114  67.898  1.00  0.00    -0.132 A  
HETATM   11  C   UNL     1      -5.783  12.525  67.399  1.00  0.00    -0.124 A  
HETATM   12  C   UNL     1      -5.566  11.151  67.492  1.00  0.00    -0.047 A  
HETATM   13  C   UNL     1      -6.511  10.305  68.078  1.00  0.00    -0.060 A  
HETATM   14  C   UNL     1      -7.865  12.266  68.537  1.00  0.00    -0.111 A  
HETATM   15  C   UNL     1      -7.658  10.880  68.623  1.00  0.00    -0.114 A  
BRANCH  13  16
HETATM   16  O   UNL     1      -6.396   8.931  68.146  1.00  0.00    -0.054 OA 
BRANCH  16  17
HETATM   17  C   UNL     1      -7.577   8.283  68.629  1.00  0.00    -0.099 C  
BRANCH  17  18
HETATM   18  C   UNL     1      -7.645   6.793  68.330  1.00  0.00    -0.104 C  
HETATM   19  C   UNL     1      -7.730   5.928  69.557  1.00  0.00    -0.097 C  
HETATM   20  O   UNL     1      -8.475   4.792  69.127  1.00  0.00    -0.080 OA 
HETATM   21  C   UNL     1      -9.359   5.248  68.070  1.00  0.00    -0.117 C  
HETATM   22  O   UNL     1      -8.869   6.528  67.625  1.00  0.00    -0.115 OA 
BRANCH  21  23
HETATM   23  C   UNL     1      -9.315   4.283  66.882  1.00  0.00    -0.181 A  
HETATM   24 CL   UNL     1      -8.933   2.091  68.529  1.00  0.00    -0.149 Cl 
HETATM   25  C   UNL     1      -9.128   2.890  67.008  1.00  0.00    -0.164 A  
HETATM   26  C   UNL     1      -9.483   4.793  65.576  1.00  0.00    -0.170 A  
HETATM   27  C   UNL     1      -9.473   3.961  64.456  1.00  0.00    -0.166 A  
HETATM   28  C   UNL     1      -9.107   2.057  65.879  1.00  0.00    -0.053 A  
HETATM   29 CL   UNL     1      -9.289   1.566  63.233  1.00  0.00    -0.090 Cl 
HETATM   30  C   UNL     1      -9.286   2.595  64.611  1.00  0.00    -0.136 A  
ENDBRANCH  21  23
BRANCH  21  31
HETATM   31  C   UNL     1     -10.772   5.466  68.674  1.00  0.00    -0.018 C  
BRANCH  31  32
HETATM   32  N   UNL     1     -10.832   6.136  69.954  1.00  0.00    -0.316 NA 
HETATM   33  N   UNL     1     -11.275   7.736  71.428  1.00  0.00    -0.243 NA 
HETATM   34  C   UNL     1     -10.853   5.530  71.185  1.00  0.00    -0.173 A  
HETATM   35  C   UNL     1     -11.077   7.468  70.154  1.00  0.00    -0.231 A  
HETATM   36  C   UNL     1     -11.153   6.533  72.074  1.00  0.00    -0.258 A  
ENDBRANCH  31  32
ENDBRANCH  21  31
ENDBRANCH  17  18
ENDBRANCH  16  17
ENDBRANCH  13  16
ENDBRANCH   7  10
TORSDOF 7
ENDMDL
MODEL      175
REMARK 921   NORMALIZED FREE ENERGY PREDICTED BY IDOCK:   -3.72 KCAL/MOL
REMARK 922        TOTAL FREE ENERGY PREDICTED BY IDOCK:   -5.67 KCAL/MOL
REMARK 923 INTER-LIGAND FREE ENERGY PREDICTED BY IDOCK:   -5.50 KCAL/MOL
REMARK 924 INTRA-LIGAND FREE ENERGY PREDICTED BY IDOCK:   -0.18 KCAL/MOL
REMARK 927      BINDING AFFINITY PREDICTED BY RF-SCORE:    0.00 PKD
ROOT
HETATM    1  C   UNL     1      -8.081  15.782  68.008  1.00  0.00    -0.143 C  
HETATM    2  C   UNL     1      -7.014  15.219  68.909  1.00  0.00    -0.125 C  
HETATM    3  O   UNL     1      -6.546  15.902  69.820  1.00  0.00    -0.188 OA 
HETATM    4  N   UNL     1      -6.673  13.892  68.718  1.00  0.00    -0.095 N  
HETATM    5  C   UNL     1      -5.770  13.253  69.682  1.00  0.00    -0.107 C  
HETATM    6  C   UNL     1      -6.158  11.783  69.912  1.00  0.00    -0.151 C  
HETATM    7  N   UNL     1      -6.206  11.078  68.611  1.00  0.00    -0.043 NA 
HETATM    8  C   UNL     1      -6.841  13.153  67.454  1.00  0.00    -0.102 C  
HETATM    9  C   UNL     1      -7.190  11.670  67.683  1.00  0.00    -0.107 C  
ENDROOT
BRANCH   7  10
HETATM   10  C   UNL     1      -6.111   9.689  68.603  1.00  0.00    -0.043 A  
HETATM   11  C   UNL     1      -5.975   8.957  67.428  1.00  0.00    -0.047 A  
HETATM   12  C   UNL     1      -6.004   7.563  67.429  1.00  0.00    -0.046 A  
HETATM   13  C   UNL     1      -6.186   6.843  68.611  1.00  0.00    -0.027 A  
HETATM   14  C   UNL     1      -6.238   8.958  69.799  1.00  0.00    -0.035 A  
HETATM   15  C   UNL     1      -6.281   7.555  69.807  1.00  0.00    -0.030 A  
BRANCH  13  16
HETATM   16  O   UNL     1      -6.292   5.468  68.682  1.00  0.00    -0.037 OA 
BRANCH  16  17
HETATM   17  C   UNL     1      -7.573   5.017  69.132  1.00  0.00    -0.072 C  
BRANCH  17  18
HETATM   18  C   UNL     1      -8.746   5.841  68.622  1.00  0.00    -0.108 C  
HETATM   19  C   UNL     1     -10.009   5.050  68.425  1.00  0.00    -0.136 C  
HETATM   20  O   UNL     1     -11.048   5.993  68.671  1.00  0.00    -0.315 OA 
HETATM   21  C   UNL     1     -10.522   6.958  69.618  1.00  0.00    -0.218 C  
HETATM   22  O   UNL     1      -9.088   6.810  69.627  1.00  0.00    -0.143 OA 
BRANCH  21  23
HETATM   23  C   UNL     1     -10.850   8.384  69.167  1.00  0.00    -0.042 A  
HETATM   24 CL   UNL     1      -9.693   7.987  66.683  1.00  0.00    -0.296 Cl 
HETATM   25  C   UNL     1     -10.514   8.904  67.899  1.00  0.00    -0.223 A  
HETATM   26  C   UNL     1     -11.540   9.243  70.050  1.00  0.00    -0.005 A  
HETATM   27  C   UNL     1     -11.884  10.546  69.689  1.00  0.00    -0.306 A  
HETATM   28  C   UNL     1     -10.851  10.218  67.542  1.00  0.00    -0.355 A  
HETATM   29 CL   UNL     1     -11.976  12.629  67.981  1.00  0.00    -0.368 Cl 
HETATM   30  C   UNL     1     -11.539  11.029  68.435  1.00  0.00    -0.302 A  
ENDBRANCH  21  23
BRANCH  21  31
HETATM   31  C   UNL     1     -11.045   6.591  71.032  1.00  0.00    -0.288 C  
BRANCH  31  32
HETATM   32  N   UNL     1     -10.188   6.928  72.147  1.00  0.00    -0.192 NA 
HETATM   33  N   UNL     1      -8.415   6.865  73.481  1.00  0.00    -0.125 NA 
HETATM   34  C   UNL     1     -10.175   8.120  72.827  1.00  0.00    -0.302 A  
HETATM   35  C   UNL     1      -9.116   6.199  72.586  1.00  0.00    -0.140 A  
HETATM   36  C   UNL     1      -9.058   8.066  73.624  1.00  0.00    -0.231 A  
ENDBRANCH  31  32
ENDBRANCH  21  31
ENDBRANCH  17  18
ENDBRANCH  16  17
ENDBRANCH  13  16
ENDBRANCH   7  10
TORSDOF 7
ENDMDL
MODEL      176
REMARK 921   NORMALIZED FREE ENERGY PREDICTED BY IDOCK:   -3.64 KCAL/MOL
REMARK 922        TOTAL FREE ENERGY PREDICTED BY IDOCK:   -5.56 KCAL/MOL
REMARK 923 INTER-LIGAND FREE ENERGY PREDICTED BY IDOCK:   -5.45 KCAL/MOL
REMARK 924 INTRA-LIGAND FREE ENERGY PREDICTED BY IDOCK:   -0.11 KCAL/MOL
REMARK 927      BINDING AFFINITY PREDICTED BY RF-SCORE:    0.00 PKD
ROOT
HETATM    1  C   UNL     1      -7.249  19.398  66.023  1.00  0.00    -0.301 C  
HETATM    2  C   UNL     1      -8.413  18.494  66.332  1.00  0.00    -0.258 C  
HETATM    3  O   UNL     1      -9.556  18.823  66.012  1.00  0.00    -0.477 OA 
HETATM    4  N   UNL     1      -8.117  17.264  66.890  1.00  0.00    -0.213 N  
HETATM    5  C   UNL     1      -9.198  16.284  67.044  1.00  0.00    -0.214 C  
HETATM    6  C   UNL     1      -8.687  14.855  66.800  1.00  0.00    -0.246 C  
HETATM    7  N   UNL     1      -7.534  14.586  67.689  1.00  0.00    -0.163 NA 
HETATM    8  C   UNL     1      -6.903  16.964  67.669  1.00  0.00    -0.141 C  
HETATM    9  C   UNL     1      -6.412  15.518  67.457  1.00  0.00    -0.156 C  
ENDROOT
BRANCH   7  10
HETATM   10  C   UNL     1      -7.190  13.263  67.952  1.00  0.00    -0.137 A  
HETATM   11  C   UNL     1      -6.338  12.535  67.127  1.00  0.00    -0.050 A  
HETATM   12  C   UNL     1      -6.102  11.177  67.339  1.00  0.00    -0.061 A  
HETATM   13  C   UNL     1      -6.725  10.487  68.381  1.00  0.00    -0.060 A  
HETATM   14  C   UNL     1      -7.771  12.577  69.035  1.00  0.00     0.186 A  
HETATM   15  C   UNL     1      -7.548  11.207  69.246  1.00  0.00    -0.057 A  
BRANCH  13  16
HETATM   16  O   UNL     1      -6.592   9.133  68.612  1.00  0.00    -0.053 OA 
BRANCH  16  17
HETATM   17  C   UNL     1      -5.759   8.824  69.734  1.00  0.00    -0.029 C  
BRANCH  17  18
HETATM   18  C   UNL     1      -6.477   8.124  70.878  1.00  0.00    -0.037 C  
HETATM   19  C   UNL     1      -6.711   8.998  72.079  1.00  0.00     0.088 C  
HETATM   20  O   UNL     1      -7.913   8.488  72.648  1.00  0.00    -0.298 OA 
HETATM   21  C   UNL     1      -8.691   7.934  71.555  1.00  0.00    -0.125 C  
HETATM   22  O   UNL     1      -7.798   7.771  70.435  1.00  0.00    -0.087 OA 
BRANCH  21  23
HETATM   23  C   UNL     1      -9.236   6.553  71.932  1.00  0.00    -0.148 A  
HETATM   24 CL   UNL     1      -6.694   5.483  72.157  1.00  0.00    -0.063 Cl 
HETATM   25  C   UNL     1      -8.422   5.434  72.204  1.00  0.00    -0.126 A  
HETATM   26  C   UNL     1     -10.633   6.371  72.031  1.00  0.00    -0.244 A  
HETATM   27  C   UNL     1     -11.189   5.142  72.390  1.00  0.00    -0.176 A  
HETATM   28  C   UNL     1      -8.984   4.197  72.554  1.00  0.00    -0.127 A  
HETATM   29 CL   UNL     1     -11.045   2.549  73.109  1.00  0.00    -0.228 Cl 
HETATM   30  C   UNL     1     -10.363   4.059  72.652  1.00  0.00    -0.158 A  
ENDBRANCH  21  23
BRANCH  21  31
HETATM   31  C   UNL     1      -9.773   8.969  71.150  1.00  0.00    -0.299 C  
BRANCH  31  32
HETATM   32  N   UNL     1     -10.081   9.068  69.741  1.00  0.00    -0.193 NA 
HETATM   33  N   UNL     1     -10.592   8.398  67.688  1.00  0.00    -0.227 NA 
HETATM   34  C   UNL     1     -10.622  10.156  69.105  1.00  0.00    -0.224 A  
HETATM   35  C   UNL     1     -10.070   8.036  68.842  1.00  0.00    -0.201 A  
HETATM   36  C   UNL     1     -10.952   9.711  67.849  1.00  0.00    -0.145 A  
ENDBRANCH  31  32
ENDBRANCH  21  31
ENDBRANCH  17  18
ENDBRANCH  16  17
ENDBRANCH  13  16
ENDBRANCH   7  10
TORSDOF 7
ENDMDL
MODEL      177
REMARK 921   NORMALIZED FREE ENERGY PREDICTED BY IDOCK:   -3.58 KCAL/MOL
REMARK 922        TOTAL FREE ENERGY PREDICTED BY IDOCK:   -5.47 KCAL/MOL
REMARK 923 INTER-LIGAND FREE ENERGY PREDICTED BY IDOCK:   -4.76 KCAL/MOL
REMARK 924 INTRA-LIGAND FREE ENERGY PREDICTED BY IDOCK:   -0.71 KCAL/MOL
REMARK 927      BINDING AFFINITY PREDICTED BY RF-SCORE:    0.00 PKD
ROOT
HETATM    1  C   UNL     1     -10.801  15.346  66.795  1.00  0.00    -0.306 C  
HETATM    2  C   UNL     1     -11.329  14.333  67.778  1.00  0.00    -0.307 C  
HETATM    3  O   UNL     1     -12.528  14.304  68.054  1.00  0.00    -0.098 OA 
HETATM    4  N   UNL     1     -10.427  13.402  68.257  1.00  0.00    -0.244 N  
HETATM    5  C   UNL     1     -10.931  12.292  69.076  1.00  0.00    -0.201 C  
HETATM    6  C   UNL     1     -10.151  10.999  68.793  1.00  0.00    -0.203 C  
HETATM    7  N   UNL     1      -8.704  11.245  68.984  1.00  0.00    -0.036 NA 
HETATM    8  C   UNL     1      -8.968  13.601  68.329  1.00  0.00    -0.187 C  
HETATM    9  C   UNL     1      -8.185  12.296  68.086  1.00  0.00    -0.168 C  
ENDROOT
BRANCH   7  10
HETATM   10  C   UNL     1      -7.866  10.155  69.203  1.00  0.00    -0.120 A  
HETATM   11  C   UNL     1      -6.546  10.128  68.763  1.00  0.00    -0.052 A  
HETATM   12  C   UNL     1      -5.760   8.982  68.883  1.00  0.00    -0.040 A  
HETATM   13  C   UNL     1      -6.272   7.807  69.438  1.00  0.00    -0.034 A  
HETATM   14  C   UNL     1      -8.360   8.987  69.813  1.00  0.00    -0.129 A  
HETATM   15  C   UNL     1      -7.578   7.825  69.925  1.00  0.00    -0.090 A  
BRANCH  13  16
HETATM   16  O   UNL     1      -5.577   6.618  69.530  1.00  0.00    -0.014 OA 
BRANCH  16  17
HETATM   17  C   UNL     1      -5.984   5.644  68.563  1.00  0.00    -0.017 C  
BRANCH  17  18
HETATM   18  C   UNL     1      -6.188   6.196  67.160  1.00  0.00    -0.029 C  
HETATM   19  C   UNL     1      -5.944   5.192  66.068  1.00  0.00    -0.022 C  
HETATM   20  O   UNL     1      -6.821   5.601  65.022  1.00  0.00    -0.049 OA 
HETATM   21  C   UNL     1      -7.957   6.243  65.656  1.00  0.00    -0.115 C  
HETATM   22  O   UNL     1      -7.572   6.552  67.011  1.00  0.00    -0.092 OA 
BRANCH  21  23
HETATM   23  C   UNL     1      -8.293   7.558  64.946  1.00  0.00    -0.045 A  
HETATM   24 CL   UNL     1      -7.070   6.738  62.602  1.00  0.00    -0.048 Cl 
HETATM   25  C   UNL     1      -7.933   7.845  63.612  1.00  0.00    -0.118 A  
HETATM   26  C   UNL     1      -9.017   8.549  65.644  1.00  0.00    -0.209 A  
HETATM   27  C   UNL     1      -9.370   9.759  65.044  1.00  0.00    -0.325 A  
HETATM   28  C   UNL     1      -8.280   9.066  63.016  1.00  0.00    -0.184 A  
HETATM   29 CL   UNL     1      -9.449  11.496  62.985  1.00  0.00    -0.380 Cl 
HETATM   30  C   UNL     1      -9.001  10.013  63.731  1.00  0.00    -0.247 A  
ENDBRANCH  21  23
BRANCH  21  31
HETATM   31  C   UNL     1      -9.125   5.224  65.717  1.00  0.00    -0.157 C  
BRANCH  31  32
HETATM   32  N   UNL     1      -9.113   4.166  64.732  1.00  0.00    -0.138 NA 
HETATM   33  N   UNL     1      -9.266   3.198  62.740  1.00  0.00    -0.091 NA 
HETATM   34  C   UNL     1      -8.438   2.975  64.830  1.00  0.00    -0.095 A  
HETATM   35  C   UNL     1      -9.607   4.248  63.458  1.00  0.00    -0.087 A  
HETATM   36  C   UNL     1      -8.525   2.409  63.582  1.00  0.00    -0.085 A  
ENDBRANCH  31  32
ENDBRANCH  21  31
ENDBRANCH  17  18
ENDBRANCH  16  17
ENDBRANCH  13  16
ENDBRANCH   7  10
TORSDOF 7
ENDMDL
MODEL      178
REMARK 921   NORMALIZED FREE ENERGY PREDICTED BY IDOCK:   -3.53 KCAL/MOL
REMARK 922        TOTAL FREE ENERGY PREDICTED BY IDOCK:   -5.41 KCAL/MOL
REMARK 923 INTER-LIGAND FREE ENERGY PREDICTED BY IDOCK:   -4.67 KCAL/MOL
REMARK 924 INTRA-LIGAND FREE ENERGY PREDICTED BY IDOCK:   -0.74 KCAL/MOL
REMARK 927      BINDING AFFINITY PREDICTED BY RF-SCORE:    0.00 PKD
ROOT
HETATM    1  C   UNL     1      -9.953  16.730  68.880  1.00  0.00    -0.271 C  
HETATM    2  C   UNL     1      -8.766  15.890  68.484  1.00  0.00    -0.194 C  
HETATM    3  O   UNL     1      -7.624  16.326  68.624  1.00  0.00    -0.166 OA 
HETATM    4  N   UNL     1      -9.029  14.601  68.060  1.00  0.00    -0.168 N  
HETATM    5  C   UNL     1      -7.899  13.691  67.834  1.00  0.00    -0.159 C  
HETATM    6  C   UNL     1      -8.256  12.254  68.245  1.00  0.00    -0.167 C  
HETATM    7  N   UNL     1      -9.486  11.831  67.540  1.00  0.00    -0.172 NA 
HETATM    8  C   UNL     1     -10.304  14.150  67.472  1.00  0.00    -0.248 C  
HETATM    9  C   UNL     1     -10.643  12.696  67.851  1.00  0.00    -0.220 C  
ENDROOT
BRANCH   7  10
HETATM   10  C   UNL     1      -9.751  10.470  67.420  1.00  0.00    -0.164 A  
HETATM   11  C   UNL     1      -9.289   9.711  66.348  1.00  0.00    -0.224 A  
HETATM   12  C   UNL     1      -9.665   8.379  66.182  1.00  0.00    -0.223 A  
HETATM   13  C   UNL     1     -10.535   7.754  67.078  1.00  0.00    -0.349 A  
HETATM   14  C   UNL     1     -10.582   9.820  68.351  1.00  0.00    -0.264 A  
HETATM   15  C   UNL     1     -10.975   8.482  68.183  1.00  0.00     0.126 A  
BRANCH  13  16
HETATM   16  O   UNL     1     -11.003   6.463  66.942  1.00  0.00    -0.370 OA 
BRANCH  16  17
HETATM   17  C   UNL     1     -10.254   5.502  67.694  1.00  0.00    -0.193 C  
BRANCH  17  18
HETATM   18  C   UNL     1      -9.584   6.061  68.940  1.00  0.00    -0.126 C  
HETATM   19  C   UNL     1      -9.481   5.077  70.072  1.00  0.00    -0.166 C  
HETATM   20  O   UNL     1      -8.297   5.467  70.762  1.00  0.00    -0.112 OA 
HETATM   21  C   UNL     1      -7.417   6.066  69.776  1.00  0.00    -0.080 C  
HETATM   22  O   UNL     1      -8.218   6.373  68.618  1.00  0.00    -0.118 OA 
BRANCH  21  23
HETATM   23  C   UNL     1      -6.829   7.376  70.309  1.00  0.00    -0.052 A  
HETATM   24 CL   UNL     1      -5.404   6.065  72.287  1.00  0.00    -0.022 Cl 
HETATM   25  C   UNL     1      -5.946   7.451  71.407  1.00  0.00    -0.036 A  
HETATM   26  C   UNL     1      -7.167   8.589  69.672  1.00  0.00    -0.052 A  
HETATM   27  C   UNL     1      -6.648   9.812  70.099  1.00  0.00    -0.091 A  
HETATM   28  C   UNL     1      -5.434   8.683  71.841  1.00  0.00    -0.045 A  
HETATM   29 CL   UNL     1      -5.128  11.359  71.699  1.00  0.00    -0.035 Cl 
HETATM   30  C   UNL     1      -5.781   9.855  71.182  1.00  0.00    -0.071 A  
ENDBRANCH  21  23
BRANCH  21  31
HETATM   31  C   UNL     1      -6.363   5.008  69.354  1.00  0.00    -0.034 C  
BRANCH  31  32
HETATM   32  N   UNL     1      -6.570   4.360  68.079  1.00  0.00    -0.042 NA 
HETATM   33  N   UNL     1      -6.407   4.004  65.894  1.00  0.00    -0.032 NA 
HETATM   34  C   UNL     1      -6.865   3.034  67.882  1.00  0.00    -0.049 A  
HETATM   35  C   UNL     1      -6.315   4.906  66.849  1.00  0.00    -0.036 A  
HETATM   36  C   UNL     1      -6.732   2.834  66.530  1.00  0.00    -0.040 A  
ENDBRANCH  31  32
ENDBRANCH  21  31
ENDBRANCH  17  18
ENDBRANCH  16  17
ENDBRANCH  13  16
ENDBRANCH   7  10
TORSDOF 7
ENDMDL
MODEL      179
REMARK 921   NORMALIZED FREE ENERGY PREDICTED BY IDOCK:   -3.51 KCAL/MOL
REMARK 922        TOTAL FREE ENERGY PREDICTED BY IDOCK:   -5.37 KCAL/MOL
REMARK 923 INTER-LIGAND FREE ENERGY PREDICTED BY IDOCK:   -6.09 KCAL/MOL
REMARK 924 INTRA-LIGAND FREE ENERGY PREDICTED BY IDOCK:    0.72 KCAL/MOL
REMARK 927      BINDING AFFINITY PREDICTED BY RF-SCORE:    0.00 PKD
ROOT
HETATM    1  C   UNL     1     -13.896  15.451  72.169  1.00  0.00    -0.636 C  
HETATM    2  C   UNL     1     -13.638  13.968  72.111  1.00  0.00    -0.489 C  
HETATM    3  O   UNL     1     -14.292  13.196  72.813  1.00  0.00    -0.551 OA 
HETATM    4  N   UNL     1     -12.718  13.531  71.175  1.00  0.00    -0.354 N  
HETATM    5  C   UNL     1     -12.565  12.087  70.962  1.00  0.00    -0.273 C  
HETATM    6  C   UNL     1     -12.291  11.773  69.482  1.00  0.00    -0.058 C  
HETATM    7  N   UNL     1     -11.118  12.552  69.023  1.00  0.00    -0.248 NA 
HETATM    8  C   UNL     1     -11.625  14.351  70.623  1.00  0.00    -0.184 C  
HETATM    9  C   UNL     1     -11.322  14.009  69.151  1.00  0.00    -0.281 C  
ENDROOT
BRANCH   7  10
HETATM   10  C   UNL     1     -10.438  12.124  67.887  1.00  0.00    -0.208 A  
HETATM   11  C   UNL     1      -9.069  12.314  67.720  1.00  0.00    -0.191 A  
HETATM   12  C   UNL     1      -8.428  11.989  66.526  1.00  0.00    -0.065 A  
HETATM   13  C   UNL     1      -9.137  11.470  65.440  1.00  0.00    -0.052 A  
HETATM   14  C   UNL     1     -11.138  11.549  66.810  1.00  0.00    -0.361 A  
HETATM   15  C   UNL     1     -10.501  11.231  65.600  1.00  0.00    -0.317 A  
BRANCH  13  16
HETATM   16  O   UNL     1      -8.584  11.187  64.208  1.00  0.00     0.064 OA 
BRANCH  16  17
HETATM   17  C   UNL     1      -8.902   9.878  63.726  1.00  0.00    -0.232 C  
BRANCH  17  18
HETATM   18  C   UNL     1      -7.821   8.836  63.973  1.00  0.00    -0.140 C  
HETATM   19  C   UNL     1      -6.698   9.316  64.849  1.00  0.00    -0.079 C  
HETATM   20  O   UNL     1      -6.254   8.139  65.517  1.00  0.00    -0.045 OA 
HETATM   21  C   UNL     1      -7.405   7.262  65.629  1.00  0.00    -0.075 C  
HETATM   22  O   UNL     1      -8.402   7.746  64.707  1.00  0.00    -0.130 OA 
BRANCH  21  23
HETATM   23  C   UNL     1      -7.032   5.834  65.221  1.00  0.00    -0.063 A  
HETATM   24 CL   UNL     1      -7.423   6.378  62.535  1.00  0.00    -0.058 Cl 
HETATM   25  C   UNL     1      -7.023   5.376  63.886  1.00  0.00    -0.047 A  
HETATM   26  C   UNL     1      -6.661   4.909  66.221  1.00  0.00    -0.050 A  
HETATM   27  C   UNL     1      -6.292   3.599  65.909  1.00  0.00    -0.032 A  
HETATM   28  C   UNL     1      -6.663   4.056  63.577  1.00  0.00    -0.042 A  
HETATM   29 CL   UNL     1      -5.824   1.569  64.199  1.00  0.00    -0.008 Cl 
HETATM   30  C   UNL     1      -6.293   3.177  64.587  1.00  0.00    -0.024 A  
ENDBRANCH  21  23
BRANCH  21  31
HETATM   31  C   UNL     1      -7.983   7.395  67.063  1.00  0.00    -0.116 C  
BRANCH  31  32
HETATM   32  N   UNL     1      -9.278   6.796  67.297  1.00  0.00    -0.131 NA 
HETATM   33  N   UNL     1     -10.874   5.254  67.272  1.00  0.00    -0.026 NA 
HETATM   34  C   UNL     1     -10.163   7.141  68.288  1.00  0.00    -0.184 A  
HETATM   35  C   UNL     1      -9.757   5.660  66.703  1.00  0.00    -0.158 A  
HETATM   36  C   UNL     1     -11.124   6.160  68.268  1.00  0.00    -0.239 A  
ENDBRANCH  31  32
ENDBRANCH  21  31
ENDBRANCH  17  18
ENDBRANCH  16  17
ENDBRANCH  13  16
ENDBRANCH   7  10
TORSDOF 7
ENDMDL
MODEL      180
REMARK 921   NORMALIZED FREE ENERGY PREDICTED BY IDOCK:   -3.48 KCAL/MOL
REMARK 922        TOTAL FREE ENERGY PREDICTED BY IDOCK:   -5.34 KCAL/MOL
REMARK 923 INTER-LIGAND FREE ENERGY PREDICTED BY IDOCK:   -4.77 KCAL/MOL
REMARK 924 INTRA-LIGAND FREE ENERGY PREDICTED BY IDOCK:   -0.57 KCAL/MOL
REMARK 927      BINDING AFFINITY PREDICTED BY RF-SCORE:    0.00 PKD
ROOT
HETATM    1  C   UNL     1     -10.769   2.311  64.275  1.00  0.00     0.453 C  
HETATM    2  C   UNL     1      -9.648   3.144  63.710  1.00  0.00    -0.130 C  
HETATM    3  O   UNL     1      -9.469   3.200  62.494  1.00  0.00    -0.093 OA 
HETATM    4  N   UNL     1      -8.919   3.900  64.610  1.00  0.00    -0.125 N  
HETATM    5  C   UNL     1      -7.937   4.858  64.089  1.00  0.00    -0.105 C  
HETATM    6  C   UNL     1      -7.889   6.126  64.956  1.00  0.00    -0.110 C  
HETATM    7  N   UNL     1      -7.636   5.750  66.365  1.00  0.00    -0.090 NA 
HETATM    8  C   UNL     1      -8.772   3.591  66.044  1.00  0.00    -0.122 C  
HETATM    9  C   UNL     1      -8.683   4.862  66.911  1.00  0.00    -0.107 C  
ENDROOT
BRANCH   7  10
HETATM   10  C   UNL     1      -7.135   6.716  67.234  1.00  0.00    -0.080 A  
HETATM   11  C   UNL     1      -7.927   7.339  68.193  1.00  0.00    -0.123 A  
HETATM   12  C   UNL     1      -7.439   8.389  68.970  1.00  0.00    -0.093 A  
HETATM   13  C   UNL     1      -6.138   8.869  68.807  1.00  0.00    -0.045 A  
HETATM   14  C   UNL     1      -5.807   7.165  67.111  1.00  0.00    -0.029 A  
HETATM   15  C   UNL     1      -5.314   8.231  67.881  1.00  0.00    -0.034 A  
BRANCH  13  16
HETATM   16  O   UNL     1      -5.609   9.945  69.491  1.00  0.00    -0.037 OA 
BRANCH  16  17
HETATM   17  C   UNL     1      -6.574  10.956  69.798  1.00  0.00    -0.140 C  
BRANCH  17  18
HETATM   18  C   UNL     1      -6.382  12.262  69.042  1.00  0.00    -0.088 C  
HETATM   19  C   UNL     1      -5.769  12.094  67.680  1.00  0.00    -0.101 C  
HETATM   20  O   UNL     1      -6.317  13.168  66.921  1.00  0.00    -0.017 OA 
HETATM   21  C   UNL     1      -7.624  13.454  67.483  1.00  0.00    -0.169 C  
HETATM   22  O   UNL     1      -7.677  12.829  68.781  1.00  0.00    -0.093 OA 
BRANCH  21  23
HETATM   23  C   UNL     1      -7.806  14.963  67.675  1.00  0.00    -0.189 A  
HETATM   24 CL   UNL     1      -6.027  15.024  69.794  1.00  0.00    -0.119 Cl 
HETATM   25  C   UNL     1      -7.143  15.714  68.668  1.00  0.00    -0.127 A  
HETATM   26  C   UNL     1      -8.674  15.665  66.810  1.00  0.00    -0.306 A  
HETATM   27  C   UNL     1      -8.866  17.043  66.922  1.00  0.00    -0.251 A  
HETATM   28  C   UNL     1      -7.347  17.097  68.786  1.00  0.00    -0.241 A  
HETATM   29 CL   UNL     1      -8.423  19.455  68.040  1.00  0.00    -0.346 Cl 
HETATM   30  C   UNL     1      -8.200  17.755  67.910  1.00  0.00    -0.237 A  
ENDBRANCH  21  23
BRANCH  21  31
HETATM   31  C   UNL     1      -8.699  12.781  66.590  1.00  0.00    -0.058 C  
BRANCH  31  32
HETATM   32  N   UNL     1      -9.779  12.106  67.273  1.00  0.00    -0.189 NA 
HETATM   33  N   UNL     1     -11.807  11.784  68.118  1.00  0.00    -0.519 NA 
HETATM   34  C   UNL     1      -9.929  10.749  67.410  1.00  0.00    -0.184 A  
HETATM   35  C   UNL     1     -10.932  12.688  67.727  1.00  0.00    -0.234 A  
HETATM   36  C   UNL     1     -11.196  10.575  67.908  1.00  0.00    -0.289 A  
ENDBRANCH  31  32
ENDBRANCH  21  31
ENDBRANCH  17  18
ENDBRANCH  16  17
ENDBRANCH  13  16
ENDBRANCH   7  10
TORSDOF 7
ENDMDL
MODEL      181
REMARK 921   NORMALIZED FREE ENERGY PREDICTED BY IDOCK:   -3.38 KCAL/MOL
REMARK 922        TOTAL FREE ENERGY PREDICTED BY IDOCK:   -5.20 KCAL/MOL
REMARK 923 INTER-LIGAND FREE ENERGY PREDICTED BY IDOCK:   -6.07 KCAL/MOL
REMARK 924 INTRA-LIGAND FREE ENERGY PREDICTED BY IDOCK:    0.87 KCAL/MOL
REMARK 927      BINDING AFFINITY PREDICTED BY RF-SCORE:    0.00 PKD
ROOT
HETATM    1  C   UNL     1     -14.227  15.363  71.549  1.00  0.00    -0.584 C  
HETATM    2  C   UNL     1     -13.665  13.987  71.791  1.00  0.00    -0.395 C  
HETATM    3  O   UNL     1     -14.107  13.287  72.702  1.00  0.00    -0.744 OA 
HETATM    4  N   UNL     1     -12.719  13.533  70.891  1.00  0.00    -0.318 N  
HETATM    5  C   UNL     1     -12.274  12.138  70.983  1.00  0.00    -0.124 C  
HETATM    6  C   UNL     1     -12.009  11.549  69.588  1.00  0.00    -0.339 C  
HETATM    7  N   UNL     1     -11.051  12.413  68.862  1.00  0.00    -0.251 NA 
HETATM    8  C   UNL     1     -11.850  14.400  70.073  1.00  0.00    -0.315 C  
HETATM    9  C   UNL     1     -11.551  13.792  68.689  1.00  0.00    -0.334 C  
ENDROOT
BRANCH   7  10
HETATM   10  C   UNL     1     -10.349  11.874  67.788  1.00  0.00    -0.198 A  
HETATM   11  C   UNL     1      -9.001  12.138  67.568  1.00  0.00    -0.177 A  
HETATM   12  C   UNL     1      -8.346  11.689  66.422  1.00  0.00    -0.084 A  
HETATM   13  C   UNL     1      -9.023  10.967  65.437  1.00  0.00    -0.193 A  
HETATM   14  C   UNL     1     -11.013  11.098  66.820  1.00  0.00    -0.309 A  
HETATM   15  C   UNL     1     -10.364  10.653  65.657  1.00  0.00    -0.285 A  
BRANCH  13  16
HETATM   16  O   UNL     1      -8.460  10.548  64.249  1.00  0.00    -0.176 OA 
BRANCH  16  17
HETATM   17  C   UNL     1      -8.668   9.158  63.977  1.00  0.00    -0.137 C  
BRANCH  17  18
HETATM   18  C   UNL     1      -7.637   8.232  64.605  1.00  0.00    -0.106 C  
HETATM   19  C   UNL     1      -6.461   8.948  65.210  1.00  0.00    -0.067 C  
HETATM   20  O   UNL     1      -6.059   8.103  66.284  1.00  0.00    -0.044 OA 
HETATM   21  C   UNL     1      -7.251   7.415  66.745  1.00  0.00    -0.087 C  
HETATM   22  O   UNL     1      -8.251   7.558  65.716  1.00  0.00    -0.122 OA 
BRANCH  21  23
HETATM   23  C   UNL     1      -6.969   5.921  66.930  1.00  0.00    -0.068 A  
HETATM   24 CL   UNL     1      -5.152   5.888  64.843  1.00  0.00    -0.012 Cl 
HETATM   25  C   UNL     1      -6.067   5.187  66.132  1.00  0.00    -0.030 A  
HETATM   26  C   UNL     1      -7.631   5.221  67.962  1.00  0.00    -0.080 A  
HETATM   27  C   UNL     1      -7.401   3.864  68.193  1.00  0.00    -0.059 A  
HETATM   28  C   UNL     1      -5.846   3.821  66.360  1.00  0.00    -0.023 A  
HETATM   29 CL   UNL     1      -6.211   1.500  67.684  1.00  0.00    -0.024 Cl 
HETATM   30  C   UNL     1      -6.508   3.168  67.391  1.00  0.00    -0.037 A  
ENDBRANCH  21  23
BRANCH  21  31
HETATM   31  C   UNL     1      -7.773   8.138  68.015  1.00  0.00    -0.114 C  
BRANCH  31  32
HETATM   32  N   UNL     1      -6.885   9.102  68.623  1.00  0.00    -0.061 NA 
HETATM   33  N   UNL     1      -5.169   9.873  69.802  1.00  0.00    -0.037 NA 
HETATM   34  C   UNL     1      -6.668  10.388  68.193  1.00  0.00    -0.061 A  
HETATM   35  C   UNL     1      -5.966   8.843  69.604  1.00  0.00    -0.035 A  
HETATM   36  C   UNL     1      -5.590  10.832  68.917  1.00  0.00    -0.040 A  
ENDBRANCH  31  32
ENDBRANCH  21  31
ENDBRANCH  17  18
ENDBRANCH  16  17
ENDBRANCH  13  16
ENDBRANCH   7  10
TORSDOF 7
ENDMDL
MODEL      182
REMARK 921   NORMALIZED FREE ENERGY PREDICTED BY IDOCK:   -3.37 KCAL/MOL
REMARK 922        TOTAL FREE ENERGY PREDICTED BY IDOCK:   -5.18 KCAL/MOL
REMARK 923 INTER-LIGAND FREE ENERGY PREDICTED BY IDOCK:   -5.27 KCAL/MOL
REMARK 924 INTRA-LIGAND FREE ENERGY PREDICTED BY IDOCK:    0.09 KCAL/MOL
REMARK 927      BINDING AFFINITY PREDICTED BY RF-SCORE:    0.00 PKD
ROOT
HETATM    1  C   UNL     1      -5.569   5.199  63.077  1.00  0.00    -0.014 C  
HETATM    2  C   UNL     1      -5.527   6.679  63.353  1.00  0.00    -0.027 C  
HETATM    3  O   UNL     1      -5.476   7.483  62.423  1.00  0.00    -0.045 OA 
HETATM    4  N   UNL     1      -5.649   7.070  64.674  1.00  0.00    -0.032 N  
HETATM    5  C   UNL     1      -5.791   8.500  64.973  1.00  0.00    -0.048 C  
HETATM    6  C   UNL     1      -6.738   8.724  66.162  1.00  0.00    -0.073 C  
HETATM    7  N   UNL     1      -6.266   7.936  67.323  1.00  0.00    -0.053 NA 
HETATM    8  C   UNL     1      -5.296   6.234  65.835  1.00  0.00    -0.013 C  
HETATM    9  C   UNL     1      -6.220   6.486  67.042  1.00  0.00    -0.040 C  
ENDROOT
BRANCH   7  10
HETATM   10  C   UNL     1      -6.695   8.302  68.596  1.00  0.00    -0.059 A  
HETATM   11  C   UNL     1      -5.859   8.258  69.707  1.00  0.00    -0.026 A  
HETATM   12  C   UNL     1      -6.338   8.511  70.992  1.00  0.00    -0.043 A  
HETATM   13  C   UNL     1      -7.684   8.806  71.218  1.00  0.00    -0.120 A  
HETATM   14  C   UNL     1      -8.039   8.655  68.822  1.00  0.00    -0.116 A  
HETATM   15  C   UNL     1      -8.531   8.899  70.114  1.00  0.00    -0.150 A  
BRANCH  13  16
HETATM   16  O   UNL     1      -8.243   9.002  72.464  1.00  0.00    -0.331 OA 
BRANCH  16  17
HETATM   17  C   UNL     1      -7.839   8.028  73.431  1.00  0.00    -0.175 C  
BRANCH  17  18
HETATM   18  C   UNL     1      -7.932   6.587  72.951  1.00  0.00    -0.105 C  
HETATM   19  C   UNL     1      -8.177   5.592  74.051  1.00  0.00    -0.109 C  
HETATM   20  O   UNL     1      -8.917   4.552  73.416  1.00  0.00    -0.105 OA 
HETATM   21  C   UNL     1      -9.668   5.171  72.340  1.00  0.00    -0.153 C  
HETATM   22  O   UNL     1      -9.086   6.468  72.102  1.00  0.00    -0.140 OA 
BRANCH  21  23
HETATM   23  C   UNL     1      -9.539   4.348  71.055  1.00  0.00    -0.249 A  
HETATM   24 CL   UNL     1     -10.822   6.284  69.550  1.00  0.00    -0.362 Cl 
HETATM   25  C   UNL     1     -10.024   4.770  69.799  1.00  0.00    -0.238 A  
HETATM   26  C   UNL     1      -8.888   3.096  71.104  1.00  0.00    -0.140 A  
HETATM   27  C   UNL     1      -8.721   2.309  69.963  1.00  0.00    -0.117 A  
HETATM   28  C   UNL     1      -9.865   3.973  68.656  1.00  0.00    -0.046 A  
HETATM   29 CL   UNL     1      -8.992   1.792  67.332  1.00  0.00    -0.150 Cl 
HETATM   30  C   UNL     1      -9.210   2.752  68.742  1.00  0.00    -0.169 A  
ENDBRANCH  21  23
BRANCH  21  31
HETATM   31  C   UNL     1     -11.126   5.389  72.824  1.00  0.00    -0.294 C  
BRANCH  31  32
HETATM   32  N   UNL     1     -11.761   6.627  72.431  1.00  0.00    -0.258 NA 
HETATM   33  N   UNL     1     -13.323   7.980  71.620  1.00  0.00    -0.340 NA 
HETATM   34  C   UNL     1     -11.499   7.871  72.947  1.00  0.00    -0.297 A  
HETATM   35  C   UNL     1     -12.861   6.747  71.624  1.00  0.00    -0.276 A  
HETATM   36  C   UNL     1     -12.491   8.682  72.453  1.00  0.00    -0.362 A  
ENDBRANCH  31  32
ENDBRANCH  21  31
ENDBRANCH  17  18
ENDBRANCH  16  17
ENDBRANCH  13  16
ENDBRANCH   7  10
TORSDOF 7
ENDMDL
MODEL      183
REMARK 921   NORMALIZED FREE ENERGY PREDICTED BY IDOCK:   -3.29 KCAL/MOL
REMARK 922        TOTAL FREE ENERGY PREDICTED BY IDOCK:   -5.06 KCAL/MOL
REMARK 923 INTER-LIGAND FREE ENERGY PREDICTED BY IDOCK:   -4.58 KCAL/MOL
REMARK 924 INTRA-LIGAND FREE ENERGY PREDICTED BY IDOCK:   -0.48 KCAL/MOL
REMARK 927      BINDING AFFINITY PREDICTED BY RF-SCORE:    0.00 PKD
ROOT
HETATM    1  C   UNL     1      -7.178   6.451  65.572  1.00  0.00    -0.070 C  
HETATM    2  C   UNL     1      -7.685   5.981  66.910  1.00  0.00    -0.100 C  
HETATM    3  O   UNL     1      -7.157   5.022  67.472  1.00  0.00    -0.064 OA 
HETATM    4  N   UNL     1      -8.685   6.734  67.497  1.00  0.00    -0.119 N  
HETATM    5  C   UNL     1      -9.086   6.419  68.873  1.00  0.00    -0.129 C  
HETATM    6  C   UNL     1      -9.441   7.696  69.651  1.00  0.00    -0.156 C  
HETATM    7  N   UNL     1     -10.473   8.454  68.909  1.00  0.00    -0.213 NA 
HETATM    8  C   UNL     1      -9.635   7.590  66.764  1.00  0.00    -0.206 C  
HETATM    9  C   UNL     1     -10.023   8.851  67.560  1.00  0.00    -0.203 C  
ENDROOT
BRANCH   7  10
HETATM   10  C   UNL     1     -11.241   9.387  69.601  1.00  0.00    -0.074 A  
HETATM   11  C   UNL     1     -11.830  10.481  68.974  1.00  0.00    -0.183 A  
HETATM   12  C   UNL     1     -12.492  11.470  69.701  1.00  0.00    -0.089 A  
HETATM   13  C   UNL     1     -12.578  11.410  71.093  1.00  0.00    -0.386 A  
HETATM   14  C   UNL     1     -11.379   9.302  70.998  1.00  0.00    -0.390 A  
HETATM   15  C   UNL     1     -12.033  10.300  71.739  1.00  0.00    -0.079 A  
BRANCH  13  16
HETATM   16  O   UNL     1     -13.157  12.382  71.884  1.00  0.00    -0.424 OA 
BRANCH  16  17
HETATM   17  C   UNL     1     -12.300  13.500  72.133  1.00  0.00     0.291 C  
BRANCH  17  18
HETATM   18  C   UNL     1     -12.163  14.462  70.962  1.00  0.00    -0.351 C  
HETATM   19  C   UNL     1     -11.714  15.842  71.355  1.00  0.00    -0.467 C  
HETATM   20  O   UNL     1     -10.986  16.303  70.220  1.00  0.00    -0.347 OA 
HETATM   21  C   UNL     1     -10.419  15.130  69.582  1.00  0.00    -0.250 C  
HETATM   22  O   UNL     1     -11.118  13.981  70.101  1.00  0.00    -0.039 OA 
BRANCH  21  23
HETATM   23  C   UNL     1     -10.647  15.181  68.068  1.00  0.00    -0.258 A  
HETATM   24 CL   UNL     1      -9.832  12.555  67.742  1.00  0.00    -0.199 Cl 
HETATM   25  C   UNL     1     -10.407  14.094  67.201  1.00  0.00    -0.265 A  
HETATM   26  C   UNL     1     -11.137  16.371  67.487  1.00  0.00    -0.109 A  
HETATM   27  C   UNL     1     -11.383  16.472  66.117  1.00  0.00     0.590 A  
HETATM   28  C   UNL     1     -10.645  14.202  65.823  1.00  0.00    -0.306 A  
HETATM   29 CL   UNL     1     -11.455  15.503  63.603  1.00  0.00     0.766 Cl 
HETATM   30  C   UNL     1     -11.137  15.386  65.289  1.00  0.00    -0.360 A  
ENDBRANCH  21  23
BRANCH  21  31
HETATM   31  C   UNL     1      -8.932  15.011  70.009  1.00  0.00     0.429 C  
BRANCH  31  32
HETATM   32  N   UNL     1      -7.953  15.586  69.113  1.00  0.00    -0.205 NA 
HETATM   33  N   UNL     1      -6.560  17.095  68.273  1.00  0.00    -0.154 NA 
HETATM   34  C   UNL     1      -7.052  14.892  68.344  1.00  0.00    -0.113 A  
HETATM   35  C   UNL     1      -7.624  16.912  69.026  1.00  0.00    -0.210 A  
HETATM   36  C   UNL     1      -6.189  15.842  67.857  1.00  0.00    -0.136 A  
ENDBRANCH  31  32
ENDBRANCH  21  31
ENDBRANCH  17  18
ENDBRANCH  16  17
ENDBRANCH  13  16
ENDBRANCH   7  10
TORSDOF 7
ENDMDL
MODEL      184
REMARK 921   NORMALIZED FREE ENERGY PREDICTED BY IDOCK:   -3.27 KCAL/MOL
REMARK 922        TOTAL FREE ENERGY PREDICTED BY IDOCK:   -5.03 KCAL/MOL
REMARK 923 INTER-LIGAND FREE ENERGY PREDICTED BY IDOCK:   -4.83 KCAL/MOL
REMARK 924 INTRA-LIGAND FREE ENERGY PREDICTED BY IDOCK:   -0.21 KCAL/MOL
REMARK 927      BINDING AFFINITY PREDICTED BY RF-SCORE:    0.00 PKD
ROOT
HETATM    1  C   UNL     1      -7.245  19.393  66.055  1.00  0.00    -0.301 C  
HETATM    2  C   UNL     1      -8.373  18.460  66.412  1.00  0.00    -0.251 C  
HETATM    3  O   UNL     1      -9.534  18.754  66.130  1.00  0.00    -0.429 OA 
HETATM    4  N   UNL     1      -8.022  17.244  66.969  1.00  0.00    -0.203 N  
HETATM    5  C   UNL     1      -9.070  16.236  67.170  1.00  0.00    -0.202 C  
HETATM    6  C   UNL     1      -8.528  14.819  66.920  1.00  0.00    -0.198 C  
HETATM    7  N   UNL     1      -7.337  14.591  67.770  1.00  0.00    -0.157 NA 
HETATM    8  C   UNL     1      -6.774  16.985  67.708  1.00  0.00    -0.148 C  
HETATM    9  C   UNL     1      -6.251  15.552  67.492  1.00  0.00    -0.111 C  
ENDROOT
BRANCH   7  10
HETATM   10  C   UNL     1      -6.948  13.280  68.032  1.00  0.00    -0.120 A  
HETATM   11  C   UNL     1      -6.066  12.585  67.210  1.00  0.00    -0.119 A  
HETATM   12  C   UNL     1      -5.782  11.236  67.420  1.00  0.00    -0.057 A  
HETATM   13  C   UNL     1      -6.385  10.522  68.458  1.00  0.00    -0.050 A  
HETATM   14  C   UNL     1      -7.509  12.571  69.110  1.00  0.00     0.182 A  
HETATM   15  C   UNL     1      -7.238  11.210  69.320  1.00  0.00    -0.112 A  
BRANCH  13  16
HETATM   16  O   UNL     1      -6.205   9.173  68.686  1.00  0.00    -0.045 OA 
BRANCH  16  17
HETATM   17  C   UNL     1      -7.085   8.640  69.682  1.00  0.00    -0.055 C  
BRANCH  17  18
HETATM   18  C   UNL     1      -8.092   7.628  69.156  1.00  0.00    -0.125 C  
HETATM   19  C   UNL     1      -9.513   8.117  69.171  1.00  0.00    -0.155 C  
HETATM   20  O   UNL     1     -10.121   7.443  68.073  1.00  0.00    -0.165 OA 
HETATM   21  C   UNL     1      -9.075   7.211  67.094  1.00  0.00    -0.129 C  
HETATM   22  O   UNL     1      -7.813   7.393  67.766  1.00  0.00    -0.110 OA 
BRANCH  21  23
HETATM   23  C   UNL     1      -9.136   5.770  66.578  1.00  0.00    -0.144 A  
HETATM   24 CL   UNL     1      -9.624   4.762  69.109  1.00  0.00    -0.219 Cl 
HETATM   25  C   UNL     1      -9.367   4.649  67.403  1.00  0.00    -0.143 A  
HETATM   26  C   UNL     1      -8.965   5.528  65.197  1.00  0.00    -0.036 A  
HETATM   27  C   UNL     1      -9.029   4.239  64.665  1.00  0.00    -0.146 A  
HETATM   28  C   UNL     1      -9.420   3.354  66.866  1.00  0.00    -0.174 A  
HETATM   29 CL   UNL     1      -9.353   1.570  64.845  1.00  0.00    -0.114 Cl 
HETATM   30  C   UNL     1      -9.258   3.156  65.501  1.00  0.00    -0.145 A  
ENDBRANCH  21  23
BRANCH  21  31
HETATM   31  C   UNL     1      -9.185   8.298  65.992  1.00  0.00    -0.166 C  
BRANCH  31  32
HETATM   32  N   UNL     1      -7.950   8.715  65.368  1.00  0.00    -0.104 NA 
HETATM   33  N   UNL     1      -5.983   8.530  64.356  1.00  0.00    -0.064 NA 
HETATM   34  C   UNL     1      -7.721   9.918  64.748  1.00  0.00    -0.138 A  
HETATM   35  C   UNL     1      -6.867   7.917  65.115  1.00  0.00    -0.051 A  
HETATM   36  C   UNL     1      -6.515   9.769  64.110  1.00  0.00    -0.119 A  
ENDBRANCH  31  32
ENDBRANCH  21  31
ENDBRANCH  17  18
ENDBRANCH  16  17
ENDBRANCH  13  16
ENDBRANCH   7  10
TORSDOF 7
ENDMDL
MODEL      185
REMARK 921   NORMALIZED FREE ENERGY PREDICTED BY IDOCK:   -3.17 KCAL/MOL
REMARK 922        TOTAL FREE ENERGY PREDICTED BY IDOCK:   -4.90 KCAL/MOL
REMARK 923 INTER-LIGAND FREE ENERGY PREDICTED BY IDOCK:   -5.19 KCAL/MOL
REMARK 924 INTRA-LIGAND FREE ENERGY PREDICTED BY IDOCK:    0.30 KCAL/MOL
REMARK 927      BINDING AFFINITY PREDICTED BY RF-SCORE:    0.00 PKD
ROOT
HETATM    1  C   UNL     1     -10.129   1.734  63.703  1.00  0.00    -0.128 C  
HETATM    2  C   UNL     1      -8.837   2.507  63.656  1.00  0.00    -0.086 C  
HETATM    3  O   UNL     1      -7.931   2.154  62.902  1.00  0.00    -0.058 OA 
HETATM    4  N   UNL     1      -8.773   3.661  64.415  1.00  0.00    -0.103 N  
HETATM    5  C   UNL     1      -7.605   4.537  64.264  1.00  0.00    -0.072 C  
HETATM    6  C   UNL     1      -8.005   6.016  64.386  1.00  0.00    -0.123 C  
HETATM    7  N   UNL     1      -8.724   6.228  65.662  1.00  0.00    -0.144 NA 
HETATM    8  C   UNL     1      -9.584   3.924  65.617  1.00  0.00    -0.182 C  
HETATM    9  C   UNL     1      -9.952   5.413  65.762  1.00  0.00     0.054 C  
ENDROOT
BRANCH   7  10
HETATM   10  C   UNL     1      -8.799   7.519  66.178  1.00  0.00    -0.159 A  
HETATM   11  C   UNL     1      -7.915   8.526  65.801  1.00  0.00    -0.107 A  
HETATM   12  C   UNL     1      -7.928   9.776  66.417  1.00  0.00    -0.109 A  
HETATM   13  C   UNL     1      -8.822  10.066  67.450  1.00  0.00    -0.128 A  
HETATM   14  C   UNL     1      -9.735   7.834  67.180  1.00  0.00    -0.243 A  
HETATM   15  C   UNL     1      -9.746   9.087  67.814  1.00  0.00    -0.190 A  
BRANCH  13  16
HETATM   16  O   UNL     1      -8.850  11.255  68.151  1.00  0.00    -0.145 OA 
BRANCH  16  17
HETATM   17  C   UNL     1      -9.747  12.223  67.596  1.00  0.00    -0.194 C  
BRANCH  17  18
HETATM   18  C   UNL     1      -9.145  13.608  67.414  1.00  0.00    -0.222 C  
HETATM   19  C   UNL     1      -9.716  14.374  66.253  1.00  0.00    -0.310 C  
HETATM   20  O   UNL     1      -9.620  15.737  66.659  1.00  0.00    -0.224 OA 
HETATM   21  C   UNL     1      -9.716  15.750  68.107  1.00  0.00    -0.211 C  
HETATM   22  O   UNL     1      -9.482  14.403  68.563  1.00  0.00    -0.206 OA 
BRANCH  21  23
HETATM   23  C   UNL     1      -8.632  16.650  68.707  1.00  0.00    -0.261 A  
HETATM   24 CL   UNL     1      -7.358  14.508  69.911  1.00  0.00     0.021 Cl 
HETATM   25  C   UNL     1      -7.573  16.177  69.510  1.00  0.00    -0.052 A  
HETATM   26  C   UNL     1      -8.669  18.037  68.444  1.00  0.00    -0.301 A  
HETATM   27  C   UNL     1      -7.698  18.906  68.947  1.00  0.00    -0.321 A  
HETATM   28  C   UNL     1      -6.606  17.053  70.023  1.00  0.00     0.304 A  
HETATM   29 CL   UNL     1      -5.463  19.476  70.341  1.00  0.00    -0.249 Cl 
HETATM   30  C   UNL     1      -6.669  18.410  69.734  1.00  0.00     0.073 A  
ENDBRANCH  21  23
BRANCH  21  31
HETATM   31  C   UNL     1     -11.167  16.136  68.497  1.00  0.00    -0.365 C  
BRANCH  31  32
HETATM   32  N   UNL     1     -11.859  15.235  69.391  1.00  0.00    -0.333 NA 
HETATM   33  N   UNL     1     -13.101  14.583  71.111  1.00  0.00    -0.347 NA 
HETATM   34  C   UNL     1     -12.321  13.981  69.079  1.00  0.00    -0.104 A  
HETATM   35  C   UNL     1     -12.344  15.548  70.632  1.00  0.00    -0.416 A  
HETATM   36  C   UNL     1     -13.105  13.611  70.144  1.00  0.00     0.446 A  
ENDBRANCH  31  32
ENDBRANCH  21  31
ENDBRANCH  17  18
ENDBRANCH  16  17
ENDBRANCH  13  16
ENDBRANCH   7  10
TORSDOF 7
ENDMDL
MODEL      186
REMARK 921   NORMALIZED FREE ENERGY PREDICTED BY IDOCK:   -3.15 KCAL/MOL
REMARK 922        TOTAL FREE ENERGY PREDICTED BY IDOCK:   -4.87 KCAL/MOL
REMARK 923 INTER-LIGAND FREE ENERGY PREDICTED BY IDOCK:   -3.49 KCAL/MOL
REMARK 924 INTRA-LIGAND FREE ENERGY PREDICTED BY IDOCK:   -1.38 KCAL/MOL
REMARK 927      BINDING AFFINITY PREDICTED BY RF-SCORE:    0.00 PKD
ROOT
HETATM    1  C   UNL     1      -6.624  17.822  70.509  1.00  0.00     1.243 C  
HETATM    2  C   UNL     1      -7.348  18.140  69.227  1.00  0.00    -0.024 C  
HETATM    3  O   UNL     1      -7.214  19.242  68.695  1.00  0.00    -0.302 OA 
HETATM    4  N   UNL     1      -8.069  17.112  68.647  1.00  0.00    -0.260 N  
HETATM    5  C   UNL     1      -8.643  17.322  67.313  1.00  0.00    -0.203 C  
HETATM    6  C   UNL     1      -8.594  16.031  66.481  1.00  0.00    -0.309 C  
HETATM    7  N   UNL     1      -9.257  14.938  67.228  1.00  0.00    -0.197 NA 
HETATM    8  C   UNL     1      -8.622  15.957  69.376  1.00  0.00    -0.195 C  
HETATM    9  C   UNL     1      -8.611  14.669  68.529  1.00  0.00    -0.170 C  
ENDROOT
BRANCH   7  10
HETATM   10  C   UNL     1      -9.707  13.826  66.523  1.00  0.00    -0.293 A  
HETATM   11  C   UNL     1      -9.956  12.603  67.138  1.00  0.00    -0.217 A  
HETATM   12  C   UNL     1     -10.288  11.468  66.398  1.00  0.00    -0.277 A  
HETATM   13  C   UNL     1     -10.369  11.510  65.005  1.00  0.00    -0.281 A  
HETATM   14  C   UNL     1      -9.844  13.876  65.123  1.00  0.00    -0.135 A  
HETATM   15  C   UNL     1     -10.165  12.735  64.371  1.00  0.00    -0.344 A  
BRANCH  13  16
HETATM   16  O   UNL     1     -10.626  10.416  64.203  1.00  0.00    -0.037 OA 
BRANCH  16  17
HETATM   17  C   UNL     1      -9.665  10.237  63.157  1.00  0.00    -0.167 C  
BRANCH  17  18
HETATM   18  C   UNL     1      -8.560   9.242  63.479  1.00  0.00    -0.191 C  
HETATM   19  C   UNL     1      -7.320   9.871  64.051  1.00  0.00    -0.132 C  
HETATM   20  O   UNL     1      -6.784   8.862  64.901  1.00  0.00    -0.069 OA 
HETATM   21  C   UNL     1      -7.906   8.074  65.376  1.00  0.00    -0.106 C  
HETATM   22  O   UNL     1      -9.028   8.369  64.520  1.00  0.00     0.110 OA 
BRANCH  21  23
HETATM   23  C   UNL     1      -7.598   6.578  65.259  1.00  0.00    -0.088 A  
HETATM   24 CL   UNL     1     -10.122   5.873  66.150  1.00  0.00    -0.082 Cl 
HETATM   25  C   UNL     1      -8.518   5.559  65.584  1.00  0.00    -0.141 A  
HETATM   26  C   UNL     1      -6.331   6.173  64.787  1.00  0.00    -0.034 A  
HETATM   27  C   UNL     1      -5.999   4.825  64.640  1.00  0.00    -0.018 A  
HETATM   28  C   UNL     1      -8.178   4.206  65.446  1.00  0.00    -0.105 A  
HETATM   29 CL   UNL     1      -6.523   2.185  64.773  1.00  0.00    -0.019 Cl 
HETATM   30  C   UNL     1      -6.924   3.846  64.969  1.00  0.00    -0.054 A  
ENDBRANCH  21  23
BRANCH  21  31
HETATM   31  C   UNL     1      -8.266   8.550  66.808  1.00  0.00    -0.105 C  
BRANCH  31  32
HETATM   32  N   UNL     1      -7.213   8.487  67.796  1.00  0.00    -0.083 NA 
HETATM   33  N   UNL     1      -5.609   9.206  69.152  1.00  0.00    -0.036 NA 
HETATM   34  C   UNL     1      -7.062   7.522  68.760  1.00  0.00    -0.080 A  
HETATM   35  C   UNL     1      -6.304   9.475  68.066  1.00  0.00    -0.057 A  
HETATM   36  C   UNL     1      -6.085   8.000  69.598  1.00  0.00    -0.030 A  
ENDBRANCH  31  32
ENDBRANCH  21  31
ENDBRANCH  17  18
ENDBRANCH  16  17
ENDBRANCH  13  16
ENDBRANCH   7  10
TORSDOF 7
ENDMDL
MODEL      187
REMARK 921   NORMALIZED FREE ENERGY PREDICTED BY IDOCK:   -3.11 KCAL/MOL
REMARK 922        TOTAL FREE ENERGY PREDICTED BY IDOCK:   -4.82 KCAL/MOL
REMARK 923 INTER-LIGAND FREE ENERGY PREDICTED BY IDOCK:   -3.94 KCAL/MOL
REMARK 924 INTRA-LIGAND FREE ENERGY PREDICTED BY IDOCK:   -0.87 KCAL/MOL
REMARK 927      BINDING AFFINITY PREDICTED BY RF-SCORE:    0.00 PKD
ROOT
HETATM    1  C   UNL     1      -7.113  14.870  70.486  1.00  0.00     0.439 C  
HETATM    2  C   UNL     1      -6.222  14.672  69.287  1.00  0.00    -0.111 C  
HETATM    3  O   UNL     1      -5.219  15.368  69.137  1.00  0.00    -0.095 OA 
HETATM    4  N   UNL     1      -6.538  13.622  68.444  1.00  0.00    -0.085 N  
HETATM    5  C   UNL     1      -5.602  13.281  67.366  1.00  0.00     0.106 C  
HETATM    6  C   UNL     1      -5.554  11.762  67.135  1.00  0.00    -0.121 C  
HETATM    7  N   UNL     1      -6.925  11.258  66.890  1.00  0.00    -0.128 NA 
HETATM    8  C   UNL     1      -7.883  13.036  68.295  1.00  0.00    -0.143 C  
HETATM    9  C   UNL     1      -7.835  11.520  68.023  1.00  0.00    -0.126 C  
ENDROOT
BRANCH   7  10
HETATM   10  C   UNL     1      -7.079  10.033  66.248  1.00  0.00    -0.105 A  
HETATM   11  C   UNL     1      -6.293   8.926  66.554  1.00  0.00    -0.062 A  
HETATM   12  C   UNL     1      -6.379   7.745  65.818  1.00  0.00    -0.042 A  
HETATM   13  C   UNL     1      -7.248   7.630  64.731  1.00  0.00    -0.067 A  
HETATM   14  C   UNL     1      -7.993   9.893  65.188  1.00  0.00    -0.139 A  
HETATM   15  C   UNL     1      -8.076   8.711  64.434  1.00  0.00    -0.156 A  
BRANCH  13  16
HETATM   16  O   UNL     1      -7.339   6.519  63.917  1.00  0.00    -0.064 OA 
BRANCH  16  17
HETATM   17  C   UNL     1      -7.592   5.306  64.633  1.00  0.00    -0.080 C  
BRANCH  17  18
HETATM   18  C   UNL     1      -8.773   5.374  65.590  1.00  0.00    -0.152 C  
HETATM   19  C   UNL     1      -9.802   4.300  65.368  1.00  0.00    -0.211 C  
HETATM   20  O   UNL     1     -10.349   4.074  66.664  1.00  0.00     0.067 OA 
HETATM   21  C   UNL     1      -9.300   4.375  67.619  1.00  0.00    -0.154 C  
HETATM   22  O   UNL     1      -8.290   5.131  66.922  1.00  0.00    -0.108 OA 
BRANCH  21  23
HETATM   23  C   UNL     1      -9.844   5.244  68.756  1.00  0.00    -0.224 A  
HETATM   24 CL   UNL     1     -11.062   6.993  66.990  1.00  0.00    -0.387 Cl 
HETATM   25  C   UNL     1     -10.619   6.406  68.555  1.00  0.00    -0.252 A  
HETATM   26  C   UNL     1      -9.579   4.873  70.093  1.00  0.00    -0.263 A  
HETATM   27  C   UNL     1     -10.064   5.614  71.171  1.00  0.00    -0.262 A  
HETATM   28  C   UNL     1     -11.096   7.155  69.641  1.00  0.00    -0.206 A  
HETATM   29 CL   UNL     1     -11.435   7.658  72.269  1.00  0.00    -0.336 Cl 
HETATM   30  C   UNL     1     -10.823   6.753  70.941  1.00  0.00    -0.249 A  
ENDBRANCH  21  23
BRANCH  21  31
HETATM   31  C   UNL     1      -8.658   3.039  68.078  1.00  0.00    -0.094 C  
BRANCH  31  32
HETATM   32  N   UNL     1      -7.214   3.003  68.145  1.00  0.00    -0.049 NA 
HETATM   33  N   UNL     1      -5.191   2.937  69.055  1.00  0.00    -0.011 NA 
HETATM   34  C   UNL     1      -6.369   2.530  67.172  1.00  0.00    -0.032 A  
HETATM   35  C   UNL     1      -6.455   3.249  69.257  1.00  0.00    -0.033 A  
HETATM   36  C   UNL     1      -5.133   2.475  67.766  1.00  0.00    -0.008 A  
ENDBRANCH  31  32
ENDBRANCH  21  31
ENDBRANCH  17  18
ENDBRANCH  16  17
ENDBRANCH  13  16
ENDBRANCH   7  10
TORSDOF 7
ENDMDL
MODEL      188
REMARK 921   NORMALIZED FREE ENERGY PREDICTED BY IDOCK:   -3.01 KCAL/MOL
REMARK 922        TOTAL FREE ENERGY PREDICTED BY IDOCK:   -4.67 KCAL/MOL
REMARK 923 INTER-LIGAND FREE ENERGY PREDICTED BY IDOCK:   -3.29 KCAL/MOL
REMARK 924 INTRA-LIGAND FREE ENERGY PREDICTED BY IDOCK:   -1.38 KCAL/MOL
REMARK 927      BINDING AFFINITY PREDICTED BY RF-SCORE:    0.00 PKD
ROOT
HETATM    1  C   UNL     1      -6.868  14.158  69.871  1.00  0.00     0.025 C  
HETATM    2  C   UNL     1      -5.933  13.438  70.807  1.00  0.00    -0.078 C  
HETATM    3  O   UNL     1      -5.305  14.064  71.660  1.00  0.00    -0.169 OA 
HETATM    4  N   UNL     1      -5.901  12.058  70.716  1.00  0.00    -0.086 N  
HETATM    5  C   UNL     1      -5.142  11.306  71.722  1.00  0.00     0.048 C  
HETATM    6  C   UNL     1      -5.842   9.981  72.066  1.00  0.00     0.336 C  
HETATM    7  N   UNL     1      -6.075   9.211  70.824  1.00  0.00    -0.043 NA 
HETATM    8  C   UNL     1      -6.257  11.285  69.513  1.00  0.00    -0.099 C  
HETATM    9  C   UNL     1      -6.923   9.938  69.857  1.00  0.00    -0.105 C  
ENDROOT
BRANCH   7  10
HETATM   10  C   UNL     1      -6.292   7.839  70.921  1.00  0.00    -0.037 A  
HETATM   11  C   UNL     1      -5.472   6.907  70.294  1.00  0.00    -0.023 A  
HETATM   12  C   UNL     1      -5.775   5.546  70.302  1.00  0.00    -0.020 A  
HETATM   13  C   UNL     1      -6.925   5.063  70.930  1.00  0.00    -0.048 A  
HETATM   14  C   UNL     1      -7.420   7.342  71.600  1.00  0.00    -0.084 A  
HETATM   15  C   UNL     1      -7.738   5.974  71.602  1.00  0.00    -0.101 A  
BRANCH  13  16
HETATM   16  O   UNL     1      -7.324   3.742  70.923  1.00  0.00    -0.037 OA 
BRANCH  16  17
HETATM   17  C   UNL     1      -8.512   3.509  70.160  1.00  0.00    -0.059 C  
BRANCH  17  18
HETATM   18  C   UNL     1      -8.312   3.554  68.652  1.00  0.00    -0.077 C  
HETATM   19  C   UNL     1      -9.287   2.707  67.881  1.00  0.00    -0.194 C  
HETATM   20  O   UNL     1      -9.433   3.394  66.641  1.00  0.00    -0.185 OA 
HETATM   21  C   UNL     1      -9.215   4.802  66.914  1.00  0.00    -0.126 C  
HETATM   22  O   UNL     1      -8.573   4.894  68.202  1.00  0.00    -0.102 OA 
BRANCH  21  23
HETATM   23  C   UNL     1      -8.275   5.410  65.870  1.00  0.00    -0.119 A  
HETATM   24 CL   UNL     1      -9.681   4.274  63.774  1.00  0.00    -0.114 Cl 
HETATM   25  C   UNL     1      -8.415   5.218  64.479  1.00  0.00    -0.133 A  
HETATM   26  C   UNL     1      -7.205   6.225  66.301  1.00  0.00    -0.069 A  
HETATM   27  C   UNL     1      -6.327   6.823  65.396  1.00  0.00    -0.042 A  
HETATM   28  C   UNL     1      -7.524   5.811  63.572  1.00  0.00    -0.068 A  
HETATM   29 CL   UNL     1      -5.419   7.364  62.916  1.00  0.00    -0.041 Cl 
HETATM   30  C   UNL     1      -6.490   6.615  64.034  1.00  0.00    -0.038 A  
ENDBRANCH  21  23
BRANCH  21  31
HETATM   31  C   UNL     1     -10.597   5.499  67.024  1.00  0.00    -0.260 C  
BRANCH  31  32
HETATM   32  N   UNL     1     -10.611   6.821  67.608  1.00  0.00    -0.225 NA 
HETATM   33  N   UNL     1     -10.315   8.408  69.132  1.00  0.00    -0.219 NA 
HETATM   34  C   UNL     1     -10.573   8.010  66.924  1.00  0.00    -0.254 A  
HETATM   35  C   UNL     1     -10.467   7.114  68.937  1.00  0.00    -0.207 A  
HETATM   36  C   UNL     1     -10.364   8.970  67.883  1.00  0.00    -0.235 A  
ENDBRANCH  31  32
ENDBRANCH  21  31
ENDBRANCH  17  18
ENDBRANCH  16  17
ENDBRANCH  13  16
ENDBRANCH   7  10
TORSDOF 7
ENDMDL
MODEL      189
REMARK 921   NORMALIZED FREE ENERGY PREDICTED BY IDOCK:   -2.68 KCAL/MOL
REMARK 922        TOTAL FREE ENERGY PREDICTED BY IDOCK:   -4.21 KCAL/MOL
REMARK 923 INTER-LIGAND FREE ENERGY PREDICTED BY IDOCK:   -5.00 KCAL/MOL
REMARK 924 INTRA-LIGAND FREE ENERGY PREDICTED BY IDOCK:    0.79 KCAL/MOL
REMARK 927      BINDING AFFINITY PREDICTED BY RF-SCORE:    0.00 PKD
ROOT
HETATM    1  C   UNL     1     -11.266   2.184  73.566  1.00  0.00    -0.310 C  
HETATM    2  C   UNL     1     -10.099   3.127  73.437  1.00  0.00    -0.118 C  
HETATM    3  O   UNL     1      -8.948   2.711  73.569  1.00  0.00    -0.080 OA 
HETATM    4  N   UNL     1     -10.387   4.430  73.073  1.00  0.00    -0.170 N  
HETATM    5  C   UNL     1      -9.274   5.336  72.765  1.00  0.00    -0.133 C  
HETATM    6  C   UNL     1      -9.644   6.296  71.624  1.00  0.00    -0.154 C  
HETATM    7  N   UNL     1     -10.893   7.013  71.969  1.00  0.00    -0.219 NA 
HETATM    8  C   UNL     1     -11.678   5.103  73.305  1.00  0.00    -0.011 C  
HETATM    9  C   UNL     1     -12.031   6.097  72.182  1.00  0.00    -0.260 C  
ENDROOT
BRANCH   7  10
HETATM   10  C   UNL     1     -11.179   8.207  71.313  1.00  0.00    -0.260 A  
HETATM   11  C   UNL     1     -10.222   9.198  71.115  1.00  0.00    -0.384 A  
HETATM   12  C   UNL     1     -10.555  10.435  70.565  1.00  0.00     0.001 A  
HETATM   13  C   UNL     1     -11.870  10.736  70.203  1.00  0.00    -0.343 A  
HETATM   14  C   UNL     1     -12.491   8.494  70.895  1.00  0.00    -0.004 A  
HETATM   15  C   UNL     1     -12.837   9.743  70.352  1.00  0.00     0.088 A  
BRANCH  13  16
HETATM   16  O   UNL     1     -12.287  11.959  69.716  1.00  0.00    -0.187 OA 
BRANCH  16  17
HETATM   17  C   UNL     1     -11.338  12.578  68.841  1.00  0.00    -0.297 C  
BRANCH  17  18
HETATM   18  C   UNL     1     -11.009  11.769  67.595  1.00  0.00    -0.233 C  
HETATM   19  C   UNL     1     -10.827  12.601  66.357  1.00  0.00    -0.269 C  
HETATM   20  O   UNL     1      -9.885  11.865  65.582  1.00  0.00    -0.235 OA 
HETATM   21  C   UNL     1      -9.050  11.137  66.519  1.00  0.00    -0.182 C  
HETATM   22  O   UNL     1      -9.731  11.139  67.790  1.00  0.00    -0.167 OA 
BRANCH  21  23
HETATM   23  C   UNL     1      -8.885   9.682  66.071  1.00  0.00    -0.178 A  
HETATM   24 CL   UNL     1      -9.197   8.731  68.651  1.00  0.00    -0.141 Cl 
HETATM   25  C   UNL     1      -8.933   8.579  66.949  1.00  0.00    -0.143 A  
HETATM   26  C   UNL     1      -8.683   9.405  64.701  1.00  0.00    -0.229 A  
HETATM   27  C   UNL     1      -8.546   8.098  64.229  1.00  0.00     0.145 A  
HETATM   28  C   UNL     1      -8.783   7.268  66.473  1.00  0.00    -0.141 A  
HETATM   29 CL   UNL     1      -8.444   5.423  64.536  1.00  0.00    -0.137 Cl 
HETATM   30  C   UNL     1      -8.597   7.034  65.117  1.00  0.00     0.064 A  
ENDBRANCH  21  23
BRANCH  21  31
HETATM   31  C   UNL     1      -7.719  11.915  66.695  1.00  0.00     0.018 C  
BRANCH  31  32
HETATM   32  N   UNL     1      -6.924  11.584  67.855  1.00  0.00    -0.071 NA 
HETATM   33  N   UNL     1      -5.198  10.824  69.027  1.00  0.00    -0.042 NA 
HETATM   34  C   UNL     1      -7.004  12.178  69.090  1.00  0.00    -0.053 A  
HETATM   35  C   UNL     1      -5.827  10.765  67.871  1.00  0.00    -0.042 A  
HETATM   36  C   UNL     1      -5.915  11.713  69.785  1.00  0.00    -0.123 A  
ENDBRANCH  31  32
ENDBRANCH  21  31
ENDBRANCH  17  18
ENDBRANCH  16  17
ENDBRANCH  13  16
ENDBRANCH   7  10
TORSDOF 7
ENDMDL
MODEL      190
REMARK 921   NORMALIZED FREE ENERGY PREDICTED BY IDOCK:   -2.64 KCAL/MOL
REMARK 922        TOTAL FREE ENERGY PREDICTED BY IDOCK:   -4.16 KCAL/MOL
REMARK 923 INTER-LIGAND FREE ENERGY PREDICTED BY IDOCK:   -4.63 KCAL/MOL
REMARK 924 INTRA-LIGAND FREE ENERGY PREDICTED BY IDOCK:    0.47 KCAL/MOL
REMARK 927      BINDING AFFINITY PREDICTED BY RF-SCORE:    0.00 PKD
ROOT
HETATM    1  C   UNL     1     -11.915  13.280  62.871  1.00  0.00     0.477 C  
HETATM    2  C   UNL     1     -11.270  13.110  64.222  1.00  0.00    -0.388 C  
HETATM    3  O   UNL     1     -11.619  13.815  65.168  1.00  0.00    -0.315 OA 
HETATM    4  N   UNL     1     -10.362  12.076  64.353  1.00  0.00    -0.288 N  
HETATM    5  C   UNL     1      -9.843  11.762  65.690  1.00  0.00    -0.237 C  
HETATM    6  C   UNL     1      -9.640  10.248  65.862  1.00  0.00    -0.209 C  
HETATM    7  N   UNL     1      -8.773   9.741  64.774  1.00  0.00    -0.177 NA 
HETATM    8  C   UNL     1      -9.591  11.485  63.244  1.00  0.00    -0.346 C  
HETATM    9  C   UNL     1      -9.351   9.975  63.435  1.00  0.00    -0.257 C  
ENDROOT
BRANCH   7  10
HETATM   10  C   UNL     1      -8.115   8.528  64.957  1.00  0.00    -0.148 A  
HETATM   11  C   UNL     1      -8.524   7.355  64.328  1.00  0.00     0.229 A  
HETATM   12  C   UNL     1      -7.929   6.128  64.617  1.00  0.00    -0.124 A  
HETATM   13  C   UNL     1      -6.907   6.022  65.562  1.00  0.00    -0.052 A  
HETATM   14  C   UNL     1      -7.047   8.426  65.867  1.00  0.00    -0.072 A  
HETATM   15  C   UNL     1      -6.452   7.191  66.172  1.00  0.00    -0.051 A  
BRANCH  13  16
HETATM   16  O   UNL     1      -6.318   4.835  65.948  1.00  0.00    -0.037 OA 
BRANCH  16  17
HETATM   17  C   UNL     1      -5.395   4.982  67.032  1.00  0.00    -0.012 C  
BRANCH  17  18
HETATM   18  C   UNL     1      -6.033   4.942  68.413  1.00  0.00    -0.026 C  
HETATM   19  C   UNL     1      -5.934   6.237  69.169  1.00  0.00    -0.021 C  
HETATM   20  O   UNL     1      -7.102   6.250  69.985  1.00  0.00    -0.067 OA 
HETATM   21  C   UNL     1      -8.117   5.496  69.274  1.00  0.00    -0.095 C  
HETATM   22  O   UNL     1      -7.446   4.733  68.252  1.00  0.00    -0.072 OA 
BRANCH  21  23
HETATM   23  C   UNL     1      -8.816   4.514  70.219  1.00  0.00    -0.126 A  
HETATM   24 CL   UNL     1      -8.463   2.400  68.468  1.00  0.00    -0.086 Cl 
HETATM   25  C   UNL     1      -9.007   3.146  69.930  1.00  0.00    -0.105 A  
HETATM   26  C   UNL     1      -9.294   4.981  71.463  1.00  0.00    -0.191 A  
HETATM   27  C   UNL     1      -9.921   4.130  72.375  1.00  0.00    -0.229 A  
HETATM   28  C   UNL     1      -9.647   2.296  70.843  1.00  0.00    -0.185 A  
HETATM   29 CL   UNL     1     -10.852   1.736  73.190  1.00  0.00    -0.234 Cl 
HETATM   30  C   UNL     1     -10.094   2.789  72.062  1.00  0.00    -0.116 A  
ENDBRANCH  21  23
BRANCH  21  31
HETATM   31  C   UNL     1      -9.066   6.500  68.567  1.00  0.00    -0.127 C  
BRANCH  31  32
HETATM   32  N   UNL     1      -9.297   7.758  69.241  1.00  0.00    -0.149 NA 
HETATM   33  N   UNL     1     -10.354   9.284  70.458  1.00  0.00    -0.233 NA 
HETATM   34  C   UNL     1      -8.333   8.621  69.698  1.00  0.00    -0.123 A  
HETATM   35  C   UNL     1     -10.501   8.208  69.713  1.00  0.00    -0.227 A  
HETATM   36  C   UNL     1      -9.007   9.538  70.466  1.00  0.00    -0.211 A  
ENDBRANCH  31  32
ENDBRANCH  21  31
ENDBRANCH  17  18
ENDBRANCH  16  17
ENDBRANCH  13  16
ENDBRANCH   7  10
TORSDOF 7
ENDMDL
MODEL      191
REMARK 921   NORMALIZED FREE ENERGY PREDICTED BY IDOCK:   -2.45 KCAL/MOL
REMARK 922        TOTAL FREE ENERGY PREDICTED BY IDOCK:   -3.88 KCAL/MOL
REMARK 923 INTER-LIGAND FREE ENERGY PREDICTED BY IDOCK:   -3.91 KCAL/MOL
REMARK 924 INTRA-LIGAND FREE ENERGY PREDICTED BY IDOCK:    0.03 KCAL/MOL
REMARK 927      BINDING AFFINITY PREDICTED BY RF-SCORE:    0.00 PKD
ROOT
HETATM    1  C   UNL     1     -12.160  16.340  71.891  1.00  0.00    -0.447 C  
HETATM    2  C   UNL     1     -12.573  14.909  71.672  1.00  0.00    -0.329 C  
HETATM    3  O   UNL     1     -13.606  14.476  72.182  1.00  0.00    -0.349 OA 
HETATM    4  N   UNL     1     -11.797  14.162  70.805  1.00  0.00    -0.282 N  
HETATM    5  C   UNL     1     -12.259  12.821  70.425  1.00  0.00    -0.293 C  
HETATM    6  C   UNL     1     -11.908  12.510  68.961  1.00  0.00    -0.296 C  
HETATM    7  N   UNL     1     -10.455  12.700  68.752  1.00  0.00    -0.188 NA 
HETATM    8  C   UNL     1     -10.380  14.429  70.501  1.00  0.00     1.046 C  
HETATM    9  C   UNL     1     -10.016  14.079  69.044  1.00  0.00    -0.017 C  
ENDROOT
BRANCH   7  10
HETATM   10  C   UNL     1      -9.853  12.081  67.661  1.00  0.00    -0.189 A  
HETATM   11  C   UNL     1      -8.471  12.029  67.500  1.00  0.00    -0.165 A  
HETATM   12  C   UNL     1      -7.890  11.514  66.342  1.00  0.00    -0.020 A  
HETATM   13  C   UNL     1      -8.673  11.040  65.287  1.00  0.00    -0.093 A  
HETATM   14  C   UNL     1     -10.637  11.551  66.619  1.00  0.00    -0.294 A  
HETATM   15  C   UNL     1     -10.059  11.042  65.445  1.00  0.00    -0.326 A  
BRANCH  13  16
HETATM   16  O   UNL     1      -8.172  10.578  64.087  1.00  0.00    -0.145 OA 
BRANCH  16  17
HETATM   17  C   UNL     1      -9.021   9.622  63.445  1.00  0.00    -0.219 C  
BRANCH  17  18
HETATM   18  C   UNL     1      -8.743   8.176  63.826  1.00  0.00     0.418 C  
HETATM   19  C   UNL     1      -7.687   7.514  62.984  1.00  0.00    -0.123 C  
HETATM   20  O   UNL     1      -7.087   6.568  63.864  1.00  0.00    -0.045 OA 
HETATM   21  C   UNL     1      -7.209   7.108  65.205  1.00  0.00    -0.073 C  
HETATM   22  O   UNL     1      -8.198   8.156  65.156  1.00  0.00    -0.141 OA 
BRANCH  21  23
HETATM   23  C   UNL     1      -7.704   6.031  66.174  1.00  0.00    -0.102 A  
HETATM   24 CL   UNL     1      -9.976   7.481  66.805  1.00  0.00    -0.306 Cl 
HETATM   25  C   UNL     1      -8.904   6.128  66.911  1.00  0.00    -0.117 A  
HETATM   26  C   UNL     1      -6.939   4.857  66.345  1.00  0.00    -0.067 A  
HETATM   27  C   UNL     1      -7.348   3.831  67.198  1.00  0.00    -0.067 A  
HETATM   28  C   UNL     1      -9.307   5.101  67.776  1.00  0.00    -0.138 A  
HETATM   29 CL   UNL     1      -9.047   2.686  68.950  1.00  0.00    -0.182 Cl 
HETATM   30  C   UNL     1      -8.533   3.956  67.910  1.00  0.00    -0.094 A  
ENDBRANCH  21  23
BRANCH  21  31
HETATM   31  C   UNL     1      -5.854   7.756  65.596  1.00  0.00    -0.038 C  
BRANCH  31  32
HETATM   32  N   UNL     1      -5.869   8.657  66.726  1.00  0.00    -0.051 NA 
HETATM   33  N   UNL     1      -6.129   9.332  68.825  1.00  0.00    -0.044 NA 
HETATM   34  C   UNL     1      -5.135   9.809  66.854  1.00  0.00    -0.041 A  
HETATM   35  C   UNL     1      -6.462   8.419  67.937  1.00  0.00    -0.057 A  
HETATM   36  C   UNL     1      -5.291  10.192  68.163  1.00  0.00    -0.035 A  
ENDBRANCH  31  32
ENDBRANCH  21  31
ENDBRANCH  17  18
ENDBRANCH  16  17
ENDBRANCH  13  16
ENDBRANCH   7  10
TORSDOF 7
ENDMDL
MODEL      192
REMARK 921   NORMALIZED FREE ENERGY PREDICTED BY IDOCK:   -2.40 KCAL/MOL
REMARK 922        TOTAL FREE ENERGY PREDICTED BY IDOCK:   -3.81 KCAL/MOL
REMARK 923 INTER-LIGAND FREE ENERGY PREDICTED BY IDOCK:   -4.89 KCAL/MOL
REMARK 924 INTRA-LIGAND FREE ENERGY PREDICTED BY IDOCK:    1.09 KCAL/MOL
REMARK 927      BINDING AFFINITY PREDICTED BY RF-SCORE:    0.00 PKD
ROOT
HETATM    1  C   UNL     1      -7.786   3.923  74.448  1.00  0.00    -0.082 C  
HETATM    2  C   UNL     1      -9.216   3.950  73.976  1.00  0.00    -0.092 C  
HETATM    3  O   UNL     1     -10.060   3.230  74.509  1.00  0.00    -0.135 OA 
HETATM    4  N   UNL     1      -9.533   4.880  73.003  1.00  0.00    -0.135 N  
HETATM    5  C   UNL     1     -10.943   5.064  72.640  1.00  0.00    -0.216 C  
HETATM    6  C   UNL     1     -11.245   6.538  72.324  1.00  0.00    -0.273 C  
HETATM    7  N   UNL     1     -10.313   7.018  71.279  1.00  0.00    -0.202 NA 
HETATM    8  C   UNL     1      -8.574   5.454  72.042  1.00  0.00    -0.131 C  
HETATM    9  C   UNL     1      -8.899   6.919  71.693  1.00  0.00    -0.128 C  
ENDROOT
BRANCH   7  10
HETATM   10  C   UNL     1     -10.662   8.148  70.544  1.00  0.00    -0.225 A  
HETATM   11  C   UNL     1     -10.956   9.368  71.145  1.00  0.00    -0.430 A  
HETATM   12  C   UNL     1     -11.420  10.453  70.404  1.00  0.00    -0.420 A  
HETATM   13  C   UNL     1     -11.624  10.355  69.026  1.00  0.00    -0.150 A  
HETATM   14  C   UNL     1     -10.815   8.070  69.147  1.00  0.00    -0.038 A  
HETATM   15  C   UNL     1     -11.294   9.156  68.396  1.00  0.00     0.459 A  
BRANCH  13  16
HETATM   16  O   UNL     1     -12.143  11.363  68.238  1.00  0.00    -0.606 OA 
BRANCH  16  17
HETATM   17  C   UNL     1     -11.146  12.092  67.514  1.00  0.00    -0.275 C  
BRANCH  17  18
HETATM   18  C   UNL     1     -10.148  11.221  66.766  1.00  0.00    -0.219 C  
HETATM   19  C   UNL     1      -9.584  11.863  65.529  1.00  0.00    -0.182 C  
HETATM   20  O   UNL     1      -8.276  11.308  65.419  1.00  0.00     0.062 OA 
HETATM   21  C   UNL     1      -7.836  11.003  66.767  1.00  0.00    -0.149 C  
HETATM   22  O   UNL     1      -9.004  11.015  67.612  1.00  0.00    -0.139 OA 
BRANCH  21  23
HETATM   23  C   UNL     1      -7.221   9.602  66.826  1.00  0.00    -0.090 A  
HETATM   24 CL   UNL     1      -8.757   8.715  64.700  1.00  0.00    -0.123 Cl 
HETATM   25  C   UNL     1      -7.580   8.550  65.956  1.00  0.00    -0.089 A  
HETATM   26  C   UNL     1      -6.228   9.327  67.791  1.00  0.00    -0.054 A  
HETATM   27  C   UNL     1      -5.617   8.075  67.880  1.00  0.00    -0.034 A  
HETATM   28  C   UNL     1      -6.972   7.289  66.056  1.00  0.00    -0.065 A  
HETATM   29 CL   UNL     1      -5.228   5.523  67.109  1.00  0.00    -0.005 Cl 
HETATM   30  C   UNL     1      -5.990   7.061  67.011  1.00  0.00    -0.026 A  
ENDBRANCH  21  23
BRANCH  21  31
HETATM   31  C   UNL     1      -6.896  12.142  67.244  1.00  0.00    -0.149 C  
BRANCH  31  32
HETATM   32  N   UNL     1      -7.531  13.357  67.701  1.00  0.00    -0.163 NA 
HETATM   33  N   UNL     1      -8.709  14.703  69.016  1.00  0.00    -0.141 NA 
HETATM   34  C   UNL     1      -7.160  14.638  67.374  1.00  0.00    -0.128 A  
HETATM   35  C   UNL     1      -8.478  13.449  68.685  1.00  0.00     0.001 A  
HETATM   36  C   UNL     1      -7.882  15.447  68.216  1.00  0.00    -0.123 A  
ENDBRANCH  31  32
ENDBRANCH  21  31
ENDBRANCH  17  18
ENDBRANCH  16  17
ENDBRANCH  13  16
ENDBRANCH   7  10
TORSDOF 7
ENDMDL
MODEL      193
REMARK 921   NORMALIZED FREE ENERGY PREDICTED BY IDOCK:   -2.37 KCAL/MOL
REMARK 922        TOTAL FREE ENERGY PREDICTED BY IDOCK:   -3.77 KCAL/MOL
REMARK 923 INTER-LIGAND FREE ENERGY PREDICTED BY IDOCK:   -3.41 KCAL/MOL
REMARK 924 INTRA-LIGAND FREE ENERGY PREDICTED BY IDOCK:   -0.36 KCAL/MOL
REMARK 927      BINDING AFFINITY PREDICTED BY RF-SCORE:    0.00 PKD
ROOT
HETATM    1  C   UNL     1      -9.957   1.818  71.266  1.00  0.00    -0.108 C  
HETATM    2  C   UNL     1      -9.645   2.268  69.863  1.00  0.00     0.022 C  
HETATM    3  O   UNL     1      -9.749   1.483  68.921  1.00  0.00    -0.120 OA 
HETATM    4  N   UNL     1      -9.340   3.606  69.691  1.00  0.00    -0.160 N  
HETATM    5  C   UNL     1      -9.203   4.126  68.325  1.00  0.00    -0.144 C  
HETATM    6  C   UNL     1      -9.743   5.561  68.222  1.00  0.00    -0.132 C  
HETATM    7  N   UNL     1      -9.074   6.411  69.233  1.00  0.00    -0.136 NA 
HETATM    8  C   UNL     1      -8.791   4.486  70.738  1.00  0.00    -0.101 C  
HETATM    9  C   UNL     1      -9.300   5.935  70.612  1.00  0.00    -0.160 C  
ENDROOT
BRANCH   7  10
HETATM   10  C   UNL     1      -9.078   7.791  69.050  1.00  0.00    -0.144 A  
HETATM   11  C   UNL     1      -7.907   8.541  68.999  1.00  0.00    -0.104 A  
HETATM   12  C   UNL     1      -7.935   9.934  68.938  1.00  0.00    -0.096 A  
HETATM   13  C   UNL     1      -9.142  10.636  68.940  1.00  0.00    -0.176 A  
HETATM   14  C   UNL     1     -10.293   8.500  68.995  1.00  0.00    -0.229 A  
HETATM   15  C   UNL     1     -10.328   9.903  68.946  1.00  0.00    -0.221 A  
BRANCH  13  16
HETATM   16  O   UNL     1      -9.247  12.012  68.948  1.00  0.00     0.005 OA 
BRANCH  16  17
HETATM   17  C   UNL     1      -9.955  12.537  67.820  1.00  0.00    -0.210 C  
BRANCH  17  18
HETATM   18  C   UNL     1     -10.465  13.959  68.002  1.00  0.00    -0.243 C  
HETATM   19  C   UNL     1     -10.619  14.373  69.439  1.00  0.00    -0.121 C  
HETATM   20  O   UNL     1     -10.381  15.777  69.420  1.00  0.00    -0.224 OA 
HETATM   21  C   UNL     1      -9.469  16.032  68.320  1.00  0.00    -0.206 C  
HETATM   22  O   UNL     1      -9.480  14.864  67.476  1.00  0.00    -0.197 OA 
BRANCH  21  23
HETATM   23  C   UNL     1      -9.952  17.224  67.489  1.00  0.00    -0.296 A  
HETATM   24 CL   UNL     1      -9.095  19.044  69.391  1.00  0.00     0.033 Cl 
HETATM   25  C   UNL     1      -9.825  18.569  67.897  1.00  0.00    -0.325 A  
HETATM   26  C   UNL     1     -10.551  16.987  66.233  1.00  0.00    -0.185 A  
HETATM   27  C   UNL     1     -10.993  18.034  65.421  1.00  0.00     0.391 A  
HETATM   28  C   UNL     1     -10.280  19.618  67.084  1.00  0.00    -0.558 A  
HETATM   29 CL   UNL     1     -11.384  20.637  64.845  1.00  0.00     0.990 Cl 
HETATM   30  C   UNL     1     -10.855  19.346  65.849  1.00  0.00    -0.306 A  
ENDBRANCH  21  23
BRANCH  21  31
HETATM   31  C   UNL     1      -8.037  16.184  68.897  1.00  0.00    -0.228 C  
BRANCH  31  32
HETATM   32  N   UNL     1      -7.401  14.978  69.379  1.00  0.00    -0.183 NA 
HETATM   33  N   UNL     1      -6.172  13.130  69.328  1.00  0.00    -0.097 NA 
HETATM   34  C   UNL     1      -7.059  14.707  70.680  1.00  0.00     0.617 A  
HETATM   35  C   UNL     1      -6.856  13.991  68.603  1.00  0.00    -0.103 A  
HETATM   36  C   UNL     1      -6.280  13.577  70.619  1.00  0.00     0.045 A  
ENDBRANCH  31  32
ENDBRANCH  21  31
ENDBRANCH  17  18
ENDBRANCH  16  17
ENDBRANCH  13  16
ENDBRANCH   7  10
TORSDOF 7
ENDMDL
MODEL      194
REMARK 921   NORMALIZED FREE ENERGY PREDICTED BY IDOCK:   -2.32 KCAL/MOL
REMARK 922        TOTAL FREE ENERGY PREDICTED BY IDOCK:   -3.70 KCAL/MOL
REMARK 923 INTER-LIGAND FREE ENERGY PREDICTED BY IDOCK:   -4.40 KCAL/MOL
REMARK 924 INTRA-LIGAND FREE ENERGY PREDICTED BY IDOCK:    0.70 KCAL/MOL
REMARK 927      BINDING AFFINITY PREDICTED BY RF-SCORE:    0.00 PKD
ROOT
HETATM    1  C   UNL     1      -8.206   2.461  72.777  1.00  0.00    -0.059 C  
HETATM    2  C   UNL     1      -8.795   3.778  73.209  1.00  0.00    -0.089 C  
HETATM    3  O   UNL     1      -8.694   4.150  74.378  1.00  0.00    -0.095 OA 
HETATM    4  N   UNL     1      -9.352   4.566  72.219  1.00  0.00    -0.125 N  
HETATM    5  C   UNL     1      -9.778   5.929  72.561  1.00  0.00    -0.157 C  
HETATM    6  C   UNL     1      -9.520   6.898  71.397  1.00  0.00    -0.160 C  
HETATM    7  N   UNL     1     -10.172   6.380  70.172  1.00  0.00    -0.182 NA 
HETATM    8  C   UNL     1      -9.888   4.061  70.942  1.00  0.00    -0.159 C  
HETATM    9  C   UNL     1      -9.666   5.050  69.781  1.00  0.00    -0.196 C  
ENDROOT
BRANCH   7  10
HETATM   10  C   UNL     1     -10.438   7.268  69.133  1.00  0.00    -0.215 A  
HETATM   11  C   UNL     1     -10.435   6.876  67.798  1.00  0.00    -0.279 A  
HETATM   12  C   UNL     1     -10.582   7.802  66.766  1.00  0.00    -0.248 A  
HETATM   13  C   UNL     1     -10.723   9.166  67.030  1.00  0.00    -0.118 A  
HETATM   14  C   UNL     1     -10.636   8.636  69.397  1.00  0.00    -0.207 A  
HETATM   15  C   UNL     1     -10.772   9.575  68.362  1.00  0.00    -0.230 A  
BRANCH  13  16
HETATM   16  O   UNL     1     -10.807  10.146  66.062  1.00  0.00     0.020 OA 
BRANCH  16  17
HETATM   17  C   UNL     1      -9.532  10.646  65.645  1.00  0.00    -0.212 C  
BRANCH  17  18
HETATM   18  C   UNL     1      -8.347  10.052  66.392  1.00  0.00    -0.126 C  
HETATM   19  C   UNL     1      -7.019  10.323  65.742  1.00  0.00    -0.128 C  
HETATM   20  O   UNL     1      -6.105  10.368  66.834  1.00  0.00    -0.057 OA 
HETATM   21  C   UNL     1      -6.852  10.835  67.987  1.00  0.00    -0.068 C  
HETATM   22  O   UNL     1      -8.252  10.694  67.674  1.00  0.00    -0.107 OA 
BRANCH  21  23
HETATM   23  C   UNL     1      -6.548   9.966  69.210  1.00  0.00    -0.049 A  
HETATM   24 CL   UNL     1      -5.769  12.156  70.714  1.00  0.00    -0.139 Cl 
HETATM   25  C   UNL     1      -6.067  10.475  70.435  1.00  0.00    -0.125 A  
HETATM   26  C   UNL     1      -6.766   8.573  69.135  1.00  0.00    -0.047 A  
HETATM   27  C   UNL     1      -6.527   7.732  70.223  1.00  0.00    -0.037 A  
HETATM   28  C   UNL     1      -5.817   9.626  71.524  1.00  0.00    -0.024 A  
HETATM   29 CL   UNL     1      -5.773   7.230  72.761  1.00  0.00    -0.041 Cl 
HETATM   30  C   UNL     1      -6.054   8.262  71.414  1.00  0.00    -0.038 A  
ENDBRANCH  21  23
BRANCH  21  31
HETATM   31  C   UNL     1      -6.561  12.347  68.179  1.00  0.00    -0.073 C  
BRANCH  31  32
HETATM   32  N   UNL     1      -7.683  13.247  68.033  1.00  0.00    -0.131 NA 
HETATM   33  N   UNL     1      -8.972  14.810  67.126  1.00  0.00    -0.211 NA 
HETATM   34  C   UNL     1      -8.933  13.077  68.574  1.00  0.00    -0.048 A  
HETATM   35  C   UNL     1      -7.753  14.313  67.178  1.00  0.00    -0.017 A  
HETATM   36  C   UNL     1      -9.715  14.036  67.980  1.00  0.00    -0.221 A  
ENDBRANCH  31  32
ENDBRANCH  21  31
ENDBRANCH  17  18
ENDBRANCH  16  17
ENDBRANCH  13  16
ENDBRANCH   7  10
TORSDOF 7
ENDMDL
MODEL      195
REMARK 921   NORMALIZED FREE ENERGY PREDICTED BY IDOCK:   -2.30 KCAL/MOL
REMARK 922        TOTAL FREE ENERGY PREDICTED BY IDOCK:   -3.67 KCAL/MOL
REMARK 923 INTER-LIGAND FREE ENERGY PREDICTED BY IDOCK:   -3.36 KCAL/MOL
REMARK 924 INTRA-LIGAND FREE ENERGY PREDICTED BY IDOCK:   -0.30 KCAL/MOL
REMARK 927      BINDING AFFINITY PREDICTED BY RF-SCORE:    0.00 PKD
ROOT
HETATM    1  C   UNL     1     -11.167  19.551  67.767  1.00  0.00     0.139 C  
HETATM    2  C   UNL     1      -9.859  18.811  67.659  1.00  0.00    -0.324 C  
HETATM    3  O   UNL     1      -8.833  19.290  68.141  1.00  0.00    -0.308 OA 
HETATM    4  N   UNL     1      -9.901  17.551  67.089  1.00  0.00    -0.287 N  
HETATM    5  C   UNL     1      -8.689  16.724  67.123  1.00  0.00    -0.200 C  
HETATM    6  C   UNL     1      -9.038  15.240  67.317  1.00  0.00    -0.198 C  
HETATM    7  N   UNL     1      -9.995  14.819  66.269  1.00  0.00    -0.276 NA 
HETATM    8  C   UNL     1     -10.930  17.090  66.141  1.00  0.00     0.176 C  
HETATM    9  C   UNL     1     -11.252  15.592  66.307  1.00  0.00    -0.033 C  
ENDROOT
BRANCH   7  10
HETATM   10  C   UNL     1     -10.116  13.461  65.986  1.00  0.00    -0.304 A  
HETATM   11  C   UNL     1     -11.351  12.828  65.881  1.00  0.00    -0.363 A  
HETATM   12  C   UNL     1     -11.451  11.447  65.718  1.00  0.00     0.034 A  
HETATM   13  C   UNL     1     -10.313  10.639  65.667  1.00  0.00    -0.216 A  
HETATM   14  C   UNL     1      -8.971  12.650  65.877  1.00  0.00     0.296 A  
HETATM   15  C   UNL     1      -9.065  11.257  65.725  1.00  0.00    -0.216 A  
BRANCH  13  16
HETATM   16  O   UNL     1     -10.335   9.262  65.574  1.00  0.00     0.137 OA 
BRANCH  16  17
HETATM   17  C   UNL     1     -10.810   8.617  66.760  1.00  0.00     0.183 C  
BRANCH  17  18
HETATM   18  C   UNL     1     -10.155   9.100  68.045  1.00  0.00    -0.196 C  
HETATM   19  C   UNL     1     -10.291   8.143  69.197  1.00  0.00    -0.220 C  
HETATM   20  O   UNL     1      -9.115   8.365  69.970  1.00  0.00    -0.147 OA 
HETATM   21  C   UNL     1      -8.081   8.794  69.046  1.00  0.00    -0.116 C  
HETATM   22  O   UNL     1      -8.738   9.189  67.824  1.00  0.00    -0.121 OA 
BRANCH  21  23
HETATM   23  C   UNL     1      -7.338  10.012  69.602  1.00  0.00    -0.127 A  
HETATM   24 CL   UNL     1      -6.520   8.627  71.854  1.00  0.00    -0.072 Cl 
HETATM   25  C   UNL     1      -6.637  10.012  70.826  1.00  0.00    -0.035 A  
HETATM   26  C   UNL     1      -7.329  11.211  68.856  1.00  0.00    -0.110 A  
HETATM   27  C   UNL     1      -6.653  12.347  69.301  1.00  0.00    -0.093 A  
HETATM   28  C   UNL     1      -5.967  11.160  71.276  1.00  0.00     0.440 A  
HETATM   29 CL   UNL     1      -5.125  13.712  71.052  1.00  0.00    -0.120 Cl 
HETATM   30  C   UNL     1      -5.973  12.318  70.510  1.00  0.00    -0.042 A  
ENDBRANCH  21  23
BRANCH  21  31
HETATM   31  C   UNL     1      -7.177   7.575  68.723  1.00  0.00    -0.082 C  
BRANCH  31  32
HETATM   32  N   UNL     1      -7.577   6.749  67.607  1.00  0.00    -0.104 NA 
HETATM   33  N   UNL     1      -8.545   5.071  66.523  1.00  0.00    -0.110 NA 
HETATM   34  C   UNL     1      -7.705   7.155  66.302  1.00  0.00    -0.100 A  
HETATM   35  C   UNL     1      -8.084   5.480  67.687  1.00  0.00    -0.101 A  
HETATM   36  C   UNL     1      -8.328   6.113  65.660  1.00  0.00    -0.146 A  
ENDBRANCH  31  32
ENDBRANCH  21  31
ENDBRANCH  17  18
ENDBRANCH  16  17
ENDBRANCH  13  16
ENDBRANCH   7  10
TORSDOF 7
ENDMDL
MODEL      196
REMARK 921   NORMALIZED FREE ENERGY PREDICTED BY IDOCK:   -2.18 KCAL/MOL
REMARK 922        TOTAL FREE ENERGY PREDICTED BY IDOCK:   -3.51 KCAL/MOL
REMARK 923 INTER-LIGAND FREE ENERGY PREDICTED BY IDOCK:   -3.99 KCAL/MOL
REMARK 924 INTRA-LIGAND FREE ENERGY PREDICTED BY IDOCK:    0.48 KCAL/MOL
REMARK 927      BINDING AFFINITY PREDICTED BY RF-SCORE:    0.00 PKD
ROOT
HETATM    1  C   UNL     1      -6.752  19.002  66.457  1.00  0.00    -0.211 C  
HETATM    2  C   UNL     1      -7.894  18.135  66.916  1.00  0.00    -0.229 C  
HETATM    3  O   UNL     1      -9.057  18.475  66.702  1.00  0.00    -0.288 OA 
HETATM    4  N   UNL     1      -7.563  16.919  67.487  1.00  0.00    -0.161 N  
HETATM    5  C   UNL     1      -8.640  15.968  67.787  1.00  0.00    -0.163 C  
HETATM    6  C   UNL     1      -8.181  14.521  67.546  1.00  0.00    -0.187 C  
HETATM    7  N   UNL     1      -6.948  14.260  68.323  1.00  0.00    -0.095 NA 
HETATM    8  C   UNL     1      -6.281  16.621  68.150  1.00  0.00    -0.131 C  
HETATM    9  C   UNL     1      -5.840  15.159  67.944  1.00  0.00    -0.143 C  
ENDROOT
BRANCH   7  10
HETATM   10  C   UNL     1      -6.602  12.940  68.599  1.00  0.00    -0.091 A  
HETATM   11  C   UNL     1      -5.432  12.359  68.120  1.00  0.00    -0.064 A  
HETATM   12  C   UNL     1      -5.161  11.004  68.305  1.00  0.00    -0.039 A  
HETATM   13  C   UNL     1      -6.063  10.169  68.967  1.00  0.00    -0.040 A  
HETATM   14  C   UNL     1      -7.482  12.107  69.315  1.00  0.00     0.219 A  
HETATM   15  C   UNL     1      -7.222  10.738  69.494  1.00  0.00    -0.132 A  
BRANCH  13  16
HETATM   16  O   UNL     1      -5.896   8.808  69.129  1.00  0.00    -0.038 OA 
BRANCH  16  17
HETATM   17  C   UNL     1      -7.108   8.118  69.448  1.00  0.00    -0.055 C  
BRANCH  17  18
HETATM   18  C   UNL     1      -7.148   6.668  68.987  1.00  0.00    -0.089 C  
HETATM   19  C   UNL     1      -8.088   5.802  69.778  1.00  0.00    -0.104 C  
HETATM   20  O   UNL     1      -8.523   4.821  68.841  1.00  0.00    -0.082 OA 
HETATM   21  C   UNL     1      -8.482   5.445  67.532  1.00  0.00    -0.106 C  
HETATM   22  O   UNL     1      -7.674   6.633  67.650  1.00  0.00    -0.103 OA 
BRANCH  21  23
HETATM   23  C   UNL     1      -7.814   4.515  66.515  1.00  0.00    -0.099 A  
HETATM   24 CL   UNL     1      -5.667   6.231  66.184  1.00  0.00    -0.016 Cl 
HETATM   25  C   UNL     1      -6.585   4.797  65.882  1.00  0.00    -0.045 A  
HETATM   26  C   UNL     1      -8.441   3.293  66.187  1.00  0.00    -0.111 A  
HETATM   27  C   UNL     1      -7.871   2.396  65.283  1.00  0.00    -0.078 A  
HETATM   28  C   UNL     1      -6.020   3.898  64.965  1.00  0.00    -0.023 A  
HETATM   29 CL   UNL     1      -5.950   1.589  63.574  1.00  0.00    -0.008 Cl 
HETATM   30  C   UNL     1      -6.661   2.700  64.675  1.00  0.00    -0.039 A  
ENDBRANCH  21  23
BRANCH  21  31
HETATM   31  C   UNL     1      -9.921   5.888  67.155  1.00  0.00    -0.159 C  
BRANCH  31  32
HETATM   32  N   UNL     1     -10.347   7.183  67.636  1.00  0.00    -0.195 NA 
HETATM   33  N   UNL     1     -10.672   8.850  69.066  1.00  0.00    -0.176 NA 
HETATM   34  C   UNL     1     -10.515   8.314  66.877  1.00  0.00    -0.295 A  
HETATM   35  C   UNL     1     -10.465   7.554  68.948  1.00  0.00    -0.203 A  
HETATM   36  C   UNL     1     -10.688   9.332  67.783  1.00  0.00    -0.207 A  
ENDBRANCH  31  32
ENDBRANCH  21  31
ENDBRANCH  17  18
ENDBRANCH  16  17
ENDBRANCH  13  16
ENDBRANCH   7  10
TORSDOF 7
ENDMDL
MODEL      197
REMARK 921   NORMALIZED FREE ENERGY PREDICTED BY IDOCK:   -2.12 KCAL/MOL
REMARK 922        TOTAL FREE ENERGY PREDICTED BY IDOCK:   -3.41 KCAL/MOL
REMARK 923 INTER-LIGAND FREE ENERGY PREDICTED BY IDOCK:   -4.85 KCAL/MOL
REMARK 924 INTRA-LIGAND FREE ENERGY PREDICTED BY IDOCK:    1.44 KCAL/MOL
REMARK 927      BINDING AFFINITY PREDICTED BY RF-SCORE:    0.00 PKD
ROOT
HETATM    1  C   UNL     1      -8.527  19.857  67.610  1.00  0.00    -0.374 C  
HETATM    2  C   UNL     1      -9.374  19.009  68.522  1.00  0.00    -0.375 C  
HETATM    3  O   UNL     1     -10.114  19.537  69.350  1.00  0.00    -0.356 OA 
HETATM    4  N   UNL     1      -9.343  17.643  68.308  1.00  0.00    -0.281 N  
HETATM    5  C   UNL     1     -10.282  16.795  69.052  1.00  0.00    -0.310 C  
HETATM    6  C   UNL     1     -10.770  15.621  68.189  1.00  0.00    -0.287 C  
HETATM    7  N   UNL     1      -9.602  14.872  67.671  1.00  0.00    -0.200 NA 
HETATM    8  C   UNL     1      -8.230  16.913  67.676  1.00  0.00    -0.186 C  
HETATM    9  C   UNL     1      -8.714  15.711  66.842  1.00  0.00    -0.253 C  
ENDROOT
BRANCH   7  10
HETATM   10  C   UNL     1      -9.789  13.561  67.240  1.00  0.00    -0.237 A  
HETATM   11  C   UNL     1      -9.598  13.177  65.917  1.00  0.00    -0.122 A  
HETATM   12  C   UNL     1      -9.906  11.889  65.479  1.00  0.00    -0.257 A  
HETATM   13  C   UNL     1     -10.436  10.935  66.351  1.00  0.00    -0.250 A  
HETATM   14  C   UNL     1     -10.269  12.580  68.128  1.00  0.00    -0.231 A  
HETATM   15  C   UNL     1     -10.594  11.286  67.691  1.00  0.00    -0.252 A  
BRANCH  13  16
HETATM   16  O   UNL     1     -10.826   9.665  65.977  1.00  0.00     0.179 OA 
BRANCH  16  17
HETATM   17  C   UNL     1     -10.536   8.666  66.960  1.00  0.00    -0.284 C  
BRANCH  17  18
HETATM   18  C   UNL     1      -9.651   9.144  68.102  1.00  0.00    -0.144 C  
HETATM   19  C   UNL     1      -9.205   8.048  69.029  1.00  0.00    -0.148 C  
HETATM   20  O   UNL     1      -7.934   8.490  69.498  1.00  0.00    -0.101 OA 
HETATM   21  C   UNL     1      -7.360   9.307  68.446  1.00  0.00    -0.077 C  
HETATM   22  O   UNL     1      -8.429   9.656  67.544  1.00  0.00    -0.124 OA 
BRANCH  21  23
HETATM   23  C   UNL     1      -6.786  10.603  69.026  1.00  0.00    -0.066 A  
HETATM   24 CL   UNL     1      -6.593  11.773  66.525  1.00  0.00     0.016 Cl 
HETATM   25  C   UNL     1      -6.424  11.720  68.246  1.00  0.00    -0.051 A  
HETATM   26  C   UNL     1      -6.613  10.711  70.424  1.00  0.00    -0.075 A  
HETATM   27  C   UNL     1      -6.113  11.873  71.013  1.00  0.00     0.636 A  
HETATM   28  C   UNL     1      -5.911  12.883  68.840  1.00  0.00    -0.075 A  
HETATM   29 CL   UNL     1      -5.164  14.395  70.945  1.00  0.00    -0.120 Cl 
HETATM   30  C   UNL     1      -5.765  12.956  70.219  1.00  0.00    -0.162 A  
ENDBRANCH  21  23
BRANCH  21  31
HETATM   31  C   UNL     1      -6.340   8.444  67.658  1.00  0.00    -0.053 C  
BRANCH  31  32
HETATM   32  N   UNL     1      -6.510   7.010  67.731  1.00  0.00    -0.049 NA 
HETATM   33  N   UNL     1      -6.965   4.948  67.049  1.00  0.00    -0.060 NA 
HETATM   34  C   UNL     1      -5.895   6.165  68.621  1.00  0.00    -0.016 A  
HETATM   35  C   UNL     1      -7.156   6.229  66.811  1.00  0.00    -0.073 A  
HETATM   36  C   UNL     1      -6.169   4.900  68.164  1.00  0.00    -0.035 A  
ENDBRANCH  31  32
ENDBRANCH  21  31
ENDBRANCH  17  18
ENDBRANCH  16  17
ENDBRANCH  13  16
ENDBRANCH   7  10
TORSDOF 7
ENDMDL
MODEL      198
REMARK 921   NORMALIZED FREE ENERGY PREDICTED BY IDOCK:   -1.73 KCAL/MOL
REMARK 922        TOTAL FREE ENERGY PREDICTED BY IDOCK:   -2.86 KCAL/MOL
REMARK 923 INTER-LIGAND FREE ENERGY PREDICTED BY IDOCK:   -2.90 KCAL/MOL
REMARK 924 INTRA-LIGAND FREE ENERGY PREDICTED BY IDOCK:    0.04 KCAL/MOL
REMARK 927      BINDING AFFINITY PREDICTED BY RF-SCORE:    0.00 PKD
ROOT
HETATM    1  C   UNL     1     -10.902   9.020  72.257  1.00  0.00    -0.089 C  
HETATM    2  C   UNL     1      -9.539   8.485  72.613  1.00  0.00    -0.223 C  
HETATM    3  O   UNL     1      -9.033   8.754  73.702  1.00  0.00    -0.094 OA 
HETATM    4  N   UNL     1      -8.955   7.618  71.709  1.00  0.00    -0.118 N  
HETATM    5  C   UNL     1      -7.713   6.936  72.092  1.00  0.00    -0.093 C  
HETATM    6  C   UNL     1      -7.671   5.506  71.530  1.00  0.00    -0.106 C  
HETATM    7  N   UNL     1      -7.878   5.547  70.064  1.00  0.00    -0.081 NA 
HETATM    8  C   UNL     1      -9.257   7.575  70.267  1.00  0.00    -0.157 C  
HETATM    9  C   UNL     1      -9.176   6.147  69.693  1.00  0.00    -0.143 C  
ENDROOT
BRANCH   7  10
HETATM   10  C   UNL     1      -7.463   4.459  69.302  1.00  0.00    -0.055 A  
HETATM   11  C   UNL     1      -6.346   3.698  69.634  1.00  0.00    -0.029 A  
HETATM   12  C   UNL     1      -5.875   2.690  68.794  1.00  0.00    -0.023 A  
HETATM   13  C   UNL     1      -6.497   2.411  67.576  1.00  0.00    -0.032 A  
HETATM   14  C   UNL     1      -8.120   4.137  68.100  1.00  0.00    -0.085 A  
HETATM   15  C   UNL     1      -7.644   3.131  67.244  1.00  0.00    -0.074 A  
BRANCH  13  16
HETATM   16  O   UNL     1      -6.050   1.476  66.665  1.00  0.00    -0.019 OA 
BRANCH  16  17
HETATM   17  C   UNL     1      -6.364   1.805  65.308  1.00  0.00    -0.023 C  
BRANCH  17  18
HETATM   18  C   UNL     1      -6.045   3.241  64.918  1.00  0.00    -0.023 C  
HETATM   19  C   UNL     1      -5.285   3.369  63.628  1.00  0.00    -0.008 C  
HETATM   20  O   UNL     1      -5.708   4.624  63.102  1.00  0.00    -0.016 OA 
HETATM   21  C   UNL     1      -7.061   4.842  63.578  1.00  0.00    -0.048 C  
HETATM   22  O   UNL     1      -7.283   3.928  64.670  1.00  0.00    -0.063 OA 
BRANCH  21  23
HETATM   23  C   UNL     1      -7.217   6.269  64.113  1.00  0.00    -0.061 A  
HETATM   24 CL   UNL     1      -5.499   5.786  66.228  1.00  0.00    -0.012 Cl 
HETATM   25  C   UNL     1      -6.568   6.750  65.269  1.00  0.00    -0.050 A  
HETATM   26  C   UNL     1      -8.045   7.177  63.416  1.00  0.00    -0.007 A  
HETATM   27  C   UNL     1      -8.211   8.495  63.843  1.00  0.00    -0.128 A  
HETATM   28  C   UNL     1      -6.746   8.072  65.702  1.00  0.00    -0.048 A  
HETATM   29 CL   UNL     1      -7.750  10.567  65.503  1.00  0.00    -0.149 Cl 
HETATM   30  C   UNL     1      -7.559   8.939  64.985  1.00  0.00    -0.100 A  
ENDBRANCH  21  23
BRANCH  21  31
HETATM   31  C   UNL     1      -8.047   4.467  62.440  1.00  0.00    -0.068 C  
BRANCH  31  32
HETATM   32  N   UNL     1      -9.177   3.643  62.807  1.00  0.00    -0.096 NA 
HETATM   33  N   UNL     1     -11.270   3.126  63.333  1.00  0.00    -0.216 NA 
HETATM   34  C   UNL     1      -9.317   2.301  62.553  1.00  0.00    -0.090 A  
HETATM   35  C   UNL     1     -10.376   4.092  63.290  1.00  0.00    -0.125 A  
HETATM   36  C   UNL     1     -10.624   2.012  62.862  1.00  0.00    -0.148 A  
ENDBRANCH  31  32
ENDBRANCH  21  31
ENDBRANCH  17  18
ENDBRANCH  16  17
ENDBRANCH  13  16
ENDBRANCH   7  10
TORSDOF 7
ENDMDL
MODEL      199
REMARK 921   NORMALIZED FREE ENERGY PREDICTED BY IDOCK:   -1.67 KCAL/MOL
REMARK 922        TOTAL FREE ENERGY PREDICTED BY IDOCK:   -2.78 KCAL/MOL
REMARK 923 INTER-LIGAND FREE ENERGY PREDICTED BY IDOCK:   -5.13 KCAL/MOL
REMARK 924 INTRA-LIGAND FREE ENERGY PREDICTED BY IDOCK:    2.35 KCAL/MOL
REMARK 927      BINDING AFFINITY PREDICTED BY RF-SCORE:    0.00 PKD
ROOT
HETATM    1  C   UNL     1      -6.348  20.852  67.789  1.00  0.00    -0.396 C  
HETATM    2  C   UNL     1      -6.283  19.733  68.794  1.00  0.00    -0.267 C  
HETATM    3  O   UNL     1      -5.710  19.897  69.870  1.00  0.00    -0.235 OA 
HETATM    4  N   UNL     1      -6.974  18.576  68.483  1.00  0.00    -0.259 N  
HETATM    5  C   UNL     1      -7.086  17.528  69.506  1.00  0.00     0.073 C  
HETATM    6  C   UNL     1      -8.453  16.831  69.435  1.00  0.00     0.203 C  
HETATM    7  N   UNL     1      -8.677  16.323  68.063  1.00  0.00    -0.176 NA 
HETATM    8  C   UNL     1      -7.308  18.135  67.117  1.00  0.00    -0.200 C  
HETATM    9  C   UNL     1      -8.660  17.400  67.052  1.00  0.00    -0.233 C  
ENDROOT
BRANCH   7  10
HETATM   10  C   UNL     1      -9.616  15.314  67.871  1.00  0.00    -0.199 A  
HETATM   11  C   UNL     1      -9.560  14.103  68.554  1.00  0.00    -0.214 A  
HETATM   12  C   UNL     1     -10.436  13.059  68.261  1.00  0.00    -0.258 A  
HETATM   13  C   UNL     1     -11.399  13.181  67.256  1.00  0.00    -0.306 A  
HETATM   14  C   UNL     1     -10.624  15.453  66.899  1.00  0.00    -0.309 A  
HETATM   15  C   UNL     1     -11.502  14.401  66.589  1.00  0.00    -0.372 A  
BRANCH  13  16
HETATM   16  O   UNL     1     -12.254  12.170  66.865  1.00  0.00    -0.537 OA 
BRANCH  16  17
HETATM   17  C   UNL     1     -11.771  11.413  65.751  1.00  0.00     0.435 C  
BRANCH  17  18
HETATM   18  C   UNL     1     -10.379  10.829  65.942  1.00  0.00    -0.238 C  
HETATM   19  C   UNL     1      -9.885  10.880  67.361  1.00  0.00    -0.173 C  
HETATM   20  O   UNL     1      -9.033   9.744  67.470  1.00  0.00    -0.131 OA 
HETATM   21  C   UNL     1      -9.542   8.748  66.545  1.00  0.00    -0.237 C  
HETATM   22  O   UNL     1     -10.432   9.425  65.636  1.00  0.00     0.089 OA 
BRANCH  21  23
HETATM   23  C   UNL     1      -8.398   8.143  65.727  1.00  0.00    -0.140 A  
HETATM   24 CL   UNL     1      -6.488   9.043  67.518  1.00  0.00    -0.063 Cl 
HETATM   25  C   UNL     1      -7.037   8.237  66.090  1.00  0.00    -0.065 A  
HETATM   26  C   UNL     1      -8.700   7.433  64.544  1.00  0.00     0.430 A  
HETATM   27  C   UNL     1      -7.702   6.842  63.767  1.00  0.00    -0.118 A  
HETATM   28  C   UNL     1      -6.036   7.651  65.301  1.00  0.00    -0.038 A  
HETATM   29 CL   UNL     1      -5.144   6.211  63.203  1.00  0.00    -0.017 Cl 
HETATM   30  C   UNL     1      -6.373   6.952  64.150  1.00  0.00    -0.036 A  
ENDBRANCH  21  23
BRANCH  21  31
HETATM   31  C   UNL     1     -10.379   7.718  67.348  1.00  0.00    -0.284 C  
BRANCH  31  32
HETATM   32  N   UNL     1      -9.886   7.363  68.659  1.00  0.00    -0.159 NA 
HETATM   33  N   UNL     1      -9.947   6.729  70.786  1.00  0.00    -0.187 NA 
HETATM   34  C   UNL     1      -8.640   6.868  68.950  1.00  0.00    -0.131 A  
HETATM   35  C   UNL     1     -10.635   7.272  69.802  1.00  0.00    -0.235 A  
HETATM   36  C   UNL     1      -8.711   6.461  70.259  1.00  0.00    -0.143 A  
ENDBRANCH  31  32
ENDBRANCH  21  31
ENDBRANCH  17  18
ENDBRANCH  16  17
ENDBRANCH  13  16
ENDBRANCH   7  10
TORSDOF 7
ENDMDL
MODEL      200
REMARK 921   NORMALIZED FREE ENERGY PREDICTED BY IDOCK:   -1.56 KCAL/MOL
REMARK 922        TOTAL FREE ENERGY PREDICTED BY IDOCK:   -2.63 KCAL/MOL
REMARK 923 INTER-LIGAND FREE ENERGY PREDICTED BY IDOCK:   -2.67 KCAL/MOL
REMARK 924 INTRA-LIGAND FREE ENERGY PREDICTED BY IDOCK:    0.04 KCAL/MOL
REMARK 927      BINDING AFFINITY PREDICTED BY RF-SCORE:    0.00 PKD
ROOT
HETATM    1  C   UNL     1      -6.943  18.296  65.745  1.00  0.00    -0.284 C  
HETATM    2  C   UNL     1      -7.981  17.512  66.504  1.00  0.00    -0.274 C  
HETATM    3  O   UNL     1      -9.169  17.827  66.437  1.00  0.00    -0.296 OA 
HETATM    4  N   UNL     1      -7.542  16.389  67.181  1.00  0.00    -0.168 N  
HETATM    5  C   UNL     1      -8.540  15.498  67.786  1.00  0.00    -0.152 C  
HETATM    6  C   UNL     1      -8.103  14.028  67.684  1.00  0.00    -0.174 C  
HETATM    7  N   UNL     1      -6.755  13.873  68.277  1.00  0.00    -0.095 NA 
HETATM    8  C   UNL     1      -6.164  16.180  67.661  1.00  0.00    -0.154 C  
HETATM    9  C   UNL     1      -5.739  14.700  67.597  1.00  0.00     0.018 C  
ENDROOT
BRANCH   7  10
HETATM   10  C   UNL     1      -6.347  12.604  68.680  1.00  0.00    -0.074 A  
HETATM   11  C   UNL     1      -5.637  11.748  67.843  1.00  0.00    -0.051 A  
HETATM   12  C   UNL     1      -5.344  10.438  68.219  1.00  0.00    -0.034 A  
HETATM   13  C   UNL     1      -5.764   9.926  69.448  1.00  0.00    -0.037 A  
HETATM   14  C   UNL     1      -6.720  12.101  69.940  1.00  0.00     0.174 A  
HETATM   15  C   UNL     1      -6.438  10.779  70.320  1.00  0.00    -0.128 A  
BRANCH  13  16
HETATM   16  O   UNL     1      -5.568   8.623  69.861  1.00  0.00    -0.028 OA 
BRANCH  16  17
HETATM   17  C   UNL     1      -6.530   8.179  70.823  1.00  0.00    -0.037 C  
BRANCH  17  18
HETATM   18  C   UNL     1      -7.763   7.519  70.224  1.00  0.00    -0.092 C  
HETATM   19  C   UNL     1      -9.063   8.070  70.742  1.00  0.00    -0.145 C  
HETATM   20  O   UNL     1      -9.964   7.909  69.651  1.00  0.00    -0.184 OA 
HETATM   21  C   UNL     1      -9.171   7.989  68.438  1.00  0.00    -0.135 C  
HETATM   22  O   UNL     1      -7.792   7.808  68.817  1.00  0.00    -0.117 OA 
BRANCH  21  23
HETATM   23  C   UNL     1      -9.551   6.860  67.475  1.00  0.00    -0.150 A  
HETATM   24 CL   UNL     1     -10.452   5.249  69.537  1.00  0.00    -0.340 Cl 
HETATM   25  C   UNL     1     -10.112   5.632  67.886  1.00  0.00    -0.168 A  
HETATM   26  C   UNL     1      -9.349   7.043  66.089  1.00  0.00    -0.090 A  
HETATM   27  C   UNL     1      -9.694   6.059  65.161  1.00  0.00     0.890 A  
HETATM   28  C   UNL     1     -10.447   4.641  66.951  1.00  0.00    -0.048 A  
HETATM   29 CL   UNL     1     -10.684   3.655  64.452  1.00  0.00    -0.182 Cl 
HETATM   30  C   UNL     1     -10.243   4.862  65.595  1.00  0.00    -0.127 A  
ENDBRANCH  21  23
BRANCH  21  31
HETATM   31  C   UNL     1      -9.317   9.417  67.850  1.00  0.00    -0.129 C  
BRANCH  31  32
HETATM   32  N   UNL     1     -10.453  10.190  68.301  1.00  0.00    -0.199 NA 
HETATM   33  N   UNL     1     -11.856  11.904  68.448  1.00  0.00    -0.416 NA 
HETATM   34  C   UNL     1     -11.622   9.688  68.816  1.00  0.00     0.422 A  
HETATM   35  C   UNL     1     -10.638  11.533  68.110  1.00  0.00    -0.196 A  
HETATM   36  C   UNL     1     -12.479  10.759  68.874  1.00  0.00     0.533 A  
ENDBRANCH  31  32
ENDBRANCH  21  31
ENDBRANCH  17  18
ENDBRANCH  16  17
ENDBRANCH  13  16
ENDBRANCH   7  10
TORSDOF 7
ENDMDL
MODEL      201
REMARK 921   NORMALIZED FREE ENERGY PREDICTED BY IDOCK:   -1.50 KCAL/MOL
REMARK 922        TOTAL FREE ENERGY PREDICTED BY IDOCK:   -2.54 KCAL/MOL
REMARK 923 INTER-LIGAND FREE ENERGY PREDICTED BY IDOCK:   -2.80 KCAL/MOL
REMARK 924 INTRA-LIGAND FREE ENERGY PREDICTED BY IDOCK:    0.26 KCAL/MOL
REMARK 927      BINDING AFFINITY PREDICTED BY RF-SCORE:    0.00 PKD
ROOT
HETATM    1  C   UNL     1     -13.491  15.591  70.522  1.00  0.00     0.038 C  
HETATM    2  C   UNL     1     -13.126  14.163  70.832  1.00  0.00    -0.272 C  
HETATM    3  O   UNL     1     -13.957  13.405  71.332  1.00  0.00     0.031 OA 
HETATM    4  N   UNL     1     -11.869  13.742  70.438  1.00  0.00    -0.287 N  
HETATM    5  C   UNL     1     -11.536  12.317  70.559  1.00  0.00     0.313 C  
HETATM    6  C   UNL     1     -10.644  11.858  69.395  1.00  0.00     0.118 C  
HETATM    7  N   UNL     1      -9.446  12.726  69.321  1.00  0.00     0.676 NA 
HETATM    8  C   UNL     1     -10.707  14.627  70.241  1.00  0.00     0.117 C  
HETATM    9  C   UNL     1      -9.789  14.145  69.101  1.00  0.00     0.067 C  
ENDROOT
BRANCH   7  10
HETATM   10  C   UNL     1      -8.322  12.253  68.649  1.00  0.00    -0.002 A  
HETATM   11  C   UNL     1      -7.786  12.904  67.542  1.00  0.00    -0.177 A  
HETATM   12  C   UNL     1      -6.736  12.352  66.810  1.00  0.00     0.319 A  
HETATM   13  C   UNL     1      -6.187  11.114  67.150  1.00  0.00    -0.083 A  
HETATM   14  C   UNL     1      -7.729  11.033  69.022  1.00  0.00    -0.132 A  
HETATM   15  C   UNL     1      -6.679  10.465  68.282  1.00  0.00    -0.061 A  
BRANCH  13  16
HETATM   16  O   UNL     1      -5.194  10.475  66.435  1.00  0.00    -0.045 OA 
BRANCH  16  17
HETATM   17  C   UNL     1      -5.692   9.518  65.495  1.00  0.00    -0.057 C  
BRANCH  17  18
HETATM   18  C   UNL     1      -6.950   9.954  64.759  1.00  0.00    -0.132 C  
HETATM   19  C   UNL     1      -7.414   8.979  63.712  1.00  0.00    -0.107 C  
HETATM   20  O   UNL     1      -8.828   9.148  63.687  1.00  0.00    -0.178 OA 
HETATM   21  C   UNL     1      -9.224   9.561  65.020  1.00  0.00    -0.236 C  
HETATM   22  O   UNL     1      -8.033  10.002  65.703  1.00  0.00    -0.128 OA 
BRANCH  21  23
HETATM   23  C   UNL     1     -10.195  10.743  64.948  1.00  0.00    -0.388 A  
HETATM   24 CL   UNL     1      -9.476  11.324  62.339  1.00  0.00    -0.180 Cl 
HETATM   25  C   UNL     1     -10.355  11.561  63.810  1.00  0.00    -0.399 A  
HETATM   26  C   UNL     1     -10.997  11.042  66.071  1.00  0.00    -0.136 A  
HETATM   27  C   UNL     1     -11.915  12.094  66.059  1.00  0.00    -0.236 A  
HETATM   28  C   UNL     1     -11.270  12.624  63.804  1.00  0.00    -0.519 A  
HETATM   29 CL   UNL     1     -13.190  14.167  64.902  1.00  0.00     0.167 Cl 
HETATM   30  C   UNL     1     -12.049  12.881  64.925  1.00  0.00    -0.432 A  
ENDBRANCH  21  23
BRANCH  21  31
HETATM   31  C   UNL     1      -9.770   8.321  65.776  1.00  0.00     0.229 C  
BRANCH  31  32
HETATM   32  N   UNL     1      -9.235   8.079  67.097  1.00  0.00    -0.138 NA 
HETATM   33  N   UNL     1      -9.223   7.790  69.297  1.00  0.00    -0.146 NA 
HETATM   34  C   UNL     1      -8.072   7.413  67.391  1.00  0.00    -0.113 A  
HETATM   35  C   UNL     1      -9.888   8.298  68.280  1.00  0.00    -0.172 A  
HETATM   36  C   UNL     1      -8.100   7.224  68.751  1.00  0.00    -0.124 A  
ENDBRANCH  31  32
ENDBRANCH  21  31
ENDBRANCH  17  18
ENDBRANCH  16  17
ENDBRANCH  13  16
ENDBRANCH   7  10
TORSDOF 7
ENDMDL
MODEL      202
REMARK 921   NORMALIZED FREE ENERGY PREDICTED BY IDOCK:   -1.40 KCAL/MOL
REMARK 922        TOTAL FREE ENERGY PREDICTED BY IDOCK:   -2.40 KCAL/MOL
REMARK 923 INTER-LIGAND FREE ENERGY PREDICTED BY IDOCK:   -3.49 KCAL/MOL
REMARK 924 INTRA-LIGAND FREE ENERGY PREDICTED BY IDOCK:    1.09 KCAL/MOL
REMARK 927      BINDING AFFINITY PREDICTED BY RF-SCORE:    0.00 PKD
ROOT
HETATM    1  C   UNL     1     -14.317  13.052  72.678  1.00  0.00     0.302 C  
HETATM    2  C   UNL     1     -13.592  12.871  71.370  1.00  0.00     0.236 C  
HETATM    3  O   UNL     1     -13.408  13.832  70.624  1.00  0.00    -0.052 OA 
HETATM    4  N   UNL     1     -13.073  11.614  71.115  1.00  0.00    -0.185 N  
HETATM    5  C   UNL     1     -12.210  11.436  69.941  1.00  0.00    -0.277 C  
HETATM    6  C   UNL     1     -11.084  10.431  70.230  1.00  0.00    -0.307 C  
HETATM    7  N   UNL     1     -11.671   9.160  70.713  1.00  0.00    -0.277 NA 
HETATM    8  C   UNL     1     -13.580  10.359  71.698  1.00  0.00    -0.119 C  
HETATM    9  C   UNL     1     -12.457   9.334  71.951  1.00  0.00    -0.382 C  
ENDROOT
BRANCH   7  10
HETATM   10  C   UNL     1     -10.908   7.999  70.627  1.00  0.00    -0.234 A  
HETATM   11  C   UNL     1     -11.157   7.010  69.680  1.00  0.00    -0.254 A  
HETATM   12  C   UNL     1     -10.462   5.802  69.688  1.00  0.00    -0.363 A  
HETATM   13  C   UNL     1      -9.495   5.528  70.657  1.00  0.00    -0.165 A  
HETATM   14  C   UNL     1      -9.893   7.742  71.568  1.00  0.00    -0.200 A  
HETATM   15  C   UNL     1      -9.198   6.522  71.588  1.00  0.00    -0.143 A  
BRANCH  13  16
HETATM   16  O   UNL     1      -8.815   4.332  70.767  1.00  0.00    -0.088 OA 
BRANCH  16  17
HETATM   17  C   UNL     1      -7.480   4.477  71.264  1.00  0.00    -0.067 C  
BRANCH  17  18
HETATM   18  C   UNL     1      -6.559   5.289  70.366  1.00  0.00    -0.035 C  
HETATM   19  C   UNL     1      -5.639   4.452  69.521  1.00  0.00    -0.016 C  
HETATM   20  O   UNL     1      -5.442   5.236  68.347  1.00  0.00    -0.010 OA 
HETATM   21  C   UNL     1      -6.644   6.027  68.166  1.00  0.00    -0.055 C  
HETATM   22  O   UNL     1      -7.366   6.000  69.413  1.00  0.00    -0.075 OA 
BRANCH  21  23
HETATM   23  C   UNL     1      -6.285   7.483  67.856  1.00  0.00    -0.048 A  
HETATM   24 CL   UNL     1      -5.902   6.938  65.170  1.00  0.00    -0.035 Cl 
HETATM   25  C   UNL     1      -5.946   7.952  66.569  1.00  0.00    -0.041 A  
HETATM   26  C   UNL     1      -6.301   8.432  68.902  1.00  0.00    -0.045 A  
HETATM   27  C   UNL     1      -6.002   9.777  68.679  1.00  0.00    -0.042 A  
HETATM   28  C   UNL     1      -5.635   9.303  66.350  1.00  0.00    -0.052 A  
HETATM   29 CL   UNL     1      -5.319  11.867  67.121  1.00  0.00    -0.109 Cl 
HETATM   30  C   UNL     1      -5.672  10.208  67.402  1.00  0.00    -0.042 A  
ENDBRANCH  21  23
BRANCH  21  31
HETATM   31  C   UNL     1      -7.527   5.337  67.093  1.00  0.00    -0.084 C  
BRANCH  31  32
HETATM   32  N   UNL     1      -7.228   3.953  66.800  1.00  0.00    -0.067 NA 
HETATM   33  N   UNL     1      -6.116   2.206  66.002  1.00  0.00    -0.022 NA 
HETATM   34  C   UNL     1      -7.665   2.862  67.508  1.00  0.00    -0.068 A  
HETATM   35  C   UNL     1      -6.306   3.504  65.893  1.00  0.00    -0.032 A  
HETATM   36  C   UNL     1      -6.946   1.801  67.015  1.00  0.00    -0.039 A  
ENDBRANCH  31  32
ENDBRANCH  21  31
ENDBRANCH  17  18
ENDBRANCH  16  17
ENDBRANCH  13  16
ENDBRANCH   7  10
TORSDOF 7
ENDMDL
MODEL      203
REMARK 921   NORMALIZED FREE ENERGY PREDICTED BY IDOCK:   -1.35 KCAL/MOL
REMARK 922        TOTAL FREE ENERGY PREDICTED BY IDOCK:   -2.34 KCAL/MOL
REMARK 923 INTER-LIGAND FREE ENERGY PREDICTED BY IDOCK:   -2.39 KCAL/MOL
REMARK 924 INTRA-LIGAND FREE ENERGY PREDICTED BY IDOCK:    0.05 KCAL/MOL
REMARK 927      BINDING AFFINITY PREDICTED BY RF-SCORE:    0.00 PKD
ROOT
HETATM    1  C   UNL     1      -6.923  18.279  65.136  1.00  0.00     0.487 C  
HETATM    2  C   UNL     1      -7.746  17.792  66.300  1.00  0.00    -0.273 C  
HETATM    3  O   UNL     1      -8.868  18.254  66.503  1.00  0.00    -0.272 OA 
HETATM    4  N   UNL     1      -7.218  16.753  67.045  1.00  0.00    -0.179 N  
HETATM    5  C   UNL     1      -8.058  16.129  68.075  1.00  0.00    -0.146 C  
HETATM    6  C   UNL     1      -7.796  14.618  68.161  1.00  0.00    -0.128 C  
HETATM    7  N   UNL     1      -6.351  14.380  68.374  1.00  0.00    -0.092 NA 
HETATM    8  C   UNL     1      -5.782  16.439  67.154  1.00  0.00    -0.092 C  
HETATM    9  C   UNL     1      -5.520  14.926  67.282  1.00  0.00     0.551 C  
ENDROOT
BRANCH   7  10
HETATM   10  C   UNL     1      -5.947  13.156  68.900  1.00  0.00    -0.079 A  
HETATM   11  C   UNL     1      -5.443  12.131  68.105  1.00  0.00    -0.054 A  
HETATM   12  C   UNL     1      -5.159  10.872  68.631  1.00  0.00    -0.041 A  
HETATM   13  C   UNL     1      -5.384  10.582  69.978  1.00  0.00    -0.042 A  
HETATM   14  C   UNL     1      -6.120  12.876  70.268  1.00  0.00    -0.068 A  
HETATM   15  C   UNL     1      -5.848  11.606  70.803  1.00  0.00    -0.014 A  
BRANCH  13  16
HETATM   16  O   UNL     1      -5.190   9.342  70.554  1.00  0.00    -0.029 OA 
BRANCH  16  17
HETATM   17  C   UNL     1      -6.156   9.024  71.561  1.00  0.00    -0.070 C  
BRANCH  17  18
HETATM   18  C   UNL     1      -7.489   8.526  71.021  1.00  0.00    -0.080 C  
HETATM   19  C   UNL     1      -8.675   9.313  71.504  1.00  0.00     0.231 C  
HETATM   20  O   UNL     1      -9.610   9.218  70.433  1.00  0.00    -0.207 OA 
HETATM   21  C   UNL     1      -8.837   9.081  69.214  1.00  0.00    -0.139 C  
HETATM   22  O   UNL     1      -7.497   8.712  69.596  1.00  0.00    -0.065 OA 
BRANCH  21  23
HETATM   23  C   UNL     1      -9.408   7.960  68.341  1.00  0.00    -0.140 A  
HETATM   24 CL   UNL     1      -6.918   7.346  67.300  1.00  0.00    -0.080 Cl 
HETATM   25  C   UNL     1      -8.628   7.163  67.476  1.00  0.00    -0.122 A  
HETATM   26  C   UNL     1     -10.791   7.682  68.398  1.00  0.00    -0.011 A  
HETATM   27  C   UNL     1     -11.367   6.659  67.642  1.00  0.00    -0.078 A  
HETATM   28  C   UNL     1      -9.211   6.144  66.708  1.00  0.00    -0.143 A  
HETATM   29 CL   UNL     1     -11.278   4.623  65.879  1.00  0.00     0.321 Cl 
HETATM   30  C   UNL     1     -10.574   5.893  66.800  1.00  0.00    -0.300 A  
ENDBRANCH  21  23
BRANCH  21  31
HETATM   31  C   UNL     1      -8.766  10.468  68.520  1.00  0.00    -0.140 C  
BRANCH  31  32
HETATM   32  N   UNL     1      -9.032  10.496  67.100  1.00  0.00    -0.140 NA 
HETATM   33  N   UNL     1      -9.813  11.243  65.161  1.00  0.00    -0.240 NA 
HETATM   34  C   UNL     1      -8.289   9.882  66.124  1.00  0.00    -0.122 A  
HETATM   35  C   UNL     1      -9.948  11.295  66.470  1.00  0.00    -0.212 A  
HETATM   36  C   UNL     1      -8.773  10.378  64.938  1.00  0.00    -0.184 A  
ENDBRANCH  31  32
ENDBRANCH  21  31
ENDBRANCH  17  18
ENDBRANCH  16  17
ENDBRANCH  13  16
ENDBRANCH   7  10
TORSDOF 7
ENDMDL
MODEL      204
REMARK 921   NORMALIZED FREE ENERGY PREDICTED BY IDOCK:   -1.28 KCAL/MOL
REMARK 922        TOTAL FREE ENERGY PREDICTED BY IDOCK:   -2.23 KCAL/MOL
REMARK 923 INTER-LIGAND FREE ENERGY PREDICTED BY IDOCK:   -2.48 KCAL/MOL
REMARK 924 INTRA-LIGAND FREE ENERGY PREDICTED BY IDOCK:    0.25 KCAL/MOL
REMARK 927      BINDING AFFINITY PREDICTED BY RF-SCORE:    0.00 PKD
ROOT
HETATM    1  C   UNL     1      -9.212  18.525  67.257  1.00  0.00    -0.281 C  
HETATM    2  C   UNL     1      -8.720  17.187  66.771  1.00  0.00    -0.244 C  
HETATM    3  O   UNL     1      -7.661  17.104  66.149  1.00  0.00    -0.307 OA 
HETATM    4  N   UNL     1      -9.459  16.079  67.142  1.00  0.00    -0.214 N  
HETATM    5  C   UNL     1      -8.924  14.745  66.843  1.00  0.00    -0.253 C  
HETATM    6  C   UNL     1      -9.267  13.749  67.962  1.00  0.00    -0.195 C  
HETATM    7  N   UNL     1     -10.730  13.746  68.187  1.00  0.00    -0.242 NA 
HETATM    8  C   UNL     1     -10.891  16.100  67.490  1.00  0.00    -0.284 C  
HETATM    9  C   UNL     1     -11.244  15.073  68.583  1.00  0.00    -0.278 C  
ENDROOT
BRANCH   7  10
HETATM   10  C   UNL     1     -11.304  12.649  68.824  1.00  0.00    -0.289 A  
HETATM   11  C   UNL     1     -12.247  11.835  68.203  1.00  0.00     0.221 A  
HETATM   12  C   UNL     1     -12.899  10.816  68.895  1.00  0.00     1.539 A  
HETATM   13  C   UNL     1     -12.644  10.580  70.248  1.00  0.00    -0.235 A  
HETATM   14  C   UNL     1     -11.009  12.371  70.171  1.00  0.00     0.828 A  
HETATM   15  C   UNL     1     -11.672  11.355  70.878  1.00  0.00     0.087 A  
BRANCH  13  16
HETATM   16  O   UNL     1     -13.297   9.635  71.014  1.00  0.00    -0.325 OA 
BRANCH  16  17
HETATM   17  C   UNL     1     -12.598   8.390  71.104  1.00  0.00    -0.143 C  
BRANCH  17  18
HETATM   18  C   UNL     1     -11.290   8.345  70.328  1.00  0.00    -0.129 C  
HETATM   19  C   UNL     1     -10.130   7.807  71.119  1.00  0.00    -0.187 C  
HETATM   20  O   UNL     1      -9.302   7.188  70.139  1.00  0.00    -0.159 OA 
HETATM   21  C   UNL     1     -10.180   6.735  69.076  1.00  0.00    -0.178 C  
HETATM   22  O   UNL     1     -11.440   7.415  69.243  1.00  0.00     0.128 OA 
BRANCH  21  23
HETATM   23  C   UNL     1      -9.608   7.121  67.708  1.00  0.00    -0.146 A  
HETATM   24 CL   UNL     1     -10.471   4.758  66.553  1.00  0.00    -0.292 Cl 
HETATM   25  C   UNL     1      -9.695   6.303  66.562  1.00  0.00    -0.137 A  
HETATM   26  C   UNL     1      -8.964   8.368  67.561  1.00  0.00    -0.142 A  
HETATM   27  C   UNL     1      -8.441   8.784  66.335  1.00  0.00    -0.127 A  
HETATM   28  C   UNL     1      -9.159   6.719  65.334  1.00  0.00     0.267 A  
HETATM   29 CL   UNL     1      -7.912   8.475  63.711  1.00  0.00    -0.154 Cl 
HETATM   30  C   UNL     1      -8.541   7.958  65.225  1.00  0.00    -0.060 A  
ENDBRANCH  21  23
BRANCH  21  31
HETATM   31  C   UNL     1     -10.434   5.216  69.265  1.00  0.00    -0.123 C  
BRANCH  31  32
HETATM   32  N   UNL     1      -9.353   4.445  69.839  1.00  0.00    -0.137 NA 
HETATM   33  N   UNL     1      -8.101   3.494  71.406  1.00  0.00    -0.060 NA 
HETATM   34  C   UNL     1      -8.657   3.439  69.218  1.00  0.00    -0.070 A  
HETATM   35  C   UNL     1      -8.973   4.448  71.154  1.00  0.00    -0.121 A  
HETATM   36  C   UNL     1      -7.911   2.852  70.210  1.00  0.00    -0.042 A  
ENDBRANCH  31  32
ENDBRANCH  21  31
ENDBRANCH  17  18
ENDBRANCH  16  17
ENDBRANCH  13  16
ENDBRANCH   7  10
TORSDOF 7
ENDMDL
MODEL      205
REMARK 921   NORMALIZED FREE ENERGY PREDICTED BY IDOCK:   -1.24 KCAL/MOL
REMARK 922        TOTAL FREE ENERGY PREDICTED BY IDOCK:   -2.17 KCAL/MOL
REMARK 923 INTER-LIGAND FREE ENERGY PREDICTED BY IDOCK:   -4.34 KCAL/MOL
REMARK 924 INTRA-LIGAND FREE ENERGY PREDICTED BY IDOCK:    2.17 KCAL/MOL
REMARK 927      BINDING AFFINITY PREDICTED BY RF-SCORE:    0.00 PKD
ROOT
HETATM    1  C   UNL     1     -14.250  13.078  72.657  1.00  0.00     0.152 C  
HETATM    2  C   UNL     1     -13.518  12.884  71.355  1.00  0.00     0.065 C  
HETATM    3  O   UNL     1     -13.334  13.837  70.598  1.00  0.00    -0.052 OA 
HETATM    4  N   UNL     1     -12.993  11.627  71.118  1.00  0.00    -0.285 N  
HETATM    5  C   UNL     1     -12.123  11.438  69.950  1.00  0.00    -0.330 C  
HETATM    6  C   UNL     1     -10.995  10.440  70.257  1.00  0.00    -0.284 C  
HETATM    7  N   UNL     1     -11.579   9.173  70.751  1.00  0.00    -0.281 NA 
HETATM    8  C   UNL     1     -13.498  10.376  71.712  1.00  0.00    -0.267 C  
HETATM    9  C   UNL     1     -12.373   9.359  71.983  1.00  0.00    -0.345 C  
ENDROOT
BRANCH   7  10
HETATM   10  C   UNL     1     -10.811   8.014  70.683  1.00  0.00    -0.234 A  
HETATM   11  C   UNL     1     -11.087   6.988  69.785  1.00  0.00    -0.278 A  
HETATM   12  C   UNL     1     -10.383   5.784  69.814  1.00  0.00    -0.332 A  
HETATM   13  C   UNL     1      -9.380   5.554  70.758  1.00  0.00    -0.163 A  
HETATM   14  C   UNL     1      -9.762   7.800  71.596  1.00  0.00    -0.200 A  
HETATM   15  C   UNL     1      -9.057   6.585  71.639  1.00  0.00    -0.143 A  
BRANCH  13  16
HETATM   16  O   UNL     1      -8.688   4.367  70.890  1.00  0.00    -0.089 OA 
BRANCH  16  17
HETATM   17  C   UNL     1      -7.324   4.543  71.286  1.00  0.00    -0.056 C  
BRANCH  17  18
HETATM   18  C   UNL     1      -6.445   5.211  70.239  1.00  0.00    -0.034 C  
HETATM   19  C   UNL     1      -5.527   4.263  69.519  1.00  0.00    -0.012 C  
HETATM   20  O   UNL     1      -5.378   4.843  68.226  1.00  0.00    -0.009 OA 
HETATM   21  C   UNL     1      -6.603   5.570  67.951  1.00  0.00    -0.053 C  
HETATM   22  O   UNL     1      -7.293   5.738  69.206  1.00  0.00    -0.074 OA 
BRANCH  21  23
HETATM   23  C   UNL     1      -6.287   6.961  67.393  1.00  0.00    -0.045 A  
HETATM   24 CL   UNL     1      -5.413   7.875  69.856  1.00  0.00    -0.023 Cl 
HETATM   25  C   UNL     1      -5.769   8.019  68.169  1.00  0.00    -0.034 A  
HETATM   26  C   UNL     1      -6.507   7.218  66.022  1.00  0.00    -0.045 A  
HETATM   27  C   UNL     1      -6.220   8.459  65.452  1.00  0.00    -0.045 A  
HETATM   28  C   UNL     1      -5.491   9.269  67.596  1.00  0.00    -0.038 A  
HETATM   29 CL   UNL     1      -5.341  11.006  65.538  1.00  0.00    -0.125 Cl 
HETATM   30  C   UNL     1      -5.711   9.481  66.241  1.00  0.00    -0.053 A  
ENDBRANCH  21  23
BRANCH  21  31
HETATM   31  C   UNL     1      -7.497   4.694  67.033  1.00  0.00    -0.086 C  
BRANCH  31  32
HETATM   32  N   UNL     1      -8.880   5.094  66.902  1.00  0.00    -0.110 NA 
HETATM   33  N   UNL     1     -10.619   6.432  66.564  1.00  0.00    -0.140 NA 
HETATM   34  C   UNL     1      -9.929   4.281  66.553  1.00  0.00    -0.192 A  
HETATM   35  C   UNL     1      -9.349   6.380  66.910  1.00  0.00    -0.134 A  
HETATM   36  C   UNL     1     -10.982   5.132  66.325  1.00  0.00     0.032 A  
ENDBRANCH  31  32
ENDBRANCH  21  31
ENDBRANCH  17  18
ENDBRANCH  16  17
ENDBRANCH  13  16
ENDBRANCH   7  10
TORSDOF 7
ENDMDL
MODEL      206
REMARK 921   NORMALIZED FREE ENERGY PREDICTED BY IDOCK:   -1.20 KCAL/MOL
REMARK 922        TOTAL FREE ENERGY PREDICTED BY IDOCK:   -2.12 KCAL/MOL
REMARK 923 INTER-LIGAND FREE ENERGY PREDICTED BY IDOCK:   -4.23 KCAL/MOL
REMARK 924 INTRA-LIGAND FREE ENERGY PREDICTED BY IDOCK:    2.11 KCAL/MOL
REMARK 927      BINDING AFFINITY PREDICTED BY RF-SCORE:    0.00 PKD
ROOT
HETATM    1  C   UNL     1      -5.586   9.426  71.856  1.00  0.00    -0.065 C  
HETATM    2  C   UNL     1      -5.567   9.863  70.415  1.00  0.00    -0.052 C  
HETATM    3  O   UNL     1      -5.605   9.027  69.512  1.00  0.00    -0.034 OA 
HETATM    4  N   UNL     1      -5.604  11.225  70.176  1.00  0.00    -0.095 N  
HETATM    5  C   UNL     1      -5.765  11.692  68.794  1.00  0.00    -0.046 C  
HETATM    6  C   UNL     1      -6.631  12.960  68.736  1.00  0.00    -0.090 C  
HETATM    7  N   UNL     1      -6.055  13.990  69.630  1.00  0.00    -0.114 NA 
HETATM    8  C   UNL     1      -5.146  12.258  71.122  1.00  0.00    -0.143 C  
HETATM    9  C   UNL     1      -5.988  13.546  71.037  1.00  0.00    -0.030 C  
ENDROOT
BRANCH   7  10
HETATM   10  C   UNL     1      -6.402  15.322  69.421  1.00  0.00    -0.135 A  
HETATM   11  C   UNL     1      -5.467  16.292  69.073  1.00  0.00    -0.111 A  
HETATM   12  C   UNL     1      -5.810  17.640  68.987  1.00  0.00    -0.193 A  
HETATM   13  C   UNL     1      -7.108  18.076  69.263  1.00  0.00    -0.110 A  
HETATM   14  C   UNL     1      -7.721  15.759  69.643  1.00  0.00    -0.060 A  
HETATM   15  C   UNL     1      -8.072  17.117  69.571  1.00  0.00     0.520 A  
BRANCH  13  16
HETATM   16  O   UNL     1      -7.506  19.398  69.264  1.00  0.00    -0.337 OA 
BRANCH  16  17
HETATM   17  C   UNL     1      -8.927  19.566  69.270  1.00  0.00     0.024 C  
BRANCH  17  18
HETATM   18  C   UNL     1      -9.621  19.106  67.996  1.00  0.00    -0.332 C  
HETATM   19  C   UNL     1      -9.479  20.061  66.844  1.00  0.00    -0.402 C  
HETATM   20  O   UNL     1      -9.508  19.220  65.694  1.00  0.00    -0.312 OA 
HETATM   21  C   UNL     1      -8.964  17.938  66.100  1.00  0.00    -0.095 C  
HETATM   22  O   UNL     1      -8.979  17.903  67.541  1.00  0.00    -0.245 OA 
BRANCH  21  23
HETATM   23  C   UNL     1      -9.847  16.796  65.587  1.00  0.00    -0.111 A  
HETATM   24 CL   UNL     1      -8.149  14.868  66.619  1.00  0.00    -0.010 Cl 
HETATM   25  C   UNL     1      -9.550  15.429  65.774  1.00  0.00    -0.333 A  
HETATM   26  C   UNL     1     -11.038  17.106  64.896  1.00  0.00     0.268 A  
HETATM   27  C   UNL     1     -11.893  16.109  64.423  1.00  0.00     0.051 A  
HETATM   28  C   UNL     1     -10.405  14.429  65.287  1.00  0.00    -0.427 A  
HETATM   29 CL   UNL     1     -12.634  13.544  64.053  1.00  0.00    -0.245 Cl 
HETATM   30  C   UNL     1     -11.574  14.773  64.621  1.00  0.00    -0.399 A  
ENDBRANCH  21  23
BRANCH  21  31
HETATM   31  C   UNL     1      -7.484  17.867  65.640  1.00  0.00     0.101 C  
BRANCH  31  32
HETATM   32  N   UNL     1      -6.785  19.126  65.509  1.00  0.00    -0.317 NA 
HETATM   33  N   UNL     1      -5.300  20.717  65.942  1.00  0.00    -0.189 NA 
HETATM   34  C   UNL     1      -6.693  19.886  64.370  1.00  0.00     0.247 A  
HETATM   35  C   UNL     1      -5.938  19.675  66.433  1.00  0.00    -0.166 A  
HETATM   36  C   UNL     1      -5.752  20.845  64.654  1.00  0.00    -0.246 A  
ENDBRANCH  31  32
ENDBRANCH  21  31
ENDBRANCH  17  18
ENDBRANCH  16  17
ENDBRANCH  13  16
ENDBRANCH   7  10
TORSDOF 7
ENDMDL
MODEL      207
REMARK 921   NORMALIZED FREE ENERGY PREDICTED BY IDOCK:   -0.96 KCAL/MOL
REMARK 922        TOTAL FREE ENERGY PREDICTED BY IDOCK:   -1.78 KCAL/MOL
REMARK 923 INTER-LIGAND FREE ENERGY PREDICTED BY IDOCK:   -1.55 KCAL/MOL
REMARK 924 INTRA-LIGAND FREE ENERGY PREDICTED BY IDOCK:   -0.23 KCAL/MOL
REMARK 927      BINDING AFFINITY PREDICTED BY RF-SCORE:    0.00 PKD
ROOT
HETATM    1  C   UNL     1      -8.585  18.696  66.803  1.00  0.00    -0.291 C  
HETATM    2  C   UNL     1      -9.892  17.980  66.590  1.00  0.00    -0.352 C  
HETATM    3  O   UNL     1     -10.915  18.617  66.339  1.00  0.00    -0.138 OA 
HETATM    4  N   UNL     1      -9.853  16.597  66.594  1.00  0.00    -0.261 N  
HETATM    5  C   UNL     1     -11.064  15.859  66.217  1.00  0.00    -0.014 C  
HETATM    6  C   UNL     1     -10.713  14.584  65.434  1.00  0.00    -0.361 C  
HETATM    7  N   UNL     1      -9.763  13.768  66.224  1.00  0.00    -0.293 NA 
HETATM    8  C   UNL     1      -8.830  15.786  67.277  1.00  0.00    -0.195 C  
HETATM    9  C   UNL     1      -8.506  14.487  66.514  1.00  0.00     0.165 C  
ENDROOT
BRANCH   7  10
HETATM   10  C   UNL     1      -9.643  12.413  65.928  1.00  0.00    -0.187 A  
HETATM   11  C   UNL     1      -8.577  11.902  65.193  1.00  0.00     0.780 A  
HETATM   12  C   UNL     1      -8.536  10.564  64.802  1.00  0.00    -0.173 A  
HETATM   13  C   UNL     1      -9.573   9.684  65.121  1.00  0.00    -0.254 A  
HETATM   14  C   UNL     1     -10.657  11.510  66.294  1.00  0.00    -0.309 A  
HETATM   15  C   UNL     1     -10.629  10.165  65.894  1.00  0.00    -0.042 A  
BRANCH  13  16
HETATM   16  O   UNL     1      -9.633   8.366  64.713  1.00  0.00     0.824 OA 
BRANCH  16  17
HETATM   17  C   UNL     1     -10.020   7.464  65.755  1.00  0.00     0.902 C  
BRANCH  17  18
HETATM   18  C   UNL     1      -9.445   7.799  67.124  1.00  0.00    -0.155 C  
HETATM   19  C   UNL     1      -9.494   6.658  68.102  1.00  0.00    -0.115 C  
HETATM   20  O   UNL     1      -8.364   6.876  68.942  1.00  0.00    -0.120 OA 
HETATM   21  C   UNL     1      -7.369   7.558  68.136  1.00  0.00    -0.096 C  
HETATM   22  O   UNL     1      -8.043   8.075  66.971  1.00  0.00    -0.113 OA 
BRANCH  21  23
HETATM   23  C   UNL     1      -6.776   8.742  68.905  1.00  0.00    -0.053 A  
HETATM   24 CL   UNL     1      -5.843   9.930  66.586  1.00  0.00    -0.053 Cl 
HETATM   25  C   UNL     1      -6.091   9.813  68.293  1.00  0.00    -0.050 A  
HETATM   26  C   UNL     1      -6.923   8.791  70.309  1.00  0.00    -0.043 A  
HETATM   27  C   UNL     1      -6.421   9.853  71.063  1.00  0.00     0.021 A  
HETATM   28  C   UNL     1      -5.579  10.874  69.055  1.00  0.00    -0.040 A  
HETATM   29 CL   UNL     1      -5.148  12.210  71.358  1.00  0.00    -0.123 Cl 
HETATM   30  C   UNL     1      -5.752  10.892  70.433  1.00  0.00    -0.117 A  
ENDBRANCH  21  23
BRANCH  21  31
HETATM   31  C   UNL     1      -6.328   6.513  67.655  1.00  0.00    -0.043 C  
BRANCH  31  32
HETATM   32  N   UNL     1      -6.470   6.034  66.298  1.00  0.00    -0.045 NA 
HETATM   33  N   UNL     1      -7.266   4.846  64.601  1.00  0.00    -0.061 NA 
HETATM   34  C   UNL     1      -6.140   6.723  65.158  1.00  0.00    -0.035 A  
HETATM   35  C   UNL     1      -7.134   4.902  65.910  1.00  0.00    -0.068 A  
HETATM   36  C   UNL     1      -6.664   5.982  64.127  1.00  0.00    -0.038 A  
ENDBRANCH  31  32
ENDBRANCH  21  31
ENDBRANCH  17  18
ENDBRANCH  16  17
ENDBRANCH  13  16
ENDBRANCH   7  10
TORSDOF 7
ENDMDL
MODEL      208
REMARK 921   NORMALIZED FREE ENERGY PREDICTED BY IDOCK:    1.32 KCAL/MOL
REMARK 922        TOTAL FREE ENERGY PREDICTED BY IDOCK:    1.44 KCAL/MOL
REMARK 923 INTER-LIGAND FREE ENERGY PREDICTED BY IDOCK:    1.54 KCAL/MOL
REMARK 924 INTRA-LIGAND FREE ENERGY PREDICTED BY IDOCK:   -0.10 KCAL/MOL
REMARK 927      BINDING AFFINITY PREDICTED BY RF-SCORE:    0.00 PKD
ROOT
HETATM    1  C   UNL     1     -11.582  18.452  73.497  1.00  0.00     2.261 C  
HETATM    2  C   UNL     1     -12.645  17.391  73.613  1.00  0.00     1.487 C  
HETATM    3  O   UNL     1     -13.717  17.644  74.162  1.00  0.00     2.287 OA 
HETATM    4  N   UNL     1     -12.387  16.181  72.994  1.00  0.00    -0.497 N  
HETATM    5  C   UNL     1     -13.461  15.183  72.929  1.00  0.00    -0.489 C  
HETATM    6  C   UNL     1     -13.413  14.405  71.605  1.00  0.00    -0.372 C  
HETATM    7  N   UNL     1     -12.066  13.815  71.429  1.00  0.00    -0.154 NA 
HETATM    8  C   UNL     1     -11.042  15.653  72.705  1.00  0.00     0.466 C  
HETATM    9  C   UNL     1     -11.001  14.838  71.398  1.00  0.00     0.382 C  
ENDROOT
BRANCH   7  10
HETATM   10  C   UNL     1     -11.917  12.744  70.552  1.00  0.00    -0.191 A  
HETATM   11  C   UNL     1     -11.846  11.425  70.991  1.00  0.00     0.027 A  
HETATM   12  C   UNL     1     -11.575  10.378  70.111  1.00  0.00    -0.392 A  
HETATM   13  C   UNL     1     -11.349  10.613  68.753  1.00  0.00    -0.277 A  
HETATM   14  C   UNL     1     -11.745  12.970  69.174  1.00  0.00    -0.378 A  
HETATM   15  C   UNL     1     -11.459  11.921  68.285  1.00  0.00    -0.372 A  
BRANCH  13  16
HETATM   16  O   UNL     1     -11.010   9.637  67.836  1.00  0.00    -0.243 OA 
BRANCH  16  17
HETATM   17  C   UNL     1     -10.363  10.152  66.668  1.00  0.00    -0.208 C  
BRANCH  17  18
HETATM   18  C   UNL     1      -9.965   9.094  65.650  1.00  0.00     0.034 C  
HETATM   19  C   UNL     1      -8.897   9.541  64.691  1.00  0.00    -0.213 C  
HETATM   20  O   UNL     1      -8.196   8.342  64.373  1.00  0.00    -0.160 OA 
HETATM   21  C   UNL     1      -8.304   7.475  65.531  1.00  0.00    -0.133 C  
HETATM   22  O   UNL     1      -9.369   7.991  66.354  1.00  0.00    -0.185 OA 
BRANCH  21  23
HETATM   23  C   UNL     1      -8.681   6.054  65.102  1.00  0.00    -0.017 A  
HETATM   24 CL   UNL     1      -7.982   6.540  62.469  1.00  0.00    -0.103 Cl 
HETATM   25  C   UNL     1      -8.570   5.577  63.779  1.00  0.00     0.041 A  
HETATM   26  C   UNL     1      -9.157   5.147  66.074  1.00  0.00    -0.149 A  
HETATM   27  C   UNL     1      -9.498   3.833  65.748  1.00  0.00    -0.170 A  
HETATM   28  C   UNL     1      -8.924   4.260  63.452  1.00  0.00    -0.130 A  
HETATM   29 CL   UNL     1      -9.783   1.771  64.037  1.00  0.00    -0.134 Cl 
HETATM   30  C   UNL     1      -9.379   3.393  64.438  1.00  0.00    -0.140 A  
ENDBRANCH  21  23
BRANCH  21  31
HETATM   31  C   UNL     1      -6.986   7.577  66.344  1.00  0.00    -0.070 C  
BRANCH  31  32
HETATM   32  N   UNL     1      -6.845   6.675  67.465  1.00  0.00    -0.073 NA 
HETATM   33  N   UNL     1      -5.961   5.082  68.733  1.00  0.00    -0.020 NA 
HETATM   34  C   UNL     1      -7.347   6.866  68.727  1.00  0.00    -0.094 A  
HETATM   35  C   UNL     1      -6.026   5.578  67.515  1.00  0.00    -0.022 A  
HETATM   36  C   UNL     1      -6.767   5.887  69.496  1.00  0.00    -0.059 A  
ENDBRANCH  31  32
ENDBRANCH  21  31
ENDBRANCH  17  18
ENDBRANCH  16  17
ENDBRANCH  13  16
ENDBRANCH   7  10
TORSDOF 7
ENDMDL
MODEL      209
REMARK 921   NORMALIZED FREE ENERGY PREDICTED BY IDOCK:    1.34 KCAL/MOL
REMARK 922        TOTAL FREE ENERGY PREDICTED BY IDOCK:    1.46 KCAL/MOL
REMARK 923 INTER-LIGAND FREE ENERGY PREDICTED BY IDOCK:    2.00 KCAL/MOL
REMARK 924 INTRA-LIGAND FREE ENERGY PREDICTED BY IDOCK:   -0.54 KCAL/MOL
REMARK 927      BINDING AFFINITY PREDICTED BY RF-SCORE:    0.00 PKD
ROOT
HETATM    1  C   UNL     1     -12.003  13.946  62.767  1.00  0.00     1.677 C  
HETATM    2  C   UNL     1     -11.091  12.826  63.195  1.00  0.00     0.225 C  
HETATM    3  O   UNL     1     -10.130  12.506  62.496  1.00  0.00     0.984 OA 
HETATM    4  N   UNL     1     -11.336  12.263  64.434  1.00  0.00    -0.319 N  
HETATM    5  C   UNL     1     -10.372  11.294  64.968  1.00  0.00    -0.301 C  
HETATM    6  C   UNL     1     -10.230  11.437  66.491  1.00  0.00    -0.221 C  
HETATM    7  N   UNL     1     -11.565  11.328  67.122  1.00  0.00    -0.513 NA 
HETATM    8  C   UNL     1     -12.641  12.268  65.119  1.00  0.00     0.032 C  
HETATM    9  C   UNL     1     -12.500  12.370  66.650  1.00  0.00     0.779 C  
ENDROOT
BRANCH   7  10
HETATM   10  C   UNL     1     -11.639  11.002  68.473  1.00  0.00    -0.310 A  
HETATM   11  C   UNL     1     -10.790  11.561  69.423  1.00  0.00    -0.180 A  
HETATM   12  C   UNL     1     -10.798  11.132  70.750  1.00  0.00     1.322 A  
HETATM   13  C   UNL     1     -11.650  10.111  71.177  1.00  0.00    -0.346 A  
HETATM   14  C   UNL     1     -12.536  10.013  68.920  1.00  0.00     1.598 A  
HETATM   15  C   UNL     1     -12.540   9.568  70.251  1.00  0.00     0.308 A  
BRANCH  13  16
HETATM   16  O   UNL     1     -11.667   9.590  72.455  1.00  0.00     0.050 OA 
BRANCH  16  17
HETATM   17  C   UNL     1     -12.392   8.361  72.560  1.00  0.00    -0.296 C  
BRANCH  17  18
HETATM   18  C   UNL     1     -11.609   7.128  72.132  1.00  0.00    -0.279 C  
HETATM   19  C   UNL     1     -12.184   6.425  70.934  1.00  0.00    -0.014 C  
HETATM   20  O   UNL     1     -11.048   5.850  70.294  1.00  0.00    -0.327 OA 
HETATM   21  C   UNL     1      -9.919   6.710  70.595  1.00  0.00    -0.184 C  
HETATM   22  O   UNL     1     -10.304   7.549  71.703  1.00  0.00    -0.193 OA 
BRANCH  21  23
HETATM   23  C   UNL     1      -8.711   5.875  71.028  1.00  0.00    -0.135 A  
HETATM   24 CL   UNL     1      -7.109   8.118  71.287  1.00  0.00    -0.056 Cl 
HETATM   25  C   UNL     1      -7.449   6.423  71.342  1.00  0.00    -0.089 A  
HETATM   26  C   UNL     1      -8.848   4.474  71.139  1.00  0.00    -0.151 A  
HETATM   27  C   UNL     1      -7.789   3.662  71.548  1.00  0.00    -0.057 A  
HETATM   28  C   UNL     1      -6.383   5.603  71.742  1.00  0.00    -0.044 A  
HETATM   29 CL   UNL     1      -5.258   3.234  72.369  1.00  0.00     0.000 Cl 
HETATM   30  C   UNL     1      -6.560   4.230  71.849  1.00  0.00    -0.022 A  
ENDBRANCH  21  23
BRANCH  21  31
HETATM   31  C   UNL     1      -9.664   7.630  69.371  1.00  0.00    -0.165 C  
BRANCH  31  32
HETATM   32  N   UNL     1      -9.532   6.978  68.088  1.00  0.00    -0.125 NA 
HETATM   33  N   UNL     1      -8.551   5.922  66.400  1.00  0.00    -0.123 NA 
HETATM   34  C   UNL     1     -10.535   6.353  67.389  1.00  0.00    -0.252 A  
HETATM   35  C   UNL     1      -8.357   6.701  67.444  1.00  0.00    -0.121 A  
HETATM   36  C   UNL     1      -9.901   5.688  66.369  1.00  0.00    -0.154 A  
ENDBRANCH  31  32
ENDBRANCH  21  31
ENDBRANCH  17  18
ENDBRANCH  16  17
ENDBRANCH  13  16
ENDBRANCH   7  10
TORSDOF 7
ENDMDL
MODEL      210
REMARK 921   NORMALIZED FREE ENERGY PREDICTED BY IDOCK:    2.76 KCAL/MOL
REMARK 922        TOTAL FREE ENERGY PREDICTED BY IDOCK:    3.46 KCAL/MOL
REMARK 923 INTER-LIGAND FREE ENERGY PREDICTED BY IDOCK:    2.72 KCAL/MOL
REMARK 924 INTRA-LIGAND FREE ENERGY PREDICTED BY IDOCK:    0.74 KCAL/MOL
REMARK 927      BINDING AFFINITY PREDICTED BY RF-SCORE:    0.00 PKD
ROOT
HETATM    1  C   UNL     1     -11.553  13.287  62.510  1.00  0.00     2.871 C  
HETATM    2  C   UNL     1     -10.619  12.211  62.997  1.00  0.00     0.062 C  
HETATM    3  O   UNL     1      -9.628  11.903  62.334  1.00  0.00     0.163 OA 
HETATM    4  N   UNL     1     -10.880  11.676  64.245  1.00  0.00    -0.336 N  
HETATM    5  C   UNL     1      -9.900  10.755  64.834  1.00  0.00    -0.292 C  
HETATM    6  C   UNL     1      -9.807  10.947  66.356  1.00  0.00    -0.207 C  
HETATM    7  N   UNL     1     -11.155  10.813  66.952  1.00  0.00    -0.227 NA 
HETATM    8  C   UNL     1     -12.203  11.658  64.893  1.00  0.00     0.395 C  
HETATM    9  C   UNL     1     -12.109  11.809  66.424  1.00  0.00     0.576 C  
ENDROOT
BRANCH   7  10
HETATM   10  C   UNL     1     -11.257  10.524  68.310  1.00  0.00    -0.291 A  
HETATM   11  C   UNL     1     -10.569  11.246  69.281  1.00  0.00    -0.187 A  
HETATM   12  C   UNL     1     -10.587  10.866  70.622  1.00  0.00     1.026 A  
HETATM   13  C   UNL     1     -11.286   9.734  71.045  1.00  0.00    -0.387 A  
HETATM   14  C   UNL     1     -12.006   9.416  68.749  1.00  0.00     1.445 A  
HETATM   15  C   UNL     1     -12.018   9.020  70.097  1.00  0.00     0.278 A  
BRANCH  13  16
HETATM   16  O   UNL     1     -11.296   9.259  72.341  1.00  0.00    -0.037 OA 
BRANCH  16  17
HETATM   17  C   UNL     1     -11.851   7.945  72.464  1.00  0.00    -0.335 C  
BRANCH  17  18
HETATM   18  C   UNL     1     -10.906   6.822  72.063  1.00  0.00    -0.227 C  
HETATM   19  C   UNL     1     -10.661   6.730  70.582  1.00  0.00    -0.224 C  
HETATM   20  O   UNL     1      -9.337   6.213  70.484  1.00  0.00    -0.159 OA 
HETATM   21  C   UNL     1      -8.623   6.662  71.665  1.00  0.00    -0.123 C  
HETATM   22  O   UNL     1      -9.610   7.101  72.619  1.00  0.00    -0.144 OA 
BRANCH  21  23
HETATM   23  C   UNL     1      -7.840   5.504  72.289  1.00  0.00    -0.103 A  
HETATM   24 CL   UNL     1      -9.805   3.669  71.632  1.00  0.00    -0.242 Cl 
HETATM   25  C   UNL     1      -8.297   4.169  72.315  1.00  0.00    -0.102 A  
HETATM   26  C   UNL     1      -6.577   5.762  72.867  1.00  0.00    -0.072 A  
HETATM   27  C   UNL     1      -5.808   4.744  73.434  1.00  0.00    -0.017 A  
HETATM   28  C   UNL     1      -7.527   3.151  72.896  1.00  0.00    -0.050 A  
HETATM   29 CL   UNL     1      -5.331   2.184  74.128  1.00  0.00     0.000 Cl 
HETATM   30  C   UNL     1      -6.285   3.442  73.445  1.00  0.00    -0.016 A  
ENDBRANCH  21  23
BRANCH  21  31
HETATM   31  C   UNL     1      -7.760   7.892  71.277  1.00  0.00    -0.086 C  
BRANCH  31  32
HETATM   32  N   UNL     1      -7.087   7.834  69.999  1.00  0.00    -0.054 NA 
HETATM   33  N   UNL     1      -6.366   8.514  68.013  1.00  0.00    -0.055 NA 
HETATM   34  C   UNL     1      -6.020   7.031  69.681  1.00  0.00    -0.023 A  
HETATM   35  C   UNL     1      -7.266   8.702  68.956  1.00  0.00    -0.072 A  
HETATM   36  C   UNL     1      -5.578   7.487  68.464  1.00  0.00    -0.027 A  
ENDBRANCH  31  32
ENDBRANCH  21  31
ENDBRANCH  17  18
ENDBRANCH  16  17
ENDBRANCH  13  16
ENDBRANCH   7  10
TORSDOF 7
ENDMDL
MODEL      211
REMARK 921   NORMALIZED FREE ENERGY PREDICTED BY IDOCK:    3.21 KCAL/MOL
REMARK 922        TOTAL FREE ENERGY PREDICTED BY IDOCK:    4.09 KCAL/MOL
REMARK 923 INTER-LIGAND FREE ENERGY PREDICTED BY IDOCK:    2.85 KCAL/MOL
REMARK 924 INTRA-LIGAND FREE ENERGY PREDICTED BY IDOCK:    1.24 KCAL/MOL
REMARK 927      BINDING AFFINITY PREDICTED BY RF-SCORE:    0.00 PKD
ROOT
HETATM    1  C   UNL     1      -7.077  12.673  70.751  1.00  0.00     3.073 C  
HETATM    2  C   UNL     1      -6.069  11.715  71.329  1.00  0.00     0.967 C  
HETATM    3  O   UNL     1      -5.432  12.018  72.338  1.00  0.00    -0.111 OA 
HETATM    4  N   UNL     1      -5.979  10.471  70.732  1.00  0.00    -0.101 N  
HETATM    5  C   UNL     1      -5.141   9.446  71.367  1.00  0.00    -0.049 C  
HETATM    6  C   UNL     1      -5.764   8.050  71.213  1.00  0.00    -0.034 C  
HETATM    7  N   UNL     1      -6.019   7.780  69.780  1.00  0.00    -0.023 NA 
HETATM    8  C   UNL     1      -6.353  10.176  69.337  1.00  0.00    -0.048 C  
HETATM    9  C   UNL     1      -6.941   8.761  69.174  1.00  0.00    -0.059 C  
ENDROOT
BRANCH   7  10
HETATM   10  C   UNL     1      -6.168   6.459  69.367  1.00  0.00    -0.034 A  
HETATM   11  C   UNL     1      -5.179   5.779  68.663  1.00  0.00     0.000 A  
HETATM   12  C   UNL     1      -5.394   4.500  68.153  1.00  0.00    -0.011 A  
HETATM   13  C   UNL     1      -6.620   3.852  68.316  1.00  0.00    -0.045 A  
HETATM   14  C   UNL     1      -7.383   5.779  69.577  1.00  0.00    -0.071 A  
HETATM   15  C   UNL     1      -7.611   4.496  69.056  1.00  0.00    -0.056 A  
BRANCH  13  16
HETATM   16  O   UNL     1      -6.928   2.616  67.784  1.00  0.00    -0.047 OA 
BRANCH  16  17
HETATM   17  C   UNL     1      -7.830   2.681  66.675  1.00  0.00    -0.076 C  
BRANCH  17  18
HETATM   18  C   UNL     1      -7.687   3.930  65.818  1.00  0.00    -0.089 C  
HETATM   19  C   UNL     1      -8.624   3.975  64.643  1.00  0.00    -0.116 C  
HETATM   20  O   UNL     1      -8.862   5.366  64.447  1.00  0.00    -0.072 OA 
HETATM   21  C   UNL     1      -8.737   6.000  65.746  1.00  0.00    -0.151 C  
HETATM   22  O   UNL     1      -8.059   5.068  66.612  1.00  0.00    -0.107 OA 
BRANCH  21  23
HETATM   23  C   UNL     1      -7.880   7.265  65.644  1.00  0.00    -0.112 A  
HETATM   24 CL   UNL     1      -9.896   8.666  64.364  1.00  0.00     1.809 Cl 
HETATM   25  C   UNL     1      -8.320   8.466  65.049  1.00  0.00    -0.158 A  
HETATM   26  C   UNL     1      -6.575   7.255  66.183  1.00  0.00    -0.052 A  
HETATM   27  C   UNL     1      -5.754   8.383  66.138  1.00  0.00    -0.043 A  
HETATM   28  C   UNL     1      -7.488   9.595  64.996  1.00  0.00    -0.116 A  
HETATM   29 CL   UNL     1      -5.210  10.945  65.504  1.00  0.00    -0.139 Cl 
HETATM   30  C   UNL     1      -6.214   9.550  65.546  1.00  0.00    -0.066 A  
ENDBRANCH  21  23
BRANCH  21  31
HETATM   31  C   UNL     1     -10.161   6.228  66.318  1.00  0.00     0.087 C  
BRANCH  31  32
HETATM   32  N   UNL     1     -10.243   6.747  67.665  1.00  0.00    -0.162 NA 
HETATM   33  N   UNL     1     -10.460   8.241  69.292  1.00  0.00    -0.219 NA 
HETATM   34  C   UNL     1     -10.632   6.048  68.780  1.00  0.00    -0.282 A  
HETATM   35  C   UNL     1     -10.138   8.062  68.028  1.00  0.00    -0.194 A  
HETATM   36  C   UNL     1     -10.783   6.995  69.763  1.00  0.00    -0.241 A  
ENDBRANCH  31  32
ENDBRANCH  21  31
ENDBRANCH  17  18
ENDBRANCH  16  17
ENDBRANCH  13  16
ENDBRANCH   7  10
TORSDOF 7
ENDMDL
MODEL      212
REMARK 921   NORMALIZED FREE ENERGY PREDICTED BY IDOCK:    3.68 KCAL/MOL
REMARK 922        TOTAL FREE ENERGY PREDICTED BY IDOCK:    4.75 KCAL/MOL
REMARK 923 INTER-LIGAND FREE ENERGY PREDICTED BY IDOCK:   -1.63 KCAL/MOL
REMARK 924 INTRA-LIGAND FREE ENERGY PREDICTED BY IDOCK:    6.39 KCAL/MOL
REMARK 927      BINDING AFFINITY PREDICTED BY RF-SCORE:    0.00 PKD
ROOT
HETATM    1  C   UNL     1      -9.106  10.338  62.358  1.00  0.00    -0.311 C  
HETATM    2  C   UNL     1      -8.562   9.642  63.578  1.00  0.00    -0.209 C  
HETATM    3  O   UNL     1      -7.504   9.017  63.516  1.00  0.00    -0.099 OA 
HETATM    4  N   UNL     1      -9.254   9.828  64.761  1.00  0.00    -0.250 N  
HETATM    5  C   UNL     1      -8.668   9.317  66.006  1.00  0.00    -0.153 C  
HETATM    6  C   UNL     1      -8.964  10.258  67.183  1.00  0.00    -0.135 C  
HETATM    7  N   UNL     1     -10.424  10.478  67.282  1.00  0.00    -0.235 NA 
HETATM    8  C   UNL     1     -10.684  10.173  64.855  1.00  0.00     0.760 C  
HETATM    9  C   UNL     1     -10.989  11.084  66.060  1.00  0.00    -0.067 C  
ENDROOT
BRANCH   7  10
HETATM   10  C   UNL     1     -10.950  10.927  68.491  1.00  0.00    -0.230 A  
HETATM   11  C   UNL     1     -11.926  10.222  69.188  1.00  0.00     0.051 A  
HETATM   12  C   UNL     1     -12.528  10.746  70.332  1.00  0.00    -0.430 A  
HETATM   13  C   UNL     1     -12.184  12.009  70.817  1.00  0.00    -0.286 A  
HETATM   14  C   UNL     1     -10.567  12.175  69.015  1.00  0.00    -0.117 A  
HETATM   15  C   UNL     1     -11.177  12.715  70.159  1.00  0.00     0.379 A  
BRANCH  13  16
HETATM   16  O   UNL     1     -12.781  12.620  71.902  1.00  0.00    -0.202 OA 
BRANCH  16  17
HETATM   17  C   UNL     1     -12.179  13.869  72.257  1.00  0.00     0.263 C  
BRANCH  17  18
HETATM   18  C   UNL     1     -12.120  14.884  71.125  1.00  0.00    -0.327 C  
HETATM   19  C   UNL     1     -11.778  16.278  71.573  1.00  0.00    -0.403 C  
HETATM   20  O   UNL     1     -11.091  16.839  70.458  1.00  0.00    -0.166 OA 
HETATM   21  C   UNL     1     -10.436  15.739  69.774  1.00  0.00    -0.317 C  
HETATM   22  O   UNL     1     -11.042  14.520  70.246  1.00  0.00    -0.166 OA 
BRANCH  21  23
HETATM   23  C   UNL     1     -10.670  15.833  68.263  1.00  0.00    -0.281 A  
HETATM   24 CL   UNL     1     -12.879  14.169  68.388  1.00  0.00     0.911 Cl 
HETATM   25  C   UNL     1     -11.717  15.169  67.588  1.00  0.00    -0.216 A  
HETATM   26  C   UNL     1      -9.809  16.634  67.483  1.00  0.00    -0.253 A  
HETATM   27  C   UNL     1      -9.984  16.775  66.105  1.00  0.00    -0.345 A  
HETATM   28  C   UNL     1     -11.883  15.303  66.202  1.00  0.00     0.214 A  
HETATM   29 CL   UNL     1     -11.249  16.293  63.775  1.00  0.00     0.833 Cl 
HETATM   30  C   UNL     1     -11.022  16.109  65.469  1.00  0.00    -0.177 A  
ENDBRANCH  21  23
BRANCH  21  31
HETATM   31  C   UNL     1      -8.943  15.719  70.197  1.00  0.00     0.705 C  
BRANCH  31  32
HETATM   32  N   UNL     1      -8.031  15.017  69.322  1.00  0.00    -0.195 NA 
HETATM   33  N   UNL     1      -6.177  14.606  68.173  1.00  0.00    -0.128 NA 
HETATM   34  C   UNL     1      -8.020  13.667  69.079  1.00  0.00     0.169 A  
HETATM   35  C   UNL     1      -6.907  15.542  68.743  1.00  0.00    -0.116 A  
HETATM   36  C   UNL     1      -6.854  13.435  68.391  1.00  0.00    -0.102 A  
ENDBRANCH  31  32
ENDBRANCH  21  31
ENDBRANCH  17  18
ENDBRANCH  16  17
ENDBRANCH  13  16
ENDBRANCH   7  10
TORSDOF 7
ENDMDL
MODEL      213
REMARK 921   NORMALIZED FREE ENERGY PREDICTED BY IDOCK:    3.92 KCAL/MOL
REMARK 922        TOTAL FREE ENERGY PREDICTED BY IDOCK:    5.10 KCAL/MOL
REMARK 923 INTER-LIGAND FREE ENERGY PREDICTED BY IDOCK:   -2.55 KCAL/MOL
REMARK 924 INTRA-LIGAND FREE ENERGY PREDICTED BY IDOCK:    7.65 KCAL/MOL
REMARK 927      BINDING AFFINITY PREDICTED BY RF-SCORE:    0.00 PKD
ROOT
HETATM    1  C   UNL     1      -6.652  16.956  70.613  1.00  0.00     1.476 C  
HETATM    2  C   UNL     1      -7.524  17.312  69.438  1.00  0.00     0.082 C  
HETATM    3  O   UNL     1      -7.599  18.478  69.052  1.00  0.00    -0.272 OA 
HETATM    4  N   UNL     1      -8.138  16.263  68.778  1.00  0.00    -0.214 N  
HETATM    5  C   UNL     1      -8.852  16.543  67.526  1.00  0.00    -0.191 C  
HETATM    6  C   UNL     1      -8.690  15.387  66.527  1.00  0.00    -0.300 C  
HETATM    7  N   UNL     1      -9.119  14.122  67.166  1.00  0.00    -0.221 NA 
HETATM    8  C   UNL     1      -8.451  14.956  69.381  1.00  0.00    -0.064 C  
HETATM    9  C   UNL     1      -8.329  13.799  68.371  1.00  0.00    -0.152 C  
ENDROOT
BRANCH   7  10
HETATM   10  C   UNL     1      -9.464  13.047  66.350  1.00  0.00    -0.224 A  
HETATM   11  C   UNL     1      -9.596  11.751  66.839  1.00  0.00    -0.204 A  
HETATM   12  C   UNL     1      -9.821  10.670  65.988  1.00  0.00    -0.280 A  
HETATM   13  C   UNL     1      -9.908  10.842  64.605  1.00  0.00    -0.307 A  
HETATM   14  C   UNL     1      -9.608  13.224  64.961  1.00  0.00     0.222 A  
HETATM   15  C   UNL     1      -9.822  12.138  64.097  1.00  0.00    -0.189 A  
BRANCH  13  16
HETATM   16  O   UNL     1     -10.063   9.814  63.697  1.00  0.00     0.551 OA 
BRANCH  16  17
HETATM   17  C   UNL     1      -8.868   9.055  63.486  1.00  0.00     0.018 C  
BRANCH  17  18
HETATM   18  C   UNL     1      -8.217   8.536  64.759  1.00  0.00    -0.162 C  
HETATM   19  C   UNL     1      -7.767   9.620  65.699  1.00  0.00    -0.107 C  
HETATM   20  O   UNL     1      -7.888   9.029  66.990  1.00  0.00    -0.097 OA 
HETATM   21  C   UNL     1      -8.963   8.058  66.906  1.00  0.00    -0.138 C  
HETATM   22  O   UNL     1      -9.204   7.806  65.507  1.00  0.00     0.041 OA 
BRANCH  21  23
HETATM   23  C   UNL     1      -8.545   6.738  67.561  1.00  0.00    -0.120 A  
HETATM   24 CL   UNL     1      -9.227   5.274  65.313  1.00  0.00    -0.106 Cl 
HETATM   25  C   UNL     1      -8.637   5.482  66.925  1.00  0.00    -0.110 A  
HETATM   26  C   UNL     1      -8.022   6.758  68.872  1.00  0.00    -0.116 A  
HETATM   27  C   UNL     1      -7.606   5.590  69.514  1.00  0.00    -0.071 A  
HETATM   28  C   UNL     1      -8.228   4.309  67.577  1.00  0.00    -0.099 A  
HETATM   29 CL   UNL     1      -7.181   2.932  69.646  1.00  0.00    -0.044 Cl 
HETATM   30  C   UNL     1      -7.709   4.369  68.863  1.00  0.00    -0.066 A  
ENDBRANCH  21  23
BRANCH  21  31
HETATM   31  C   UNL     1     -10.247   8.696  67.500  1.00  0.00    -0.245 C  
BRANCH  31  32
HETATM   32  N   UNL     1     -10.228   8.993  68.914  1.00  0.00    -0.203 NA 
HETATM   33  N   UNL     1     -10.221  10.215  70.767  1.00  0.00     0.086 NA 
HETATM   34  C   UNL     1     -10.664   8.169  69.921  1.00  0.00    -0.241 A  
HETATM   35  C   UNL     1      -9.958  10.212  69.476  1.00  0.00    -0.235 A  
HETATM   36  C   UNL     1     -10.675   8.953  71.048  1.00  0.00    -0.247 A  
ENDBRANCH  31  32
ENDBRANCH  21  31
ENDBRANCH  17  18
ENDBRANCH  16  17
ENDBRANCH  13  16
ENDBRANCH   7  10
TORSDOF 7
ENDMDL
MODEL      214
REMARK 921   NORMALIZED FREE ENERGY PREDICTED BY IDOCK:    3.97 KCAL/MOL
REMARK 922        TOTAL FREE ENERGY PREDICTED BY IDOCK:    5.16 KCAL/MOL
REMARK 923 INTER-LIGAND FREE ENERGY PREDICTED BY IDOCK:    3.98 KCAL/MOL
REMARK 924 INTRA-LIGAND FREE ENERGY PREDICTED BY IDOCK:    1.18 KCAL/MOL
REMARK 927      BINDING AFFINITY PREDICTED BY RF-SCORE:    0.00 PKD
ROOT
HETATM    1  C   UNL     1     -10.227  10.280  63.013  1.00  0.00     0.488 C  
HETATM    2  C   UNL     1      -9.108  10.538  63.988  1.00  0.00    -0.231 C  
HETATM    3  O   UNL     1      -7.936  10.484  63.615  1.00  0.00    -0.126 OA 
HETATM    4  N   UNL     1      -9.471  10.926  65.264  1.00  0.00    -0.206 N  
HETATM    5  C   UNL     1      -8.419  11.357  66.193  1.00  0.00    -0.105 C  
HETATM    6  C   UNL     1      -8.912  12.500  67.094  1.00  0.00    -0.200 C  
HETATM    7  N   UNL     1     -10.154  12.083  67.783  1.00  0.00    -0.190 NA 
HETATM    8  C   UNL     1     -10.762  10.616  65.904  1.00  0.00    -0.035 C  
HETATM    9  C   UNL     1     -11.238  11.744  66.840  1.00  0.00    -0.327 C  
ENDROOT
BRANCH   7  10
HETATM   10  C   UNL     1     -10.533  12.759  68.940  1.00  0.00    -0.078 A  
HETATM   11  C   UNL     1     -11.812  12.656  69.479  1.00  0.00    -0.376 A  
HETATM   12  C   UNL     1     -12.210  13.433  70.566  1.00  0.00    -0.425 A  
HETATM   13  C   UNL     1     -11.344  14.360  71.150  1.00  0.00     0.237 A  
HETATM   14  C   UNL     1      -9.646  13.653  69.567  1.00  0.00     0.956 A  
HETATM   15  C   UNL     1     -10.044  14.448  70.654  1.00  0.00     1.582 A  
BRANCH  13  16
HETATM   16  O   UNL     1     -11.688  15.209  72.182  1.00  0.00    -0.396 OA 
BRANCH  16  17
HETATM   17  C   UNL     1     -11.238  16.554  71.989  1.00  0.00     0.512 C  
BRANCH  17  18
HETATM   18  C   UNL     1     -11.388  17.069  70.565  1.00  0.00     0.838 C  
HETATM   19  C   UNL     1     -11.126  18.543  70.419  1.00  0.00     3.385 C  
HETATM   20  O   UNL     1     -10.611  18.671  69.096  1.00  0.00     0.102 OA 
HETATM   21  C   UNL     1      -9.937  17.424  68.787  1.00  0.00    -0.329 C  
HETATM   22  O   UNL     1     -10.380  16.447  69.751  1.00  0.00    -0.266 OA 
BRANCH  21  23
HETATM   23  C   UNL     1     -10.336  16.931  67.393  1.00  0.00    -0.309 A  
HETATM   24 CL   UNL     1      -9.200  19.136  66.163  1.00  0.00    -0.312 Cl 
HETATM   25  C   UNL     1     -10.050  17.630  66.201  1.00  0.00    -0.301 A  
HETATM   26  C   UNL     1     -11.018  15.701  67.269  1.00  0.00    -0.275 A  
HETATM   27  C   UNL     1     -11.390  15.190  66.024  1.00  0.00    -0.221 A  
HETATM   28  C   UNL     1     -10.435  17.119  64.953  1.00  0.00     0.564 A  
HETATM   29 CL   UNL     1     -11.539  15.266  63.334  1.00  0.00     1.407 Cl 
HETATM   30  C   UNL     1     -11.096  15.901  64.870  1.00  0.00    -0.389 A  
ENDBRANCH  21  23
BRANCH  21  31
HETATM   31  C   UNL     1      -8.412  17.628  68.989  1.00  0.00    -0.020 C  
BRANCH  31  32
HETATM   32  N   UNL     1      -7.553  16.536  68.591  1.00  0.00    -0.200 NA 
HETATM   33  N   UNL     1      -6.247  15.308  67.282  1.00  0.00    -0.305 NA 
HETATM   34  C   UNL     1      -6.794  15.756  69.427  1.00  0.00    -0.190 A  
HETATM   35  C   UNL     1      -7.198  16.219  67.308  1.00  0.00    -0.188 A  
HETATM   36  C   UNL     1      -5.979  15.027  68.597  1.00  0.00    -0.088 A  
ENDBRANCH  31  32
ENDBRANCH  21  31
ENDBRANCH  17  18
ENDBRANCH  16  17
ENDBRANCH  13  16
ENDBRANCH   7  10
TORSDOF 7
ENDMDL
MODEL      215
REMARK 921   NORMALIZED FREE ENERGY PREDICTED BY IDOCK:    4.58 KCAL/MOL
REMARK 922        TOTAL FREE ENERGY PREDICTED BY IDOCK:    6.03 KCAL/MOL
REMARK 923 INTER-LIGAND FREE ENERGY PREDICTED BY IDOCK:    1.77 KCAL/MOL
REMARK 924 INTRA-LIGAND FREE ENERGY PREDICTED BY IDOCK:    4.26 KCAL/MOL
REMARK 927      BINDING AFFINITY PREDICTED BY RF-SCORE:    0.00 PKD
ROOT
HETATM    1  C   UNL     1     -11.285   1.905  73.813  1.00  0.00    -0.288 C  
HETATM    2  C   UNL     1     -10.023   2.710  73.645  1.00  0.00    -0.103 C  
HETATM    3  O   UNL     1      -9.140   2.666  74.502  1.00  0.00    -0.077 OA 
HETATM    4  N   UNL     1      -9.878   3.402  72.457  1.00  0.00    -0.144 N  
HETATM    5  C   UNL     1      -8.594   4.054  72.175  1.00  0.00    -0.105 C  
HETATM    6  C   UNL     1      -8.250   3.976  70.679  1.00  0.00    -0.065 C  
HETATM    7  N   UNL     1      -9.368   4.537  69.887  1.00  0.00    -0.131 NA 
HETATM    8  C   UNL     1     -10.992   3.851  71.603  1.00  0.00     1.087 C  
HETATM    9  C   UNL     1     -10.636   3.811  70.104  1.00  0.00     1.776 C  
ENDROOT
BRANCH   7  10
HETATM   10  C   UNL     1      -9.115   4.959  68.585  1.00  0.00    -0.113 A  
HETATM   11  C   UNL     1      -8.046   4.475  67.837  1.00  0.00    -0.092 A  
HETATM   12  C   UNL     1      -7.738   4.997  66.582  1.00  0.00    -0.092 A  
HETATM   13  C   UNL     1      -8.482   6.041  66.029  1.00  0.00    -0.139 A  
HETATM   14  C   UNL     1      -9.897   5.973  68.000  1.00  0.00    -0.137 A  
HETATM   15  C   UNL     1      -9.584   6.512  66.741  1.00  0.00    -0.198 A  
BRANCH  13  16
HETATM   16  O   UNL     1      -8.197   6.653  64.825  1.00  0.00    -0.127 OA 
BRANCH  16  17
HETATM   17  C   UNL     1      -7.785   8.016  64.961  1.00  0.00    -0.112 C  
BRANCH  17  18
HETATM   18  C   UNL     1      -8.402   8.746  66.145  1.00  0.00    -0.123 C  
HETATM   19  C   UNL     1      -7.768   8.411  67.466  1.00  0.00    -0.099 C  
HETATM   20  O   UNL     1      -7.920   9.602  68.233  1.00  0.00    -0.095 OA 
HETATM   21  C   UNL     1      -7.924  10.707  67.293  1.00  0.00    -0.116 C  
HETATM   22  O   UNL     1      -8.161  10.154  65.983  1.00  0.00    -0.123 OA 
BRANCH  21  23
HETATM   23  C   UNL     1      -9.065  11.677  67.613  1.00  0.00    -0.174 A  
HETATM   24 CL   UNL     1      -8.149  12.085  70.193  1.00  0.00     2.550 Cl 
HETATM   25  C   UNL     1      -9.229  12.314  68.862  1.00  0.00     0.262 A  
HETATM   26  C   UNL     1     -10.013  11.977  66.610  1.00  0.00    -0.219 A  
HETATM   27  C   UNL     1     -11.064  12.868  66.835  1.00  0.00    -0.312 A  
HETATM   28  C   UNL     1     -10.292  13.201  69.088  1.00  0.00     0.135 A  
HETATM   29 CL   UNL     1     -12.482  14.589  68.348  1.00  0.00     0.021 Cl 
HETATM   30  C   UNL     1     -11.199  13.478  68.074  1.00  0.00    -0.271 A  
ENDBRANCH  21  23
BRANCH  21  31
HETATM   31  C   UNL     1      -6.512  11.349  67.287  1.00  0.00    -0.098 C  
BRANCH  31  32
HETATM   32  N   UNL     1      -6.434  12.747  67.648  1.00  0.00    -0.138 NA 
HETATM   33  N   UNL     1      -5.516  14.672  68.261  1.00  0.00    -0.106 NA 
HETATM   34  C   UNL     1      -7.317  13.730  67.278  1.00  0.00     0.002 A  
HETATM   35  C   UNL     1      -5.371  13.364  68.251  1.00  0.00    -0.095 A  
HETATM   36  C   UNL     1      -6.717  14.909  67.644  1.00  0.00    -0.177 A  
ENDBRANCH  31  32
ENDBRANCH  21  31
ENDBRANCH  17  18
ENDBRANCH  16  17
ENDBRANCH  13  16
ENDBRANCH   7  10
TORSDOF 7
ENDMDL
MODEL      216
REMARK 921   NORMALIZED FREE ENERGY PREDICTED BY IDOCK:    5.10 KCAL/MOL
REMARK 922        TOTAL FREE ENERGY PREDICTED BY IDOCK:    6.76 KCAL/MOL
REMARK 923 INTER-LIGAND FREE ENERGY PREDICTED BY IDOCK:    1.72 KCAL/MOL
REMARK 924 INTRA-LIGAND FREE ENERGY PREDICTED BY IDOCK:    5.04 KCAL/MOL
REMARK 927      BINDING AFFINITY PREDICTED BY RF-SCORE:    0.00 PKD
ROOT
HETATM    1  C   UNL     1     -13.203  11.350  73.042  1.00  0.00     3.087 C  
HETATM    2  C   UNL     1     -13.345  11.529  71.553  1.00  0.00    -0.066 C  
HETATM    3  O   UNL     1     -13.837  12.561  71.096  1.00  0.00     0.733 OA 
HETATM    4  N   UNL     1     -12.811  10.536  70.753  1.00  0.00    -0.374 N  
HETATM    5  C   UNL     1     -12.768  10.751  69.301  1.00  0.00     0.586 C  
HETATM    6  C   UNL     1     -11.497  10.141  68.690  1.00  0.00    -0.039 C  
HETATM    7  N   UNL     1     -11.407   8.712  69.064  1.00  0.00     0.398 NA 
HETATM    8  C   UNL     1     -12.604   9.138  71.170  1.00  0.00    -0.233 C  
HETATM    9  C   UNL     1     -11.352   8.512  70.526  1.00  0.00    -0.217 C  
ENDROOT
BRANCH   7  10
HETATM   10  C   UNL     1     -10.604   7.872  68.298  1.00  0.00    -0.109 A  
HETATM   11  C   UNL     1     -10.154   8.223  67.028  1.00  0.00    -0.353 A  
HETATM   12  C   UNL     1      -9.454   7.322  66.228  1.00  0.00    -0.133 A  
HETATM   13  C   UNL     1      -9.187   6.022  66.662  1.00  0.00    -0.142 A  
HETATM   14  C   UNL     1     -10.284   6.579  68.754  1.00  0.00    -0.194 A  
HETATM   15  C   UNL     1      -9.590   5.662  67.948  1.00  0.00    -0.133 A  
BRANCH  13  16
HETATM   16  O   UNL     1      -8.559   5.056  65.902  1.00  0.00    -0.118 OA 
BRANCH  16  17
HETATM   17  C   UNL     1      -7.901   4.053  66.683  1.00  0.00    -0.093 C  
BRANCH  17  18
HETATM   18  C   UNL     1      -6.915   4.598  67.706  1.00  0.00    -0.060 C  
HETATM   19  C   UNL     1      -5.620   5.077  67.112  1.00  0.00    -0.013 C  
HETATM   20  O   UNL     1      -5.207   6.124  67.986  1.00  0.00    -0.004 OA 
HETATM   21  C   UNL     1      -6.414   6.706  68.541  1.00  0.00    -0.049 C  
HETATM   22  O   UNL     1      -7.487   5.773  68.303  1.00  0.00    -0.078 OA 
BRANCH  21  23
HETATM   23  C   UNL     1      -6.272   6.892  70.055  1.00  0.00    -0.031 A  
HETATM   24 CL   UNL     1      -7.849   9.166  70.040  1.00  0.00    -0.086 Cl 
HETATM   25  C   UNL     1      -6.868   7.947  70.776  1.00  0.00    -0.041 A  
HETATM   26  C   UNL     1      -5.515   5.956  70.793  1.00  0.00    -0.013 A  
HETATM   27  C   UNL     1      -5.365   6.060  72.177  1.00  0.00    -0.022 A  
HETATM   28  C   UNL     1      -6.707   8.056  72.166  1.00  0.00    -0.069 A  
HETATM   29 CL   UNL     1      -5.794   7.232  74.566  1.00  0.00    -0.080 Cl 
HETATM   30  C   UNL     1      -5.963   7.110  72.859  1.00  0.00    -0.048 A  
ENDBRANCH  21  23
BRANCH  21  31
HETATM   31  C   UNL     1      -6.735   8.006  67.758  1.00  0.00    -0.068 C  
BRANCH  31  32
HETATM   32  N   UNL     1      -6.073   8.176  66.484  1.00  0.00    -0.048 NA 
HETATM   33  N   UNL     1      -5.432   7.707  64.412  1.00  0.00    -0.033 NA 
HETATM   34  C   UNL     1      -5.704   9.370  65.915  1.00  0.00    -0.049 A  
HETATM   35  C   UNL     1      -5.876   7.201  65.544  1.00  0.00    -0.036 A  
HETATM   36  C   UNL     1      -5.338   9.056  64.629  1.00  0.00    -0.050 A  
ENDBRANCH  31  32
ENDBRANCH  21  31
ENDBRANCH  17  18
ENDBRANCH  16  17
ENDBRANCH  13  16
ENDBRANCH   7  10
TORSDOF 7
ENDMDL
MODEL      217
REMARK 921   NORMALIZED FREE ENERGY PREDICTED BY IDOCK:    5.12 KCAL/MOL
REMARK 922        TOTAL FREE ENERGY PREDICTED BY IDOCK:    6.79 KCAL/MOL
REMARK 923 INTER-LIGAND FREE ENERGY PREDICTED BY IDOCK:    1.54 KCAL/MOL
REMARK 924 INTRA-LIGAND FREE ENERGY PREDICTED BY IDOCK:    5.25 KCAL/MOL
REMARK 927      BINDING AFFINITY PREDICTED BY RF-SCORE:    0.00 PKD
ROOT
HETATM    1  C   UNL     1      -6.523  15.490  71.445  1.00  0.00     1.341 C  
HETATM    2  C   UNL     1      -5.756  14.287  71.929  1.00  0.00    -0.109 C  
HETATM    3  O   UNL     1      -5.126  14.337  72.985  1.00  0.00    -0.234 OA 
HETATM    4  N   UNL     1      -5.884  13.127  71.187  1.00  0.00    -0.063 N  
HETATM    5  C   UNL     1      -5.300  11.888  71.715  1.00  0.00     0.245 C  
HETATM    6  C   UNL     1      -6.179  10.675  71.373  1.00  0.00     0.638 C  
HETATM    7  N   UNL     1      -6.406  10.628  69.911  1.00  0.00    -0.093 NA 
HETATM    8  C   UNL     1      -6.235  13.077  69.757  1.00  0.00    -0.104 C  
HETATM    9  C   UNL     1      -7.082  11.839  69.405  1.00  0.00     0.025 C  
ENDROOT
BRANCH   7  10
HETATM   10  C   UNL     1      -6.793   9.421  69.335  1.00  0.00    -0.049 A  
HETATM   11  C   UNL     1      -5.873   8.500  68.843  1.00  0.00    -0.040 A  
HETATM   12  C   UNL     1      -6.281   7.354  68.161  1.00  0.00    -0.043 A  
HETATM   13  C   UNL     1      -7.633   7.091  67.931  1.00  0.00    -0.111 A  
HETATM   14  C   UNL     1      -8.156   9.123  69.151  1.00  0.00    -0.105 A  
HETATM   15  C   UNL     1      -8.574   7.978  68.454  1.00  0.00    -0.127 A  
BRANCH  13  16
HETATM   16  O   UNL     1      -8.109   6.015  67.209  1.00  0.00    -0.105 OA 
BRANCH  16  17
HETATM   17  C   UNL     1      -8.404   6.330  65.844  1.00  0.00    -0.142 C  
BRANCH  17  18
HETATM   18  C   UNL     1      -7.905   7.693  65.390  1.00  0.00    -0.115 C  
HETATM   19  C   UNL     1      -8.421   8.115  64.042  1.00  0.00     0.095 C  
HETATM   20  O   UNL     1      -8.479   9.536  64.124  1.00  0.00    -0.161 OA 
HETATM   21  C   UNL     1      -8.718   9.865  65.517  1.00  0.00    -0.151 C  
HETATM   22  O   UNL     1      -8.418   8.687  66.292  1.00  0.00    -0.116 OA 
BRANCH  21  23
HETATM   23  C   UNL     1      -7.778  10.985  65.972  1.00  0.00    -0.059 A  
HETATM   24 CL   UNL     1      -5.525   9.511  65.331  1.00  0.00    -0.047 Cl 
HETATM   25  C   UNL     1      -6.371  10.898  65.923  1.00  0.00    -0.072 A  
HETATM   26  C   UNL     1      -8.331  12.189  66.460  1.00  0.00     0.019 A  
HETATM   27  C   UNL     1      -7.526  13.253  66.870  1.00  0.00     0.413 A  
HETATM   28  C   UNL     1      -5.565  11.965  66.347  1.00  0.00     0.288 A  
HETATM   29 CL   UNL     1      -5.152  14.453  67.301  1.00  0.00     0.444 Cl 
HETATM   30  C   UNL     1      -6.145  13.138  66.811  1.00  0.00     1.417 A  
ENDBRANCH  21  23
BRANCH  21  31
HETATM   31  C   UNL     1     -10.228  10.176  65.695  1.00  0.00    -0.218 C  
BRANCH  31  32
HETATM   32  N   UNL     1     -10.818  11.090  64.742  1.00  0.00    -0.230 NA 
HETATM   33  N   UNL     1     -11.957  12.842  63.997  1.00  0.00    -0.416 NA 
HETATM   34  C   UNL     1     -10.387  11.311  63.458  1.00  0.00    -0.408 A  
HETATM   35  C   UNL     1     -11.775  12.029  65.016  1.00  0.00    -0.255 A  
HETATM   36  C   UNL     1     -11.086  12.412  63.030  1.00  0.00     0.186 A  
ENDBRANCH  31  32
ENDBRANCH  21  31
ENDBRANCH  17  18
ENDBRANCH  16  17
ENDBRANCH  13  16
ENDBRANCH   7  10
TORSDOF 7
ENDMDL
MODEL      218
REMARK 921   NORMALIZED FREE ENERGY PREDICTED BY IDOCK:    6.57 KCAL/MOL
REMARK 922        TOTAL FREE ENERGY PREDICTED BY IDOCK:    8.83 KCAL/MOL
REMARK 923 INTER-LIGAND FREE ENERGY PREDICTED BY IDOCK:    0.36 KCAL/MOL
REMARK 924 INTRA-LIGAND FREE ENERGY PREDICTED BY IDOCK:    8.47 KCAL/MOL
REMARK 927      BINDING AFFINITY PREDICTED BY RF-SCORE:    0.00 PKD
ROOT
HETATM    1  C   UNL     1     -11.442  11.977  62.455  1.00  0.00     2.021 C  
HETATM    2  C   UNL     1     -10.904  11.770  63.847  1.00  0.00    -0.404 C  
HETATM    3  O   UNL     1     -11.307  12.467  64.777  1.00  0.00    -0.298 OA 
HETATM    4  N   UNL     1     -10.029  10.714  64.026  1.00  0.00    -0.332 N  
HETATM    5  C   UNL     1      -9.619  10.366  65.392  1.00  0.00    -0.246 C  
HETATM    6  C   UNL     1      -9.460   8.846  65.551  1.00  0.00    -0.092 C  
HETATM    7  N   UNL     1      -8.526   8.338  64.521  1.00  0.00    -0.083 NA 
HETATM    8  C   UNL     1      -9.191  10.125  62.967  1.00  0.00    -0.293 C  
HETATM    9  C   UNL     1      -8.997   8.607  63.148  1.00  0.00     0.436 C  
ENDROOT
BRANCH   7  10
HETATM   10  C   UNL     1      -7.909   7.107  64.730  1.00  0.00    -0.126 A  
HETATM   11  C   UNL     1      -8.416   5.921  64.209  1.00  0.00     0.038 A  
HETATM   12  C   UNL     1      -7.855   4.685  64.529  1.00  0.00    -0.087 A  
HETATM   13  C   UNL     1      -6.768   4.587  65.400  1.00  0.00    -0.052 A  
HETATM   14  C   UNL     1      -6.779   7.008  65.562  1.00  0.00    -0.052 A  
HETATM   15  C   UNL     1      -6.217   5.766  65.899  1.00  0.00    -0.034 A  
BRANCH  13  16
HETATM   16  O   UNL     1      -6.202   3.398  65.814  1.00  0.00    -0.029 OA 
BRANCH  16  17
HETATM   17  C   UNL     1      -5.138   3.570  66.755  1.00  0.00    -0.008 C  
BRANCH  17  18
HETATM   18  C   UNL     1      -5.498   4.416  67.967  1.00  0.00    -0.016 C  
HETATM   19  C   UNL     1      -5.336   5.895  67.750  1.00  0.00    -0.004 C  
HETATM   20  O   UNL     1      -6.326   6.477  68.592  1.00  0.00    -0.034 OA 
HETATM   21  C   UNL     1      -7.411   5.518  68.689  1.00  0.00    -0.075 C  
HETATM   22  O   UNL     1      -6.900   4.249  68.234  1.00  0.00    -0.046 OA 
BRANCH  21  23
HETATM   23  C   UNL     1      -7.856   5.358  70.145  1.00  0.00    -0.081 A  
HETATM   24 CL   UNL     1      -7.830   2.596  69.969  1.00  0.00    -0.046 Cl 
HETATM   25  C   UNL     1      -8.064   4.110  70.770  1.00  0.00    -0.063 A  
HETATM   26  C   UNL     1      -8.065   6.513  70.931  1.00  0.00    -0.123 A  
HETATM   27  C   UNL     1      -8.451   6.430  72.269  1.00  0.00    -0.110 A  
HETATM   28  C   UNL     1      -8.463   4.031  72.113  1.00  0.00    -0.109 A  
HETATM   29 CL   UNL     1      -9.109   5.085  74.510  1.00  0.00    -0.113 Cl 
HETATM   30  C   UNL     1      -8.648   5.189  72.856  1.00  0.00    -0.115 A  
ENDBRANCH  21  23
BRANCH  21  31
HETATM   31  C   UNL     1      -8.536   5.952  67.713  1.00  0.00    -0.107 C  
BRANCH  31  32
HETATM   32  N   UNL     1      -9.848   6.155  68.285  1.00  0.00    -0.121 NA 
HETATM   33  N   UNL     1     -11.732   5.669  69.352  1.00  0.00     1.134 NA 
HETATM   34  C   UNL     1     -10.370   7.352  68.709  1.00  0.00    -0.199 A  
HETATM   35  C   UNL     1     -10.712   5.172  68.684  1.00  0.00     0.195 A  
HETATM   36  C   UNL     1     -11.519   7.022  69.385  1.00  0.00     0.032 A  
ENDBRANCH  31  32
ENDBRANCH  21  31
ENDBRANCH  17  18
ENDBRANCH  16  17
ENDBRANCH  13  16
ENDBRANCH   7  10
TORSDOF 7
ENDMDL
MODEL      219
REMARK 921   NORMALIZED FREE ENERGY PREDICTED BY IDOCK:    6.92 KCAL/MOL
REMARK 922        TOTAL FREE ENERGY PREDICTED BY IDOCK:    9.33 KCAL/MOL
REMARK 923 INTER-LIGAND FREE ENERGY PREDICTED BY IDOCK:    7.38 KCAL/MOL
REMARK 924 INTRA-LIGAND FREE ENERGY PREDICTED BY IDOCK:    1.94 KCAL/MOL
REMARK 927      BINDING AFFINITY PREDICTED BY RF-SCORE:    0.00 PKD
ROOT
HETATM    1  C   UNL     1      -9.983  19.779  70.377  1.00  0.00     0.898 C  
HETATM    2  C   UNL     1     -10.519  18.571  71.099  1.00  0.00     2.863 C  
HETATM    3  O   UNL     1     -11.170  18.704  72.134  1.00  0.00     2.559 OA 
HETATM    4  N   UNL     1     -10.325  17.344  70.489  1.00  0.00     1.106 N  
HETATM    5  C   UNL     1     -10.980  16.163  71.064  1.00  0.00     0.022 C  
HETATM    6  C   UNL     1     -11.434  15.193  69.962  1.00  0.00    -0.286 C  
HETATM    7  N   UNL     1     -10.279  14.850  69.102  1.00  0.00    -0.242 NA 
HETATM    8  C   UNL     1      -9.246  17.041  69.533  1.00  0.00     0.376 C  
HETATM    9  C   UNL     1      -9.687  16.036  68.451  1.00  0.00    -0.213 C  
ENDROOT
BRANCH   7  10
HETATM   10  C   UNL     1     -10.343  13.693  68.331  1.00  0.00    -0.248 A  
HETATM   11  C   UNL     1     -10.183  13.707  66.948  1.00  0.00    -0.261 A  
HETATM   12  C   UNL     1     -10.371  12.559  66.180  1.00  0.00    -0.274 A  
HETATM   13  C   UNL     1     -10.743  11.347  66.767  1.00  0.00    -0.271 A  
HETATM   14  C   UNL     1     -10.663  12.457  68.924  1.00  0.00    -0.202 A  
HETATM   15  C   UNL     1     -10.866  11.300  68.155  1.00  0.00    -0.263 A  
BRANCH  13  16
HETATM   16  O   UNL     1     -11.011  10.188  66.067  1.00  0.00     0.130 OA 
BRANCH  16  17
HETATM   17  C   UNL     1     -11.358   9.082  66.906  1.00  0.00     1.483 C  
BRANCH  17  18
HETATM   18  C   UNL     1     -10.348   8.784  68.005  1.00  0.00    -0.220 C  
HETATM   19  C   UNL     1      -9.939   7.339  68.083  1.00  0.00    -0.159 C  
HETATM   20  O   UNL     1      -8.601   7.386  68.569  1.00  0.00    -0.128 OA 
HETATM   21  C   UNL     1      -8.033   8.640  68.111  1.00  0.00    -0.107 C  
HETATM   22  O   UNL     1      -9.129   9.481  67.700  1.00  0.00    -0.122 OA 
BRANCH  21  23
HETATM   23  C   UNL     1      -7.297   9.344  69.255  1.00  0.00    -0.071 A  
HETATM   24 CL   UNL     1      -6.081   6.995  70.071  1.00  0.00    -0.024 Cl 
HETATM   25  C   UNL     1      -6.431   8.686  70.154  1.00  0.00    -0.038 A  
HETATM   26  C   UNL     1      -7.470  10.734  69.431  1.00  0.00    -0.124 A  
HETATM   27  C   UNL     1      -6.811  11.434  70.442  1.00  0.00     0.722 A  
HETATM   28  C   UNL     1      -5.778   9.391  71.177  1.00  0.00    -0.064 A  
HETATM   29 CL   UNL     1      -5.140  11.623  72.548  1.00  0.00     0.241 Cl 
HETATM   30  C   UNL     1      -5.966  10.760  71.312  1.00  0.00     0.283 A  
ENDBRANCH  21  23
BRANCH  21  31
HETATM   31  C   UNL     1      -7.161   8.354  66.860  1.00  0.00    -0.079 C  
BRANCH  31  32
HETATM   32  N   UNL     1      -7.577   7.256  66.018  1.00  0.00    -0.086 NA 
HETATM   33  N   UNL     1      -8.703   6.177  64.438  1.00  0.00     0.202 NA 
HETATM   34  C   UNL     1      -6.826   6.154  65.693  1.00  0.00    -0.053 A  
HETATM   35  C   UNL     1      -8.706   7.218  65.245  1.00  0.00     0.096 A  
HETATM   36  C   UNL     1      -7.530   5.519  64.699  1.00  0.00    -0.067 A  
ENDBRANCH  31  32
ENDBRANCH  21  31
ENDBRANCH  17  18
ENDBRANCH  16  17
ENDBRANCH  13  16
ENDBRANCH   7  10
TORSDOF 7
ENDMDL
MODEL      220
REMARK 921   NORMALIZED FREE ENERGY PREDICTED BY IDOCK:    7.04 KCAL/MOL
REMARK 922        TOTAL FREE ENERGY PREDICTED BY IDOCK:    9.50 KCAL/MOL
REMARK 923 INTER-LIGAND FREE ENERGY PREDICTED BY IDOCK:   10.36 KCAL/MOL
REMARK 924 INTRA-LIGAND FREE ENERGY PREDICTED BY IDOCK:   -0.86 KCAL/MOL
REMARK 927      BINDING AFFINITY PREDICTED BY RF-SCORE:    0.00 PKD
ROOT
HETATM    1  C   UNL     1     -10.054   3.840  72.039  1.00  0.00    -0.209 C  
HETATM    2  C   UNL     1     -11.274   4.608  71.603  1.00  0.00     0.748 C  
HETATM    3  O   UNL     1     -12.396   4.123  71.745  1.00  0.00     3.608 OA 
HETATM    4  N   UNL     1     -11.068   5.894  71.140  1.00  0.00    -0.264 N  
HETATM    5  C   UNL     1     -12.237   6.740  70.871  1.00  0.00    -0.331 C  
HETATM    6  C   UNL     1     -11.955   8.206  71.238  1.00  0.00    -0.291 C  
HETATM    7  N   UNL     1     -10.737   8.664  70.533  1.00  0.00    -0.216 NA 
HETATM    8  C   UNL     1      -9.809   6.386  70.551  1.00  0.00    -0.183 C  
HETATM    9  C   UNL     1      -9.545   7.867  70.885  1.00  0.00    -0.161 C  
ENDROOT
BRANCH   7  10
HETATM   10  C   UNL     1     -10.537  10.032  70.371  1.00  0.00    -0.280 A  
HETATM   11  C   UNL     1     -11.583  10.916  70.121  1.00  0.00    -0.425 A  
HETATM   12  C   UNL     1     -11.350  12.262  69.841  1.00  0.00    -0.084 A  
HETATM   13  C   UNL     1     -10.053  12.776  69.785  1.00  0.00     1.580 A  
HETATM   14  C   UNL     1      -9.235  10.567  70.369  1.00  0.00     1.097 A  
HETATM   15  C   UNL     1      -8.992  11.919  70.075  1.00  0.00     2.967 A  
BRANCH  13  16
HETATM   16  O   UNL     1      -9.742  14.079  69.450  1.00  0.00     0.194 OA 
BRANCH  16  17
HETATM   17  C   UNL     1     -10.891  14.913  69.274  1.00  0.00    -0.266 C  
BRANCH  17  18
HETATM   18  C   UNL     1     -10.589  16.290  68.701  1.00  0.00    -0.297 C  
HETATM   19  C   UNL     1     -10.824  17.418  69.666  1.00  0.00     0.472 C  
HETATM   20  O   UNL     1      -9.875  18.407  69.276  1.00  0.00    -0.213 OA 
HETATM   21  C   UNL     1      -8.745  17.700  68.704  1.00  0.00    -0.266 C  
HETATM   22  O   UNL     1      -9.184  16.359  68.409  1.00  0.00    -0.205 OA 
BRANCH  21  23
HETATM   23  C   UNL     1      -8.310  18.358  67.392  1.00  0.00    -0.256 A  
HETATM   24 CL   UNL     1      -9.204  20.847  68.211  1.00  0.00     0.345 Cl 
HETATM   25  C   UNL     1      -8.484  19.729  67.105  1.00  0.00    -0.317 A  
HETATM   26  C   UNL     1      -7.685  17.569  66.402  1.00  0.00    -0.332 A  
HETATM   27  C   UNL     1      -7.250  18.116  65.194  1.00  0.00     0.974 A  
HETATM   28  C   UNL     1      -8.055  20.273  65.885  1.00  0.00    -0.081 A  
HETATM   29 CL   UNL     1      -6.884  20.146  63.459  1.00  0.00     0.801 Cl 
HETATM   30  C   UNL     1      -7.435  19.467  64.940  1.00  0.00     0.951 A  
ENDBRANCH  21  23
BRANCH  21  31
HETATM   31  C   UNL     1      -7.631  17.606  69.781  1.00  0.00     0.888 C  
BRANCH  31  32
HETATM   32  N   UNL     1      -6.860  16.384  69.810  1.00  0.00    -0.103 NA 
HETATM   33  N   UNL     1      -5.157  15.008  69.442  1.00  0.00    -0.088 NA 
HETATM   34  C   UNL     1      -6.970  15.378  70.737  1.00  0.00     0.890 A  
HETATM   35  C   UNL     1      -5.760  16.109  69.042  1.00  0.00    -0.119 A  
HETATM   36  C   UNL     1      -5.894  14.556  70.505  1.00  0.00    -0.173 A  
ENDBRANCH  31  32
ENDBRANCH  21  31
ENDBRANCH  17  18
ENDBRANCH  16  17
ENDBRANCH  13  16
ENDBRANCH   7  10
TORSDOF 7
ENDMDL
MODEL      221
REMARK 921   NORMALIZED FREE ENERGY PREDICTED BY IDOCK:    7.22 KCAL/MOL
REMARK 922        TOTAL FREE ENERGY PREDICTED BY IDOCK:    9.74 KCAL/MOL
REMARK 923 INTER-LIGAND FREE ENERGY PREDICTED BY IDOCK:    6.87 KCAL/MOL
REMARK 924 INTRA-LIGAND FREE ENERGY PREDICTED BY IDOCK:    2.87 KCAL/MOL
REMARK 927      BINDING AFFINITY PREDICTED BY RF-SCORE:    0.00 PKD
ROOT
HETATM    1  C   UNL     1      -9.851   1.731  71.367  1.00  0.00    -0.193 C  
HETATM    2  C   UNL     1      -9.183   2.324  70.154  1.00  0.00    -0.119 C  
HETATM    3  O   UNL     1      -8.978   1.631  69.158  1.00  0.00    -0.071 OA 
HETATM    4  N   UNL     1      -8.913   3.680  70.192  1.00  0.00    -0.099 N  
HETATM    5  C   UNL     1      -8.426   4.333  68.971  1.00  0.00    -0.082 C  
HETATM    6  C   UNL     1      -8.990   5.757  68.843  1.00  0.00    -0.113 C  
HETATM    7  N   UNL     1      -8.677   6.522  70.071  1.00  0.00    -0.139 NA 
HETATM    8  C   UNL     1      -8.726   4.467  71.423  1.00  0.00    -0.117 C  
HETATM    9  C   UNL     1      -9.255   5.908  71.284  1.00  0.00    -0.143 C  
ENDROOT
BRANCH   7  10
HETATM   10  C   UNL     1      -8.702   7.913  70.014  1.00  0.00    -0.140 A  
HETATM   11  C   UNL     1      -7.693   8.701  70.560  1.00  0.00    -0.086 A  
HETATM   12  C   UNL     1      -7.795  10.091  70.601  1.00  0.00     0.359 A  
HETATM   13  C   UNL     1      -8.924  10.750  70.108  1.00  0.00     1.186 A  
HETATM   14  C   UNL     1      -9.812   8.584  69.468  1.00  0.00    -0.187 A  
HETATM   15  C   UNL     1      -9.927   9.983  69.518  1.00  0.00    -0.249 A  
BRANCH  13  16
HETATM   16  O   UNL     1      -9.124  12.114  70.175  1.00  0.00     2.902 OA 
BRANCH  16  17
HETATM   17  C   UNL     1      -9.254  12.734  68.891  1.00  0.00     0.316 C  
BRANCH  17  18
HETATM   18  C   UNL     1     -10.018  14.051  68.902  1.00  0.00    -0.097 C  
HETATM   19  C   UNL     1     -10.541  14.441  70.256  1.00  0.00     0.451 C  
HETATM   20  O   UNL     1     -10.537  15.866  70.229  1.00  0.00    -0.309 OA 
HETATM   21  C   UNL     1      -9.465  16.264  69.336  1.00  0.00    -0.161 C  
HETATM   22  O   UNL     1      -9.105  15.106  68.558  1.00  0.00    -0.177 OA 
BRANCH  21  23
HETATM   23  C   UNL     1      -9.948  17.353  68.373  1.00  0.00    -0.329 A  
HETATM   24 CL   UNL     1      -7.563  17.327  66.969  1.00  0.00    -0.212 Cl 
HETATM   25  C   UNL     1      -9.167  17.869  67.317  1.00  0.00    -0.254 A  
HETATM   26  C   UNL     1     -11.251  17.876  68.524  1.00  0.00     0.706 A  
HETATM   27  C   UNL     1     -11.753  18.854  67.666  1.00  0.00     1.558 A  
HETATM   28  C   UNL     1      -9.672  18.861  66.462  1.00  0.00    -0.391 A  
HETATM   29 CL   UNL     1     -11.585  20.537  65.568  1.00  0.00     1.417 Cl 
HETATM   30  C   UNL     1     -10.962  19.343  66.636  1.00  0.00    -0.238 A  
ENDBRANCH  21  23
BRANCH  21  31
HETATM   31  C   UNL     1      -8.235  16.659  70.195  1.00  0.00     1.918 C  
BRANCH  31  32
HETATM   32  N   UNL     1      -7.487  17.818  69.760  1.00  0.00     0.545 NA 
HETATM   33  N   UNL     1      -7.086  19.934  69.224  1.00  0.00    -0.294 NA 
HETATM   34  C   UNL     1      -6.129  17.990  69.861  1.00  0.00    -0.159 A  
HETATM   35  C   UNL     1      -8.018  19.014  69.359  1.00  0.00     0.119 A  
HETATM   36  C   UNL     1      -5.910  19.309  69.550  1.00  0.00    -0.251 A  
ENDBRANCH  31  32
ENDBRANCH  21  31
ENDBRANCH  17  18
ENDBRANCH  16  17
ENDBRANCH  13  16
ENDBRANCH   7  10
TORSDOF 7
ENDMDL
MODEL      222
REMARK 921   NORMALIZED FREE ENERGY PREDICTED BY IDOCK:    7.74 KCAL/MOL
REMARK 922        TOTAL FREE ENERGY PREDICTED BY IDOCK:   10.48 KCAL/MOL
REMARK 923 INTER-LIGAND FREE ENERGY PREDICTED BY IDOCK:    3.88 KCAL/MOL
REMARK 924 INTRA-LIGAND FREE ENERGY PREDICTED BY IDOCK:    6.60 KCAL/MOL
REMARK 927      BINDING AFFINITY PREDICTED BY RF-SCORE:    0.00 PKD
ROOT
HETATM    1  C   UNL     1     -12.580  10.682  73.369  1.00  0.00     6.763 C  
HETATM    2  C   UNL     1     -12.862  10.824  71.896  1.00  0.00    -0.354 C  
HETATM    3  O   UNL     1     -13.388  11.847  71.460  1.00  0.00    -0.266 OA 
HETATM    4  N   UNL     1     -12.413   9.805  71.076  1.00  0.00    -0.323 N  
HETATM    5  C   UNL     1     -12.507   9.981  69.621  1.00  0.00     0.451 C  
HETATM    6  C   UNL     1     -11.304   9.344  68.909  1.00  0.00     0.265 C  
HETATM    7  N   UNL     1     -11.188   7.924  69.311  1.00  0.00     0.144 NA 
HETATM    8  C   UNL     1     -12.177   8.416  71.509  1.00  0.00    -0.302 C  
HETATM    9  C   UNL     1     -10.996   7.762  70.766  1.00  0.00    -0.252 C  
ENDROOT
BRANCH   7  10
HETATM   10  C   UNL     1     -10.467   7.057  68.495  1.00  0.00    -0.200 A  
HETATM   11  C   UNL     1     -10.144   7.367  67.178  1.00  0.00    -0.314 A  
HETATM   12  C   UNL     1      -9.529   6.439  66.339  1.00  0.00    -0.169 A  
HETATM   13  C   UNL     1      -9.224   5.151  66.785  1.00  0.00    -0.123 A  
HETATM   14  C   UNL     1     -10.108   5.777  68.956  1.00  0.00    -0.249 A  
HETATM   15  C   UNL     1      -9.499   4.832  68.114  1.00  0.00    -0.186 A  
BRANCH  13  16
HETATM   16  O   UNL     1      -8.677   4.159  65.995  1.00  0.00    -0.113 OA 
BRANCH  16  17
HETATM   17  C   UNL     1      -7.957   3.170  66.739  1.00  0.00    -0.080 C  
BRANCH  17  18
HETATM   18  C   UNL     1      -6.963   3.736  67.742  1.00  0.00    -0.055 C  
HETATM   19  C   UNL     1      -5.694   4.250  67.120  1.00  0.00    -0.022 C  
HETATM   20  O   UNL     1      -5.288   5.304  67.989  1.00  0.00    -0.010 OA 
HETATM   21  C   UNL     1      -6.496   5.853  68.574  1.00  0.00    -0.046 C  
HETATM   22  O   UNL     1      -7.551   4.895  68.357  1.00  0.00    -0.076 OA 
BRANCH  21  23
HETATM   23  C   UNL     1      -6.324   6.037  70.085  1.00  0.00    -0.032 A  
HETATM   24 CL   UNL     1      -5.152   3.545  70.369  1.00  0.00    -0.003 Cl 
HETATM   25  C   UNL     1      -5.749   5.067  70.933  1.00  0.00    -0.016 A  
HETATM   26  C   UNL     1      -6.747   7.244  70.682  1.00  0.00    -0.048 A  
HETATM   27  C   UNL     1      -6.599   7.477  72.051  1.00  0.00    -0.050 A  
HETATM   28  C   UNL     1      -5.611   5.300  72.310  1.00  0.00    -0.017 A  
HETATM   29 CL   UNL     1      -5.831   6.797  74.542  1.00  0.00    -0.070 Cl 
HETATM   30  C   UNL     1      -6.030   6.505  72.860  1.00  0.00    -0.042 A  
ENDBRANCH  21  23
BRANCH  21  31
HETATM   31  C   UNL     1      -6.868   7.148  67.804  1.00  0.00    -0.074 C  
BRANCH  31  32
HETATM   32  N   UNL     1      -6.477   8.399  68.412  1.00  0.00    -0.058 NA 
HETATM   33  N   UNL     1      -5.188  10.133  68.921  1.00  0.00    -0.036 NA 
HETATM   34  C   UNL     1      -7.321   9.400  68.823  1.00  0.00    -0.074 A  
HETATM   35  C   UNL     1      -5.200   8.884  68.503  1.00  0.00    -0.037 A  
HETATM   36  C   UNL     1      -6.504  10.466  69.107  1.00  0.00    -0.048 A  
ENDBRANCH  31  32
ENDBRANCH  21  31
ENDBRANCH  17  18
ENDBRANCH  16  17
ENDBRANCH  13  16
ENDBRANCH   7  10
TORSDOF 7
ENDMDL
MODEL      223
REMARK 921   NORMALIZED FREE ENERGY PREDICTED BY IDOCK:    8.80 KCAL/MOL
REMARK 922        TOTAL FREE ENERGY PREDICTED BY IDOCK:   11.97 KCAL/MOL
REMARK 923 INTER-LIGAND FREE ENERGY PREDICTED BY IDOCK:   -0.09 KCAL/MOL
REMARK 924 INTRA-LIGAND FREE ENERGY PREDICTED BY IDOCK:   12.05 KCAL/MOL
REMARK 927      BINDING AFFINITY PREDICTED BY RF-SCORE:    0.00 PKD
ROOT
HETATM    1  C   UNL     1     -11.465  11.982  62.459  1.00  0.00     1.423 C  
HETATM    2  C   UNL     1     -11.248  11.922  63.948  1.00  0.00    -0.420 C  
HETATM    3  O   UNL     1     -11.765  12.762  64.685  1.00  0.00    -0.324 OA 
HETATM    4  N   UNL     1     -10.537  10.839  64.431  1.00  0.00    -0.289 N  
HETATM    5  C   UNL     1     -10.453  10.646  65.884  1.00  0.00    -0.174 C  
HETATM    6  C   UNL     1     -10.480   9.152  66.245  1.00  0.00     0.035 C  
HETATM    7  N   UNL     1      -9.407   8.448  65.506  1.00  0.00    -0.005 NA 
HETATM    8  C   UNL     1      -9.559  10.059  63.653  1.00  0.00    -0.096 C  
HETATM    9  C   UNL     1      -9.556   8.568  64.042  1.00  0.00     2.188 C  
ENDROOT
BRANCH   7  10
HETATM   10  C   UNL     1      -8.969   7.215  65.982  1.00  0.00    -0.111 A  
HETATM   11  C   UNL     1      -9.849   6.223  66.405  1.00  0.00    -0.128 A  
HETATM   12  C   UNL     1      -9.392   5.044  66.991  1.00  0.00    -0.133 A  
HETATM   13  C   UNL     1      -8.029   4.815  67.191  1.00  0.00    -0.102 A  
HETATM   14  C   UNL     1      -7.594   6.957  66.134  1.00  0.00    -0.092 A  
HETATM   15  C   UNL     1      -7.127   5.776  66.735  1.00  0.00    -0.070 A  
BRANCH  13  16
HETATM   16  O   UNL     1      -7.506   3.705  67.823  1.00  0.00    -0.065 OA 
BRANCH  16  17
HETATM   17  C   UNL     1      -6.093   3.781  68.034  1.00  0.00    -0.032 C  
BRANCH  17  18
HETATM   18  C   UNL     1      -5.613   5.102  68.617  1.00  0.00    -0.015 C  
HETATM   19  C   UNL     1      -5.267   6.136  67.582  1.00  0.00    -0.004 C  
HETATM   20  O   UNL     1      -5.557   7.375  68.223  1.00  0.00    -0.024 OA 
HETATM   21  C   UNL     1      -6.628   7.117  69.168  1.00  0.00    -0.044 C  
HETATM   22  O   UNL     1      -6.696   5.690  69.357  1.00  0.00    -0.054 OA 
BRANCH  21  23
HETATM   23  C   UNL     1      -6.314   7.762  70.521  1.00  0.00    -0.037 A  
HETATM   24 CL   UNL     1      -6.745   5.389  71.880  1.00  0.00    -0.058 Cl 
HETATM   25  C   UNL     1      -6.350   7.068  71.749  1.00  0.00    -0.041 A  
HETATM   26  C   UNL     1      -5.953   9.126  70.565  1.00  0.00    -0.040 A  
HETATM   27  C   UNL     1      -5.637   9.764  71.766  1.00  0.00    -0.005 A  
HETATM   28  C   UNL     1      -6.043   7.714  72.955  1.00  0.00    -0.059 A  
HETATM   29 CL   UNL     1      -5.277   9.834  74.436  1.00  0.00    -0.132 Cl 
HETATM   30  C   UNL     1      -5.682   9.055  72.957  1.00  0.00    -0.057 A  
ENDBRANCH  21  23
BRANCH  21  31
HETATM   31  C   UNL     1      -7.965   7.575  68.528  1.00  0.00    -0.123 C  
BRANCH  31  32
HETATM   32  N   UNL     1      -8.980   8.068  69.432  1.00  0.00    -0.148 NA 
HETATM   33  N   UNL     1     -10.353   8.099  71.176  1.00  0.00    -0.196 NA 
HETATM   34  C   UNL     1      -9.308   9.384  69.641  1.00  0.00    -0.189 A  
HETATM   35  C   UNL     1      -9.647   7.330  70.373  1.00  0.00    -0.165 A  
HETATM   36  C   UNL     1     -10.135   9.379  70.737  1.00  0.00    -0.298 A  
ENDBRANCH  31  32
ENDBRANCH  21  31
ENDBRANCH  17  18
ENDBRANCH  16  17
ENDBRANCH  13  16
ENDBRANCH   7  10
TORSDOF 7
ENDMDL
MODEL      224
REMARK 921   NORMALIZED FREE ENERGY PREDICTED BY IDOCK:    9.65 KCAL/MOL
REMARK 922        TOTAL FREE ENERGY PREDICTED BY IDOCK:   13.17 KCAL/MOL
REMARK 923 INTER-LIGAND FREE ENERGY PREDICTED BY IDOCK:    6.15 KCAL/MOL
REMARK 924 INTRA-LIGAND FREE ENERGY PREDICTED BY IDOCK:    7.03 KCAL/MOL
REMARK 927      BINDING AFFINITY PREDICTED BY RF-SCORE:    0.00 PKD
ROOT
HETATM    1  C   UNL     1      -6.723  14.057  72.798  1.00  0.00     2.671 C  
HETATM    2  C   UNL     1      -5.911  12.868  73.242  1.00  0.00     1.984 C  
HETATM    3  O   UNL     1      -5.246  12.922  74.276  1.00  0.00    -0.411 OA 
HETATM    4  N   UNL     1      -6.037  11.714  72.492  1.00  0.00     2.546 N  
HETATM    5  C   UNL     1      -5.406  10.484  72.985  1.00  0.00     0.490 C  
HETATM    6  C   UNL     1      -6.267   9.253  72.660  1.00  0.00     0.250 C  
HETATM    7  N   UNL     1      -6.544   9.215  71.206  1.00  0.00    -0.122 NA 
HETATM    8  C   UNL     1      -6.438  11.670  71.074  1.00  0.00     1.475 C  
HETATM    9  C   UNL     1      -7.267  10.415  70.738  1.00  0.00     0.729 C  
ENDROOT
BRANCH   7  10
HETATM   10  C   UNL     1      -6.923   8.006  70.631  1.00  0.00    -0.041 A  
HETATM   11  C   UNL     1      -5.998   7.108  70.104  1.00  0.00    -0.024 A  
HETATM   12  C   UNL     1      -6.402   5.960  69.424  1.00  0.00    -0.041 A  
HETATM   13  C   UNL     1      -7.755   5.671  69.230  1.00  0.00    -0.088 A  
HETATM   14  C   UNL     1      -8.284   7.681  70.483  1.00  0.00    -0.121 A  
HETATM   15  C   UNL     1      -8.698   6.533  69.788  1.00  0.00    -0.143 A  
BRANCH  13  16
HETATM   16  O   UNL     1      -8.229   4.591  68.512  1.00  0.00    -0.082 OA 
BRANCH  16  17
HETATM   17  C   UNL     1      -8.552   4.907  67.154  1.00  0.00    -0.104 C  
BRANCH  17  18
HETATM   18  C   UNL     1      -8.067   6.273  66.692  1.00  0.00    -0.110 C  
HETATM   19  C   UNL     1      -8.599   6.688  65.348  1.00  0.00    -0.056 C  
HETATM   20  O   UNL     1      -8.666   8.109  65.428  1.00  0.00    -0.160 OA 
HETATM   21  C   UNL     1      -8.895   8.439  66.823  1.00  0.00    -0.138 C  
HETATM   22  O   UNL     1      -8.579   7.265  67.597  1.00  0.00    -0.125 OA 
BRANCH  21  23
HETATM   23  C   UNL     1      -7.958   9.567  67.266  1.00  0.00    -0.106 A  
HETATM   24 CL   UNL     1      -5.701   8.106  66.610  1.00  0.00    -0.042 Cl 
HETATM   25  C   UNL     1      -6.551   9.489  67.205  1.00  0.00    -0.071 A  
HETATM   26  C   UNL     1      -8.515  10.769  67.755  1.00  0.00    -0.120 A  
HETATM   27  C   UNL     1      -7.714  11.840  68.155  1.00  0.00    -0.124 A  
HETATM   28  C   UNL     1      -5.748  10.563  67.619  1.00  0.00    -0.044 A  
HETATM   29 CL   UNL     1      -5.344  13.057  68.562  1.00  0.00    -0.060 Cl 
HETATM   30  C   UNL     1      -6.333  11.733  68.085  1.00  0.00    -0.051 A  
ENDBRANCH  21  23
BRANCH  21  31
HETATM   31  C   UNL     1     -10.405   8.740  67.013  1.00  0.00    -0.283 C  
BRANCH  31  32
HETATM   32  N   UNL     1     -10.772  10.126  67.192  1.00  0.00    -0.243 NA 
HETATM   33  N   UNL     1     -11.380  12.188  66.639  1.00  0.00    -0.331 NA 
HETATM   34  C   UNL     1     -11.328  10.679  68.318  1.00  0.00    -0.289 A  
HETATM   35  C   UNL     1     -10.812  11.080  66.210  1.00  0.00    -0.170 A  
HETATM   36  C   UNL     1     -11.718  11.941  67.944  1.00  0.00    -0.298 A  
ENDBRANCH  31  32
ENDBRANCH  21  31
ENDBRANCH  17  18
ENDBRANCH  16  17
ENDBRANCH  13  16
ENDBRANCH   7  10
TORSDOF 7
ENDMDL
MODEL      225
REMARK 921   NORMALIZED FREE ENERGY PREDICTED BY IDOCK:   10.62 KCAL/MOL
REMARK 922        TOTAL FREE ENERGY PREDICTED BY IDOCK:   14.53 KCAL/MOL
REMARK 923 INTER-LIGAND FREE ENERGY PREDICTED BY IDOCK:   11.31 KCAL/MOL
REMARK 924 INTRA-LIGAND FREE ENERGY PREDICTED BY IDOCK:    3.22 KCAL/MOL
REMARK 927      BINDING AFFINITY PREDICTED BY RF-SCORE:    0.00 PKD
ROOT
HETATM    1  C   UNL     1     -10.536  10.267  62.333  1.00  0.00     1.649 C  
HETATM    2  C   UNL     1      -9.572  10.041  63.468  1.00  0.00    -0.074 C  
HETATM    3  O   UNL     1      -8.437   9.622  63.243  1.00  0.00    -0.160 OA 
HETATM    4  N   UNL     1      -9.996  10.417  64.729  1.00  0.00    -0.334 N  
HETATM    5  C   UNL     1      -9.030  10.381  65.834  1.00  0.00    -0.162 C  
HETATM    6  C   UNL     1      -9.268  11.541  66.814  1.00  0.00    -0.181 C  
HETATM    7  N   UNL     1     -10.674  11.515  67.276  1.00  0.00    -0.231 NA 
HETATM    8  C   UNL     1     -11.404  10.513  65.151  1.00  0.00     1.174 C  
HETATM    9  C   UNL     1     -11.637  11.650  66.164  1.00  0.00    -0.028 C  
ENDROOT
BRANCH   7  10
HETATM   10  C   UNL     1     -11.000  12.176  68.456  1.00  0.00    -0.238 A  
HETATM   11  C   UNL     1     -12.312  12.307  68.901  1.00  0.00     0.205 A  
HETATM   12  C   UNL     1     -12.630  13.076  70.020  1.00  0.00     0.024 A  
HETATM   13  C   UNL     1     -11.644  13.761  70.732  1.00  0.00     0.168 A  
HETATM   14  C   UNL     1     -10.003  12.822  69.211  1.00  0.00     0.564 A  
HETATM   15  C   UNL     1     -10.317  13.609  70.331  1.00  0.00     2.165 A  
BRANCH  13  16
HETATM   16  O   UNL     1     -11.889  14.592  71.807  1.00  0.00    -0.338 OA 
BRANCH  16  17
HETATM   17  C   UNL     1     -11.716  15.981  71.505  1.00  0.00    -0.484 C  
BRANCH  17  18
HETATM   18  C   UNL     1     -12.055  16.361  70.071  1.00  0.00     0.513 C  
HETATM   19  C   UNL     1     -12.015  17.840  69.806  1.00  0.00     5.334 C  
HETATM   20  O   UNL     1     -11.635  17.934  68.435  1.00  0.00     0.851 OA 
HETATM   21  C   UNL     1     -10.822  16.768  68.146  1.00  0.00    -0.353 C  
HETATM   22  O   UNL     1     -11.042  15.818  69.208  1.00  0.00    -0.254 OA 
BRANCH  21  23
HETATM   23  C   UNL     1     -11.263  16.121  66.830  1.00  0.00     0.154 A  
HETATM   24 CL   UNL     1      -9.380  17.531  65.372  1.00  0.00     0.756 Cl 
HETATM   25  C   UNL     1     -10.681  16.410  65.578  1.00  0.00    -0.287 A  
HETATM   26  C   UNL     1     -12.304  15.166  66.849  1.00  0.00     0.636 A  
HETATM   27  C   UNL     1     -12.736  14.528  65.686  1.00  0.00    -0.186 A  
HETATM   28  C   UNL     1     -11.125  15.775  64.409  1.00  0.00    -0.174 A  
HETATM   29 CL   UNL     1     -12.664  14.037  63.037  1.00  0.00     0.842 Cl 
HETATM   30  C   UNL     1     -12.144  14.834  64.469  1.00  0.00    -0.446 A  
ENDBRANCH  21  23
BRANCH  21  31
HETATM   31  C   UNL     1      -9.329  17.189  68.191  1.00  0.00    -0.264 C  
BRANCH  31  32
HETATM   32  N   UNL     1      -9.047  18.522  68.674  1.00  0.00    -0.317 NA 
HETATM   33  N   UNL     1      -7.906  20.395  69.014  1.00  0.00     0.372 NA 
HETATM   34  C   UNL     1      -9.974  19.488  68.977  1.00  0.00    -0.414 A  
HETATM   35  C   UNL     1      -7.813  19.114  68.724  1.00  0.00    -0.348 A  
HETATM   36  C   UNL     1      -9.247  20.639  69.158  1.00  0.00     1.182 A  
ENDBRANCH  31  32
ENDBRANCH  21  31
ENDBRANCH  17  18
ENDBRANCH  16  17
ENDBRANCH  13  16
ENDBRANCH   7  10
TORSDOF 7
ENDMDL
MODEL      226
REMARK 921   NORMALIZED FREE ENERGY PREDICTED BY IDOCK:   11.29 KCAL/MOL
REMARK 922        TOTAL FREE ENERGY PREDICTED BY IDOCK:   15.48 KCAL/MOL
REMARK 923 INTER-LIGAND FREE ENERGY PREDICTED BY IDOCK:   15.61 KCAL/MOL
REMARK 924 INTRA-LIGAND FREE ENERGY PREDICTED BY IDOCK:   -0.13 KCAL/MOL
REMARK 927      BINDING AFFINITY PREDICTED BY RF-SCORE:    0.00 PKD
ROOT
HETATM    1  C   UNL     1     -10.055   3.841  72.043  1.00  0.00    -0.209 C  
HETATM    2  C   UNL     1     -11.285   4.605  71.627  1.00  0.00     0.748 C  
HETATM    3  O   UNL     1     -12.399   4.094  71.735  1.00  0.00     3.608 OA 
HETATM    4  N   UNL     1     -11.098   5.914  71.222  1.00  0.00    -0.266 N  
HETATM    5  C   UNL     1     -12.280   6.749  70.977  1.00  0.00    -0.352 C  
HETATM    6  C   UNL     1     -12.030   8.202  71.411  1.00  0.00    -0.298 C  
HETATM    7  N   UNL     1     -10.813   8.713  70.739  1.00  0.00    -0.222 NA 
HETATM    8  C   UNL     1      -9.843   6.453  70.669  1.00  0.00    -0.184 C  
HETATM    9  C   UNL     1      -9.610   7.923  71.070  1.00  0.00    -0.159 C  
ENDROOT
BRANCH   7  10
HETATM   10  C   UNL     1     -10.637  10.090  70.639  1.00  0.00    -0.202 A  
HETATM   11  C   UNL     1     -11.696  10.964  70.413  1.00  0.00    -0.444 A  
HETATM   12  C   UNL     1     -11.485  12.325  70.194  1.00  0.00    -0.036 A  
HETATM   13  C   UNL     1     -10.198  12.865  70.178  1.00  0.00     2.519 A  
HETATM   14  C   UNL     1      -9.346  10.648  70.678  1.00  0.00     2.055 A  
HETATM   15  C   UNL     1      -9.125  12.016  70.445  1.00  0.00     5.210 A  
BRANCH  13  16
HETATM   16  O   UNL     1      -9.907  14.186  69.903  1.00  0.00     0.593 OA 
BRANCH  16  17
HETATM   17  C   UNL     1     -11.070  15.006  69.746  1.00  0.00    -0.276 C  
BRANCH  17  18
HETATM   18  C   UNL     1     -11.639  15.028  68.335  1.00  0.00    -0.331 C  
HETATM   19  C   UNL     1     -11.511  16.358  67.645  1.00  0.00     0.144 C  
HETATM   20  O   UNL     1     -11.393  16.020  66.266  1.00  0.00     0.051 OA 
HETATM   21  C   UNL     1     -10.763  14.715  66.207  1.00  0.00    -0.316 C  
HETATM   22  O   UNL     1     -10.866  14.131  67.521  1.00  0.00    -0.269 OA 
BRANCH  21  23
HETATM   23  C   UNL     1     -11.507  13.806  65.224  1.00  0.00    -0.320 A  
HETATM   24 CL   UNL     1     -12.429  15.961  63.751  1.00  0.00     0.552 Cl 
HETATM   25  C   UNL     1     -12.259  14.282  64.129  1.00  0.00    -0.378 A  
HETATM   26  C   UNL     1     -11.439  12.406  65.396  1.00  0.00    -0.402 A  
HETATM   27  C   UNL     1     -12.079  11.526  64.522  1.00  0.00     0.129 A  
HETATM   28  C   UNL     1     -12.911  13.396  63.258  1.00  0.00     0.540 A  
HETATM   29 CL   UNL     1     -13.588  10.942  62.367  1.00  0.00     3.941 Cl 
HETATM   30  C   UNL     1     -12.812  12.024  63.455  1.00  0.00    -0.291 A  
ENDBRANCH  21  23
BRANCH  21  31
HETATM   31  C   UNL     1      -9.257  14.911  65.893  1.00  0.00    -0.080 C  
BRANCH  31  32
HETATM   32  N   UNL     1      -8.335  14.010  66.548  1.00  0.00     0.266 NA 
HETATM   33  N   UNL     1      -7.297  12.108  67.026  1.00  0.00    -0.113 NA 
HETATM   34  C   UNL     1      -7.152  14.358  67.151  1.00  0.00     0.270 A  
HETATM   35  C   UNL     1      -8.384  12.643  66.509  1.00  0.00     0.194 A  
HETATM   36  C   UNL     1      -6.519  13.168  67.413  1.00  0.00    -0.068 A  
ENDBRANCH  31  32
ENDBRANCH  21  31
ENDBRANCH  17  18
ENDBRANCH  16  17
ENDBRANCH  13  16
ENDBRANCH   7  10
TORSDOF 7
ENDMDL
MODEL      227
REMARK 921   NORMALIZED FREE ENERGY PREDICTED BY IDOCK:   11.70 KCAL/MOL
REMARK 922        TOTAL FREE ENERGY PREDICTED BY IDOCK:   16.06 KCAL/MOL
REMARK 923 INTER-LIGAND FREE ENERGY PREDICTED BY IDOCK:   14.80 KCAL/MOL
REMARK 924 INTRA-LIGAND FREE ENERGY PREDICTED BY IDOCK:    1.26 KCAL/MOL
REMARK 927      BINDING AFFINITY PREDICTED BY RF-SCORE:    0.00 PKD
ROOT
HETATM    1  C   UNL     1      -7.508  11.477  72.999  1.00  0.00    13.775 C  
HETATM    2  C   UNL     1      -6.352  11.616  72.044  1.00  0.00     3.365 C  
HETATM    3  O   UNL     1      -5.350  12.251  72.370  1.00  0.00    -0.317 OA 
HETATM    4  N   UNL     1      -6.442  10.920  70.852  1.00  0.00     0.312 N  
HETATM    5  C   UNL     1      -5.269  10.882  69.970  1.00  0.00    -0.047 C  
HETATM    6  C   UNL     1      -5.149   9.521  69.268  1.00  0.00    -0.036 C  
HETATM    7  N   UNL     1      -6.413   9.220  68.558  1.00  0.00    -0.053 NA 
HETATM    8  C   UNL     1      -7.703  10.510  70.209  1.00  0.00     0.492 C  
HETATM    9  C   UNL     1      -7.574   9.164  69.470  1.00  0.00    -0.079 C  
ENDROOT
BRANCH   7  10
HETATM   10  C   UNL     1      -6.393   8.283  67.530  1.00  0.00    -0.057 A  
HETATM   11  C   UNL     1      -5.532   7.190  67.532  1.00  0.00    -0.024 A  
HETATM   12  C   UNL     1      -5.440   6.330  66.438  1.00  0.00    -0.013 A  
HETATM   13  C   UNL     1      -6.200   6.540  65.286  1.00  0.00    -0.034 A  
HETATM   14  C   UNL     1      -7.198   8.458  66.389  1.00  0.00    -0.072 A  
HETATM   15  C   UNL     1      -7.102   7.604  65.278  1.00  0.00    -0.063 A  
BRANCH  13  16
HETATM   16  O   UNL     1      -6.115   5.773  64.142  1.00  0.00    -0.024 OA 
BRANCH  16  17
HETATM   17  C   UNL     1      -7.218   4.878  63.971  1.00  0.00    -0.050 C  
BRANCH  17  18
HETATM   18  C   UNL     1      -8.342   5.064  64.980  1.00  0.00    -0.140 C  
HETATM   19  C   UNL     1      -9.547   4.204  64.717  1.00  0.00    -0.176 C  
HETATM   20  O   UNL     1     -10.088   3.964  66.013  1.00  0.00    -0.127 OA 
HETATM   21  C   UNL     1      -8.976   3.999  66.944  1.00  0.00    -0.132 C  
HETATM   22  O   UNL     1      -7.871   4.630  66.267  1.00  0.00    -0.097 OA 
BRANCH  21  23
HETATM   23  C   UNL     1      -9.330   4.848  68.169  1.00  0.00    -0.164 A  
HETATM   24 CL   UNL     1      -6.736   4.751  69.128  1.00  0.00    -0.047 Cl 
HETATM   25  C   UNL     1      -8.402   5.212  69.167  1.00  0.00    -0.087 A  
HETATM   26  C   UNL     1     -10.654   5.316  68.321  1.00  0.00    -0.074 A  
HETATM   27  C   UNL     1     -11.032   6.110  69.405  1.00  0.00    -0.454 A  
HETATM   28  C   UNL     1      -8.788   6.001  70.261  1.00  0.00    -0.144 A  
HETATM   29 CL   UNL     1     -10.556   7.442  71.699  1.00  0.00    -0.221 Cl 
HETATM   30  C   UNL     1     -10.097   6.451  70.371  1.00  0.00    -0.185 A  
ENDBRANCH  21  23
BRANCH  21  31
HETATM   31  C   UNL     1      -8.562   2.539  67.267  1.00  0.00    -0.107 C  
BRANCH  31  32
HETATM   32  N   UNL     1      -7.144   2.265  67.322  1.00  0.00    -0.047 NA 
HETATM   33  N   UNL     1      -5.175   1.746  68.205  1.00  0.00    -0.012 NA 
HETATM   34  C   UNL     1      -6.366   1.811  66.287  1.00  0.00    -0.023 A  
HETATM   35  C   UNL     1      -6.377   2.222  68.455  1.00  0.00    -0.029 A  
HETATM   36  C   UNL     1      -5.165   1.474  66.862  1.00  0.00    -0.005 A  
ENDBRANCH  31  32
ENDBRANCH  21  31
ENDBRANCH  17  18
ENDBRANCH  16  17
ENDBRANCH  13  16
ENDBRANCH   7  10
TORSDOF 7
ENDMDL
MODEL      228
REMARK 921   NORMALIZED FREE ENERGY PREDICTED BY IDOCK:   15.68 KCAL/MOL
REMARK 922        TOTAL FREE ENERGY PREDICTED BY IDOCK:   21.67 KCAL/MOL
REMARK 923 INTER-LIGAND FREE ENERGY PREDICTED BY IDOCK:   17.86 KCAL/MOL
REMARK 924 INTRA-LIGAND FREE ENERGY PREDICTED BY IDOCK:    3.81 KCAL/MOL
REMARK 927      BINDING AFFINITY PREDICTED BY RF-SCORE:    0.00 PKD
ROOT
HETATM    1  C   UNL     1      -6.528  18.004  63.835  1.00  0.00     4.196 C  
HETATM    2  C   UNL     1      -7.563  17.670  64.877  1.00  0.00     3.490 C  
HETATM    3  O   UNL     1      -8.719  18.075  64.756  1.00  0.00     2.920 OA 
HETATM    4  N   UNL     1      -7.170  16.821  65.896  1.00  0.00     0.224 N  
HETATM    5  C   UNL     1      -8.188  16.328  66.832  1.00  0.00    -0.226 C  
HETATM    6  C   UNL     1      -7.897  14.879  67.253  1.00  0.00    -0.206 C  
HETATM    7  N   UNL     1      -6.523  14.792  67.797  1.00  0.00    -0.161 NA 
HETATM    8  C   UNL     1      -5.781  16.640  66.353  1.00  0.00     0.440 C  
HETATM    9  C   UNL     1      -5.498  15.197  66.814  1.00  0.00     1.693 C  
ENDROOT
BRANCH   7  10
HETATM   10  C   UNL     1      -6.198  13.713  68.615  1.00  0.00    -0.088 A  
HETATM   11  C   UNL     1      -5.345  12.693  68.202  1.00  0.00    -0.073 A  
HETATM   12  C   UNL     1      -5.128  11.562  68.988  1.00  0.00    -0.043 A  
HETATM   13  C   UNL     1      -5.770  11.399  70.217  1.00  0.00    -0.143 A  
HETATM   14  C   UNL     1      -6.799  13.571  69.880  1.00  0.00     0.246 A  
HETATM   15  C   UNL     1      -6.594  12.428  70.670  1.00  0.00     1.199 A  
BRANCH  13  16
HETATM   16  O   UNL     1      -5.656  10.279  71.016  1.00  0.00    -0.083 OA 
BRANCH  16  17
HETATM   17  C   UNL     1      -6.913   9.792  71.498  1.00  0.00     0.602 C  
BRANCH  17  18
HETATM   18  C   UNL     1      -7.915   9.446  70.407  1.00  0.00    -0.172 C  
HETATM   19  C   UNL     1      -8.981  10.486  70.205  1.00  0.00     0.697 C  
HETATM   20  O   UNL     1      -9.306  10.382  68.822  1.00  0.00    -0.158 OA 
HETATM   21  C   UNL     1      -8.107   9.927  68.143  1.00  0.00    -0.104 C  
HETATM   22  O   UNL     1      -7.218   9.404  69.151  1.00  0.00    -0.064 OA 
BRANCH  21  23
HETATM   23  C   UNL     1      -8.441   8.794  67.169  1.00  0.00    -0.110 A  
HETATM   24 CL   UNL     1     -10.764  10.044  66.331  1.00  0.00    -0.133 Cl 
HETATM   25  C   UNL     1      -9.588   8.776  66.348  1.00  0.00    -0.249 A  
HETATM   26  C   UNL     1      -7.556   7.699  67.060  1.00  0.00    -0.103 A  
HETATM   27  C   UNL     1      -7.796   6.646  66.176  1.00  0.00    -0.102 A  
HETATM   28  C   UNL     1      -9.832   7.711  65.468  1.00  0.00     1.090 A  
HETATM   29 CL   UNL     1      -9.222   5.368  64.280  1.00  0.00     0.261 Cl 
HETATM   30  C   UNL     1      -8.933   6.656  65.381  1.00  0.00     0.179 A  
ENDBRANCH  21  23
BRANCH  21  31
HETATM   31  C   UNL     1      -7.416  11.155  67.495  1.00  0.00    -0.104 C  
BRANCH  31  32
HETATM   32  N   UNL     1      -7.297  11.146  66.054  1.00  0.00    -0.025 NA 
HETATM   33  N   UNL     1      -6.891  10.352  64.021  1.00  0.00    -0.045 NA 
HETATM   34  C   UNL     1      -7.971  11.962  65.180  1.00  0.00     1.698 A  
HETATM   35  C   UNL     1      -6.649  10.200  65.306  1.00  0.00    -0.119 A  
HETATM   36  C   UNL     1      -7.726  11.436  63.936  1.00  0.00     1.432 A  
ENDBRANCH  31  32
ENDBRANCH  21  31
ENDBRANCH  17  18
ENDBRANCH  16  17
ENDBRANCH  13  16
ENDBRANCH   7  10
TORSDOF 7
ENDMDL
MODEL      229
REMARK 921   NORMALIZED FREE ENERGY PREDICTED BY IDOCK:   15.92 KCAL/MOL
REMARK 922        TOTAL FREE ENERGY PREDICTED BY IDOCK:   22.01 KCAL/MOL
REMARK 923 INTER-LIGAND FREE ENERGY PREDICTED BY IDOCK:   -1.78 KCAL/MOL
REMARK 924 INTRA-LIGAND FREE ENERGY PREDICTED BY IDOCK:   23.79 KCAL/MOL
REMARK 927      BINDING AFFINITY PREDICTED BY RF-SCORE:    0.00 PKD
ROOT
HETATM    1  C   UNL     1      -9.817   9.919  62.723  1.00  0.00     0.446 C  
HETATM    2  C   UNL     1     -10.056  10.245  64.174  1.00  0.00    -0.062 C  
HETATM    3  O   UNL     1     -10.733  11.224  64.487  1.00  0.00    -0.332 OA 
HETATM    4  N   UNL     1      -9.567   9.346  65.104  1.00  0.00    -0.209 N  
HETATM    5  C   UNL     1      -9.926   9.529  66.515  1.00  0.00    -0.261 C  
HETATM    6  C   UNL     1     -10.122   8.175  67.215  1.00  0.00    -0.241 C  
HETATM    7  N   UNL     1      -8.908   7.347  67.032  1.00  0.00    -0.125 NA 
HETATM    8  C   UNL     1      -8.435   8.430  64.875  1.00  0.00    -0.122 C  
HETATM    9  C   UNL     1      -8.610   7.087  65.610  1.00  0.00    -0.111 C  
ENDROOT
BRANCH   7  10
HETATM   10  C   UNL     1      -8.684   6.291  67.911  1.00  0.00    -0.114 A  
HETATM   11  C   UNL     1      -9.621   5.284  68.123  1.00  0.00    -0.164 A  
HETATM   12  C   UNL     1      -9.430   4.303  69.095  1.00  0.00    -0.245 A  
HETATM   13  C   UNL     1      -8.295   4.299  69.908  1.00  0.00    -0.061 A  
HETATM   14  C   UNL     1      -7.515   6.250  68.694  1.00  0.00    -0.088 A  
HETATM   15  C   UNL     1      -7.323   5.273  69.684  1.00  0.00    -0.064 A  
BRANCH  13  16
HETATM   16  O   UNL     1      -8.070   3.402  70.933  1.00  0.00    -0.059 OA 
BRANCH  16  17
HETATM   17  C   UNL     1      -6.881   3.676  71.680  1.00  0.00    -0.027 C  
BRANCH  17  18
HETATM   18  C   UNL     1      -6.316   5.074  71.474  1.00  0.00    -0.030 C  
HETATM   19  C   UNL     1      -6.198   5.478  70.031  1.00  0.00    -0.026 C  
HETATM   20  O   UNL     1      -6.374   6.892  70.054  1.00  0.00    -0.034 OA 
HETATM   21  C   UNL     1      -7.232   7.188  71.186  1.00  0.00    -0.074 C  
HETATM   22  O   UNL     1      -7.240   6.022  72.033  1.00  0.00    -0.087 OA 
BRANCH  21  23
HETATM   23  C   UNL     1      -6.667   8.360  71.994  1.00  0.00    -0.087 A  
HETATM   24 CL   UNL     1      -5.563   9.531  69.742  1.00  0.00    -0.033 Cl 
HETATM   25  C   UNL     1      -5.923   9.418  71.430  1.00  0.00    -0.069 A  
HETATM   26  C   UNL     1      -6.902   8.411  73.386  1.00  0.00    -0.123 A  
HETATM   27  C   UNL     1      -6.430   9.463  74.172  1.00  0.00     0.392 A  
HETATM   28  C   UNL     1      -5.440  10.468  72.225  1.00  0.00     0.392 A  
HETATM   29 CL   UNL     1      -5.132  11.794  74.553  1.00  0.00     0.087 Cl 
HETATM   30  C   UNL     1      -5.701  10.489  73.588  1.00  0.00     1.043 A  
ENDBRANCH  21  23
BRANCH  21  31
HETATM   31  C   UNL     1      -8.677   7.402  70.662  1.00  0.00    -0.142 C  
BRANCH  31  32
HETATM   32  N   UNL     1      -9.730   7.415  71.652  1.00  0.00    -0.155 NA 
HETATM   33  N   UNL     1     -11.463   8.175  72.812  1.00  0.00    -0.395 NA 
HETATM   34  C   UNL     1     -10.332   6.316  72.210  1.00  0.00    -0.190 A  
HETATM   35  C   UNL     1     -10.439   8.514  72.057  1.00  0.00    -0.336 A  
HETATM   36  C   UNL     1     -11.413   6.808  72.899  1.00  0.00    -0.074 A  
ENDBRANCH  31  32
ENDBRANCH  21  31
ENDBRANCH  17  18
ENDBRANCH  16  17
ENDBRANCH  13  16
ENDBRANCH   7  10
TORSDOF 7
ENDMDL
MODEL      230
REMARK 921   NORMALIZED FREE ENERGY PREDICTED BY IDOCK:   18.84 KCAL/MOL
REMARK 922        TOTAL FREE ENERGY PREDICTED BY IDOCK:   26.11 KCAL/MOL
REMARK 923 INTER-LIGAND FREE ENERGY PREDICTED BY IDOCK:   20.91 KCAL/MOL
REMARK 924 INTRA-LIGAND FREE ENERGY PREDICTED BY IDOCK:    5.20 KCAL/MOL
REMARK 927      BINDING AFFINITY PREDICTED BY RF-SCORE:    0.00 PKD
ROOT
HETATM    1  C   UNL     1      -7.352  11.669  74.293  1.00  0.00     8.676 C  
HETATM    2  C   UNL     1      -6.183  11.778  73.350  1.00  0.00     3.978 C  
HETATM    3  O   UNL     1      -5.136  12.312  73.718  1.00  0.00    -0.362 OA 
HETATM    4  N   UNL     1      -6.319  11.171  72.115  1.00  0.00     2.456 N  
HETATM    5  C   UNL     1      -5.148  11.099  71.234  1.00  0.00    -0.095 C  
HETATM    6  C   UNL     1      -5.130   9.781  70.444  1.00  0.00    -0.032 C  
HETATM    7  N   UNL     1      -6.410   9.626  69.716  1.00  0.00    -0.044 NA 
HETATM    8  C   UNL     1      -7.605  10.902  71.446  1.00  0.00     4.721 C  
HETATM    9  C   UNL     1      -7.576   9.601  70.621  1.00  0.00    -0.078 C  
ENDROOT
BRANCH   7  10
HETATM   10  C   UNL     1      -6.456   8.758  68.628  1.00  0.00    -0.054 A  
HETATM   11  C   UNL     1      -6.590   7.381  68.777  1.00  0.00    -0.048 A  
HETATM   12  C   UNL     1      -6.513   6.518  67.685  1.00  0.00    -0.052 A  
HETATM   13  C   UNL     1      -6.282   7.001  66.395  1.00  0.00    -0.039 A  
HETATM   14  C   UNL     1      -6.280   9.245  67.320  1.00  0.00    -0.058 A  
HETATM   15  C   UNL     1      -6.188   8.380  66.217  1.00  0.00    -0.049 A  
BRANCH  13  16
HETATM   16  O   UNL     1      -6.127   6.205  65.278  1.00  0.00    -0.028 OA 
BRANCH  16  17
HETATM   17  C   UNL     1      -7.111   6.444  64.267  1.00  0.00    -0.057 C  
BRANCH  17  18
HETATM   18  C   UNL     1      -7.587   7.886  64.178  1.00  0.00    -0.112 C  
HETATM   19  C   UNL     1      -8.632   8.120  63.123  1.00  0.00     0.193 C  
HETATM   20  O   UNL     1      -9.413   9.192  63.645  1.00  0.00     0.382 OA 
HETATM   21  C   UNL     1      -9.349   9.092  65.091  1.00  0.00    -0.029 C  
HETATM   22  O   UNL     1      -8.245   8.221  65.411  1.00  0.00    -0.129 OA 
BRANCH  21  23
HETATM   23  C   UNL     1      -9.069  10.463  65.711  1.00  0.00    -0.197 A  
HETATM   24 CL   UNL     1     -11.753  10.908  66.223  1.00  0.00     0.721 Cl 
HETATM   25  C   UNL     1     -10.072  11.314  66.223  1.00  0.00    -0.230 A  
HETATM   26  C   UNL     1      -7.735  10.918  65.798  1.00  0.00    -0.036 A  
HETATM   27  C   UNL     1      -7.415  12.150  66.371  1.00  0.00     0.475 A  
HETATM   28  C   UNL     1      -9.748  12.556  66.788  1.00  0.00    -0.234 A  
HETATM   29 CL   UNL     1      -8.029  14.475  67.586  1.00  0.00    -0.171 Cl 
HETATM   30  C   UNL     1      -8.423  12.965  66.865  1.00  0.00    -0.086 A  
ENDBRANCH  21  23
BRANCH  21  31
HETATM   31  C   UNL     1     -10.650   8.409  65.591  1.00  0.00     2.495 C  
BRANCH  31  32
HETATM   32  N   UNL     1     -10.623   7.866  66.931  1.00  0.00    -0.331 NA 
HETATM   33  N   UNL     1     -10.163   6.447  68.574  1.00  0.00    -0.160 NA 
HETATM   34  C   UNL     1     -10.720   8.583  68.097  1.00  0.00    -0.042 A  
HETATM   35  C   UNL     1     -10.300   6.581  67.271  1.00  0.00    -0.222 A  
HETATM   36  C   UNL     1     -10.408   7.691  69.094  1.00  0.00    -0.213 A  
ENDBRANCH  31  32
ENDBRANCH  21  31
ENDBRANCH  17  18
ENDBRANCH  16  17
ENDBRANCH  13  16
ENDBRANCH   7  10
TORSDOF 7
ENDMDL
MODEL      231
REMARK 921   NORMALIZED FREE ENERGY PREDICTED BY IDOCK:   30.71 KCAL/MOL
REMARK 922        TOTAL FREE ENERGY PREDICTED BY IDOCK:   42.85 KCAL/MOL
REMARK 923 INTER-LIGAND FREE ENERGY PREDICTED BY IDOCK:   18.07 KCAL/MOL
REMARK 924 INTRA-LIGAND FREE ENERGY PREDICTED BY IDOCK:   24.78 KCAL/MOL
REMARK 927      BINDING AFFINITY PREDICTED BY RF-SCORE:    0.00 PKD
ROOT
HETATM    1  C   UNL     1      -5.830  10.937  73.938  1.00  0.00     1.501 C  
HETATM    2  C   UNL     1      -5.817  10.027  72.738  1.00  0.00     0.657 C  
HETATM    3  O   UNL     1      -5.166   8.983  72.758  1.00  0.00    -0.060 OA 
HETATM    4  N   UNL     1      -6.640  10.376  71.683  1.00  0.00     1.024 N  
HETATM    5  C   UNL     1      -6.795   9.431  70.570  1.00  0.00    -0.098 C  
HETATM    6  C   UNL     1      -8.228   9.459  70.017  1.00  0.00    -0.162 C  
HETATM    7  N   UNL     1      -8.585  10.848  69.647  1.00  0.00     0.234 NA 
HETATM    8  C   UNL     1      -7.099  11.745  71.390  1.00  0.00     5.235 C  
HETATM    9  C   UNL     1      -8.521  11.773  70.796  1.00  0.00     6.869 C  
ENDROOT
BRANCH   7  10
HETATM   10  C   UNL     1      -9.632  11.051  68.752  1.00  0.00    -0.187 A  
HETATM   11  C   UNL     1     -10.710  11.882  69.041  1.00  0.00    -0.197 A  
HETATM   12  C   UNL     1     -11.807  11.977  68.185  1.00  0.00    -0.352 A  
HETATM   13  C   UNL     1     -11.874  11.230  67.007  1.00  0.00     0.414 A  
HETATM   14  C   UNL     1      -9.679  10.342  67.537  1.00  0.00    -0.195 A  
HETATM   15  C   UNL     1     -10.786  10.424  66.677  1.00  0.00    -0.198 A  
BRANCH  13  16
HETATM   16  O   UNL     1     -12.953  11.222  66.146  1.00  0.00     3.739 OA 
BRANCH  16  17
HETATM   17  C   UNL     1     -13.032  12.388  65.320  1.00  0.00     0.697 C  
BRANCH  17  18
HETATM   18  C   UNL     1     -12.567  13.670  65.993  1.00  0.00    -0.386 C  
HETATM   19  C   UNL     1     -12.619  13.625  67.495  1.00  0.00     0.439 C  
HETATM   20  O   UNL     1     -11.558  14.486  67.902  1.00  0.00    -0.311 OA 
HETATM   21  C   UNL     1     -10.550  14.430  66.860  1.00  0.00    -0.278 C  
HETATM   22  O   UNL     1     -11.174  13.859  65.692  1.00  0.00    -0.301 OA 
BRANCH  21  23
HETATM   23  C   UNL     1     -10.072  15.840  66.501  1.00  0.00    -0.292 A  
HETATM   24 CL   UNL     1      -7.410  15.126  66.761  1.00  0.00     0.188 Cl 
HETATM   25  C   UNL     1      -8.713  16.217  66.444  1.00  0.00    -0.325 A  
HETATM   26  C   UNL     1     -11.028  16.832  66.195  1.00  0.00     0.132 A  
HETATM   27  C   UNL     1     -10.652  18.130  65.842  1.00  0.00    -0.247 A  
HETATM   28  C   UNL     1      -8.339  17.525  66.099  1.00  0.00    -0.200 A  
HETATM   29 CL   UNL     1      -8.843  20.064  65.345  1.00  0.00     0.382 Cl 
HETATM   30  C   UNL     1      -9.309  18.471  65.795  1.00  0.00     0.417 A  
ENDBRANCH  21  23
BRANCH  21  31
HETATM   31  C   UNL     1      -9.427  13.462  67.317  1.00  0.00    -0.234 C  
BRANCH  31  32
HETATM   32  N   UNL     1      -8.987  12.479  66.353  1.00  0.00    -0.134 NA 
HETATM   33  N   UNL     1      -7.634  11.032  65.351  1.00  0.00     0.138 NA 
HETATM   34  C   UNL     1      -9.793  11.636  65.629  1.00  0.00    -0.240 A  
HETATM   35  C   UNL     1      -7.693  12.084  66.141  1.00  0.00     0.595 A  
HETATM   36  C   UNL     1      -8.937  10.738  65.041  1.00  0.00    -0.194 A  
ENDBRANCH  31  32
ENDBRANCH  21  31
ENDBRANCH  17  18
ENDBRANCH  16  17
ENDBRANCH  13  16
ENDBRANCH   7  10
TORSDOF 7
ENDMDL
MODEL      232
REMARK 921   NORMALIZED FREE ENERGY PREDICTED BY IDOCK:   32.05 KCAL/MOL
REMARK 922        TOTAL FREE ENERGY PREDICTED BY IDOCK:   44.73 KCAL/MOL
REMARK 923 INTER-LIGAND FREE ENERGY PREDICTED BY IDOCK:   15.75 KCAL/MOL
REMARK 924 INTRA-LIGAND FREE ENERGY PREDICTED BY IDOCK:   28.98 KCAL/MOL
REMARK 927      BINDING AFFINITY PREDICTED BY RF-SCORE:    0.00 PKD
ROOT
HETATM    1  C   UNL     1     -12.742  13.793  62.430  1.00  0.00     3.086 C  
HETATM    2  C   UNL     1     -11.858  12.737  63.039  1.00  0.00     0.022 C  
HETATM    3  O   UNL     1     -10.842  12.364  62.453  1.00  0.00     1.336 OA 
HETATM    4  N   UNL     1     -12.194  12.298  64.307  1.00  0.00    -0.425 N  
HETATM    5  C   UNL     1     -11.267  11.403  65.009  1.00  0.00    -0.089 C  
HETATM    6  C   UNL     1     -11.247  11.701  66.517  1.00  0.00    -0.294 C  
HETATM    7  N   UNL     1     -12.627  11.636  67.050  1.00  0.00     1.394 NA 
HETATM    8  C   UNL     1     -13.549  12.351  64.884  1.00  0.00     2.038 C  
HETATM    9  C   UNL     1     -13.530  12.609  66.403  1.00  0.00     4.620 C  
ENDROOT
BRANCH   7  10
HETATM   10  C   UNL     1     -12.805  11.447  68.417  1.00  0.00     2.422 A  
HETATM   11  C   UNL     1     -12.457  12.413  69.356  1.00  0.00     0.240 A  
HETATM   12  C   UNL     1     -12.529  12.160  70.725  1.00  0.00    -0.362 A  
HETATM   13  C   UNL     1     -12.938  10.916  71.211  1.00  0.00    -0.392 A  
HETATM   14  C   UNL     1     -13.271  10.214  68.912  1.00  0.00     3.991 A  
HETATM   15  C   UNL     1     -13.333   9.947  70.289  1.00  0.00     0.365 A  
BRANCH  13  16
HETATM   16  O   UNL     1     -12.970  10.570  72.547  1.00  0.00    -0.077 OA 
BRANCH  16  17
HETATM   17  C   UNL     1     -13.041   9.158  72.770  1.00  0.00    -0.117 C  
BRANCH  17  18
HETATM   18  C   UNL     1     -12.043   8.342  71.962  1.00  0.00    -0.356 C  
HETATM   19  C   UNL     1     -12.363   8.265  70.495  1.00  0.00     0.326 C  
HETATM   20  O   UNL     1     -11.087   8.150  69.870  1.00  0.00    -0.212 OA 
HETATM   21  C   UNL     1     -10.138   8.834  70.728  1.00  0.00    -0.210 C  
HETATM   22  O   UNL     1     -10.770   9.007  72.013  1.00  0.00    -0.349 OA 
BRANCH  21  23
HETATM   23  C   UNL     1      -8.883   7.980  70.927  1.00  0.00    -0.147 A  
HETATM   24 CL   UNL     1      -7.662   9.047  68.683  1.00  0.00    -0.095 Cl 
HETATM   25  C   UNL     1      -7.763   8.017  70.069  1.00  0.00    -0.088 A  
HETATM   26  C   UNL     1      -8.816   7.105  72.033  1.00  0.00    -0.135 A  
HETATM   27  C   UNL     1      -7.691   6.316  72.278  1.00  0.00    -0.103 A  
HETATM   28  C   UNL     1      -6.639   7.214  70.312  1.00  0.00    -0.044 A  
HETATM   29 CL   UNL     1      -5.212   5.415  71.725  1.00  0.00    -0.008 Cl 
HETATM   30  C   UNL     1      -6.605   6.374  71.417  1.00  0.00    -0.054 A  
ENDBRANCH  21  23
BRANCH  21  31
HETATM   31  C   UNL     1      -9.873  10.245  70.138  1.00  0.00     0.067 C  
BRANCH  31  32
HETATM   32  N   UNL     1      -8.896  10.330  69.076  1.00  0.00    -0.158 NA 
HETATM   33  N   UNL     1      -7.725  11.222  67.416  1.00  0.00    -0.121 NA 
HETATM   34  C   UNL     1      -7.750   9.582  68.968  1.00  0.00    -0.076 A  
HETATM   35  C   UNL     1      -8.842  11.297  68.109  1.00  0.00    -0.159 A  
HETATM   36  C   UNL     1      -7.033  10.168  67.954  1.00  0.00    -0.083 A  
ENDBRANCH  31  32
ENDBRANCH  21  31
ENDBRANCH  17  18
ENDBRANCH  16  17
ENDBRANCH  13  16
ENDBRANCH   7  10
TORSDOF 7
ENDMDL
MODEL      233
REMARK 921   NORMALIZED FREE ENERGY PREDICTED BY IDOCK:   32.80 KCAL/MOL
REMARK 922        TOTAL FREE ENERGY PREDICTED BY IDOCK:   45.79 KCAL/MOL
REMARK 923 INTER-LIGAND FREE ENERGY PREDICTED BY IDOCK:   43.34 KCAL/MOL
REMARK 924 INTRA-LIGAND FREE ENERGY PREDICTED BY IDOCK:    2.45 KCAL/MOL
REMARK 927      BINDING AFFINITY PREDICTED BY RF-SCORE:    0.00 PKD
ROOT
HETATM    1  C   UNL     1     -11.449  17.700  62.883  1.00  0.00    13.560 C  
HETATM    2  C   UNL     1     -12.669  17.377  63.705  1.00  0.00     9.782 C  
HETATM    3  O   UNL     1     -13.782  17.757  63.340  1.00  0.00    11.831 OA 
HETATM    4  N   UNL     1     -12.480  16.564  64.808  1.00  0.00     1.908 N  
HETATM    5  C   UNL     1     -13.660  16.079  65.534  1.00  0.00     4.544 C  
HETATM    6  C   UNL     1     -13.441  14.648  66.050  1.00  0.00     1.901 C  
HETATM    7  N   UNL     1     -12.204  14.602  66.863  1.00  0.00    -0.216 NA 
HETATM    8  C   UNL     1     -11.209  16.422  65.541  1.00  0.00     0.147 C  
HETATM    9  C   UNL     1     -11.007  14.998  66.094  1.00  0.00    -0.334 C  
ENDROOT
BRANCH   7  10
HETATM   10  C   UNL     1     -12.038  13.553  67.763  1.00  0.00    -0.280 A  
HETATM   11  C   UNL     1     -10.802  12.957  67.995  1.00  0.00    -0.261 A  
HETATM   12  C   UNL     1     -10.676  11.831  68.806  1.00  0.00    -0.255 A  
HETATM   13  C   UNL     1     -11.790  11.244  69.410  1.00  0.00    -0.355 A  
HETATM   14  C   UNL     1     -13.150  12.992  68.418  1.00  0.00     2.906 A  
HETATM   15  C   UNL     1     -13.033  11.850  69.226  1.00  0.00     1.492 A  
BRANCH  13  16
HETATM   16  O   UNL     1     -11.753  10.093  70.170  1.00  0.00    -0.261 OA 
BRANCH  16  17
HETATM   17  C   UNL     1     -10.457   9.803  70.704  1.00  0.00    -0.289 C  
BRANCH  17  18
HETATM   18  C   UNL     1      -9.372   9.607  69.655  1.00  0.00    -0.211 C  
HETATM   19  C   UNL     1      -7.999   9.398  70.229  1.00  0.00    -0.161 C  
HETATM   20  O   UNL     1      -7.349   8.566  69.272  1.00  0.00    -0.068 OA 
HETATM   21  C   UNL     1      -8.383   7.766  68.643  1.00  0.00    -0.129 C  
HETATM   22  O   UNL     1      -9.648   8.389  68.943  1.00  0.00    -0.151 OA 
BRANCH  21  23
HETATM   23  C   UNL     1      -8.204   7.761  67.122  1.00  0.00    -0.118 A  
HETATM   24 CL   UNL     1      -7.872  10.508  67.037  1.00  0.00    -0.112 Cl 
HETATM   25  C   UNL     1      -7.982   8.923  66.353  1.00  0.00    -0.103 A  
HETATM   26  C   UNL     1      -8.249   6.531  66.429  1.00  0.00    -0.116 A  
HETATM   27  C   UNL     1      -8.073   6.461  65.046  1.00  0.00    -0.135 A  
HETATM   28  C   UNL     1      -7.817   8.850  64.962  1.00  0.00    -0.112 A  
HETATM   29 CL   UNL     1      -7.624   7.535  62.616  1.00  0.00    -0.105 Cl 
HETATM   30  C   UNL     1      -7.856   7.621  64.317  1.00  0.00    -0.135 A  
ENDBRANCH  21  23
BRANCH  21  31
HETATM   31  C   UNL     1      -8.382   6.360  69.298  1.00  0.00    -0.122 C  
BRANCH  31  32
HETATM   32  N   UNL     1      -9.459   6.073  70.219  1.00  0.00    -0.161 NA 
HETATM   33  N   UNL     1     -11.399   6.322  71.268  1.00  0.00    -0.297 NA 
HETATM   34  C   UNL     1      -9.780   4.842  70.733  1.00  0.00    -0.197 A  
HETATM   35  C   UNL     1     -10.458   6.936  70.581  1.00  0.00    -0.210 A  
HETATM   36  C   UNL     1     -10.992   5.016  71.353  1.00  0.00     0.162 A  
ENDBRANCH  31  32
ENDBRANCH  21  31
ENDBRANCH  17  18
ENDBRANCH  16  17
ENDBRANCH  13  16
ENDBRANCH   7  10
TORSDOF 7
ENDMDL
MODEL      234
REMARK 921   NORMALIZED FREE ENERGY PREDICTED BY IDOCK:   33.36 KCAL/MOL
REMARK 922        TOTAL FREE ENERGY PREDICTED BY IDOCK:   46.58 KCAL/MOL
REMARK 923 INTER-LIGAND FREE ENERGY PREDICTED BY IDOCK:   44.54 KCAL/MOL
REMARK 924 INTRA-LIGAND FREE ENERGY PREDICTED BY IDOCK:    2.04 KCAL/MOL
REMARK 927      BINDING AFFINITY PREDICTED BY RF-SCORE:    0.00 PKD
ROOT
HETATM    1  C   UNL     1     -10.089  10.965  73.760  1.00  0.00    19.016 C  
HETATM    2  C   UNL     1      -8.620  10.644  73.679  1.00  0.00    12.888 C  
HETATM    3  O   UNL     1      -7.800  11.335  74.283  1.00  0.00     8.231 OA 
HETATM    4  N   UNL     1      -8.270   9.499  72.988  1.00  0.00     2.268 N  
HETATM    5  C   UNL     1      -6.873   9.051  73.032  1.00  0.00     0.371 C  
HETATM    6  C   UNL     1      -6.785   7.517  73.053  1.00  0.00    -0.066 C  
HETATM    7  N   UNL     1      -7.531   6.965  71.899  1.00  0.00    -0.087 NA 
HETATM    8  C   UNL     1      -9.078   8.878  71.923  1.00  0.00    -0.136 C  
HETATM    9  C   UNL     1      -8.959   7.342  71.916  1.00  0.00    -0.126 C  
ENDROOT
BRANCH   7  10
HETATM   10  C   UNL     1      -7.241   5.671  71.475  1.00  0.00    -0.081 A  
HETATM   11  C   UNL     1      -6.532   4.769  72.262  1.00  0.00    -0.038 A  
HETATM   12  C   UNL     1      -6.145   3.522  71.774  1.00  0.00    -0.014 A  
HETATM   13  C   UNL     1      -6.442   3.131  70.467  1.00  0.00    -0.031 A  
HETATM   14  C   UNL     1      -7.586   5.252  70.177  1.00  0.00    -0.072 A  
HETATM   15  C   UNL     1      -7.190   4.002  69.675  1.00  0.00    -0.049 A  
BRANCH  13  16
HETATM   16  O   UNL     1      -6.036   1.943  69.894  1.00  0.00    -0.022 OA 
BRANCH  16  17
HETATM   17  C   UNL     1      -6.184   1.916  68.471  1.00  0.00    -0.025 C  
BRANCH  17  18
HETATM   18  C   UNL     1      -6.473   3.270  67.841  1.00  0.00    -0.037 C  
HETATM   19  C   UNL     1      -5.455   3.699  66.821  1.00  0.00    -0.017 C  
HETATM   20  O   UNL     1      -6.200   4.495  65.905  1.00  0.00    -0.030 OA 
HETATM   21  C   UNL     1      -7.559   3.988  65.918  1.00  0.00    -0.089 C  
HETATM   22  O   UNL     1      -7.699   3.172  67.098  1.00  0.00    -0.073 OA 
BRANCH  21  23
HETATM   23  C   UNL     1      -8.560   5.143  66.018  1.00  0.00    -0.124 A  
HETATM   24 CL   UNL     1     -10.322   3.636  67.531  1.00  0.00     0.827 Cl 
HETATM   25  C   UNL     1      -9.791   5.059  66.703  1.00  0.00    -0.196 A  
HETATM   26  C   UNL     1      -8.248   6.377  65.406  1.00  0.00    -0.142 A  
HETATM   27  C   UNL     1      -9.111   7.472  65.479  1.00  0.00     0.146 A  
HETATM   28  C   UNL     1     -10.661   6.157  66.765  1.00  0.00    -0.371 A  
HETATM   29 CL   UNL     1     -11.372   8.710  66.265  1.00  0.00     2.290 Cl 
HETATM   30  C   UNL     1     -10.315   7.358  66.160  1.00  0.00     0.644 A  
ENDBRANCH  21  23
BRANCH  21  31
HETATM   31  C   UNL     1      -7.752   3.070  64.682  1.00  0.00    -0.077 C  
BRANCH  31  32
HETATM   32  N   UNL     1      -9.113   2.730  64.334  1.00  0.00    -0.116 NA 
HETATM   33  N   UNL     1     -11.032   2.780  63.221  1.00  0.00    -0.226 NA 
HETATM   34  C   UNL     1      -9.746   1.544  64.606  1.00  0.00     0.033 A  
HETATM   35  C   UNL     1      -9.934   3.448  63.507  1.00  0.00    -0.164 A  
HETATM   36  C   UNL     1     -10.916   1.588  63.888  1.00  0.00     0.235 A  
ENDBRANCH  31  32
ENDBRANCH  21  31
ENDBRANCH  17  18
ENDBRANCH  16  17
ENDBRANCH  13  16
ENDBRANCH   7  10
TORSDOF 7
ENDMDL
MODEL      235
REMARK 921   NORMALIZED FREE ENERGY PREDICTED BY IDOCK:   42.59 KCAL/MOL
REMARK 922        TOTAL FREE ENERGY PREDICTED BY IDOCK:   59.59 KCAL/MOL
REMARK 923 INTER-LIGAND FREE ENERGY PREDICTED BY IDOCK:   56.91 KCAL/MOL
REMARK 924 INTRA-LIGAND FREE ENERGY PREDICTED BY IDOCK:    2.67 KCAL/MOL
REMARK 927      BINDING AFFINITY PREDICTED BY RF-SCORE:    0.00 PKD
ROOT
HETATM    1  C   UNL     1     -11.468  17.740  62.877  1.00  0.00    14.352 C  
HETATM    2  C   UNL     1     -12.710  17.505  63.695  1.00  0.00    10.696 C  
HETATM    3  O   UNL     1     -13.799  17.924  63.305  1.00  0.00    13.437 OA 
HETATM    4  N   UNL     1     -12.571  16.725  64.829  1.00  0.00     3.153 N  
HETATM    5  C   UNL     1     -13.780  16.324  65.558  1.00  0.00     6.072 C  
HETATM    6  C   UNL     1     -13.636  14.904  66.128  1.00  0.00     3.019 C  
HETATM    7  N   UNL     1     -12.411  14.828  66.956  1.00  0.00     0.017 NA 
HETATM    8  C   UNL     1     -11.316  16.550  65.581  1.00  0.00     0.437 C  
HETATM    9  C   UNL     1     -11.188  15.139  66.188  1.00  0.00    -0.271 C  
ENDROOT
BRANCH   7  10
HETATM   10  C   UNL     1     -12.304  13.806  67.895  1.00  0.00     0.029 A  
HETATM   11  C   UNL     1     -11.098  13.168  68.171  1.00  0.00    -0.284 A  
HETATM   12  C   UNL     1     -11.033  12.067  69.023  1.00  0.00    -0.260 A  
HETATM   13  C   UNL     1     -12.181  11.548  69.625  1.00  0.00    -0.229 A  
HETATM   14  C   UNL     1     -13.450  13.315  68.548  1.00  0.00     5.102 A  
HETATM   15  C   UNL     1     -13.394  12.198  69.398  1.00  0.00     2.907 A  
BRANCH  13  16
HETATM   16  O   UNL     1     -12.205  10.424  70.426  1.00  0.00    -0.288 OA 
BRANCH  16  17
HETATM   17  C   UNL     1     -10.933  10.106  71.000  1.00  0.00    -0.075 C  
BRANCH  17  18
HETATM   18  C   UNL     1      -9.813   9.920  69.987  1.00  0.00    -0.243 C  
HETATM   19  C   UNL     1      -8.480  10.441  70.448  1.00  0.00     0.935 C  
HETATM   20  O   UNL     1      -7.536   9.594  69.799  1.00  0.00    -0.091 OA 
HETATM   21  C   UNL     1      -8.183   8.307  69.620  1.00  0.00    -0.118 C  
HETATM   22  O   UNL     1      -9.598   8.511  69.803  1.00  0.00    -0.168 OA 
BRANCH  21  23
HETATM   23  C   UNL     1      -7.957   7.789  68.196  1.00  0.00    -0.122 A  
HETATM   24 CL   UNL     1      -6.225   9.862  67.593  1.00  0.00    -0.058 Cl 
HETATM   25  C   UNL     1      -7.119   8.420  67.254  1.00  0.00    -0.079 A  
HETATM   26  C   UNL     1      -8.607   6.604  67.786  1.00  0.00    -0.121 A  
HETATM   27  C   UNL     1      -8.426   6.072  66.509  1.00  0.00    -0.115 A  
HETATM   28  C   UNL     1      -6.947   7.889  65.967  1.00  0.00    -0.061 A  
HETATM   29 CL   UNL     1      -7.358   6.053  64.035  1.00  0.00    -0.060 Cl 
HETATM   30  C   UNL     1      -7.595   6.716  65.603  1.00  0.00    -0.086 A  
ENDBRANCH  21  23
BRANCH  21  31
HETATM   31  C   UNL     1      -7.693   7.353  70.741  1.00  0.00    -0.088 C  
BRANCH  31  32
HETATM   32  N   UNL     1      -6.705   7.880  71.655  1.00  0.00    -0.049 NA 
HETATM   33  N   UNL     1      -5.443   9.387  72.686  1.00  0.00    -0.191 NA 
HETATM   34  C   UNL     1      -6.304   7.304  72.834  1.00  0.00    -0.056 A  
HETATM   35  C   UNL     1      -6.149   9.129  71.604  1.00  0.00    -0.067 A  
HETATM   36  C   UNL     1      -5.547   8.262  73.463  1.00  0.00    -0.063 A  
ENDBRANCH  31  32
ENDBRANCH  21  31
ENDBRANCH  17  18
ENDBRANCH  16  17
ENDBRANCH  13  16
ENDBRANCH   7  10
TORSDOF 7
ENDMDL
MODEL      236
REMARK 921   NORMALIZED FREE ENERGY PREDICTED BY IDOCK:   43.58 KCAL/MOL
REMARK 922        TOTAL FREE ENERGY PREDICTED BY IDOCK:   60.98 KCAL/MOL
REMARK 923 INTER-LIGAND FREE ENERGY PREDICTED BY IDOCK:   59.53 KCAL/MOL
REMARK 924 INTRA-LIGAND FREE ENERGY PREDICTED BY IDOCK:    1.45 KCAL/MOL
REMARK 927      BINDING AFFINITY PREDICTED BY RF-SCORE:    0.00 PKD
ROOT
HETATM    1  C   UNL     1      -8.793   2.154  72.046  1.00  0.00    -0.104 C  
HETATM    2  C   UNL     1      -9.288   3.363  72.795  1.00  0.00    -0.100 C  
HETATM    3  O   UNL     1      -8.846   3.625  73.913  1.00  0.00    -0.088 OA 
HETATM    4  N   UNL     1     -10.170   4.192  72.126  1.00  0.00    -0.175 N  
HETATM    5  C   UNL     1     -10.541   5.470  72.746  1.00  0.00    -0.225 C  
HETATM    6  C   UNL     1     -10.715   6.568  71.686  1.00  0.00    -0.230 C  
HETATM    7  N   UNL     1     -11.689   6.118  70.665  1.00  0.00    -0.205 NA 
HETATM    8  C   UNL     1     -11.050   3.769  71.022  1.00  0.00     2.700 C  
HETATM    9  C   UNL     1     -11.259   4.883  69.979  1.00  0.00     1.927 C  
ENDROOT
BRANCH   7  10
HETATM   10  C   UNL     1     -12.315   7.076  69.873  1.00  0.00     0.527 A  
HETATM   11  C   UNL     1     -12.896   6.768  68.647  1.00  0.00     6.659 A  
HETATM   12  C   UNL     1     -13.410   7.760  67.813  1.00  0.00    16.643 A  
HETATM   13  C   UNL     1     -13.349   9.109  68.169  1.00  0.00    13.008 A  
HETATM   14  C   UNL     1     -12.306   8.431  70.253  1.00  0.00     0.653 A  
HETATM   15  C   UNL     1     -12.811   9.437  69.412  1.00  0.00     2.599 A  
BRANCH  13  16
HETATM   16  O   UNL     1     -13.775  10.149  67.368  1.00  0.00    12.385 OA 
BRANCH  16  17
HETATM   17  C   UNL     1     -12.714  11.001  66.926  1.00  0.00     5.248 C  
BRANCH  17  18
HETATM   18  C   UNL     1     -11.319  10.431  67.138  1.00  0.00     0.192 C  
HETATM   19  C   UNL     1     -10.706   9.841  65.899  1.00  0.00     0.389 C  
HETATM   20  O   UNL     1      -9.307  10.046  66.075  1.00  0.00    -0.156 OA 
HETATM   21  C   UNL     1      -9.158  11.244  66.881  1.00  0.00    -0.167 C  
HETATM   22  O   UNL     1     -10.438  11.512  67.489  1.00  0.00    -0.189 OA 
BRANCH  21  23
HETATM   23  C   UNL     1      -8.140  11.013  68.001  1.00  0.00    -0.121 A  
HETATM   24 CL   UNL     1      -6.710  13.284  67.325  1.00  0.00    -0.070 Cl 
HETATM   25  C   UNL     1      -7.041  11.861  68.251  1.00  0.00    -0.081 A  
HETATM   26  C   UNL     1      -8.297   9.898  68.853  1.00  0.00    -0.124 A  
HETATM   27  C   UNL     1      -7.413   9.646  69.904  1.00  0.00    -0.127 A  
HETATM   28  C   UNL     1      -6.147  11.599  69.300  1.00  0.00    -0.078 A  
HETATM   29 CL   UNL     1      -5.260  10.198  71.427  1.00  0.00    -0.075 Cl 
HETATM   30  C   UNL     1      -6.341  10.498  70.124  1.00  0.00    -0.132 A  
ENDBRANCH  21  23
BRANCH  21  31
HETATM   31  C   UNL     1      -8.825  12.430  65.938  1.00  0.00     0.316 C  
BRANCH  31  32
HETATM   32  N   UNL     1      -9.577  13.648  66.139  1.00  0.00    -0.248 NA 
HETATM   33  N   UNL     1     -10.034  15.820  66.113  1.00  0.00    -0.288 NA 
HETATM   34  C   UNL     1     -10.944  13.755  66.204  1.00  0.00    -0.292 A  
HETATM   35  C   UNL     1      -9.072  14.920  66.101  1.00  0.00    -0.167 A  
HETATM   36  C   UNL     1     -11.201  15.103  66.161  1.00  0.00    -0.271 A  
ENDBRANCH  31  32
ENDBRANCH  21  31
ENDBRANCH  17  18
ENDBRANCH  16  17
ENDBRANCH  13  16
ENDBRANCH   7  10
TORSDOF 7
ENDMDL
MODEL      237
REMARK 921   NORMALIZED FREE ENERGY PREDICTED BY IDOCK:   45.74 KCAL/MOL
REMARK 922        TOTAL FREE ENERGY PREDICTED BY IDOCK:   64.03 KCAL/MOL
REMARK 923 INTER-LIGAND FREE ENERGY PREDICTED BY IDOCK:   62.50 KCAL/MOL
REMARK 924 INTRA-LIGAND FREE ENERGY PREDICTED BY IDOCK:    1.53 KCAL/MOL
REMARK 927      BINDING AFFINITY PREDICTED BY RF-SCORE:    0.00 PKD
ROOT
HETATM    1  C   UNL     1     -11.473  17.745  62.876  1.00  0.00    14.352 C  
HETATM    2  C   UNL     1     -12.747  17.535  63.651  1.00  0.00    10.696 C  
HETATM    3  O   UNL     1     -13.816  17.964  63.216  1.00  0.00    13.437 OA 
HETATM    4  N   UNL     1     -12.660  16.766  64.797  1.00  0.00     3.153 N  
HETATM    5  C   UNL     1     -13.901  16.389  65.485  1.00  0.00     7.062 C  
HETATM    6  C   UNL     1     -13.797  14.973  66.075  1.00  0.00     3.904 C  
HETATM    7  N   UNL     1     -12.604  14.891  66.948  1.00  0.00     0.495 NA 
HETATM    8  C   UNL     1     -11.437  16.582  65.597  1.00  0.00     0.653 C  
HETATM    9  C   UNL     1     -11.350  15.177  66.222  1.00  0.00    -0.219 C  
ENDROOT
BRANCH   7  10
HETATM   10  C   UNL     1     -12.546  13.878  67.901  1.00  0.00     0.559 A  
HETATM   11  C   UNL     1     -11.357  13.234  68.235  1.00  0.00    -0.335 A  
HETATM   12  C   UNL     1     -11.338  12.142  69.101  1.00  0.00    -0.333 A  
HETATM   13  C   UNL     1     -12.515  11.638  69.659  1.00  0.00     0.015 A  
HETATM   14  C   UNL     1     -13.722  13.402  68.509  1.00  0.00     7.113 A  
HETATM   15  C   UNL     1     -13.711  12.294  69.372  1.00  0.00     5.164 A  
BRANCH  13  16
HETATM   16  O   UNL     1     -12.581  10.522  70.469  1.00  0.00    -0.331 OA 
BRANCH  16  17
HETATM   17  C   UNL     1     -11.341  10.207  71.109  1.00  0.00    -0.249 C  
BRANCH  17  18
HETATM   18  C   UNL     1     -10.728   8.882  70.678  1.00  0.00    -0.234 C  
HETATM   19  C   UNL     1      -9.449   9.025  69.901  1.00  0.00    -0.177 C  
HETATM   20  O   UNL     1      -8.717   7.846  70.223  1.00  0.00    -0.136 OA 
HETATM   21  C   UNL     1      -9.124   7.452  71.559  1.00  0.00    -0.139 C  
HETATM   22  O   UNL     1     -10.347   8.155  71.858  1.00  0.00    -0.204 OA 
BRANCH  21  23
HETATM   23  C   UNL     1      -9.416   5.950  71.609  1.00  0.00    -0.166 A  
HETATM   24 CL   UNL     1      -8.346   5.542  69.089  1.00  0.00    -0.098 Cl 
HETATM   25  C   UNL     1      -9.107   5.054  70.563  1.00  0.00    -0.138 A  
HETATM   26  C   UNL     1     -10.017   5.405  72.765  1.00  0.00    -0.197 A  
HETATM   27  C   UNL     1     -10.289   4.040  72.877  1.00  0.00    -0.238 A  
HETATM   28  C   UNL     1      -9.391   3.685  70.675  1.00  0.00    -0.228 A  
HETATM   29 CL   UNL     1     -10.293   1.501  71.975  1.00  0.00    -0.230 Cl 
HETATM   30  C   UNL     1      -9.974   3.185  71.832  1.00  0.00    -0.139 A  
ENDBRANCH  21  23
BRANCH  21  31
HETATM   31  C   UNL     1      -8.044   7.935  72.563  1.00  0.00    -0.126 C  
BRANCH  31  32
HETATM   32  N   UNL     1      -6.888   8.596  72.001  1.00  0.00    -0.156 NA 
HETATM   33  N   UNL     1      -5.625   9.615  70.486  1.00  0.00    -0.043 NA 
HETATM   34  C   UNL     1      -5.933   9.293  72.700  1.00  0.00     0.123 A  
HETATM   35  C   UNL     1      -6.651   8.810  70.670  1.00  0.00    -0.045 A  
HETATM   36  C   UNL     1      -5.183   9.932  71.744  1.00  0.00    -0.070 A  
ENDBRANCH  31  32
ENDBRANCH  21  31
ENDBRANCH  17  18
ENDBRANCH  16  17
ENDBRANCH  13  16
ENDBRANCH   7  10
TORSDOF 7
ENDMDL
MODEL      238
REMARK 921   NORMALIZED FREE ENERGY PREDICTED BY IDOCK:   56.97 KCAL/MOL
REMARK 922        TOTAL FREE ENERGY PREDICTED BY IDOCK:   79.85 KCAL/MOL
REMARK 923 INTER-LIGAND FREE ENERGY PREDICTED BY IDOCK:   50.91 KCAL/MOL
REMARK 924 INTRA-LIGAND FREE ENERGY PREDICTED BY IDOCK:   28.94 KCAL/MOL
REMARK 927      BINDING AFFINITY PREDICTED BY RF-SCORE:    0.00 PKD
ROOT
HETATM    1  C   UNL     1      -9.889  11.517  74.144  1.00  0.00    23.088 C  
HETATM    2  C   UNL     1      -8.408  11.285  74.002  1.00  0.00    15.586 C  
HETATM    3  O   UNL     1      -7.606  12.034  74.560  1.00  0.00     6.256 OA 
HETATM    4  N   UNL     1      -8.019  10.152  73.310  1.00  0.00     5.596 N  
HETATM    5  C   UNL     1      -6.596   9.791  73.298  1.00  0.00     1.439 C  
HETATM    6  C   UNL     1      -6.413   8.266  73.335  1.00  0.00    -0.111 C  
HETATM    7  N   UNL     1      -7.173   7.652  72.222  1.00  0.00    -0.072 NA 
HETATM    8  C   UNL     1      -8.833   9.467  72.291  1.00  0.00     1.510 C  
HETATM    9  C   UNL     1      -8.619   7.941  72.299  1.00  0.00    -0.145 C  
ENDROOT
BRANCH   7  10
HETATM   10  C   UNL     1      -6.823   6.372  71.803  1.00  0.00    -0.064 A  
HETATM   11  C   UNL     1      -6.001   5.538  72.556  1.00  0.00    -0.031 A  
HETATM   12  C   UNL     1      -5.563   4.309  72.065  1.00  0.00    -0.011 A  
HETATM   13  C   UNL     1      -5.918   3.870  70.788  1.00  0.00    -0.014 A  
HETATM   14  C   UNL     1      -7.224   5.901  70.539  1.00  0.00    -0.083 A  
HETATM   15  C   UNL     1      -6.776   4.670  70.033  1.00  0.00    -0.037 A  
BRANCH  13  16
HETATM   16  O   UNL     1      -5.470   2.700  70.210  1.00  0.00    -0.014 OA 
BRANCH  16  17
HETATM   17  C   UNL     1      -5.754   2.609  68.810  1.00  0.00    -0.023 C  
BRANCH  17  18
HETATM   18  C   UNL     1      -6.290   3.892  68.191  1.00  0.00    -0.037 C  
HETATM   19  C   UNL     1      -7.114   3.675  66.953  1.00  0.00    -0.063 C  
HETATM   20  O   UNL     1      -8.048   4.751  66.968  1.00  0.00    -0.105 OA 
HETATM   21  C   UNL     1      -8.271   5.092  68.360  1.00  0.00    -0.090 C  
HETATM   22  O   UNL     1      -7.203   4.496  69.123  1.00  0.00    -0.051 OA 
BRANCH  21  23
HETATM   23  C   UNL     1      -8.206   6.610  68.556  1.00  0.00    -0.119 A  
HETATM   24 CL   UNL     1     -10.960   6.819  68.740  1.00  0.00    -0.274 Cl 
HETATM   25  C   UNL     1      -9.342   7.429  68.724  1.00  0.00    -0.144 A  
HETATM   26  C   UNL     1      -6.945   7.245  68.587  1.00  0.00    -0.082 A  
HETATM   27  C   UNL     1      -6.821   8.621  68.782  1.00  0.00    -0.062 A  
HETATM   28  C   UNL     1      -9.214   8.814  68.909  1.00  0.00    -0.141 A  
HETATM   29 CL   UNL     1      -7.805  11.095  69.201  1.00  0.00    -0.106 Cl 
HETATM   30  C   UNL     1      -7.957   9.401  68.944  1.00  0.00    -0.087 A  
ENDBRANCH  21  23
BRANCH  21  31
HETATM   31  C   UNL     1      -9.601   4.437  68.817  1.00  0.00    -0.155 C  
BRANCH  31  32
HETATM   32  N   UNL     1     -10.164   4.913  70.061  1.00  0.00    -0.268 NA 
HETATM   33  N   UNL     1     -10.215   5.693  72.139  1.00  0.00    -0.196 NA 
HETATM   34  C   UNL     1     -11.394   5.499  70.223  1.00  0.00     0.421 A  
HETATM   35  C   UNL     1      -9.495   5.042  71.249  1.00  0.00    -0.154 A  
HETATM   36  C   UNL     1     -11.391   5.994  71.503  1.00  0.00    -0.246 A  
ENDBRANCH  31  32
ENDBRANCH  21  31
ENDBRANCH  17  18
ENDBRANCH  16  17
ENDBRANCH  13  16
ENDBRANCH   7  10
TORSDOF 7
ENDMDL
