MODEL        1
REMARK 921   NORMALIZED FREE ENERGY PREDICTED BY IDOCK:   -6.11 KCAL/MOL
REMARK 922        TOTAL FREE ENERGY PREDICTED BY IDOCK:   -7.46 KCAL/MOL
REMARK 923 INTER-LIGAND FREE ENERGY PREDICTED BY IDOCK:   -7.18 KCAL/MOL
REMARK 924 INTRA-LIGAND FREE ENERGY PREDICTED BY IDOCK:   -0.28 KCAL/MOL
REMARK 927      BINDING AFFINITY PREDICTED BY RF-SCORE:    0.00 PKD
ROOT
HETATM    1  C   UNL     1     -11.513  15.687  69.894  1.00  0.00    -0.338 C  
ENDROOT
BRANCH   1   2
HETATM    2  C   UNL     1     -12.342  15.725  71.133  1.00  0.00    -0.427 A  
HETATM    3  O   UNL     1     -13.666  15.413  70.999  1.00  0.00    -0.473 OA 
HETATM    4  C   UNL     1     -12.053  15.988  72.455  1.00  0.00    -0.635 A  
HETATM    5  C   UNL     1     -14.209  15.454  72.243  1.00  0.00    -0.545 A  
HETATM    6  C   UNL     1     -13.259  15.804  73.173  1.00  0.00    -0.694 A  
ENDBRANCH   1   2
BRANCH   1   7
HETATM    7  N   UNL     1     -12.201  15.246  68.686  1.00  0.00    -0.583 NA 
HETATM    8  H   UNL     1     -12.846  15.863  68.193  1.00  0.00     0.000 HD 
BRANCH   7   9
HETATM    9  C   UNL     1     -11.951  13.961  68.229  1.00  0.00    -0.357 A  
HETATM   10  C   UNL     1     -11.563  11.688  68.552  1.00  0.00    -0.317 A  
HETATM   11  N   UNL     1     -11.541  11.321  67.266  1.00  0.00    -0.543 NA 
HETATM   12  N   UNL     1     -11.758  12.922  69.071  1.00  0.00    -0.311 NA 
HETATM   13  C   UNL     1     -11.752  12.358  66.438  1.00  0.00    -0.391 A  
HETATM   14  C   UNL     1     -11.947  13.655  66.877  1.00  0.00    -0.410 A  
HETATM   15  N   UNL     1     -12.142  14.376  65.731  1.00  0.00    -0.378 NA 
HETATM   16  H   UNL     1     -12.319  15.379  65.675  1.00  0.00     0.000 HD 
HETATM   17  C   UNL     1     -12.060  13.512  64.675  1.00  0.00    -0.409 A  
HETATM   18  N   UNL     1     -11.817  12.283  65.071  1.00  0.00    -0.372 NA 
ENDBRANCH   7   9
ENDBRANCH   1   7
TORSDOF 3
ENDMDL
MODEL        2
REMARK 921   NORMALIZED FREE ENERGY PREDICTED BY IDOCK:   -6.03 KCAL/MOL
REMARK 922        TOTAL FREE ENERGY PREDICTED BY IDOCK:   -7.37 KCAL/MOL
REMARK 923 INTER-LIGAND FREE ENERGY PREDICTED BY IDOCK:   -7.02 KCAL/MOL
REMARK 924 INTRA-LIGAND FREE ENERGY PREDICTED BY IDOCK:   -0.35 KCAL/MOL
REMARK 927      BINDING AFFINITY PREDICTED BY RF-SCORE:    0.00 PKD
ROOT
HETATM    1  C   UNL     1     -11.215  16.147  70.244  1.00  0.00    -0.381 C  
ENDROOT
BRANCH   1   2
HETATM    2  C   UNL     1     -12.204  15.811  71.308  1.00  0.00    -0.438 A  
HETATM    3  O   UNL     1     -13.496  15.614  70.908  1.00  0.00    -0.569 OA 
HETATM    4  C   UNL     1     -12.100  15.618  72.669  1.00  0.00    -0.565 A  
HETATM    5  C   UNL     1     -14.204  15.268  72.014  1.00  0.00    -0.581 A  
HETATM    6  C   UNL     1     -13.391  15.258  73.124  1.00  0.00    -0.585 A  
ENDBRANCH   1   2
BRANCH   1   7
HETATM    7  N   UNL     1     -10.409  15.034  69.755  1.00  0.00    -0.414 NA 
HETATM    8  H   UNL     1      -9.489  14.837  70.149  1.00  0.00     0.000 HD 
BRANCH   7   9
HETATM    9  C   UNL     1     -10.934  14.251  68.738  1.00  0.00    -0.255 A  
HETATM   10  C   UNL     1     -11.543  13.868  66.524  1.00  0.00    -0.369 A  
HETATM   11  N   UNL     1     -11.920  12.591  66.655  1.00  0.00    -0.574 NA 
HETATM   12  N   UNL     1     -11.063  14.705  67.473  1.00  0.00    -0.302 NA 
HETATM   13  C   UNL     1     -11.771  12.145  67.913  1.00  0.00    -0.336 A  
HETATM   14  C   UNL     1     -11.302  12.931  68.949  1.00  0.00    -0.288 A  
HETATM   15  N   UNL     1     -11.287  12.093  70.032  1.00  0.00    -0.512 NA 
HETATM   16  H   UNL     1     -10.994  12.338  70.977  1.00  0.00     0.000 HD 
HETATM   17  C   UNL     1     -11.736  10.870  69.619  1.00  0.00    -0.331 A  
HETATM   18  N   UNL     1     -12.044  10.871  68.341  1.00  0.00    -0.517 NA 
ENDBRANCH   7   9
ENDBRANCH   1   7
TORSDOF 3
ENDMDL
MODEL        3
REMARK 921   NORMALIZED FREE ENERGY PREDICTED BY IDOCK:   -6.00 KCAL/MOL
REMARK 922        TOTAL FREE ENERGY PREDICTED BY IDOCK:   -7.34 KCAL/MOL
REMARK 923 INTER-LIGAND FREE ENERGY PREDICTED BY IDOCK:   -7.11 KCAL/MOL
REMARK 924 INTRA-LIGAND FREE ENERGY PREDICTED BY IDOCK:   -0.22 KCAL/MOL
REMARK 927      BINDING AFFINITY PREDICTED BY RF-SCORE:    0.00 PKD
ROOT
HETATM    1  C   UNL     1     -11.157  15.561  70.203  1.00  0.00    -0.323 C  
ENDROOT
BRANCH   1   2
HETATM    2  C   UNL     1     -12.082  15.607  71.372  1.00  0.00    -0.418 A  
HETATM    3  O   UNL     1     -13.401  15.350  71.124  1.00  0.00    -0.475 OA 
HETATM    4  C   UNL     1     -11.893  15.835  72.719  1.00  0.00    -0.584 A  
HETATM    5  C   UNL     1     -14.043  15.388  72.321  1.00  0.00    -0.564 A  
HETATM    6  C   UNL     1     -13.159  15.684  73.333  1.00  0.00    -0.670 A  
ENDBRANCH   1   2
BRANCH   1   7
HETATM    7  N   UNL     1     -10.858  16.847  69.583  1.00  0.00    -0.381 NA 
HETATM    8  H   UNL     1     -10.764  17.693  70.144  1.00  0.00     0.000 HD 
BRANCH   7   9
HETATM    9  C   UNL     1     -10.704  16.882  68.205  1.00  0.00    -0.377 A  
HETATM   10  C   UNL     1     -10.658  15.888  66.101  1.00  0.00    -0.305 A  
HETATM   11  N   UNL     1     -10.487  16.999  65.376  1.00  0.00    -0.644 NA 
HETATM   12  N   UNL     1     -10.773  15.769  67.444  1.00  0.00    -0.314 NA 
HETATM   13  C   UNL     1     -10.438  18.102  66.142  1.00  0.00    -0.364 A  
HETATM   14  C   UNL     1     -10.533  18.075  67.521  1.00  0.00    -0.396 A  
HETATM   15  N   UNL     1     -10.459  19.391  67.892  1.00  0.00    -0.425 NA 
HETATM   16  H   UNL     1     -10.498  19.749  68.846  1.00  0.00     0.000 HD 
HETATM   17  C   UNL     1     -10.326  20.139  66.755  1.00  0.00    -0.374 A  
HETATM   18  N   UNL     1     -10.303  19.385  65.678  1.00  0.00    -0.496 NA 
ENDBRANCH   7   9
ENDBRANCH   1   7
TORSDOF 3
ENDMDL
MODEL        4
REMARK 921   NORMALIZED FREE ENERGY PREDICTED BY IDOCK:   -5.93 KCAL/MOL
REMARK 922        TOTAL FREE ENERGY PREDICTED BY IDOCK:   -7.25 KCAL/MOL
REMARK 923 INTER-LIGAND FREE ENERGY PREDICTED BY IDOCK:   -7.02 KCAL/MOL
REMARK 924 INTRA-LIGAND FREE ENERGY PREDICTED BY IDOCK:   -0.23 KCAL/MOL
REMARK 927      BINDING AFFINITY PREDICTED BY RF-SCORE:    0.00 PKD
ROOT
HETATM    1  C   UNL     1     -11.392  16.051  70.013  1.00  0.00    -0.352 C  
ENDROOT
BRANCH   1   2
HETATM    2  C   UNL     1     -12.226  15.794  71.222  1.00  0.00    -0.438 A  
HETATM    3  O   UNL     1     -13.576  15.700  71.031  1.00  0.00    -0.588 OA 
HETATM    4  C   UNL     1     -11.924  15.593  72.553  1.00  0.00    -0.567 A  
HETATM    5  C   UNL     1     -14.126  15.411  72.239  1.00  0.00    -0.564 A  
HETATM    6  C   UNL     1     -13.153  15.336  73.207  1.00  0.00    -0.630 A  
ENDBRANCH   1   2
BRANCH   1   7
HETATM    7  N   UNL     1     -11.431  15.016  68.986  1.00  0.00    -0.286 NA 
HETATM    8  H   UNL     1     -11.599  14.040  69.229  1.00  0.00     0.000 HD 
BRANCH   7   9
HETATM    9  C   UNL     1     -11.234  15.401  67.669  1.00  0.00    -0.311 A  
HETATM   10  C   UNL     1     -10.411  16.839  66.033  1.00  0.00    -0.335 A  
HETATM   11  N   UNL     1     -10.755  16.114  64.962  1.00  0.00    -0.626 NA 
HETATM   12  N   UNL     1     -10.606  16.550  67.340  1.00  0.00    -0.317 NA 
HETATM   13  C   UNL     1     -11.362  14.965  65.300  1.00  0.00    -0.358 A  
HETATM   14  C   UNL     1     -11.616  14.594  66.608  1.00  0.00    -0.350 A  
HETATM   15  N   UNL     1     -12.217  13.369  66.503  1.00  0.00    -0.386 NA 
HETATM   16  H   UNL     1     -12.543  12.792  67.278  1.00  0.00     0.000 HD 
HETATM   17  C   UNL     1     -12.300  13.056  65.175  1.00  0.00    -0.484 A  
HETATM   18  N   UNL     1     -11.796  14.008  64.420  1.00  0.00    -0.426 NA 
ENDBRANCH   7   9
ENDBRANCH   1   7
TORSDOF 3
ENDMDL
MODEL        5
REMARK 921   NORMALIZED FREE ENERGY PREDICTED BY IDOCK:   -5.86 KCAL/MOL
REMARK 922        TOTAL FREE ENERGY PREDICTED BY IDOCK:   -7.17 KCAL/MOL
REMARK 923 INTER-LIGAND FREE ENERGY PREDICTED BY IDOCK:   -6.57 KCAL/MOL
REMARK 924 INTRA-LIGAND FREE ENERGY PREDICTED BY IDOCK:   -0.60 KCAL/MOL
REMARK 927      BINDING AFFINITY PREDICTED BY RF-SCORE:    0.00 PKD
ROOT
HETATM    1  C   UNL     1     -11.893  15.248  68.068  1.00  0.00    -0.156 C  
ENDROOT
BRANCH   1   2
HETATM    2  C   UNL     1     -11.904  14.124  67.088  1.00  0.00    -0.423 A  
HETATM    3  O   UNL     1     -11.296  12.963  67.475  1.00  0.00    -0.274 OA 
HETATM    4  C   UNL     1     -12.442  13.974  65.827  1.00  0.00    -0.523 A  
HETATM    5  C   UNL     1     -11.473  12.069  66.468  1.00  0.00    -0.349 A  
HETATM    6  C   UNL     1     -12.171  12.643  65.431  1.00  0.00    -0.517 A  
ENDBRANCH   1   2
BRANCH   1   7
HETATM    7  N   UNL     1     -11.308  14.947  69.369  1.00  0.00    -0.273 NA 
HETATM    8  H   UNL     1     -10.298  14.970  69.510  1.00  0.00     0.000 HD 
BRANCH   7   9
HETATM    9  C   UNL     1     -12.168  14.627  70.409  1.00  0.00    -0.329 A  
HETATM   10  C   UNL     1     -13.743  15.172  72.035  1.00  0.00    -0.471 A  
HETATM   11  N   UNL     1     -13.996  13.931  72.468  1.00  0.00    -0.701 NA 
HETATM   12  N   UNL     1     -12.892  15.564  71.059  1.00  0.00    -0.467 NA 
HETATM   13  C   UNL     1     -13.284  13.006  71.802  1.00  0.00    -0.392 A  
HETATM   14  C   UNL     1     -12.382  13.315  70.802  1.00  0.00    -0.344 A  
HETATM   15  N   UNL     1     -11.905  12.101  70.387  1.00  0.00    -0.525 NA 
HETATM   16  H   UNL     1     -11.214  11.945  69.653  1.00  0.00     0.000 HD 
HETATM   17  C   UNL     1     -12.520  11.134  71.133  1.00  0.00    -0.393 A  
HETATM   18  N   UNL     1     -13.357  11.652  72.004  1.00  0.00    -0.429 NA 
ENDBRANCH   7   9
ENDBRANCH   1   7
TORSDOF 3
ENDMDL
MODEL        6
REMARK 921   NORMALIZED FREE ENERGY PREDICTED BY IDOCK:   -5.84 KCAL/MOL
REMARK 922        TOTAL FREE ENERGY PREDICTED BY IDOCK:   -7.14 KCAL/MOL
REMARK 923 INTER-LIGAND FREE ENERGY PREDICTED BY IDOCK:   -6.87 KCAL/MOL
REMARK 924 INTRA-LIGAND FREE ENERGY PREDICTED BY IDOCK:   -0.27 KCAL/MOL
REMARK 927      BINDING AFFINITY PREDICTED BY RF-SCORE:    0.00 PKD
ROOT
HETATM    1  C   UNL     1      -9.354  16.672  66.087  1.00  0.00    -0.284 C  
ENDROOT
BRANCH   1   2
HETATM    2  C   UNL     1      -9.618  18.115  66.351  1.00  0.00    -0.294 A  
HETATM    3  O   UNL     1     -10.484  18.748  65.504  1.00  0.00    -0.569 OA 
HETATM    4  C   UNL     1      -9.187  18.993  67.323  1.00  0.00    -0.321 A  
HETATM    5  C   UNL     1     -10.621  20.021  65.958  1.00  0.00    -0.367 A  
HETATM    6  C   UNL     1      -9.843  20.222  67.074  1.00  0.00    -0.607 A  
ENDBRANCH   1   2
BRANCH   1   7
HETATM    7  N   UNL     1     -10.330  15.994  65.242  1.00  0.00    -0.533 NA 
HETATM    8  H   UNL     1     -10.537  16.332  64.302  1.00  0.00     0.000 HD 
BRANCH   7   9
HETATM    9  C   UNL     1     -10.969  14.877  65.757  1.00  0.00    -0.345 A  
HETATM   10  C   UNL     1     -11.757  13.568  67.514  1.00  0.00    -0.367 A  
HETATM   11  N   UNL     1     -12.370  12.629  66.783  1.00  0.00    -0.365 NA 
HETATM   12  N   UNL     1     -11.082  14.659  67.085  1.00  0.00    -0.316 NA 
HETATM   13  C   UNL     1     -12.267  12.866  65.464  1.00  0.00    -0.474 A  
HETATM   14  C   UNL     1     -11.585  13.945  64.935  1.00  0.00    -0.359 A  
HETATM   15  N   UNL     1     -11.744  13.819  63.582  1.00  0.00    -0.661 NA 
HETATM   16  H   UNL     1     -11.371  14.447  62.871  1.00  0.00     0.000 HD 
HETATM   17  C   UNL     1     -12.494  12.698  63.353  1.00  0.00    -0.372 A  
HETATM   18  N   UNL     1     -12.821  12.095  64.475  1.00  0.00    -0.635 NA 
ENDBRANCH   7   9
ENDBRANCH   1   7
TORSDOF 3
ENDMDL
MODEL        7
REMARK 921   NORMALIZED FREE ENERGY PREDICTED BY IDOCK:   -5.79 KCAL/MOL
REMARK 922        TOTAL FREE ENERGY PREDICTED BY IDOCK:   -7.09 KCAL/MOL
REMARK 923 INTER-LIGAND FREE ENERGY PREDICTED BY IDOCK:   -6.85 KCAL/MOL
REMARK 924 INTRA-LIGAND FREE ENERGY PREDICTED BY IDOCK:   -0.24 KCAL/MOL
REMARK 927      BINDING AFFINITY PREDICTED BY RF-SCORE:    0.00 PKD
ROOT
HETATM    1  C   UNL     1     -10.702  16.380  69.629  1.00  0.00    -0.337 C  
ENDROOT
BRANCH   1   2
HETATM    2  C   UNL     1     -10.466  17.537  68.720  1.00  0.00    -0.318 A  
HETATM    3  O   UNL     1     -10.676  17.325  67.386  1.00  0.00    -0.329 OA 
HETATM    4  C   UNL     1     -10.091  18.847  68.934  1.00  0.00    -0.372 A  
HETATM    5  C   UNL     1     -10.460  18.511  66.759  1.00  0.00    -0.394 A  
HETATM    6  C   UNL     1     -10.097  19.478  67.667  1.00  0.00    -0.526 A  
ENDBRANCH   1   2
BRANCH   1   7
HETATM    7  N   UNL     1     -11.877  15.570  69.331  1.00  0.00    -0.366 NA 
HETATM    8  H   UNL     1     -12.176  15.411  68.369  1.00  0.00     0.000 HD 
BRANCH   7   9
HETATM    9  C   UNL     1     -12.576  15.023  70.397  1.00  0.00    -0.350 A  
HETATM   10  C   UNL     1     -14.065  15.154  72.181  1.00  0.00    -0.554 A  
HETATM   11  N   UNL     1     -14.072  13.857  72.510  1.00  0.00    -0.702 NA 
HETATM   12  N   UNL     1     -13.381  15.765  71.187  1.00  0.00    -0.534 NA 
HETATM   13  C   UNL     1     -13.282  13.126  71.706  1.00  0.00    -0.403 A  
HETATM   14  C   UNL     1     -12.536  13.666  70.676  1.00  0.00    -0.347 A  
HETATM   15  N   UNL     1     -11.906  12.590  70.111  1.00  0.00    -0.510 NA 
HETATM   16  H   UNL     1     -11.269  12.616  69.315  1.00  0.00     0.000 HD 
HETATM   17  C   UNL     1     -12.285  11.474  70.803  1.00  0.00    -0.363 A  
HETATM   18  N   UNL     1     -13.114  11.767  71.781  1.00  0.00    -0.445 NA 
ENDBRANCH   7   9
ENDBRANCH   1   7
TORSDOF 3
ENDMDL
MODEL        8
REMARK 921   NORMALIZED FREE ENERGY PREDICTED BY IDOCK:   -5.79 KCAL/MOL
REMARK 922        TOTAL FREE ENERGY PREDICTED BY IDOCK:   -7.08 KCAL/MOL
REMARK 923 INTER-LIGAND FREE ENERGY PREDICTED BY IDOCK:   -6.49 KCAL/MOL
REMARK 924 INTRA-LIGAND FREE ENERGY PREDICTED BY IDOCK:   -0.60 KCAL/MOL
REMARK 927      BINDING AFFINITY PREDICTED BY RF-SCORE:    0.00 PKD
ROOT
HETATM    1  C   UNL     1     -10.565  16.769  68.375  1.00  0.00    -0.354 C  
ENDROOT
BRANCH   1   2
HETATM    2  C   UNL     1     -10.433  18.073  67.663  1.00  0.00    -0.409 A  
HETATM    3  O   UNL     1     -10.525  18.043  66.300  1.00  0.00    -0.375 OA 
HETATM    4  C   UNL     1     -10.257  19.371  68.094  1.00  0.00    -0.537 A  
HETATM    5  C   UNL     1     -10.435  19.328  65.870  1.00  0.00    -0.451 A  
HETATM    6  C   UNL     1     -10.268  20.183  66.935  1.00  0.00    -0.566 A  
ENDBRANCH   1   2
BRANCH   1   7
HETATM    7  N   UNL     1      -9.829  15.653  67.793  1.00  0.00    -0.220 NA 
HETATM    8  H   UNL     1      -8.818  15.698  67.667  1.00  0.00     0.000 HD 
BRANCH   7   9
HETATM    9  C   UNL     1     -10.547  14.529  67.414  1.00  0.00    -0.271 A  
HETATM   10  C   UNL     1     -11.451  12.420  67.809  1.00  0.00    -0.324 A  
HETATM   11  N   UNL     1     -12.107  12.282  66.651  1.00  0.00    -0.589 NA 
HETATM   12  N   UNL     1     -10.699  13.463  68.230  1.00  0.00    -0.250 NA 
HETATM   13  C   UNL     1     -11.964  13.355  65.856  1.00  0.00    -0.409 A  
HETATM   14  C   UNL     1     -11.205  14.459  66.196  1.00  0.00    -0.336 A  
HETATM   15  N   UNL     1     -11.347  15.310  65.133  1.00  0.00    -0.346 NA 
HETATM   16  H   UNL     1     -10.920  16.232  65.041  1.00  0.00     0.000 HD 
HETATM   17  C   UNL     1     -12.161  14.704  64.219  1.00  0.00    -0.408 A  
HETATM   18  N   UNL     1     -12.547  13.514  64.625  1.00  0.00    -0.639 NA 
ENDBRANCH   7   9
ENDBRANCH   1   7
TORSDOF 3
ENDMDL
MODEL        9
REMARK 921   NORMALIZED FREE ENERGY PREDICTED BY IDOCK:   -5.74 KCAL/MOL
REMARK 922        TOTAL FREE ENERGY PREDICTED BY IDOCK:   -7.02 KCAL/MOL
REMARK 923 INTER-LIGAND FREE ENERGY PREDICTED BY IDOCK:   -6.48 KCAL/MOL
REMARK 924 INTRA-LIGAND FREE ENERGY PREDICTED BY IDOCK:   -0.55 KCAL/MOL
REMARK 927      BINDING AFFINITY PREDICTED BY RF-SCORE:    0.00 PKD
ROOT
HETATM    1  C   UNL     1     -10.601  16.423  68.930  1.00  0.00    -0.307 C  
ENDROOT
BRANCH   1   2
HETATM    2  C   UNL     1     -10.460  17.562  67.978  1.00  0.00    -0.387 A  
HETATM    3  O   UNL     1     -10.557  17.268  66.647  1.00  0.00    -0.278 OA 
HETATM    4  C   UNL     1     -10.273  18.918  68.147  1.00  0.00    -0.454 A  
HETATM    5  C   UNL     1     -10.458  18.444  65.974  1.00  0.00    -0.374 A  
HETATM    6  C   UNL     1     -10.281  19.488  66.851  1.00  0.00    -0.537 A  
ENDBRANCH   1   2
BRANCH   1   7
HETATM    7  N   UNL     1     -11.864  15.696  68.865  1.00  0.00    -0.494 NA 
HETATM    8  H   UNL     1     -12.752  16.171  69.023  1.00  0.00     0.000 HD 
BRANCH   7   9
HETATM    9  C   UNL     1     -11.817  14.340  68.581  1.00  0.00    -0.344 A  
HETATM   10  C   UNL     1     -11.755  12.096  69.199  1.00  0.00    -0.328 A  
HETATM   11  N   UNL     1     -11.825  11.566  67.972  1.00  0.00    -0.601 NA 
HETATM   12  N   UNL     1     -11.753  13.403  69.551  1.00  0.00    -0.310 NA 
HETATM   13  C   UNL     1     -11.908  12.507  67.017  1.00  0.00    -0.323 A  
HETATM   14  C   UNL     1     -11.898  13.864  67.282  1.00  0.00    -0.407 A  
HETATM   15  N   UNL     1     -12.020  14.451  66.051  1.00  0.00    -0.385 NA 
HETATM   16  H   UNL     1     -12.050  15.453  65.864  1.00  0.00     0.000 HD 
HETATM   17  C   UNL     1     -12.096  13.454  65.118  1.00  0.00    -0.409 A  
HETATM   18  N   UNL     1     -12.024  12.264  65.672  1.00  0.00    -0.538 NA 
ENDBRANCH   7   9
ENDBRANCH   1   7
TORSDOF 3
ENDMDL
MODEL       10
REMARK 921   NORMALIZED FREE ENERGY PREDICTED BY IDOCK:   -5.73 KCAL/MOL
REMARK 922        TOTAL FREE ENERGY PREDICTED BY IDOCK:   -7.02 KCAL/MOL
REMARK 923 INTER-LIGAND FREE ENERGY PREDICTED BY IDOCK:   -6.81 KCAL/MOL
REMARK 924 INTRA-LIGAND FREE ENERGY PREDICTED BY IDOCK:   -0.21 KCAL/MOL
REMARK 927      BINDING AFFINITY PREDICTED BY RF-SCORE:    0.00 PKD
ROOT
HETATM    1  C   UNL     1     -11.954  15.239  69.767  1.00  0.00    -0.347 C  
ENDROOT
BRANCH   1   2
HETATM    2  C   UNL     1     -12.364  15.495  71.177  1.00  0.00    -0.411 A  
HETATM    3  O   UNL     1     -13.698  15.398  71.460  1.00  0.00    -0.472 OA 
HETATM    4  C   UNL     1     -11.662  15.797  72.326  1.00  0.00    -0.580 A  
HETATM    5  C   UNL     1     -13.836  15.611  72.794  1.00  0.00    -0.545 A  
HETATM    6  C   UNL     1     -12.614  15.862  73.372  1.00  0.00    -0.666 A  
ENDBRANCH   1   2
BRANCH   1   7
HETATM    7  N   UNL     1     -10.652  15.768  69.381  1.00  0.00    -0.234 NA 
HETATM    8  H   UNL     1      -9.812  15.538  69.911  1.00  0.00     0.000 HD 
BRANCH   7   9
HETATM    9  C   UNL     1     -10.591  16.595  68.269  1.00  0.00    -0.338 A  
HETATM   10  C   UNL     1     -10.256  18.654  67.236  1.00  0.00    -0.376 A  
HETATM   11  N   UNL     1     -10.374  18.245  65.968  1.00  0.00    -0.551 NA 
HETATM   12  N   UNL     1     -10.344  17.919  68.369  1.00  0.00    -0.380 NA 
HETATM   13  C   UNL     1     -10.601  16.924  65.880  1.00  0.00    -0.233 A  
HETATM   14  C   UNL     1     -10.720  16.097  66.982  1.00  0.00    -0.254 A  
HETATM   15  N   UNL     1     -10.922  14.851  66.452  1.00  0.00    -0.332 NA 
HETATM   16  H   UNL     1     -11.052  13.988  66.979  1.00  0.00     0.000 HD 
HETATM   17  C   UNL     1     -10.919  14.971  65.090  1.00  0.00    -0.406 A  
HETATM   18  N   UNL     1     -10.733  16.217  64.713  1.00  0.00    -0.683 NA 
ENDBRANCH   7   9
ENDBRANCH   1   7
TORSDOF 3
ENDMDL
MODEL       11
REMARK 921   NORMALIZED FREE ENERGY PREDICTED BY IDOCK:   -5.73 KCAL/MOL
REMARK 922        TOTAL FREE ENERGY PREDICTED BY IDOCK:   -7.01 KCAL/MOL
REMARK 923 INTER-LIGAND FREE ENERGY PREDICTED BY IDOCK:   -6.73 KCAL/MOL
REMARK 924 INTRA-LIGAND FREE ENERGY PREDICTED BY IDOCK:   -0.28 KCAL/MOL
REMARK 927      BINDING AFFINITY PREDICTED BY RF-SCORE:    0.00 PKD
ROOT
HETATM    1  C   UNL     1      -9.415  16.438  65.955  1.00  0.00    -0.310 C  
ENDROOT
BRANCH   1   2
HETATM    2  C   UNL     1      -9.847  17.770  66.469  1.00  0.00    -0.329 A  
HETATM    3  O   UNL     1      -9.276  18.869  65.890  1.00  0.00    -0.455 OA 
HETATM    4  C   UNL     1     -10.760  18.164  67.425  1.00  0.00    -0.355 A  
HETATM    5  C   UNL     1      -9.848  19.959  66.463  1.00  0.00    -0.451 A  
HETATM    6  C   UNL     1     -10.767  19.579  67.414  1.00  0.00    -0.589 A  
ENDBRANCH   1   2
BRANCH   1   7
HETATM    7  N   UNL     1     -10.387  15.735  65.125  1.00  0.00    -0.485 NA 
HETATM    8  H   UNL     1     -10.710  16.132  64.243  1.00  0.00     0.000 HD 
BRANCH   7   9
HETATM    9  C   UNL     1     -10.858  14.511  65.574  1.00  0.00    -0.336 A  
HETATM   10  C   UNL     1     -12.031  13.165  67.069  1.00  0.00    -0.355 A  
HETATM   11  N   UNL     1     -11.896  12.005  66.417  1.00  0.00    -0.593 NA 
HETATM   12  N   UNL     1     -11.566  14.387  66.717  1.00  0.00    -0.371 NA 
HETATM   13  C   UNL     1     -11.206  12.144  65.272  1.00  0.00    -0.332 A  
HETATM   14  C   UNL     1     -10.682  13.348  64.840  1.00  0.00    -0.369 A  
HETATM   15  N   UNL     1     -10.087  13.051  63.644  1.00  0.00    -0.686 NA 
HETATM   16  H   UNL     1      -9.596  13.707  63.037  1.00  0.00     0.000 HD 
HETATM   17  C   UNL     1     -10.269  11.717  63.407  1.00  0.00    -0.433 A  
HETATM   18  N   UNL     1     -10.938  11.138  64.380  1.00  0.00    -0.279 NA 
ENDBRANCH   7   9
ENDBRANCH   1   7
TORSDOF 3
ENDMDL
MODEL       12
REMARK 921   NORMALIZED FREE ENERGY PREDICTED BY IDOCK:   -5.69 KCAL/MOL
REMARK 922        TOTAL FREE ENERGY PREDICTED BY IDOCK:   -6.97 KCAL/MOL
REMARK 923 INTER-LIGAND FREE ENERGY PREDICTED BY IDOCK:   -6.67 KCAL/MOL
REMARK 924 INTRA-LIGAND FREE ENERGY PREDICTED BY IDOCK:   -0.30 KCAL/MOL
REMARK 927      BINDING AFFINITY PREDICTED BY RF-SCORE:    0.00 PKD
ROOT
HETATM    1  C   UNL     1     -11.579  15.579  64.514  1.00  0.00    -0.283 C  
ENDROOT
BRANCH   1   2
HETATM    2  C   UNL     1     -11.601  14.112  64.253  1.00  0.00    -0.309 A  
HETATM    3  O   UNL     1     -12.720  13.610  63.649  1.00  0.00    -0.692 OA 
HETATM    4  C   UNL     1     -10.690  13.099  64.470  1.00  0.00    -0.416 A  
HETATM    5  C   UNL     1     -12.504  12.282  63.459  1.00  0.00    -0.534 A  
HETATM    6  C   UNL     1     -11.271  11.919  63.948  1.00  0.00    -0.497 A  
ENDBRANCH   1   2
BRANCH   1   7
HETATM    7  N   UNL     1     -10.345  16.101  65.089  1.00  0.00    -0.584 NA 
HETATM    8  H   UNL     1      -9.474  16.097  64.559  1.00  0.00     0.000 HD 
BRANCH   7   9
HETATM    9  C   UNL     1     -10.392  16.601  66.382  1.00  0.00    -0.306 A  
HETATM   10  C   UNL     1     -10.405  16.358  68.697  1.00  0.00    -0.273 A  
HETATM   11  N   UNL     1     -10.390  17.657  69.018  1.00  0.00    -0.342 NA 
HETATM   12  N   UNL     1     -10.402  15.796  67.466  1.00  0.00    -0.274 NA 
HETATM   13  C   UNL     1     -10.362  18.447  67.933  1.00  0.00    -0.401 A  
HETATM   14  C   UNL     1     -10.370  17.963  66.638  1.00  0.00    -0.361 A  
HETATM   15  N   UNL     1     -10.313  19.085  65.855  1.00  0.00    -0.545 NA 
HETATM   16  H   UNL     1     -10.301  19.106  64.836  1.00  0.00     0.000 HD 
HETATM   17  C   UNL     1     -10.273  20.171  66.684  1.00  0.00    -0.427 A  
HETATM   18  N   UNL     1     -10.308  19.817  67.950  1.00  0.00    -0.433 NA 
ENDBRANCH   7   9
ENDBRANCH   1   7
TORSDOF 3
ENDMDL
MODEL       13
REMARK 921   NORMALIZED FREE ENERGY PREDICTED BY IDOCK:   -5.69 KCAL/MOL
REMARK 922        TOTAL FREE ENERGY PREDICTED BY IDOCK:   -6.97 KCAL/MOL
REMARK 923 INTER-LIGAND FREE ENERGY PREDICTED BY IDOCK:   -6.70 KCAL/MOL
REMARK 924 INTRA-LIGAND FREE ENERGY PREDICTED BY IDOCK:   -0.27 KCAL/MOL
REMARK 927      BINDING AFFINITY PREDICTED BY RF-SCORE:    0.00 PKD
ROOT
HETATM    1  C   UNL     1     -11.793  15.337  64.583  1.00  0.00    -0.267 C  
ENDROOT
BRANCH   1   2
HETATM    2  C   UNL     1     -11.663  13.889  64.250  1.00  0.00    -0.380 A  
HETATM    3  O   UNL     1     -12.756  13.283  63.697  1.00  0.00    -0.704 OA 
HETATM    4  C   UNL     1     -10.627  12.985  64.354  1.00  0.00    -0.429 A  
HETATM    5  C   UNL     1     -12.401  12.001  63.425  1.00  0.00    -0.523 A  
HETATM    6  C   UNL     1     -11.102  11.767  63.812  1.00  0.00    -0.513 A  
ENDBRANCH   1   2
BRANCH   1   7
HETATM    7  N   UNL     1     -10.540  16.051  64.801  1.00  0.00    -0.733 NA 
HETATM    8  H   UNL     1      -9.746  15.922  64.174  1.00  0.00     0.000 HD 
BRANCH   7   9
HETATM    9  C   UNL     1     -10.463  16.909  65.887  1.00  0.00    -0.285 A  
HETATM   10  C   UNL     1     -10.453  19.026  66.856  1.00  0.00    -0.426 A  
HETATM   11  N   UNL     1     -10.404  18.641  68.137  1.00  0.00    -0.372 NA 
HETATM   12  N   UNL     1     -10.488  18.252  65.747  1.00  0.00    -0.617 NA 
HETATM   13  C   UNL     1     -10.397  17.304  68.265  1.00  0.00    -0.361 A  
HETATM   14  C   UNL     1     -10.417  16.436  67.189  1.00  0.00    -0.297 A  
HETATM   15  N   UNL     1     -10.423  15.190  67.757  1.00  0.00    -0.244 NA 
HETATM   16  H   UNL     1     -10.438  14.302  67.256  1.00  0.00     0.000 HD 
HETATM   17  C   UNL     1     -10.406  15.350  69.114  1.00  0.00    -0.240 A  
HETATM   18  N   UNL     1     -10.384  16.620  69.453  1.00  0.00    -0.307 NA 
ENDBRANCH   7   9
ENDBRANCH   1   7
TORSDOF 3
ENDMDL
MODEL       14
REMARK 921   NORMALIZED FREE ENERGY PREDICTED BY IDOCK:   -5.68 KCAL/MOL
REMARK 922        TOTAL FREE ENERGY PREDICTED BY IDOCK:   -6.95 KCAL/MOL
REMARK 923 INTER-LIGAND FREE ENERGY PREDICTED BY IDOCK:   -6.68 KCAL/MOL
REMARK 924 INTRA-LIGAND FREE ENERGY PREDICTED BY IDOCK:   -0.27 KCAL/MOL
REMARK 927      BINDING AFFINITY PREDICTED BY RF-SCORE:    0.00 PKD
ROOT
HETATM    1  C   UNL     1     -11.112  12.763  68.398  1.00  0.00    -0.262 C  
ENDROOT
BRANCH   1   2
HETATM    2  C   UNL     1     -11.656  13.204  67.082  1.00  0.00    -0.361 A  
HETATM    3  O   UNL     1     -12.072  12.223  66.227  1.00  0.00    -0.626 OA 
HETATM    4  C   UNL     1     -11.872  14.443  66.516  1.00  0.00    -0.406 A  
HETATM    5  C   UNL     1     -12.577  12.844  65.129  1.00  0.00    -0.471 A  
HETATM    6  C   UNL     1     -12.476  14.209  65.257  1.00  0.00    -0.474 A  
ENDBRANCH   1   2
BRANCH   1   7
HETATM    7  N   UNL     1     -11.132  13.763  69.459  1.00  0.00    -0.431 NA 
HETATM    8  H   UNL     1     -10.528  14.583  69.421  1.00  0.00     0.000 HD 
BRANCH   7   9
HETATM    9  C   UNL     1     -12.001  13.564  70.522  1.00  0.00    -0.269 A  
HETATM   10  C   UNL     1     -13.403  12.244  71.830  1.00  0.00    -0.329 A  
HETATM   11  N   UNL     1     -13.695  13.157  72.764  1.00  0.00    -0.554 NA 
HETATM   12  N   UNL     1     -12.602  12.376  70.748  1.00  0.00    -0.266 NA 
HETATM   13  C   UNL     1     -13.077  14.328  72.540  1.00  0.00    -0.461 A  
HETATM   14  C   UNL     1     -12.254  14.558  71.453  1.00  0.00    -0.358 A  
HETATM   15  N   UNL     1     -11.825  15.848  71.619  1.00  0.00    -0.449 NA 
HETATM   16  H   UNL     1     -11.196  16.356  70.999  1.00  0.00     0.000 HD 
HETATM   17  C   UNL     1     -12.391  16.332  72.766  1.00  0.00    -0.456 A  
HETATM   18  N   UNL     1     -13.161  15.436  73.343  1.00  0.00    -0.509 NA 
ENDBRANCH   7   9
ENDBRANCH   1   7
TORSDOF 3
ENDMDL
MODEL       15
REMARK 921   NORMALIZED FREE ENERGY PREDICTED BY IDOCK:   -5.65 KCAL/MOL
REMARK 922        TOTAL FREE ENERGY PREDICTED BY IDOCK:   -6.92 KCAL/MOL
REMARK 923 INTER-LIGAND FREE ENERGY PREDICTED BY IDOCK:   -6.64 KCAL/MOL
REMARK 924 INTRA-LIGAND FREE ENERGY PREDICTED BY IDOCK:   -0.28 KCAL/MOL
REMARK 927      BINDING AFFINITY PREDICTED BY RF-SCORE:    0.00 PKD
ROOT
HETATM    1  C   UNL     1     -11.842  14.745  69.297  1.00  0.00    -0.318 C  
ENDROOT
BRANCH   1   2
HETATM    2  C   UNL     1     -12.692  14.534  70.503  1.00  0.00    -0.345 A  
HETATM    3  O   UNL     1     -13.636  15.488  70.767  1.00  0.00    -0.487 OA 
HETATM    4  C   UNL     1     -12.765  13.529  71.445  1.00  0.00    -0.423 A  
HETATM    5  C   UNL     1     -14.323  15.071  71.862  1.00  0.00    -0.584 A  
HETATM    6  C   UNL     1     -13.825  13.872  72.317  1.00  0.00    -0.669 A  
ENDBRANCH   1   2
BRANCH   1   7
HETATM    7  N   UNL     1     -12.437  14.346  68.026  1.00  0.00    -0.529 NA 
HETATM    8  H   UNL     1     -13.262  14.821  67.659  1.00  0.00     0.000 HD 
BRANCH   7   9
HETATM    9  C   UNL     1     -11.846  13.301  67.333  1.00  0.00    -0.366 A  
HETATM   10  C   UNL     1     -10.674  11.293  67.220  1.00  0.00    -0.251 A  
HETATM   11  N   UNL     1     -10.731  11.121  65.894  1.00  0.00    -0.233 NA 
HETATM   12  N   UNL     1     -11.187  12.302  67.960  1.00  0.00    -0.249 NA 
HETATM   13  C   UNL     1     -11.404  12.111  65.283  1.00  0.00    -0.336 A  
HETATM   14  C   UNL     1     -11.950  13.188  65.956  1.00  0.00    -0.433 A  
HETATM   15  N   UNL     1     -12.552  13.931  64.976  1.00  0.00    -0.636 NA 
HETATM   16  H   UNL     1     -13.060  14.805  65.111  1.00  0.00     0.000 HD 
HETATM   17  C   UNL     1     -12.351  13.292  63.784  1.00  0.00    -0.367 A  
HETATM   18  N   UNL     1     -11.652  12.189  63.937  1.00  0.00    -0.411 NA 
ENDBRANCH   7   9
ENDBRANCH   1   7
TORSDOF 3
ENDMDL
MODEL       16
REMARK 921   NORMALIZED FREE ENERGY PREDICTED BY IDOCK:   -5.62 KCAL/MOL
REMARK 922        TOTAL FREE ENERGY PREDICTED BY IDOCK:   -6.88 KCAL/MOL
REMARK 923 INTER-LIGAND FREE ENERGY PREDICTED BY IDOCK:   -6.70 KCAL/MOL
REMARK 924 INTRA-LIGAND FREE ENERGY PREDICTED BY IDOCK:   -0.19 KCAL/MOL
REMARK 927      BINDING AFFINITY PREDICTED BY RF-SCORE:    0.00 PKD
ROOT
HETATM    1  C   UNL     1     -10.938  14.772  67.398  1.00  0.00    -0.313 C  
ENDROOT
BRANCH   1   2
HETATM    2  C   UNL     1     -11.301  14.046  66.148  1.00  0.00    -0.321 A  
HETATM    3  O   UNL     1     -10.269  13.630  65.354  1.00  0.00    -0.310 OA 
HETATM    4  C   UNL     1     -12.503  13.654  65.597  1.00  0.00    -0.540 A  
HETATM    5  C   UNL     1     -10.818  12.951  64.314  1.00  0.00    -0.397 A  
HETATM    6  C   UNL     1     -12.190  12.939  64.417  1.00  0.00    -0.484 A  
ENDBRANCH   1   2
BRANCH   1   7
HETATM    7  N   UNL     1     -12.033  15.010  68.332  1.00  0.00    -0.538 NA 
HETATM    8  H   UNL     1     -12.606  15.851  68.267  1.00  0.00     0.000 HD 
BRANCH   7   9
HETATM    9  C   UNL     1     -12.271  14.056  69.310  1.00  0.00    -0.278 A  
HETATM   10  C   UNL     1     -12.029  11.933  70.233  1.00  0.00    -0.330 A  
HETATM   11  N   UNL     1     -12.689  12.154  71.376  1.00  0.00    -0.327 NA 
HETATM   12  N   UNL     1     -11.793  12.797  69.219  1.00  0.00    -0.310 NA 
HETATM   13  C   UNL     1     -13.144  13.415  71.464  1.00  0.00    -0.342 A  
HETATM   14  C   UNL     1     -12.963  14.360  70.472  1.00  0.00    -0.227 A  
HETATM   15  N   UNL     1     -13.552  15.492  70.969  1.00  0.00    -0.766 NA 
HETATM   16  H   UNL     1     -13.607  16.395  70.500  1.00  0.00     0.000 HD 
HETATM   17  C   UNL     1     -14.052  15.193  72.206  1.00  0.00    -0.534 A  
HETATM   18  N   UNL     1     -13.826  13.940  72.531  1.00  0.00    -0.680 NA 
ENDBRANCH   7   9
ENDBRANCH   1   7
TORSDOF 3
ENDMDL
MODEL       17
REMARK 921   NORMALIZED FREE ENERGY PREDICTED BY IDOCK:   -5.62 KCAL/MOL
REMARK 922        TOTAL FREE ENERGY PREDICTED BY IDOCK:   -6.88 KCAL/MOL
REMARK 923 INTER-LIGAND FREE ENERGY PREDICTED BY IDOCK:   -6.30 KCAL/MOL
REMARK 924 INTRA-LIGAND FREE ENERGY PREDICTED BY IDOCK:   -0.58 KCAL/MOL
REMARK 927      BINDING AFFINITY PREDICTED BY RF-SCORE:    0.00 PKD
ROOT
HETATM    1  C   UNL     1     -11.921  14.015  69.891  1.00  0.00    -0.336 C  
ENDROOT
BRANCH   1   2
HETATM    2  C   UNL     1     -12.244  14.550  71.245  1.00  0.00    -0.355 A  
HETATM    3  O   UNL     1     -11.670  15.741  71.591  1.00  0.00    -0.381 OA 
HETATM    4  C   UNL     1     -13.055  14.105  72.268  1.00  0.00    -0.514 A  
HETATM    5  C   UNL     1     -12.140  16.063  72.824  1.00  0.00    -0.531 A  
HETATM    6  C   UNL     1     -12.994  15.088  73.284  1.00  0.00    -0.642 A  
ENDBRANCH   1   2
BRANCH   1   7
HETATM    7  N   UNL     1     -12.431  14.791  68.766  1.00  0.00    -0.545 NA 
HETATM    8  H   UNL     1     -13.430  14.965  68.658  1.00  0.00     0.000 HD 
BRANCH   7   9
HETATM    9  C   UNL     1     -11.516  15.283  67.849  1.00  0.00    -0.316 A  
HETATM   10  C   UNL     1     -10.401  15.234  65.806  1.00  0.00    -0.344 A  
HETATM   11  N   UNL     1      -9.708  16.370  65.948  1.00  0.00    -0.438 NA 
HETATM   12  N   UNL     1     -11.277  14.671  66.670  1.00  0.00    -0.342 NA 
HETATM   13  C   UNL     1      -9.967  16.980  67.116  1.00  0.00    -0.281 A  
HETATM   14  C   UNL     1     -10.835  16.472  68.064  1.00  0.00    -0.337 A  
HETATM   15  N   UNL     1     -10.822  17.400  69.070  1.00  0.00    -0.291 NA 
HETATM   16  H   UNL     1     -11.353  17.352  69.939  1.00  0.00     0.000 HD 
HETATM   17  C   UNL     1      -9.970  18.404  68.700  1.00  0.00    -0.387 A  
HETATM   18  N   UNL     1      -9.431  18.174  67.523  1.00  0.00    -0.260 NA 
ENDBRANCH   7   9
ENDBRANCH   1   7
TORSDOF 3
ENDMDL
MODEL       18
REMARK 921   NORMALIZED FREE ENERGY PREDICTED BY IDOCK:   -5.61 KCAL/MOL
REMARK 922        TOTAL FREE ENERGY PREDICTED BY IDOCK:   -6.87 KCAL/MOL
REMARK 923 INTER-LIGAND FREE ENERGY PREDICTED BY IDOCK:   -6.56 KCAL/MOL
REMARK 924 INTRA-LIGAND FREE ENERGY PREDICTED BY IDOCK:   -0.31 KCAL/MOL
REMARK 927      BINDING AFFINITY PREDICTED BY RF-SCORE:    0.00 PKD
ROOT
HETATM    1  C   UNL     1     -12.251  14.205  66.234  1.00  0.00    -0.449 C  
ENDROOT
BRANCH   1   2
HETATM    2  C   UNL     1     -11.934  13.192  65.186  1.00  0.00    -0.394 A  
HETATM    3  O   UNL     1     -12.935  12.879  64.309  1.00  0.00    -0.686 OA 
HETATM    4  C   UNL     1     -10.793  12.485  64.869  1.00  0.00    -0.327 A  
HETATM    5  C   UNL     1     -12.417  11.993  63.419  1.00  0.00    -0.509 A  
HETATM    6  C   UNL     1     -11.104  11.717  63.721  1.00  0.00    -0.513 A  
ENDBRANCH   1   2
BRANCH   1   7
HETATM    7  N   UNL     1     -11.345  14.237  67.376  1.00  0.00    -0.316 NA 
HETATM    8  H   UNL     1     -10.495  14.801  67.358  1.00  0.00     0.000 HD 
BRANCH   7   9
HETATM    9  C   UNL     1     -11.675  13.477  68.488  1.00  0.00    -0.357 A  
HETATM   10  C   UNL     1     -11.703  11.492  69.705  1.00  0.00    -0.351 A  
HETATM   11  N   UNL     1     -12.274  11.967  70.817  1.00  0.00    -0.357 NA 
HETATM   12  N   UNL     1     -11.389  12.159  68.570  1.00  0.00    -0.250 NA 
HETATM   13  C   UNL     1     -12.537  13.282  70.731  1.00  0.00    -0.280 A  
HETATM   14  C   UNL     1     -12.265  14.041  69.608  1.00  0.00    -0.332 A  
HETATM   15  N   UNL     1     -12.662  15.306  69.948  1.00  0.00    -0.625 NA 
HETATM   16  H   UNL     1     -12.607  16.133  69.354  1.00  0.00     0.000 HD 
HETATM   17  C   UNL     1     -13.146  15.262  71.226  1.00  0.00    -0.468 A  
HETATM   18  N   UNL     1     -13.090  14.047  71.725  1.00  0.00    -0.350 NA 
ENDBRANCH   7   9
ENDBRANCH   1   7
TORSDOF 3
ENDMDL
MODEL       19
REMARK 921   NORMALIZED FREE ENERGY PREDICTED BY IDOCK:   -5.59 KCAL/MOL
REMARK 922        TOTAL FREE ENERGY PREDICTED BY IDOCK:   -6.84 KCAL/MOL
REMARK 923 INTER-LIGAND FREE ENERGY PREDICTED BY IDOCK:   -6.58 KCAL/MOL
REMARK 924 INTRA-LIGAND FREE ENERGY PREDICTED BY IDOCK:   -0.26 KCAL/MOL
REMARK 927      BINDING AFFINITY PREDICTED BY RF-SCORE:    0.00 PKD
ROOT
HETATM    1  C   UNL     1     -11.973  12.776  67.007  1.00  0.00    -0.295 C  
ENDROOT
BRANCH   1   2
HETATM    2  C   UNL     1     -11.761  12.385  65.584  1.00  0.00    -0.414 A  
HETATM    3  O   UNL     1     -12.820  12.547  64.736  1.00  0.00    -0.755 OA 
HETATM    4  C   UNL     1     -10.674  11.897  64.890  1.00  0.00    -0.350 A  
HETATM    5  C   UNL     1     -12.393  12.187  63.497  1.00  0.00    -0.574 A  
HETATM    6  C   UNL     1     -11.081  11.778  63.539  1.00  0.00    -0.503 A  
ENDBRANCH   1   2
BRANCH   1   7
HETATM    7  N   UNL     1     -12.386  14.158  67.228  1.00  0.00    -0.576 NA 
HETATM    8  H   UNL     1     -13.220  14.535  66.780  1.00  0.00     0.000 HD 
BRANCH   7   9
HETATM    9  C   UNL     1     -11.607  14.941  68.066  1.00  0.00    -0.341 A  
HETATM   10  C   UNL     1      -9.755  16.277  68.523  1.00  0.00    -0.224 A  
HETATM   11  N   UNL     1     -10.083  16.624  69.772  1.00  0.00    -0.053 NA 
HETATM   12  N   UNL     1     -10.439  15.487  67.663  1.00  0.00    -0.273 NA 
HETATM   13  C   UNL     1     -11.255  16.091  70.156  1.00  0.00    -0.373 A  
HETATM   14  C   UNL     1     -12.014  15.262  69.351  1.00  0.00    -0.315 A  
HETATM   15  N   UNL     1     -13.117  14.969  70.109  1.00  0.00    -0.629 NA 
HETATM   16  H   UNL     1     -13.897  14.377  69.829  1.00  0.00     0.000 HD 
HETATM   17  C   UNL     1     -12.983  15.613  71.307  1.00  0.00    -0.492 A  
HETATM   18  N   UNL     1     -11.861  16.296  71.369  1.00  0.00    -0.417 NA 
ENDBRANCH   7   9
ENDBRANCH   1   7
TORSDOF 3
ENDMDL
MODEL       20
REMARK 921   NORMALIZED FREE ENERGY PREDICTED BY IDOCK:   -5.58 KCAL/MOL
REMARK 922        TOTAL FREE ENERGY PREDICTED BY IDOCK:   -6.84 KCAL/MOL
REMARK 923 INTER-LIGAND FREE ENERGY PREDICTED BY IDOCK:   -6.55 KCAL/MOL
REMARK 924 INTRA-LIGAND FREE ENERGY PREDICTED BY IDOCK:   -0.29 KCAL/MOL
REMARK 927      BINDING AFFINITY PREDICTED BY RF-SCORE:    0.00 PKD
ROOT
HETATM    1  C   UNL     1     -10.950  16.940  68.242  1.00  0.00    -0.298 C  
ENDROOT
BRANCH   1   2
HETATM    2  C   UNL     1     -10.526  18.271  67.720  1.00  0.00    -0.410 A  
HETATM    3  O   UNL     1     -10.642  18.470  66.373  1.00  0.00    -0.393 OA 
HETATM    4  C   UNL     1     -10.046  19.414  68.325  1.00  0.00    -0.531 A  
HETATM    5  C   UNL     1     -10.260  19.751  66.129  1.00  0.00    -0.516 A  
HETATM    6  C   UNL     1      -9.883  20.373  67.297  1.00  0.00    -0.597 A  
ENDBRANCH   1   2
BRANCH   1   7
HETATM    7  N   UNL     1     -10.165  15.801  67.780  1.00  0.00    -0.246 NA 
HETATM    8  H   UNL     1      -9.151  15.781  67.889  1.00  0.00     0.000 HD 
BRANCH   7   9
HETATM    9  C   UNL     1     -10.841  14.744  67.188  1.00  0.00    -0.311 A  
HETATM   10  C   UNL     1     -11.804  13.664  65.364  1.00  0.00    -0.353 A  
HETATM   11  N   UNL     1     -12.136  12.524  65.981  1.00  0.00    -0.612 NA 
HETATM   12  N   UNL     1     -11.184  14.750  65.882  1.00  0.00    -0.339 NA 
HETATM   13  C   UNL     1     -11.774  12.522  67.274  1.00  0.00    -0.362 A  
HETATM   14  C   UNL     1     -11.150  13.590  67.891  1.00  0.00    -0.265 A  
HETATM   15  N   UNL     1     -10.943  13.167  69.177  1.00  0.00    -0.404 NA 
HETATM   16  H   UNL     1     -10.500  13.704  69.922  1.00  0.00     0.000 HD 
HETATM   17  C   UNL     1     -11.438  11.897  69.283  1.00  0.00    -0.306 A  
HETATM   18  N   UNL     1     -11.954  11.480  68.147  1.00  0.00    -0.610 NA 
ENDBRANCH   7   9
ENDBRANCH   1   7
TORSDOF 3
ENDMDL
MODEL       21
REMARK 921   NORMALIZED FREE ENERGY PREDICTED BY IDOCK:   -5.58 KCAL/MOL
REMARK 922        TOTAL FREE ENERGY PREDICTED BY IDOCK:   -6.83 KCAL/MOL
REMARK 923 INTER-LIGAND FREE ENERGY PREDICTED BY IDOCK:   -6.63 KCAL/MOL
REMARK 924 INTRA-LIGAND FREE ENERGY PREDICTED BY IDOCK:   -0.21 KCAL/MOL
REMARK 927      BINDING AFFINITY PREDICTED BY RF-SCORE:    0.00 PKD
ROOT
HETATM    1  C   UNL     1     -10.743  16.811  68.130  1.00  0.00    -0.361 C  
ENDROOT
BRANCH   1   2
HETATM    2  C   UNL     1     -10.359  18.188  67.705  1.00  0.00    -0.399 A  
HETATM    3  O   UNL     1     -10.562  18.508  66.392  1.00  0.00    -0.393 OA 
HETATM    4  C   UNL     1      -9.845  19.276  68.379  1.00  0.00    -0.492 A  
HETATM    5  C   UNL     1     -10.202  19.809  66.242  1.00  0.00    -0.509 A  
HETATM    6  C   UNL     1      -9.753  20.326  67.434  1.00  0.00    -0.584 A  
ENDBRANCH   1   2
BRANCH   1   7
HETATM    7  N   UNL     1     -11.158  16.671  69.521  1.00  0.00    -0.335 NA 
HETATM    8  H   UNL     1     -11.086  17.452  70.172  1.00  0.00     0.000 HD 
BRANCH   7   9
HETATM    9  C   UNL     1     -11.653  15.441  69.929  1.00  0.00    -0.323 A  
HETATM   10  C   UNL     1     -11.848  13.128  69.759  1.00  0.00    -0.316 A  
HETATM   11  N   UNL     1     -12.599  12.926  70.847  1.00  0.00    -0.320 NA 
HETATM   12  N   UNL     1     -11.364  14.295  69.276  1.00  0.00    -0.270 NA 
HETATM   13  C   UNL     1     -12.865  14.070  71.499  1.00  0.00    -0.362 A  
HETATM   14  C   UNL     1     -12.425  15.310  71.072  1.00  0.00    -0.384 A  
HETATM   15  N   UNL     1     -12.892  16.181  72.019  1.00  0.00    -0.456 NA 
HETATM   16  H   UNL     1     -12.754  17.191  72.027  1.00  0.00     0.000 HD 
HETATM   17  C   UNL     1     -13.576  15.454  72.954  1.00  0.00    -0.514 A  
HETATM   18  N   UNL     1     -13.583  14.172  72.662  1.00  0.00    -0.611 NA 
ENDBRANCH   7   9
ENDBRANCH   1   7
TORSDOF 3
ENDMDL
MODEL       22
REMARK 921   NORMALIZED FREE ENERGY PREDICTED BY IDOCK:   -5.52 KCAL/MOL
REMARK 922        TOTAL FREE ENERGY PREDICTED BY IDOCK:   -6.77 KCAL/MOL
REMARK 923 INTER-LIGAND FREE ENERGY PREDICTED BY IDOCK:   -6.49 KCAL/MOL
REMARK 924 INTRA-LIGAND FREE ENERGY PREDICTED BY IDOCK:   -0.28 KCAL/MOL
REMARK 927      BINDING AFFINITY PREDICTED BY RF-SCORE:    0.00 PKD
ROOT
HETATM    1  C   UNL     1     -11.777  13.179  69.170  1.00  0.00    -0.325 C  
ENDROOT
BRANCH   1   2
HETATM    2  C   UNL     1     -11.987  11.954  69.994  1.00  0.00    -0.332 A  
HETATM    3  O   UNL     1     -12.773  12.085  71.105  1.00  0.00    -0.364 OA 
HETATM    4  C   UNL     1     -11.569  10.646  69.867  1.00  0.00    -0.396 A  
HETATM    5  C   UNL     1     -12.874  10.852  71.665  1.00  0.00    -0.449 A  
HETATM    6  C   UNL     1     -12.151   9.932  70.942  1.00  0.00    -0.431 A  
ENDBRANCH   1   2
BRANCH   1   7
HETATM    7  N   UNL     1     -10.858  13.035  68.047  1.00  0.00    -0.234 NA 
HETATM    8  H   UNL     1      -9.899  12.721  68.189  1.00  0.00     0.000 HD 
BRANCH   7   9
HETATM    9  C   UNL     1     -11.331  13.340  66.779  1.00  0.00    -0.327 A  
HETATM   10  C   UNL     1     -12.601  12.892  64.880  1.00  0.00    -0.458 A  
HETATM   11  N   UNL     1     -12.363  14.035  64.226  1.00  0.00    -0.653 NA 
HETATM   12  N   UNL     1     -12.144  12.507  66.094  1.00  0.00    -0.615 NA 
HETATM   13  C   UNL     1     -11.568  14.863  64.925  1.00  0.00    -0.395 A  
HETATM   14  C   UNL     1     -11.044  14.549  66.165  1.00  0.00    -0.334 A  
HETATM   15  N   UNL     1     -10.324  15.657  66.520  1.00  0.00    -0.283 NA 
HETATM   16  H   UNL     1      -9.797  15.780  67.384  1.00  0.00     0.000 HD 
HETATM   17  C   UNL     1     -10.437  16.570  65.509  1.00  0.00    -0.301 A  
HETATM   18  N   UNL     1     -11.180  16.115  64.524  1.00  0.00    -0.592 NA 
ENDBRANCH   7   9
ENDBRANCH   1   7
TORSDOF 3
ENDMDL
MODEL       23
REMARK 921   NORMALIZED FREE ENERGY PREDICTED BY IDOCK:   -5.52 KCAL/MOL
REMARK 922        TOTAL FREE ENERGY PREDICTED BY IDOCK:   -6.77 KCAL/MOL
REMARK 923 INTER-LIGAND FREE ENERGY PREDICTED BY IDOCK:   -6.47 KCAL/MOL
REMARK 924 INTRA-LIGAND FREE ENERGY PREDICTED BY IDOCK:   -0.30 KCAL/MOL
REMARK 927      BINDING AFFINITY PREDICTED BY RF-SCORE:    0.00 PKD
ROOT
HETATM    1  C   UNL     1      -9.550  16.502  67.439  1.00  0.00    -0.238 C  
ENDROOT
BRANCH   1   2
HETATM    2  C   UNL     1      -9.820  17.952  67.225  1.00  0.00    -0.309 A  
HETATM    3  O   UNL     1     -10.032  18.357  65.937  1.00  0.00    -0.526 OA 
HETATM    4  C   UNL     1      -9.939  19.028  68.080  1.00  0.00    -0.449 A  
HETATM    5  C   UNL     1     -10.312  19.685  65.981  1.00  0.00    -0.523 A  
HETATM    6  C   UNL     1     -10.266  20.145  67.276  1.00  0.00    -0.540 A  
ENDBRANCH   1   2
BRANCH   1   7
HETATM    7  N   UNL     1      -9.409  15.700  66.229  1.00  0.00    -0.295 NA 
HETATM    8  H   UNL     1      -8.532  15.682  65.708  1.00  0.00     0.000 HD 
BRANCH   7   9
HETATM    9  C   UNL     1     -10.505  14.962  65.808  1.00  0.00    -0.330 A  
HETATM   10  C   UNL     1     -12.285  14.535  64.370  1.00  0.00    -0.458 A  
HETATM   11  N   UNL     1     -12.684  13.378  64.910  1.00  0.00    -0.686 NA 
HETATM   12  N   UNL     1     -11.256  15.329  64.748  1.00  0.00    -0.410 NA 
HETATM   13  C   UNL     1     -11.918  13.013  65.952  1.00  0.00    -0.435 A  
HETATM   14  C   UNL     1     -10.857  13.767  66.417  1.00  0.00    -0.287 A  
HETATM   15  N   UNL     1     -10.349  13.035  67.456  1.00  0.00    -0.223 NA 
HETATM   16  H   UNL     1      -9.551  13.290  68.037  1.00  0.00     0.000 HD 
HETATM   17  C   UNL     1     -11.103  11.901  67.575  1.00  0.00    -0.273 A  
HETATM   18  N   UNL     1     -12.066  11.862  66.681  1.00  0.00    -0.485 NA 
ENDBRANCH   7   9
ENDBRANCH   1   7
TORSDOF 3
ENDMDL
MODEL       24
REMARK 921   NORMALIZED FREE ENERGY PREDICTED BY IDOCK:   -5.51 KCAL/MOL
REMARK 922        TOTAL FREE ENERGY PREDICTED BY IDOCK:   -6.75 KCAL/MOL
REMARK 923 INTER-LIGAND FREE ENERGY PREDICTED BY IDOCK:   -6.48 KCAL/MOL
REMARK 924 INTRA-LIGAND FREE ENERGY PREDICTED BY IDOCK:   -0.27 KCAL/MOL
REMARK 927      BINDING AFFINITY PREDICTED BY RF-SCORE:    0.00 PKD
ROOT
HETATM    1  C   UNL     1     -10.659  18.099  65.849  1.00  0.00    -0.234 C  
ENDROOT
BRANCH   1   2
HETATM    2  C   UNL     1      -9.637  19.024  66.418  1.00  0.00    -0.353 A  
HETATM    3  O   UNL     1      -8.336  18.798  66.065  1.00  0.00    -0.468 OA 
HETATM    4  C   UNL     1      -9.715  20.128  67.241  1.00  0.00    -0.574 A  
HETATM    5  C   UNL     1      -7.594  19.778  66.644  1.00  0.00    -0.263 A  
HETATM    6  C   UNL     1      -8.396  20.620  67.378  1.00  0.00    -0.297 A  
ENDBRANCH   1   2
BRANCH   1   7
HETATM    7  N   UNL     1     -10.180  16.768  65.494  1.00  0.00    -0.607 NA 
HETATM    8  H   UNL     1      -9.461  16.640  64.782  1.00  0.00     0.000 HD 
BRANCH   7   9
HETATM    9  C   UNL     1     -10.734  15.682  66.155  1.00  0.00    -0.303 A  
HETATM   10  C   UNL     1     -11.415  14.554  68.075  1.00  0.00    -0.321 A  
HETATM   11  N   UNL     1     -11.962  13.490  67.477  1.00  0.00    -0.362 NA 
HETATM   12  N   UNL     1     -10.822  15.627  67.502  1.00  0.00    -0.313 NA 
HETATM   13  C   UNL     1     -11.885  13.564  66.138  1.00  0.00    -0.389 A  
HETATM   14  C   UNL     1     -11.286  14.614  65.467  1.00  0.00    -0.341 A  
HETATM   15  N   UNL     1     -11.444  14.305  64.143  1.00  0.00    -0.630 NA 
HETATM   16  H   UNL     1     -11.122  14.864  63.353  1.00  0.00     0.000 HD 
HETATM   17  C   UNL     1     -12.113  13.115  64.068  1.00  0.00    -0.446 A  
HETATM   18  N   UNL     1     -12.388  12.637  65.262  1.00  0.00    -0.576 NA 
ENDBRANCH   7   9
ENDBRANCH   1   7
TORSDOF 3
ENDMDL
MODEL       25
REMARK 921   NORMALIZED FREE ENERGY PREDICTED BY IDOCK:   -5.49 KCAL/MOL
REMARK 922        TOTAL FREE ENERGY PREDICTED BY IDOCK:   -6.74 KCAL/MOL
REMARK 923 INTER-LIGAND FREE ENERGY PREDICTED BY IDOCK:   -6.41 KCAL/MOL
REMARK 924 INTRA-LIGAND FREE ENERGY PREDICTED BY IDOCK:   -0.33 KCAL/MOL
REMARK 927      BINDING AFFINITY PREDICTED BY RF-SCORE:    0.00 PKD
ROOT
HETATM    1  C   UNL     1     -10.688  16.258  68.900  1.00  0.00    -0.300 C  
ENDROOT
BRANCH   1   2
HETATM    2  C   UNL     1     -10.467  17.535  68.164  1.00  0.00    -0.386 A  
HETATM    3  O   UNL     1     -10.639  17.504  66.808  1.00  0.00    -0.294 OA 
HETATM    4  C   UNL     1     -10.139  18.813  68.566  1.00  0.00    -0.444 A  
HETATM    5  C   UNL     1     -10.447  18.770  66.356  1.00  0.00    -0.429 A  
HETATM    6  C   UNL     1     -10.135  19.613  67.398  1.00  0.00    -0.536 A  
ENDBRANCH   1   2
BRANCH   1   7
HETATM    7  N   UNL     1     -11.970  15.604  68.661  1.00  0.00    -0.537 NA 
HETATM    8  H   UNL     1     -12.843  16.030  68.970  1.00  0.00     0.000 HD 
BRANCH   7   9
HETATM    9  C   UNL     1     -11.963  14.384  68.002  1.00  0.00    -0.291 A  
HETATM   10  C   UNL     1     -11.971  13.069  66.081  1.00  0.00    -0.427 A  
HETATM   11  N   UNL     1     -11.848  11.876  66.675  1.00  0.00    -0.590 NA 
HETATM   12  N   UNL     1     -12.026  14.292  66.656  1.00  0.00    -0.427 NA 
HETATM   13  C   UNL     1     -11.768  11.981  68.011  1.00  0.00    -0.331 A  
HETATM   14  C   UNL     1     -11.830  13.186  68.686  1.00  0.00    -0.328 A  
HETATM   15  N   UNL     1     -11.691  12.846  70.005  1.00  0.00    -0.514 NA 
HETATM   16  H   UNL     1     -11.689  13.490  70.794  1.00  0.00     0.000 HD 
HETATM   17  C   UNL     1     -11.556  11.487  70.073  1.00  0.00    -0.282 A  
HETATM   18  N   UNL     1     -11.605  10.933  68.881  1.00  0.00    -0.294 NA 
ENDBRANCH   7   9
ENDBRANCH   1   7
TORSDOF 3
ENDMDL
MODEL       26
REMARK 921   NORMALIZED FREE ENERGY PREDICTED BY IDOCK:   -5.48 KCAL/MOL
REMARK 922        TOTAL FREE ENERGY PREDICTED BY IDOCK:   -6.72 KCAL/MOL
REMARK 923 INTER-LIGAND FREE ENERGY PREDICTED BY IDOCK:   -6.12 KCAL/MOL
REMARK 924 INTRA-LIGAND FREE ENERGY PREDICTED BY IDOCK:   -0.60 KCAL/MOL
REMARK 927      BINDING AFFINITY PREDICTED BY RF-SCORE:    0.00 PKD
ROOT
HETATM    1  C   UNL     1     -10.846  17.407  65.351  1.00  0.00     0.020 C  
ENDROOT
BRANCH   1   2
HETATM    2  C   UNL     1     -10.522  18.423  66.392  1.00  0.00    -0.383 A  
HETATM    3  O   UNL     1     -10.388  17.970  67.675  1.00  0.00    -0.353 OA 
HETATM    4  C   UNL     1     -10.286  19.781  66.348  1.00  0.00    -0.619 A  
HETATM    5  C   UNL     1     -10.041  19.039  68.438  1.00  0.00    -0.403 A  
HETATM    6  C   UNL     1      -9.967  20.176  67.669  1.00  0.00    -0.560 A  
ENDBRANCH   1   2
BRANCH   1   7
HETATM    7  N   UNL     1     -10.100  16.156  65.434  1.00  0.00    -0.521 NA 
HETATM    8  H   UNL     1      -9.086  16.140  65.332  1.00  0.00     0.000 HD 
BRANCH   7   9
HETATM    9  C   UNL     1     -10.815  14.988  65.655  1.00  0.00    -0.349 A  
HETATM   10  C   UNL     1     -11.775  12.985  64.958  1.00  0.00    -0.339 A  
HETATM   11  N   UNL     1     -12.193  12.556  66.154  1.00  0.00    -0.608 NA 
HETATM   12  N   UNL     1     -11.112  14.126  64.659  1.00  0.00    -0.381 NA 
HETATM   13  C   UNL     1     -11.876  13.412  67.140  1.00  0.00    -0.382 A  
HETATM   14  C   UNL     1     -11.214  14.607  66.926  1.00  0.00    -0.343 A  
HETATM   15  N   UNL     1     -11.076  15.148  68.176  1.00  0.00    -0.290 NA 
HETATM   16  H   UNL     1     -10.629  16.036  68.401  1.00  0.00     0.000 HD 
HETATM   17  C   UNL     1     -11.646  14.284  69.070  1.00  0.00    -0.305 A  
HETATM   18  N   UNL     1     -12.146  13.225  68.471  1.00  0.00    -0.298 NA 
ENDBRANCH   7   9
ENDBRANCH   1   7
TORSDOF 3
ENDMDL
MODEL       27
REMARK 921   NORMALIZED FREE ENERGY PREDICTED BY IDOCK:   -5.46 KCAL/MOL
REMARK 922        TOTAL FREE ENERGY PREDICTED BY IDOCK:   -6.70 KCAL/MOL
REMARK 923 INTER-LIGAND FREE ENERGY PREDICTED BY IDOCK:   -6.48 KCAL/MOL
REMARK 924 INTRA-LIGAND FREE ENERGY PREDICTED BY IDOCK:   -0.22 KCAL/MOL
REMARK 927      BINDING AFFINITY PREDICTED BY RF-SCORE:    0.00 PKD
ROOT
HETATM    1  C   UNL     1     -11.912  13.889  70.199  1.00  0.00    -0.332 C  
ENDROOT
BRANCH   1   2
HETATM    2  C   UNL     1     -12.268  14.566  71.478  1.00  0.00    -0.347 A  
HETATM    3  O   UNL     1     -11.594  15.717  71.775  1.00  0.00    -0.396 OA 
HETATM    4  C   UNL     1     -13.192  14.295  72.466  1.00  0.00    -0.581 A  
HETATM    5  C   UNL     1     -12.111  16.189  72.940  1.00  0.00    -0.541 A  
HETATM    6  C   UNL     1     -13.095  15.349  73.405  1.00  0.00    -0.633 A  
ENDBRANCH   1   2
BRANCH   1   7
HETATM    7  N   UNL     1     -12.507  14.457  68.995  1.00  0.00    -0.552 NA 
HETATM    8  H   UNL     1     -13.308  15.086  69.051  1.00  0.00     0.000 HD 
BRANCH   7   9
HETATM    9  C   UNL     1     -11.950  14.115  67.772  1.00  0.00    -0.354 A  
HETATM   10  C   UNL     1     -11.587  12.651  65.999  1.00  0.00    -0.393 A  
HETATM   11  N   UNL     1     -10.881  13.477  65.220  1.00  0.00    -0.299 NA 
HETATM   12  N   UNL     1     -12.125  12.897  67.216  1.00  0.00    -0.381 NA 
HETATM   13  C   UNL     1     -10.729  14.692  65.774  1.00  0.00    -0.315 A  
HETATM   14  C   UNL     1     -11.231  15.029  67.018  1.00  0.00    -0.328 A  
HETATM   15  N   UNL     1     -10.875  16.340  67.184  1.00  0.00    -0.248 NA 
HETATM   16  H   UNL     1     -11.083  16.921  67.995  1.00  0.00     0.000 HD 
HETATM   17  C   UNL     1     -10.191  16.732  66.067  1.00  0.00    -0.346 A  
HETATM   18  N   UNL     1     -10.080  15.752  65.197  1.00  0.00    -0.434 NA 
ENDBRANCH   7   9
ENDBRANCH   1   7
TORSDOF 3
ENDMDL
MODEL       28
REMARK 921   NORMALIZED FREE ENERGY PREDICTED BY IDOCK:   -5.44 KCAL/MOL
REMARK 922        TOTAL FREE ENERGY PREDICTED BY IDOCK:   -6.68 KCAL/MOL
REMARK 923 INTER-LIGAND FREE ENERGY PREDICTED BY IDOCK:   -6.63 KCAL/MOL
REMARK 924 INTRA-LIGAND FREE ENERGY PREDICTED BY IDOCK:   -0.04 KCAL/MOL
REMARK 927      BINDING AFFINITY PREDICTED BY RF-SCORE:    0.00 PKD
ROOT
HETATM    1  C   UNL     1     -13.152  10.568  71.365  1.00  0.00    -0.410 C  
ENDROOT
BRANCH   1   2
HETATM    2  C   UNL     1     -12.208   9.449  71.643  1.00  0.00    -0.390 A  
HETATM    3  O   UNL     1     -10.874   9.726  71.532  1.00  0.00    -0.262 OA 
HETATM    4  C   UNL     1     -12.384   8.138  72.034  1.00  0.00    -0.380 A  
HETATM    5  C   UNL     1     -10.205   8.596  71.881  1.00  0.00    -0.334 A  
HETATM    6  C   UNL     1     -11.089   7.591  72.197  1.00  0.00    -0.300 A  
ENDBRANCH   1   2
BRANCH   1   7
HETATM    7  N   UNL     1     -13.219  11.608  72.385  1.00  0.00    -0.447 NA 
HETATM    8  H   UNL     1     -13.140  11.379  73.376  1.00  0.00     0.000 HD 
BRANCH   7   9
HETATM    9  C   UNL     1     -13.394  12.918  71.965  1.00  0.00    -0.482 A  
HETATM   10  C   UNL     1     -14.369  15.027  72.114  1.00  0.00    -0.530 A  
HETATM   11  N   UNL     1     -13.659  15.626  71.150  1.00  0.00    -0.576 NA 
HETATM   12  N   UNL     1     -14.285  13.748  72.548  1.00  0.00    -0.718 NA 
HETATM   13  C   UNL     1     -12.763  14.796  70.590  1.00  0.00    -0.358 A  
HETATM   14  C   UNL     1     -12.617  13.472  70.960  1.00  0.00    -0.359 A  
HETATM   15  N   UNL     1     -11.600  13.009  70.169  1.00  0.00    -0.536 NA 
HETATM   16  H   UNL     1     -11.220  12.063  70.172  1.00  0.00     0.000 HD 
HETATM   17  C   UNL     1     -11.185  14.041  69.375  1.00  0.00    -0.237 A  
HETATM   18  N   UNL     1     -11.876  15.137  69.603  1.00  0.00    -0.314 NA 
ENDBRANCH   7   9
ENDBRANCH   1   7
TORSDOF 3
ENDMDL
MODEL       29
REMARK 921   NORMALIZED FREE ENERGY PREDICTED BY IDOCK:   -5.43 KCAL/MOL
REMARK 922        TOTAL FREE ENERGY PREDICTED BY IDOCK:   -6.67 KCAL/MOL
REMARK 923 INTER-LIGAND FREE ENERGY PREDICTED BY IDOCK:   -6.41 KCAL/MOL
REMARK 924 INTRA-LIGAND FREE ENERGY PREDICTED BY IDOCK:   -0.25 KCAL/MOL
REMARK 927      BINDING AFFINITY PREDICTED BY RF-SCORE:    0.00 PKD
ROOT
HETATM    1  C   UNL     1     -14.139  13.821  71.956  1.00  0.00    -0.433 C  
ENDROOT
BRANCH   1   2
HETATM    2  C   UNL     1     -13.301  14.917  72.521  1.00  0.00    -0.428 A  
HETATM    3  O   UNL     1     -13.243  15.009  73.884  1.00  0.00    -0.300 OA 
HETATM    4  C   UNL     1     -12.509  15.892  71.951  1.00  0.00    -0.524 A  
HETATM    5  C   UNL     1     -12.391  16.026  74.175  1.00  0.00    -0.593 A  
HETATM    6  C   UNL     1     -11.914  16.602  73.021  1.00  0.00    -0.364 A  
ENDBRANCH   1   2
BRANCH   1   7
HETATM    7  N   UNL     1     -13.783  12.471  72.379  1.00  0.00    -0.546 NA 
HETATM    8  H   UNL     1     -14.103  12.099  73.273  1.00  0.00     0.000 HD 
BRANCH   7   9
HETATM    9  C   UNL     1     -12.997  11.711  71.527  1.00  0.00    -0.358 A  
HETATM   10  C   UNL     1     -11.463  11.464  69.793  1.00  0.00    -0.300 A  
HETATM   11  N   UNL     1     -11.320  10.136  69.863  1.00  0.00    -0.265 NA 
HETATM   12  N   UNL     1     -12.239  12.267  70.558  1.00  0.00    -0.350 NA 
HETATM   13  C   UNL     1     -12.064   9.595  70.842  1.00  0.00    -0.300 A  
HETATM   14  C   UNL     1     -12.895  10.335  71.662  1.00  0.00    -0.463 A  
HETATM   15  N   UNL     1     -13.438   9.413  72.517  1.00  0.00    -0.646 NA 
HETATM   16  H   UNL     1     -14.103   9.606  73.265  1.00  0.00     0.000 HD 
HETATM   17  C   UNL     1     -12.928   8.188  72.187  1.00  0.00    -0.261 A  
HETATM   18  N   UNL     1     -12.097   8.265  71.171  1.00  0.00    -0.281 NA 
ENDBRANCH   7   9
ENDBRANCH   1   7
TORSDOF 3
ENDMDL
MODEL       30
REMARK 921   NORMALIZED FREE ENERGY PREDICTED BY IDOCK:   -5.43 KCAL/MOL
REMARK 922        TOTAL FREE ENERGY PREDICTED BY IDOCK:   -6.66 KCAL/MOL
REMARK 923 INTER-LIGAND FREE ENERGY PREDICTED BY IDOCK:   -6.39 KCAL/MOL
REMARK 924 INTRA-LIGAND FREE ENERGY PREDICTED BY IDOCK:   -0.28 KCAL/MOL
REMARK 927      BINDING AFFINITY PREDICTED BY RF-SCORE:    0.00 PKD
ROOT
HETATM    1  C   UNL     1     -13.600   9.511  71.510  1.00  0.00    -0.323 C  
ENDROOT
BRANCH   1   2
HETATM    2  C   UNL     1     -12.625   8.422  71.800  1.00  0.00    -0.342 A  
HETATM    3  O   UNL     1     -12.909   7.187  71.287  1.00  0.00    -0.380 OA 
HETATM    4  C   UNL     1     -11.426   8.382  72.480  1.00  0.00    -0.422 A  
HETATM    5  C   UNL     1     -11.874   6.373  71.620  1.00  0.00    -0.306 A  
HETATM    6  C   UNL     1     -10.937   7.060  72.355  1.00  0.00    -0.282 A  
ENDBRANCH   1   2
BRANCH   1   7
HETATM    7  N   UNL     1     -13.333  10.789  72.161  1.00  0.00    -0.579 NA 
HETATM    8  H   UNL     1     -13.470  10.907  73.165  1.00  0.00     0.000 HD 
BRANCH   7   9
HETATM    9  C   UNL     1     -12.887  11.838  71.372  1.00  0.00    -0.335 A  
HETATM   10  C   UNL     1     -11.750  12.712  69.538  1.00  0.00    -0.308 A  
HETATM   11  N   UNL     1     -12.072  13.998  69.718  1.00  0.00    -0.332 NA 
HETATM   12  N   UNL     1     -12.111  11.643  70.285  1.00  0.00    -0.358 NA 
HETATM   13  C   UNL     1     -12.860  14.178  70.791  1.00  0.00    -0.310 A  
HETATM   14  C   UNL     1     -13.266  13.149  71.619  1.00  0.00    -0.346 A  
HETATM   15  N   UNL     1     -14.057  13.757  72.556  1.00  0.00    -0.730 NA 
HETATM   16  H   UNL     1     -14.533  13.297  73.332  1.00  0.00     0.000 HD 
HETATM   17  C   UNL     1     -14.096  15.093  72.266  1.00  0.00    -0.534 A  
HETATM   18  N   UNL     1     -13.374  15.380  71.205  1.00  0.00    -0.498 NA 
ENDBRANCH   7   9
ENDBRANCH   1   7
TORSDOF 3
ENDMDL
MODEL       31
REMARK 921   NORMALIZED FREE ENERGY PREDICTED BY IDOCK:   -5.40 KCAL/MOL
REMARK 922        TOTAL FREE ENERGY PREDICTED BY IDOCK:   -6.63 KCAL/MOL
REMARK 923 INTER-LIGAND FREE ENERGY PREDICTED BY IDOCK:   -6.41 KCAL/MOL
REMARK 924 INTRA-LIGAND FREE ENERGY PREDICTED BY IDOCK:   -0.22 KCAL/MOL
REMARK 927      BINDING AFFINITY PREDICTED BY RF-SCORE:    0.00 PKD
ROOT
HETATM    1  C   UNL     1     -11.863  12.320  69.240  1.00  0.00    -0.306 C  
ENDROOT
BRANCH   1   2
HETATM    2  C   UNL     1     -11.847  11.140  70.150  1.00  0.00    -0.365 A  
HETATM    3  O   UNL     1     -10.719  10.369  70.141  1.00  0.00    -0.280 OA 
HETATM    4  C   UNL     1     -12.749  10.640  71.067  1.00  0.00    -0.512 A  
HETATM    5  C   UNL     1     -10.896   9.397  71.073  1.00  0.00    -0.336 A  
HETATM    6  C   UNL     1     -12.130   9.519  71.669  1.00  0.00    -0.474 A  
ENDBRANCH   1   2
BRANCH   1   7
HETATM    7  N   UNL     1     -12.029  12.022  67.822  1.00  0.00    -0.553 NA 
HETATM    8  H   UNL     1     -12.264  11.082  67.505  1.00  0.00     0.000 HD 
BRANCH   7   9
HETATM    9  C   UNL     1     -11.856  13.059  66.917  1.00  0.00    -0.380 A  
HETATM   10  C   UNL     1     -11.135  15.192  66.325  1.00  0.00    -0.309 A  
HETATM   11  N   UNL     1     -11.421  15.127  65.020  1.00  0.00    -0.361 NA 
HETATM   12  N   UNL     1     -11.313  14.243  67.273  1.00  0.00    -0.318 NA 
HETATM   13  C   UNL     1     -11.943  13.939  64.673  1.00  0.00    -0.419 A  
HETATM   14  C   UNL     1     -12.174  12.917  65.575  1.00  0.00    -0.474 A  
HETATM   15  N   UNL     1     -12.682  11.899  64.813  1.00  0.00    -0.193 NA 
HETATM   16  H   UNL     1     -12.968  10.981  65.151  1.00  0.00     0.000 HD 
HETATM   17  C   UNL     1     -12.738  12.335  63.519  1.00  0.00    -0.393 A  
HETATM   18  N   UNL     1     -12.303  13.570  63.403  1.00  0.00    -0.739 NA 
ENDBRANCH   7   9
ENDBRANCH   1   7
TORSDOF 3
ENDMDL
MODEL       32
REMARK 921   NORMALIZED FREE ENERGY PREDICTED BY IDOCK:   -5.39 KCAL/MOL
REMARK 922        TOTAL FREE ENERGY PREDICTED BY IDOCK:   -6.62 KCAL/MOL
REMARK 923 INTER-LIGAND FREE ENERGY PREDICTED BY IDOCK:   -6.38 KCAL/MOL
REMARK 924 INTRA-LIGAND FREE ENERGY PREDICTED BY IDOCK:   -0.24 KCAL/MOL
REMARK 927      BINDING AFFINITY PREDICTED BY RF-SCORE:    0.00 PKD
ROOT
HETATM    1  C   UNL     1     -11.603  15.213  69.569  1.00  0.00    -0.319 C  
ENDROOT
BRANCH   1   2
HETATM    2  C   UNL     1     -12.246  15.414  70.899  1.00  0.00    -0.373 A  
HETATM    3  O   UNL     1     -11.449  15.884  71.905  1.00  0.00    -0.406 OA 
HETATM    4  C   UNL     1     -13.536  15.251  71.360  1.00  0.00    -0.598 A  
HETATM    5  C   UNL     1     -12.242  16.044  72.996  1.00  0.00    -0.533 A  
HETATM    6  C   UNL     1     -13.534  15.667  72.712  1.00  0.00    -0.662 A  
ENDBRANCH   1   2
BRANCH   1   7
HETATM    7  N   UNL     1     -12.434  14.573  68.555  1.00  0.00    -0.548 NA 
HETATM    8  H   UNL     1     -13.442  14.482  68.681  1.00  0.00     0.000 HD 
BRANCH   7   9
HETATM    9  C   UNL     1     -11.809  14.092  67.414  1.00  0.00    -0.409 A  
HETATM   10  C   UNL     1     -10.751  14.370  65.359  1.00  0.00    -0.348 A  
HETATM   11  N   UNL     1     -10.444  13.087  65.136  1.00  0.00    -0.310 NA 
HETATM   12  N   UNL     1     -11.392  14.908  66.422  1.00  0.00    -0.335 NA 
HETATM   13  C   UNL     1     -10.848  12.287  66.136  1.00  0.00    -0.279 A  
HETATM   14  C   UNL     1     -11.521  12.746  67.253  1.00  0.00    -0.337 A  
HETATM   15  N   UNL     1     -11.719  11.625  68.015  1.00  0.00    -0.513 NA 
HETATM   16  H   UNL     1     -12.189  11.589  68.919  1.00  0.00     0.000 HD 
HETATM   17  C   UNL     1     -11.174  10.565  67.347  1.00  0.00    -0.173 A  
HETATM   18  N   UNL     1     -10.644  10.933  66.201  1.00  0.00    -0.237 NA 
ENDBRANCH   7   9
ENDBRANCH   1   7
TORSDOF 3
ENDMDL
MODEL       33
REMARK 921   NORMALIZED FREE ENERGY PREDICTED BY IDOCK:   -5.38 KCAL/MOL
REMARK 922        TOTAL FREE ENERGY PREDICTED BY IDOCK:   -6.60 KCAL/MOL
REMARK 923 INTER-LIGAND FREE ENERGY PREDICTED BY IDOCK:   -6.38 KCAL/MOL
REMARK 924 INTRA-LIGAND FREE ENERGY PREDICTED BY IDOCK:   -0.22 KCAL/MOL
REMARK 927      BINDING AFFINITY PREDICTED BY RF-SCORE:    0.00 PKD
ROOT
HETATM    1  C   UNL     1     -11.768  13.129  67.233  1.00  0.00    -0.374 C  
ENDROOT
BRANCH   1   2
HETATM    2  C   UNL     1     -11.726  12.540  65.864  1.00  0.00    -0.426 A  
HETATM    3  O   UNL     1     -12.861  12.649  65.111  1.00  0.00    -0.721 OA 
HETATM    4  C   UNL     1     -10.740  11.904  65.138  1.00  0.00    -0.339 A  
HETATM    5  C   UNL     1     -12.584  12.105  63.897  1.00  0.00    -0.438 A  
HETATM    6  C   UNL     1     -11.293  11.631  63.864  1.00  0.00    -0.457 A  
ENDBRANCH   1   2
BRANCH   1   7
HETATM    7  N   UNL     1     -11.353  12.243  68.315  1.00  0.00    -0.264 NA 
HETATM    8  H   UNL     1     -10.668  11.505  68.157  1.00  0.00     0.000 HD 
BRANCH   7   9
HETATM    9  C   UNL     1     -11.921  12.436  69.565  1.00  0.00    -0.261 A  
HETATM   10  C   UNL     1     -12.749  13.778  71.278  1.00  0.00    -0.371 A  
HETATM   11  N   UNL     1     -13.176  12.801  72.086  1.00  0.00    -0.473 NA 
HETATM   12  N   UNL     1     -12.151  13.667  70.069  1.00  0.00    -0.338 NA 
HETATM   13  C   UNL     1     -12.958  11.581  71.567  1.00  0.00    -0.380 A  
HETATM   14  C   UNL     1     -12.343  11.372  70.347  1.00  0.00    -0.319 A  
HETATM   15  N   UNL     1     -12.342  10.011  70.195  1.00  0.00    -0.504 NA 
HETATM   16  H   UNL     1     -11.964   9.496  69.401  1.00  0.00     0.000 HD 
HETATM   17  C   UNL     1     -12.939   9.468  71.298  1.00  0.00    -0.328 A  
HETATM   18  N   UNL     1     -13.318  10.394  72.151  1.00  0.00    -0.381 NA 
ENDBRANCH   7   9
ENDBRANCH   1   7
TORSDOF 3
ENDMDL
MODEL       34
REMARK 921   NORMALIZED FREE ENERGY PREDICTED BY IDOCK:   -5.37 KCAL/MOL
REMARK 922        TOTAL FREE ENERGY PREDICTED BY IDOCK:   -6.59 KCAL/MOL
REMARK 923 INTER-LIGAND FREE ENERGY PREDICTED BY IDOCK:   -6.34 KCAL/MOL
REMARK 924 INTRA-LIGAND FREE ENERGY PREDICTED BY IDOCK:   -0.25 KCAL/MOL
REMARK 927      BINDING AFFINITY PREDICTED BY RF-SCORE:    0.00 PKD
ROOT
HETATM    1  C   UNL     1     -11.880  12.297  68.522  1.00  0.00    -0.307 C  
ENDROOT
BRANCH   1   2
HETATM    2  C   UNL     1     -11.908  12.916  67.166  1.00  0.00    -0.362 A  
HETATM    3  O   UNL     1     -12.278  12.109  66.127  1.00  0.00    -0.611 OA 
HETATM    4  C   UNL     1     -11.658  14.192  66.704  1.00  0.00    -0.399 A  
HETATM    5  C   UNL     1     -12.290  12.883  65.010  1.00  0.00    -0.485 A  
HETATM    6  C   UNL     1     -11.915  14.171  65.312  1.00  0.00    -0.383 A  
ENDBRANCH   1   2
BRANCH   1   7
HETATM    7  N   UNL     1     -11.972  10.842  68.554  1.00  0.00    -0.793 NA 
HETATM    8  H   UNL     1     -12.493  10.332  67.842  1.00  0.00     0.000 HD 
BRANCH   7   9
HETATM    9  C   UNL     1     -11.329  10.174  69.585  1.00  0.00    -0.235 A  
HETATM   10  C   UNL     1      -9.427   9.398  70.681  1.00  0.00    -0.262 A  
HETATM   11  N   UNL     1     -10.032   8.888  71.760  1.00  0.00    -0.325 NA 
HETATM   12  N   UNL     1      -9.987  10.024  69.620  1.00  0.00    -0.225 NA 
HETATM   13  C   UNL     1     -11.363   9.060  71.724  1.00  0.00    -0.377 A  
HETATM   14  C   UNL     1     -12.024   9.674  70.676  1.00  0.00    -0.229 A  
HETATM   15  N   UNL     1     -13.341   9.657  71.047  1.00  0.00    -0.565 NA 
HETATM   16  H   UNL     1     -14.122  10.031  70.509  1.00  0.00     0.000 HD 
HETATM   17  C   UNL     1     -13.422   9.051  72.270  1.00  0.00    -0.475 A  
HETATM   18  N   UNL     1     -12.241   8.671  72.703  1.00  0.00    -0.308 NA 
ENDBRANCH   7   9
ENDBRANCH   1   7
TORSDOF 3
ENDMDL
MODEL       35
REMARK 921   NORMALIZED FREE ENERGY PREDICTED BY IDOCK:   -5.37 KCAL/MOL
REMARK 922        TOTAL FREE ENERGY PREDICTED BY IDOCK:   -6.59 KCAL/MOL
REMARK 923 INTER-LIGAND FREE ENERGY PREDICTED BY IDOCK:   -6.30 KCAL/MOL
REMARK 924 INTRA-LIGAND FREE ENERGY PREDICTED BY IDOCK:   -0.29 KCAL/MOL
REMARK 927      BINDING AFFINITY PREDICTED BY RF-SCORE:    0.00 PKD
ROOT
HETATM    1  C   UNL     1     -11.141  10.602  69.167  1.00  0.00    -0.255 C  
ENDROOT
BRANCH   1   2
HETATM    2  C   UNL     1     -11.750  10.097  70.430  1.00  0.00    -0.308 A  
HETATM    3  O   UNL     1     -12.996  10.562  70.743  1.00  0.00    -0.370 OA 
HETATM    4  C   UNL     1     -11.329   9.200  71.390  1.00  0.00    -0.414 A  
HETATM    5  C   UNL     1     -13.376   9.936  71.888  1.00  0.00    -0.424 A  
HETATM    6  C   UNL     1     -12.385   9.090  72.326  1.00  0.00    -0.402 A  
ENDBRANCH   1   2
BRANCH   1   7
HETATM    7  N   UNL     1     -12.066  11.217  68.221  1.00  0.00    -0.735 NA 
HETATM    8  H   UNL     1     -12.850  10.691  67.835  1.00  0.00     0.000 HD 
BRANCH   7   9
HETATM    9  C   UNL     1     -11.845  12.538  67.862  1.00  0.00    -0.323 A  
HETATM   10  C   UNL     1     -11.177  14.722  68.314  1.00  0.00    -0.286 A  
HETATM   11  N   UNL     1     -11.305  15.212  67.075  1.00  0.00    -0.316 NA 
HETATM   12  N   UNL     1     -11.413  13.462  68.747  1.00  0.00    -0.282 NA 
HETATM   13  C   UNL     1     -11.717  14.280  66.200  1.00  0.00    -0.390 A  
HETATM   14  C   UNL     1     -11.995  12.973  66.555  1.00  0.00    -0.391 A  
HETATM   15  N   UNL     1     -12.355  12.371  65.379  1.00  0.00    -0.614 NA 
HETATM   16  H   UNL     1     -12.628  11.396  65.263  1.00  0.00     0.000 HD 
HETATM   17  C   UNL     1     -12.283  13.312  64.389  1.00  0.00    -0.390 A  
HETATM   18  N   UNL     1     -11.905  14.481  64.857  1.00  0.00    -0.398 NA 
ENDBRANCH   7   9
ENDBRANCH   1   7
TORSDOF 3
ENDMDL
MODEL       36
REMARK 921   NORMALIZED FREE ENERGY PREDICTED BY IDOCK:   -5.36 KCAL/MOL
REMARK 922        TOTAL FREE ENERGY PREDICTED BY IDOCK:   -6.58 KCAL/MOL
REMARK 923 INTER-LIGAND FREE ENERGY PREDICTED BY IDOCK:   -6.00 KCAL/MOL
REMARK 924 INTRA-LIGAND FREE ENERGY PREDICTED BY IDOCK:   -0.58 KCAL/MOL
REMARK 927      BINDING AFFINITY PREDICTED BY RF-SCORE:    0.00 PKD
ROOT
HETATM    1  C   UNL     1     -11.394  11.045  68.782  1.00  0.00    -0.283 C  
ENDROOT
BRANCH   1   2
HETATM    2  C   UNL     1     -12.060  11.031  70.116  1.00  0.00    -0.356 A  
HETATM    3  O   UNL     1     -12.439  12.240  70.629  1.00  0.00    -0.315 OA 
HETATM    4  C   UNL     1     -12.424  10.020  70.981  1.00  0.00    -0.460 A  
HETATM    5  C   UNL     1     -13.068  11.990  71.806  1.00  0.00    -0.355 A  
HETATM    6  C   UNL     1     -13.083  10.640  72.068  1.00  0.00    -0.501 A  
ENDBRANCH   1   2
BRANCH   1   7
HETATM    7  N   UNL     1     -12.140  11.692  67.709  1.00  0.00    -0.579 NA 
HETATM    8  H   UNL     1     -13.050  11.338  67.414  1.00  0.00     0.000 HD 
BRANCH   7   9
HETATM    9  C   UNL     1     -11.573  12.802  67.102  1.00  0.00    -0.364 A  
HETATM   10  C   UNL     1     -10.548  13.888  65.316  1.00  0.00    -0.361 A  
HETATM   11  N   UNL     1     -10.509  15.116  65.845  1.00  0.00    -0.316 NA 
HETATM   12  N   UNL     1     -11.044  12.753  65.861  1.00  0.00    -0.280 NA 
HETATM   13  C   UNL     1     -11.055  15.157  67.072  1.00  0.00    -0.328 A  
HETATM   14  C   UNL     1     -11.573  14.046  67.713  1.00  0.00    -0.345 A  
HETATM   15  N   UNL     1     -12.036  14.528  68.907  1.00  0.00    -0.523 NA 
HETATM   16  H   UNL     1     -12.487  13.982  69.641  1.00  0.00     0.000 HD 
HETATM   17  C   UNL     1     -11.786  15.872  68.941  1.00  0.00    -0.370 A  
HETATM   18  N   UNL     1     -11.185  16.281  67.845  1.00  0.00    -0.270 NA 
ENDBRANCH   7   9
ENDBRANCH   1   7
TORSDOF 3
ENDMDL
MODEL       37
REMARK 921   NORMALIZED FREE ENERGY PREDICTED BY IDOCK:   -5.33 KCAL/MOL
REMARK 922        TOTAL FREE ENERGY PREDICTED BY IDOCK:   -6.55 KCAL/MOL
REMARK 923 INTER-LIGAND FREE ENERGY PREDICTED BY IDOCK:   -6.26 KCAL/MOL
REMARK 924 INTRA-LIGAND FREE ENERGY PREDICTED BY IDOCK:   -0.29 KCAL/MOL
REMARK 927      BINDING AFFINITY PREDICTED BY RF-SCORE:    0.00 PKD
ROOT
HETATM    1  C   UNL     1     -10.603  11.386  66.849  1.00  0.00    -0.252 C  
ENDROOT
BRANCH   1   2
HETATM    2  C   UNL     1     -11.120  11.910  65.553  1.00  0.00    -0.304 A  
HETATM    3  O   UNL     1     -10.465  11.511  64.421  1.00  0.00    -0.280 OA 
HETATM    4  C   UNL     1     -12.181  12.725  65.218  1.00  0.00    -0.535 A  
HETATM    5  C   UNL     1     -11.130  12.053  63.368  1.00  0.00    -0.398 A  
HETATM    6  C   UNL     1     -12.192  12.810  63.806  1.00  0.00    -0.572 A  
ENDBRANCH   1   2
BRANCH   1   7
HETATM    7  N   UNL     1     -11.606  10.840  67.756  1.00  0.00    -0.637 NA 
HETATM    8  H   UNL     1     -12.070   9.954  67.557  1.00  0.00     0.000 HD 
BRANCH   7   9
HETATM    9  C   UNL     1     -11.910  11.565  68.899  1.00  0.00    -0.341 A  
HETATM   10  C   UNL     1     -12.160  13.554  70.084  1.00  0.00    -0.354 A  
HETATM   11  N   UNL     1     -12.635  13.031  71.220  1.00  0.00    -0.336 NA 
HETATM   12  N   UNL     1     -11.804  12.911  68.948  1.00  0.00    -0.314 NA 
HETATM   13  C   UNL     1     -12.754  11.695  71.154  1.00  0.00    -0.325 A  
HETATM   14  C   UNL     1     -12.402  10.954  70.041  1.00  0.00    -0.313 A  
HETATM   15  N   UNL     1     -12.698   9.662  70.385  1.00  0.00    -0.492 NA 
HETATM   16  H   UNL     1     -12.566   8.839  69.798  1.00  0.00     0.000 HD 
HETATM   17  C   UNL     1     -13.202   9.674  71.656  1.00  0.00    -0.411 A  
HETATM   18  N   UNL     1     -13.242  10.891  72.151  1.00  0.00    -0.393 NA 
ENDBRANCH   7   9
ENDBRANCH   1   7
TORSDOF 3
ENDMDL
MODEL       38
REMARK 921   NORMALIZED FREE ENERGY PREDICTED BY IDOCK:   -5.29 KCAL/MOL
REMARK 922        TOTAL FREE ENERGY PREDICTED BY IDOCK:   -6.49 KCAL/MOL
REMARK 923 INTER-LIGAND FREE ENERGY PREDICTED BY IDOCK:   -6.01 KCAL/MOL
REMARK 924 INTRA-LIGAND FREE ENERGY PREDICTED BY IDOCK:   -0.48 KCAL/MOL
REMARK 927      BINDING AFFINITY PREDICTED BY RF-SCORE:    0.00 PKD
ROOT
HETATM    1  C   UNL     1     -10.856   9.858  69.001  1.00  0.00    -0.215 C  
ENDROOT
BRANCH   1   2
HETATM    2  C   UNL     1     -11.156   9.349  70.369  1.00  0.00    -0.261 A  
HETATM    3  O   UNL     1     -12.407   9.599  70.860  1.00  0.00    -0.299 OA 
HETATM    4  C   UNL     1     -10.429   8.621  71.288  1.00  0.00    -0.311 A  
HETATM    5  C   UNL     1     -12.480   9.005  72.079  1.00  0.00    -0.390 A  
HETATM    6  C   UNL     1     -11.289   8.391  72.389  1.00  0.00    -0.448 A  
ENDBRANCH   1   2
BRANCH   1   7
HETATM    7  N   UNL     1     -11.973  10.477  68.297  1.00  0.00    -0.784 NA 
HETATM    8  H   UNL     1     -12.797   9.935  68.039  1.00  0.00     0.000 HD 
BRANCH   7   9
HETATM    9  C   UNL     1     -11.879  11.826  67.990  1.00  0.00    -0.234 A  
HETATM   10  C   UNL     1     -11.751  13.606  66.494  1.00  0.00    -0.382 A  
HETATM   11  N   UNL     1     -11.788  14.600  67.388  1.00  0.00    -0.385 NA 
HETATM   12  N   UNL     1     -11.796  12.272  66.718  1.00  0.00    -0.591 NA 
HETATM   13  C   UNL     1     -11.889  14.146  68.649  1.00  0.00    -0.348 A  
HETATM   14  C   UNL     1     -11.927  12.803  68.973  1.00  0.00    -0.242 A  
HETATM   15  N   UNL     1     -12.052  12.785  70.336  1.00  0.00    -0.472 NA 
HETATM   16  H   UNL     1     -12.112  11.954  70.923  1.00  0.00     0.000 HD 
HETATM   17  C   UNL     1     -12.083  14.082  70.769  1.00  0.00    -0.345 A  
HETATM   18  N   UNL     1     -11.979  14.930  69.770  1.00  0.00    -0.306 NA 
ENDBRANCH   7   9
ENDBRANCH   1   7
TORSDOF 3
ENDMDL
MODEL       39
REMARK 921   NORMALIZED FREE ENERGY PREDICTED BY IDOCK:   -5.26 KCAL/MOL
REMARK 922        TOTAL FREE ENERGY PREDICTED BY IDOCK:   -6.46 KCAL/MOL
REMARK 923 INTER-LIGAND FREE ENERGY PREDICTED BY IDOCK:   -5.90 KCAL/MOL
REMARK 924 INTRA-LIGAND FREE ENERGY PREDICTED BY IDOCK:   -0.56 KCAL/MOL
REMARK 927      BINDING AFFINITY PREDICTED BY RF-SCORE:    0.00 PKD
ROOT
HETATM    1  C   UNL     1      -9.426  13.676  67.698  1.00  0.00    -0.221 C  
ENDROOT
BRANCH   1   2
HETATM    2  C   UNL     1     -10.390  12.640  68.168  1.00  0.00    -0.234 A  
HETATM    3  O   UNL     1     -10.316  11.413  67.571  1.00  0.00    -0.188 OA 
HETATM    4  C   UNL     1     -11.371  12.632  69.138  1.00  0.00    -0.339 A  
HETATM    5  C   UNL     1     -11.233  10.619  68.183  1.00  0.00    -0.302 A  
HETATM    6  C   UNL     1     -11.909  11.323  69.153  1.00  0.00    -0.423 A  
ENDBRANCH   1   2
BRANCH   1   7
HETATM    7  N   UNL     1      -9.255  13.772  66.253  1.00  0.00    -0.484 NA 
HETATM    8  H   UNL     1      -8.388  13.479  65.805  1.00  0.00     0.000 HD 
BRANCH   7   9
HETATM    9  C   UNL     1     -10.311  14.275  65.508  1.00  0.00    -0.355 A  
HETATM   10  C   UNL     1     -11.598  16.017  64.654  1.00  0.00    -0.169 A  
HETATM   11  N   UNL     1     -12.418  15.284  63.893  1.00  0.00    -0.672 NA 
HETATM   12  N   UNL     1     -10.578  15.597  65.437  1.00  0.00    -0.390 NA 
HETATM   13  C   UNL     1     -12.131  13.973  63.956  1.00  0.00    -0.376 A  
HETATM   14  C   UNL     1     -11.118  13.452  64.738  1.00  0.00    -0.351 A  
HETATM   15  N   UNL     1     -11.158  12.105  64.494  1.00  0.00    -0.311 NA 
HETATM   16  H   UNL     1     -10.546  11.402  64.906  1.00  0.00     0.000 HD 
HETATM   17  C   UNL     1     -12.165  11.873  63.600  1.00  0.00    -0.479 A  
HETATM   18  N   UNL     1     -12.779  12.985  63.259  1.00  0.00    -0.609 NA 
ENDBRANCH   7   9
ENDBRANCH   1   7
TORSDOF 3
ENDMDL
MODEL       40
REMARK 921   NORMALIZED FREE ENERGY PREDICTED BY IDOCK:   -5.22 KCAL/MOL
REMARK 922        TOTAL FREE ENERGY PREDICTED BY IDOCK:   -6.42 KCAL/MOL
REMARK 923 INTER-LIGAND FREE ENERGY PREDICTED BY IDOCK:   -5.81 KCAL/MOL
REMARK 924 INTRA-LIGAND FREE ENERGY PREDICTED BY IDOCK:   -0.60 KCAL/MOL
REMARK 927      BINDING AFFINITY PREDICTED BY RF-SCORE:    0.00 PKD
ROOT
HETATM    1  C   UNL     1     -11.153  11.253  66.606  1.00  0.00    -0.235 C  
ENDROOT
BRANCH   1   2
HETATM    2  C   UNL     1     -11.192  10.844  68.039  1.00  0.00    -0.314 A  
HETATM    3  O   UNL     1     -12.303  11.198  68.751  1.00  0.00    -0.539 OA 
HETATM    4  C   UNL     1     -10.328  10.129  68.842  1.00  0.00    -0.223 A  
HETATM    5  C   UNL     1     -12.154  10.682  69.999  1.00  0.00    -0.316 A  
HETATM    6  C   UNL     1     -10.955  10.017  70.106  1.00  0.00    -0.368 A  
ENDBRANCH   1   2
BRANCH   1   7
HETATM    7  N   UNL     1     -12.019  12.368  66.243  1.00  0.00    -0.607 NA 
HETATM    8  H   UNL     1     -12.996  12.216  65.992  1.00  0.00     0.000 HD 
BRANCH   7   9
HETATM    9  C   UNL     1     -11.473  13.643  66.250  1.00  0.00    -0.333 A  
HETATM   10  C   UNL     1     -10.446  15.461  65.220  1.00  0.00    -0.415 A  
HETATM   11  N   UNL     1     -10.452  16.293  66.268  1.00  0.00    -0.318 NA 
HETATM   12  N   UNL     1     -10.920  14.195  65.149  1.00  0.00    -0.336 NA 
HETATM   13  C   UNL     1     -11.022  15.740  67.352  1.00  0.00    -0.279 A  
HETATM   14  C   UNL     1     -11.520  14.450  67.375  1.00  0.00    -0.358 A  
HETATM   15  N   UNL     1     -12.019  14.302  68.641  1.00  0.00    -0.459 NA 
HETATM   16  H   UNL     1     -12.468  13.466  69.016  1.00  0.00     0.000 HD 
HETATM   17  C   UNL     1     -11.808  15.473  69.313  1.00  0.00    -0.353 A  
HETATM   18  N   UNL     1     -11.199  16.362  68.560  1.00  0.00    -0.363 NA 
ENDBRANCH   7   9
ENDBRANCH   1   7
TORSDOF 3
ENDMDL
MODEL       41
REMARK 921   NORMALIZED FREE ENERGY PREDICTED BY IDOCK:   -5.22 KCAL/MOL
REMARK 922        TOTAL FREE ENERGY PREDICTED BY IDOCK:   -6.41 KCAL/MOL
REMARK 923 INTER-LIGAND FREE ENERGY PREDICTED BY IDOCK:   -6.05 KCAL/MOL
REMARK 924 INTRA-LIGAND FREE ENERGY PREDICTED BY IDOCK:   -0.36 KCAL/MOL
REMARK 927      BINDING AFFINITY PREDICTED BY RF-SCORE:    0.00 PKD
ROOT
HETATM    1  C   UNL     1      -9.142  13.903  67.487  1.00  0.00    -0.201 C  
ENDROOT
BRANCH   1   2
HETATM    2  C   UNL     1     -10.311  14.166  68.374  1.00  0.00    -0.249 A  
HETATM    3  O   UNL     1     -10.554  15.470  68.703  1.00  0.00    -0.231 OA 
HETATM    4  C   UNL     1     -11.268  13.352  68.944  1.00  0.00    -0.320 A  
HETATM    5  C   UNL     1     -11.682  15.483  69.459  1.00  0.00    -0.365 A  
HETATM    6  C   UNL     1     -12.159  14.205  69.637  1.00  0.00    -0.400 A  
ENDBRANCH   1   2
BRANCH   1   7
HETATM    7  N   UNL     1      -9.173  14.563  66.187  1.00  0.00    -0.498 NA 
HETATM    8  H   UNL     1      -8.409  15.167  65.885  1.00  0.00     0.000 HD 
BRANCH   7   9
HETATM    9  C   UNL     1     -10.275  14.343  65.374  1.00  0.00    -0.382 A  
HETATM   10  C   UNL     1     -12.251  15.011  64.340  1.00  0.00    -0.337 A  
HETATM   11  N   UNL     1     -12.468  13.901  63.625  1.00  0.00    -0.805 NA 
HETATM   12  N   UNL     1     -11.227  15.281  65.183  1.00  0.00    -0.376 NA 
HETATM   13  C   UNL     1     -11.506  12.982  63.810  1.00  0.00    -0.429 A  
HETATM   14  C   UNL     1     -10.431  13.165  64.660  1.00  0.00    -0.392 A  
HETATM   15  N   UNL     1      -9.697  12.017  64.533  1.00  0.00    -0.457 NA 
HETATM   16  H   UNL     1      -8.827  11.803  65.020  1.00  0.00     0.000 HD 
HETATM   17  C   UNL     1     -10.339  11.208  63.638  1.00  0.00    -0.389 A  
HETATM   18  N   UNL     1     -11.443  11.763  63.186  1.00  0.00    -0.218 NA 
ENDBRANCH   7   9
ENDBRANCH   1   7
TORSDOF 3
ENDMDL
MODEL       42
REMARK 921   NORMALIZED FREE ENERGY PREDICTED BY IDOCK:   -5.20 KCAL/MOL
REMARK 922        TOTAL FREE ENERGY PREDICTED BY IDOCK:   -6.39 KCAL/MOL
REMARK 923 INTER-LIGAND FREE ENERGY PREDICTED BY IDOCK:   -6.16 KCAL/MOL
REMARK 924 INTRA-LIGAND FREE ENERGY PREDICTED BY IDOCK:   -0.23 KCAL/MOL
REMARK 927      BINDING AFFINITY PREDICTED BY RF-SCORE:    0.00 PKD
ROOT
HETATM    1  C   UNL     1     -12.651  11.334  70.628  1.00  0.00    -0.288 C  
ENDROOT
BRANCH   1   2
HETATM    2  C   UNL     1     -12.408  10.047  71.340  1.00  0.00    -0.415 A  
HETATM    3  O   UNL     1     -13.511   9.354  71.756  1.00  0.00    -0.377 OA 
HETATM    4  C   UNL     1     -11.264   9.349  71.667  1.00  0.00    -0.431 A  
HETATM    5  C   UNL     1     -13.064   8.203  72.321  1.00  0.00    -0.180 A  
HETATM    6  C   UNL     1     -11.690   8.153  72.293  1.00  0.00    -0.439 A  
ENDBRANCH   1   2
BRANCH   1   7
HETATM    7  N   UNL     1     -13.119  12.438  71.459  1.00  0.00    -0.342 NA 
HETATM    8  H   UNL     1     -13.808  12.288  72.195  1.00  0.00     0.000 HD 
BRANCH   7   9
HETATM    9  C   UNL     1     -12.596  13.699  71.215  1.00  0.00    -0.351 A  
HETATM   10  C   UNL     1     -11.779  15.367  69.810  1.00  0.00    -0.333 A  
HETATM   11  N   UNL     1     -11.622  16.323  70.733  1.00  0.00    -0.335 NA 
HETATM   12  N   UNL     1     -12.241  14.106  69.977  1.00  0.00    -0.341 NA 
HETATM   13  C   UNL     1     -11.995  15.914  71.957  1.00  0.00    -0.513 A  
HETATM   14  C   UNL     1     -12.465  14.641  72.224  1.00  0.00    -0.306 A  
HETATM   15  N   UNL     1     -12.744  14.656  73.564  1.00  0.00    -0.445 NA 
HETATM   16  H   UNL     1     -13.113  13.878  74.109  1.00  0.00     0.000 HD 
HETATM   17  C   UNL     1     -12.439  15.901  74.040  1.00  0.00    -0.638 A  
HETATM   18  N   UNL     1     -11.976  16.684  73.091  1.00  0.00    -0.423 NA 
ENDBRANCH   7   9
ENDBRANCH   1   7
TORSDOF 3
ENDMDL
MODEL       43
REMARK 921   NORMALIZED FREE ENERGY PREDICTED BY IDOCK:   -5.14 KCAL/MOL
REMARK 922        TOTAL FREE ENERGY PREDICTED BY IDOCK:   -6.32 KCAL/MOL
REMARK 923 INTER-LIGAND FREE ENERGY PREDICTED BY IDOCK:   -6.00 KCAL/MOL
REMARK 924 INTRA-LIGAND FREE ENERGY PREDICTED BY IDOCK:   -0.32 KCAL/MOL
REMARK 927      BINDING AFFINITY PREDICTED BY RF-SCORE:    0.00 PKD
ROOT
HETATM    1  C   UNL     1     -11.541  11.874  67.977  1.00  0.00    -0.332 C  
ENDROOT
BRANCH   1   2
HETATM    2  C   UNL     1     -11.403  12.514  66.638  1.00  0.00    -0.334 A  
HETATM    3  O   UNL     1     -12.495  12.467  65.817  1.00  0.00    -0.626 OA 
HETATM    4  C   UNL     1     -10.380  13.202  66.020  1.00  0.00    -0.292 A  
HETATM    5  C   UNL     1     -12.171  13.151  64.689  1.00  0.00    -0.414 A  
HETATM    6  C   UNL     1     -10.881  13.621  64.764  1.00  0.00    -0.402 A  
ENDBRANCH   1   2
BRANCH   1   7
HETATM    7  N   UNL     1     -10.891  12.571  69.081  1.00  0.00    -0.424 NA 
HETATM    8  H   UNL     1      -9.951  12.317  69.384  1.00  0.00     0.000 HD 
BRANCH   7   9
HETATM    9  C   UNL     1     -11.593  13.590  69.707  1.00  0.00    -0.244 A  
HETATM   10  C   UNL     1     -12.294  15.801  69.907  1.00  0.00    -0.178 A  
HETATM   11  N   UNL     1     -13.119  15.638  70.948  1.00  0.00    -0.519 NA 
HETATM   12  N   UNL     1     -11.548  14.868  69.272  1.00  0.00    -0.288 NA 
HETATM   13  C   UNL     1     -13.169  14.361  71.361  1.00  0.00    -0.348 A  
HETATM   14  C   UNL     1     -12.432  13.345  70.782  1.00  0.00    -0.341 A  
HETATM   15  N   UNL     1     -12.793  12.223  71.480  1.00  0.00    -0.340 NA 
HETATM   16  H   UNL     1     -12.442  11.279  71.322  1.00  0.00     0.000 HD 
HETATM   17  C   UNL     1     -13.706  12.596  72.426  1.00  0.00    -0.279 A  
HETATM   18  N   UNL     1     -13.950  13.888  72.384  1.00  0.00    -0.639 NA 
ENDBRANCH   7   9
ENDBRANCH   1   7
TORSDOF 3
ENDMDL
MODEL       44
REMARK 921   NORMALIZED FREE ENERGY PREDICTED BY IDOCK:   -5.14 KCAL/MOL
REMARK 922        TOTAL FREE ENERGY PREDICTED BY IDOCK:   -6.32 KCAL/MOL
REMARK 923 INTER-LIGAND FREE ENERGY PREDICTED BY IDOCK:   -6.06 KCAL/MOL
REMARK 924 INTRA-LIGAND FREE ENERGY PREDICTED BY IDOCK:   -0.26 KCAL/MOL
REMARK 927      BINDING AFFINITY PREDICTED BY RF-SCORE:    0.00 PKD
ROOT
HETATM    1  C   UNL     1     -11.549  12.742  66.949  1.00  0.00    -0.366 C  
ENDROOT
BRANCH   1   2
HETATM    2  C   UNL     1     -11.539  12.331  65.516  1.00  0.00    -0.371 A  
HETATM    3  O   UNL     1     -12.696  12.515  64.813  1.00  0.00    -0.640 OA 
HETATM    4  C   UNL     1     -10.567  11.806  64.690  1.00  0.00    -0.359 A  
HETATM    5  C   UNL     1     -12.447  12.131  63.534  1.00  0.00    -0.555 A  
HETATM    6  C   UNL     1     -11.152  11.686  63.407  1.00  0.00    -0.422 A  
ENDBRANCH   1   2
BRANCH   1   7
HETATM    7  N   UNL     1     -12.384  13.893  67.271  1.00  0.00    -0.495 NA 
HETATM    8  H   UNL     1     -13.202  14.124  66.706  1.00  0.00     0.000 HD 
BRANCH   7   9
HETATM    9  C   UNL     1     -12.032  14.665  68.367  1.00  0.00    -0.254 A  
HETATM   10  C   UNL     1     -11.932  15.089  70.655  1.00  0.00    -0.318 A  
HETATM   11  N   UNL     1     -11.209  16.213  70.601  1.00  0.00    -0.371 NA 
HETATM   12  N   UNL     1     -12.349  14.308  69.631  1.00  0.00    -0.313 NA 
HETATM   13  C   UNL     1     -10.884  16.548  69.342  1.00  0.00    -0.311 A  
HETATM   14  C   UNL     1     -11.276  15.819  68.235  1.00  0.00    -0.356 A  
HETATM   15  N   UNL     1     -10.722  16.486  67.175  1.00  0.00    -0.270 NA 
HETATM   16  H   UNL     1     -10.806  16.226  66.192  1.00  0.00     0.000 HD 
HETATM   17  C   UNL     1     -10.037  17.560  67.669  1.00  0.00    -0.328 A  
HETATM   18  N   UNL     1     -10.122  17.629  68.979  1.00  0.00    -0.334 NA 
ENDBRANCH   7   9
ENDBRANCH   1   7
TORSDOF 3
ENDMDL
MODEL       45
REMARK 921   NORMALIZED FREE ENERGY PREDICTED BY IDOCK:   -5.13 KCAL/MOL
REMARK 922        TOTAL FREE ENERGY PREDICTED BY IDOCK:   -6.31 KCAL/MOL
REMARK 923 INTER-LIGAND FREE ENERGY PREDICTED BY IDOCK:   -6.08 KCAL/MOL
REMARK 924 INTRA-LIGAND FREE ENERGY PREDICTED BY IDOCK:   -0.23 KCAL/MOL
REMARK 927      BINDING AFFINITY PREDICTED BY RF-SCORE:    0.00 PKD
ROOT
HETATM    1  C   UNL     1     -11.661  11.262  69.681  1.00  0.00    -0.350 C  
ENDROOT
BRANCH   1   2
HETATM    2  C   UNL     1     -12.058  10.263  70.714  1.00  0.00    -0.353 A  
HETATM    3  O   UNL     1     -13.390  10.174  71.006  1.00  0.00    -0.387 OA 
HETATM    4  C   UNL     1     -11.351   9.342  71.459  1.00  0.00    -0.464 A  
HETATM    5  C   UNL     1     -13.528   9.176  71.917  1.00  0.00    -0.430 A  
HETATM    6  C   UNL     1     -12.303   8.634  72.229  1.00  0.00    -0.449 A  
ENDBRANCH   1   2
BRANCH   1   7
HETATM    7  N   UNL     1     -12.086  10.965  68.318  1.00  0.00    -0.810 NA 
HETATM    8  H   UNL     1     -13.040  10.666  68.117  1.00  0.00     0.000 HD 
BRANCH   7   9
HETATM    9  C   UNL     1     -11.151  11.101  67.303  1.00  0.00    -0.302 A  
HETATM   10  C   UNL     1      -9.202  10.487  66.186  1.00  0.00    -0.170 A  
HETATM   11  N   UNL     1      -9.305  11.336  65.157  1.00  0.00    -0.213 NA 
HETATM   12  N   UNL     1     -10.047  10.326  67.230  1.00  0.00    -0.193 NA 
HETATM   13  C   UNL     1     -10.415  12.089  65.230  1.00  0.00    -0.284 A  
HETATM   14  C   UNL     1     -11.327  12.003  66.265  1.00  0.00    -0.357 A  
HETATM   15  N   UNL     1     -12.298  12.912  65.939  1.00  0.00    -0.540 NA 
HETATM   16  H   UNL     1     -13.135  13.117  66.483  1.00  0.00     0.000 HD 
HETATM   17  C   UNL     1     -11.943  13.495  64.755  1.00  0.00    -0.390 A  
HETATM   18  N   UNL     1     -10.803  13.022  64.303  1.00  0.00    -0.385 NA 
ENDBRANCH   7   9
ENDBRANCH   1   7
TORSDOF 3
ENDMDL
MODEL       46
REMARK 921   NORMALIZED FREE ENERGY PREDICTED BY IDOCK:   -5.13 KCAL/MOL
REMARK 922        TOTAL FREE ENERGY PREDICTED BY IDOCK:   -6.31 KCAL/MOL
REMARK 923 INTER-LIGAND FREE ENERGY PREDICTED BY IDOCK:   -5.83 KCAL/MOL
REMARK 924 INTRA-LIGAND FREE ENERGY PREDICTED BY IDOCK:   -0.48 KCAL/MOL
REMARK 927      BINDING AFFINITY PREDICTED BY RF-SCORE:    0.00 PKD
ROOT
HETATM    1  C   UNL     1     -12.141  14.705  64.478  1.00  0.00    -0.475 C  
ENDROOT
BRANCH   1   2
HETATM    2  C   UNL     1     -11.670  13.340  64.106  1.00  0.00    -0.420 A  
HETATM    3  O   UNL     1     -10.331  13.093  64.235  1.00  0.00    -0.421 OA 
HETATM    4  C   UNL     1     -12.316  12.204  63.665  1.00  0.00    -0.673 A  
HETATM    5  C   UNL     1     -10.136  11.791  63.901  1.00  0.00    -0.368 A  
HETATM    6  C   UNL     1     -11.326  11.201  63.542  1.00  0.00     0.128 A  
ENDBRANCH   1   2
BRANCH   1   7
HETATM    7  N   UNL     1     -11.330  15.811  63.982  1.00  0.00    -0.912 NA 
HETATM    8  H   UNL     1     -11.189  15.953  62.982  1.00  0.00     0.000 HD 
BRANCH   7   9
HETATM    9  C   UNL     1     -10.756  16.664  64.913  1.00  0.00    -0.082 A  
HETATM   10  C   UNL     1     -10.560  18.714  65.998  1.00  0.00    -0.365 A  
HETATM   11  N   UNL     1      -9.634  18.359  66.896  1.00  0.00    -0.292 NA 
HETATM   12  N   UNL     1     -11.134  17.954  65.037  1.00  0.00    -0.550 NA 
HETATM   13  C   UNL     1      -9.279  17.069  66.775  1.00  0.00    -0.252 A  
HETATM   14  C   UNL     1      -9.801  16.222  65.815  1.00  0.00    -0.299 A  
HETATM   15  N   UNL     1      -9.195  15.019  66.057  1.00  0.00    -0.472 NA 
HETATM   16  H   UNL     1      -9.344  14.156  65.536  1.00  0.00     0.000 HD 
HETATM   17  C   UNL     1      -8.353  15.182  67.122  1.00  0.00    -0.219 A  
HETATM   18  N   UNL     1      -8.377  16.416  67.575  1.00  0.00    -0.159 NA 
ENDBRANCH   7   9
ENDBRANCH   1   7
TORSDOF 3
ENDMDL
MODEL       47
REMARK 921   NORMALIZED FREE ENERGY PREDICTED BY IDOCK:   -5.11 KCAL/MOL
REMARK 922        TOTAL FREE ENERGY PREDICTED BY IDOCK:   -6.29 KCAL/MOL
REMARK 923 INTER-LIGAND FREE ENERGY PREDICTED BY IDOCK:   -5.86 KCAL/MOL
REMARK 924 INTRA-LIGAND FREE ENERGY PREDICTED BY IDOCK:   -0.42 KCAL/MOL
REMARK 927      BINDING AFFINITY PREDICTED BY RF-SCORE:    0.00 PKD
ROOT
HETATM    1  C   UNL     1      -9.393  11.236  66.691  1.00  0.00    -0.180 C  
ENDROOT
BRANCH   1   2
HETATM    2  C   UNL     1     -10.131  12.153  67.606  1.00  0.00    -0.199 A  
HETATM    3  O   UNL     1      -9.478  13.286  68.002  1.00  0.00    -0.206 OA 
HETATM    4  C   UNL     1     -11.399  12.129  68.147  1.00  0.00    -0.349 A  
HETATM    5  C   UNL     1     -10.345  13.993  68.774  1.00  0.00    -0.222 A  
HETATM    6  C   UNL     1     -11.539  13.322  68.895  1.00  0.00    -0.357 A  
ENDBRANCH   1   2
BRANCH   1   7
HETATM    7  N   UNL     1      -9.188  11.728  65.333  1.00  0.00    -0.417 NA 
HETATM    8  H   UNL     1      -8.271  11.682  64.890  1.00  0.00     0.000 HD 
BRANCH   7   9
HETATM    9  C   UNL     1     -10.280  12.260  64.664  1.00  0.00    -0.285 A  
HETATM   10  C   UNL     1     -12.215  12.074  63.382  1.00  0.00    -0.519 A  
HETATM   11  N   UNL     1     -12.563  13.366  63.387  1.00  0.00    -0.712 NA 
HETATM   12  N   UNL     1     -11.147  11.489  63.974  1.00  0.00    -0.375 NA 
HETATM   13  C   UNL     1     -11.703  14.121  64.092  1.00  0.00    -0.282 A  
HETATM   14  C   UNL     1     -10.580  13.612  64.717  1.00  0.00    -0.422 A  
HETATM   15  N   UNL     1     -10.009  14.697  65.326  1.00  0.00    -0.479 NA 
HETATM   16  H   UNL     1      -9.156  14.693  65.884  1.00  0.00     0.000 HD 
HETATM   17  C   UNL     1     -10.787  15.787  65.052  1.00  0.00    -0.443 A  
HETATM   18  N   UNL     1     -11.818  15.471  64.300  1.00  0.00    -0.417 NA 
ENDBRANCH   7   9
ENDBRANCH   1   7
TORSDOF 3
ENDMDL
MODEL       48
REMARK 921   NORMALIZED FREE ENERGY PREDICTED BY IDOCK:   -5.11 KCAL/MOL
REMARK 922        TOTAL FREE ENERGY PREDICTED BY IDOCK:   -6.29 KCAL/MOL
REMARK 923 INTER-LIGAND FREE ENERGY PREDICTED BY IDOCK:   -6.02 KCAL/MOL
REMARK 924 INTRA-LIGAND FREE ENERGY PREDICTED BY IDOCK:   -0.27 KCAL/MOL
REMARK 927      BINDING AFFINITY PREDICTED BY RF-SCORE:    0.00 PKD
ROOT
HETATM    1  C   UNL     1     -11.550  15.583  69.724  1.00  0.00    -0.334 C  
ENDROOT
BRANCH   1   2
HETATM    2  C   UNL     1     -12.323  15.551  70.998  1.00  0.00    -0.416 A  
HETATM    3  O   UNL     1     -11.704  16.055  72.107  1.00  0.00    -0.455 OA 
HETATM    4  C   UNL     1     -13.597  15.133  71.321  1.00  0.00    -0.559 A  
HETATM    5  C   UNL     1     -12.598  15.981  73.127  1.00  0.00    -0.520 A  
HETATM    6  C   UNL     1     -13.777  15.420  72.695  1.00  0.00    -0.640 A  
ENDBRANCH   1   2
BRANCH   1   7
HETATM    7  N   UNL     1     -11.378  16.899  69.121  1.00  0.00    -0.168 NA 
HETATM    8  H   UNL     1     -12.180  17.498  68.926  1.00  0.00     0.000 HD 
BRANCH   7   9
HETATM    9  C   UNL     1     -10.088  17.312  68.820  1.00  0.00    -0.337 A  
HETATM   10  C   UNL     1      -7.795  16.961  68.626  1.00  0.00    -0.244 A  
HETATM   11  N   UNL     1      -7.471  18.149  68.101  1.00  0.00    -0.250 NA 
HETATM   12  N   UNL     1      -9.018  16.505  68.982  1.00  0.00    -0.251 NA 
HETATM   13  C   UNL     1      -8.546  18.936  67.927  1.00  0.00    -0.294 A  
HETATM   14  C   UNL     1      -9.830  18.560  68.274  1.00  0.00    -0.363 A  
HETATM   15  N   UNL     1     -10.607  19.628  67.915  1.00  0.00    -0.409 NA 
HETATM   16  H   UNL     1     -11.618  19.700  68.026  1.00  0.00     0.000 HD 
HETATM   17  C   UNL     1      -9.785  20.581  67.381  1.00  0.00    -0.446 A  
HETATM   18  N   UNL     1      -8.528  20.193  67.380  1.00  0.00    -0.331 NA 
ENDBRANCH   7   9
ENDBRANCH   1   7
TORSDOF 3
ENDMDL
MODEL       49
REMARK 921   NORMALIZED FREE ENERGY PREDICTED BY IDOCK:   -5.09 KCAL/MOL
REMARK 922        TOTAL FREE ENERGY PREDICTED BY IDOCK:   -6.27 KCAL/MOL
REMARK 923 INTER-LIGAND FREE ENERGY PREDICTED BY IDOCK:   -6.05 KCAL/MOL
REMARK 924 INTRA-LIGAND FREE ENERGY PREDICTED BY IDOCK:   -0.22 KCAL/MOL
REMARK 927      BINDING AFFINITY PREDICTED BY RF-SCORE:    0.00 PKD
ROOT
HETATM    1  C   UNL     1     -11.747  12.309  69.195  1.00  0.00    -0.323 C  
ENDROOT
BRANCH   1   2
HETATM    2  C   UNL     1     -11.945  11.201  70.173  1.00  0.00    -0.365 A  
HETATM    3  O   UNL     1     -13.007  11.315  71.027  1.00  0.00    -0.318 OA 
HETATM    4  C   UNL     1     -11.283  10.013  70.404  1.00  0.00    -0.393 A  
HETATM    5  C   UNL     1     -13.032  10.185  71.780  1.00  0.00    -0.462 A  
HETATM    6  C   UNL     1     -11.992   9.353  71.436  1.00  0.00    -0.446 A  
ENDBRANCH   1   2
BRANCH   1   7
HETATM    7  N   UNL     1     -11.133  11.930  67.927  1.00  0.00    -0.226 NA 
HETATM    8  H   UNL     1     -10.405  11.218  67.887  1.00  0.00     0.000 HD 
BRANCH   7   9
HETATM    9  C   UNL     1     -11.572  12.570  66.778  1.00  0.00    -0.382 A  
HETATM   10  C   UNL     1     -12.679  14.284  65.657  1.00  0.00    -0.373 A  
HETATM   11  N   UNL     1     -12.371  13.915  64.408  1.00  0.00    -0.623 NA 
HETATM   12  N   UNL     1     -12.325  13.690  66.820  1.00  0.00    -0.359 NA 
HETATM   13  C   UNL     1     -11.607  12.811  64.379  1.00  0.00    -0.361 A  
HETATM   14  C   UNL     1     -11.209  12.131  65.515  1.00  0.00    -0.334 A  
HETATM   15  N   UNL     1     -10.441  11.100  65.042  1.00  0.00    -0.296 NA 
HETATM   16  H   UNL     1      -9.977  10.389  65.607  1.00  0.00     0.000 HD 
HETATM   17  C   UNL     1     -10.407  11.196  63.679  1.00  0.00    -0.389 A  
HETATM   18  N   UNL     1     -11.110  12.220  63.247  1.00  0.00    -0.395 NA 
ENDBRANCH   7   9
ENDBRANCH   1   7
TORSDOF 3
ENDMDL
MODEL       50
REMARK 921   NORMALIZED FREE ENERGY PREDICTED BY IDOCK:   -5.09 KCAL/MOL
REMARK 922        TOTAL FREE ENERGY PREDICTED BY IDOCK:   -6.26 KCAL/MOL
REMARK 923 INTER-LIGAND FREE ENERGY PREDICTED BY IDOCK:   -6.00 KCAL/MOL
REMARK 924 INTRA-LIGAND FREE ENERGY PREDICTED BY IDOCK:   -0.26 KCAL/MOL
REMARK 927      BINDING AFFINITY PREDICTED BY RF-SCORE:    0.00 PKD
ROOT
HETATM    1  C   UNL     1     -11.541  14.228  69.753  1.00  0.00    -0.293 C  
ENDROOT
BRANCH   1   2
HETATM    2  C   UNL     1     -12.056  12.992  70.408  1.00  0.00    -0.314 A  
HETATM    3  O   UNL     1     -12.801  13.159  71.542  1.00  0.00    -0.358 OA 
HETATM    4  C   UNL     1     -11.972  11.651  70.097  1.00  0.00    -0.441 A  
HETATM    5  C   UNL     1     -13.210  11.924  71.933  1.00  0.00    -0.362 A  
HETATM    6  C   UNL     1     -12.725  10.962  71.078  1.00  0.00    -0.505 A  
ENDBRANCH   1   2
BRANCH   1   7
HETATM    7  N   UNL     1     -12.317  14.712  68.618  1.00  0.00    -0.593 NA 
HETATM    8  H   UNL     1     -13.304  14.946  68.717  1.00  0.00     0.000 HD 
BRANCH   7   9
HETATM    9  C   UNL     1     -11.669  14.845  67.399  1.00  0.00    -0.293 A  
HETATM   10  C   UNL     1     -11.190  14.166  65.224  1.00  0.00    -0.326 A  
HETATM   11  N   UNL     1     -10.409  15.195  64.878  1.00  0.00    -0.334 NA 
HETATM   12  N   UNL     1     -11.820  13.947  66.401  1.00  0.00    -0.389 NA 
HETATM   13  C   UNL     1     -10.281  16.091  65.871  1.00  0.00    -0.365 A  
HETATM   14  C   UNL     1     -10.875  15.944  67.110  1.00  0.00    -0.267 A  
HETATM   15  N   UNL     1     -10.511  17.070  67.798  1.00  0.00    -0.338 NA 
HETATM   16  H   UNL     1     -10.773  17.300  68.756  1.00  0.00     0.000 HD 
HETATM   17  C   UNL     1      -9.733  17.831  66.971  1.00  0.00    -0.290 A  
HETATM   18  N   UNL     1      -9.569  17.261  65.798  1.00  0.00    -0.535 NA 
ENDBRANCH   7   9
ENDBRANCH   1   7
TORSDOF 3
ENDMDL
MODEL       51
REMARK 921   NORMALIZED FREE ENERGY PREDICTED BY IDOCK:   -5.08 KCAL/MOL
REMARK 922        TOTAL FREE ENERGY PREDICTED BY IDOCK:   -6.25 KCAL/MOL
REMARK 923 INTER-LIGAND FREE ENERGY PREDICTED BY IDOCK:   -5.82 KCAL/MOL
REMARK 924 INTRA-LIGAND FREE ENERGY PREDICTED BY IDOCK:   -0.44 KCAL/MOL
REMARK 927      BINDING AFFINITY PREDICTED BY RF-SCORE:    0.00 PKD
ROOT
HETATM    1  C   UNL     1     -11.674  13.508  69.575  1.00  0.00    -0.322 C  
ENDROOT
BRANCH   1   2
HETATM    2  C   UNL     1     -12.589  14.089  70.600  1.00  0.00    -0.344 A  
HETATM    3  O   UNL     1     -13.222  13.208  71.431  1.00  0.00    -0.305 OA 
HETATM    4  C   UNL     1     -12.936  15.382  70.933  1.00  0.00    -0.539 A  
HETATM    5  C   UNL     1     -13.950  13.947  72.309  1.00  0.00    -0.565 A  
HETATM    6  C   UNL     1     -13.808  15.289  72.044  1.00  0.00    -0.626 A  
ENDBRANCH   1   2
BRANCH   1   7
HETATM    7  N   UNL     1     -12.024  12.175  69.099  1.00  0.00    -0.286 NA 
HETATM    8  H   UNL     1     -12.722  12.044  68.367  1.00  0.00     0.000 HD 
BRANCH   7   9
HETATM    9  C   UNL     1     -11.378  11.090  69.673  1.00  0.00    -0.292 A  
HETATM   10  C   UNL     1      -9.523   9.724  70.005  1.00  0.00    -0.238 A  
HETATM   11  N   UNL     1     -10.050   8.924  70.940  1.00  0.00    -0.221 NA 
HETATM   12  N   UNL     1     -10.102  10.770  69.372  1.00  0.00    -0.185 NA 
HETATM   13  C   UNL     1     -11.313   9.263  71.245  1.00  0.00    -0.353 A  
HETATM   14  C   UNL     1     -11.988  10.306  70.640  1.00  0.00    -0.342 A  
HETATM   15  N   UNL     1     -13.214  10.317  71.249  1.00  0.00    -0.374 NA 
HETATM   16  H   UNL     1     -13.978  10.962  71.051  1.00  0.00     0.000 HD 
HETATM   17  C   UNL     1     -13.231   9.308  72.171  1.00  0.00    -0.461 A  
HETATM   18  N   UNL     1     -12.095   8.646  72.187  1.00  0.00    -0.366 NA 
ENDBRANCH   7   9
ENDBRANCH   1   7
TORSDOF 3
ENDMDL
MODEL       52
REMARK 921   NORMALIZED FREE ENERGY PREDICTED BY IDOCK:   -5.07 KCAL/MOL
REMARK 922        TOTAL FREE ENERGY PREDICTED BY IDOCK:   -6.24 KCAL/MOL
REMARK 923 INTER-LIGAND FREE ENERGY PREDICTED BY IDOCK:   -6.06 KCAL/MOL
REMARK 924 INTRA-LIGAND FREE ENERGY PREDICTED BY IDOCK:   -0.17 KCAL/MOL
REMARK 927      BINDING AFFINITY PREDICTED BY RF-SCORE:    0.00 PKD
ROOT
HETATM    1  C   UNL     1     -12.861  11.876  71.136  1.00  0.00    -0.249 C  
ENDROOT
BRANCH   1   2
HETATM    2  C   UNL     1     -12.993  13.334  71.421  1.00  0.00    -0.311 A  
HETATM    3  O   UNL     1     -14.115  13.731  72.094  1.00  0.00    -0.504 OA 
HETATM    4  C   UNL     1     -12.186  14.424  71.171  1.00  0.00    -0.420 A  
HETATM    5  C   UNL     1     -14.002  15.070  72.293  1.00  0.00    -0.509 A  
HETATM    6  C   UNL     1     -12.834  15.544  71.743  1.00  0.00    -0.512 A  
ENDBRANCH   1   2
BRANCH   1   7
HETATM    7  N   UNL     1     -13.188  10.984  72.242  1.00  0.00    -0.540 NA 
HETATM    8  H   UNL     1     -13.397  11.351  73.170  1.00  0.00     0.000 HD 
BRANCH   7   9
HETATM    9  C   UNL     1     -13.204   9.620  71.992  1.00  0.00    -0.453 A  
HETATM   10  C   UNL     1     -14.293   7.591  71.645  1.00  0.00    -0.477 A  
HETATM   11  N   UNL     1     -13.213   6.847  71.379  1.00  0.00    -0.282 NA 
HETATM   12  N   UNL     1     -14.352   8.911  71.938  1.00  0.00    -0.337 NA 
HETATM   13  C   UNL     1     -12.079   7.566  71.418  1.00  0.00    -0.327 A  
HETATM   14  C   UNL     1     -12.042   8.914  71.721  1.00  0.00    -0.362 A  
HETATM   15  N   UNL     1     -10.717   9.247  71.630  1.00  0.00    -0.364 NA 
HETATM   16  H   UNL     1     -10.318  10.172  71.789  1.00  0.00     0.000 HD 
HETATM   17  C   UNL     1     -10.026   8.119  71.285  1.00  0.00    -0.181 A  
HETATM   18  N   UNL     1     -10.823   7.082  71.156  1.00  0.00    -0.234 NA 
ENDBRANCH   7   9
ENDBRANCH   1   7
TORSDOF 3
ENDMDL
MODEL       53
REMARK 921   NORMALIZED FREE ENERGY PREDICTED BY IDOCK:   -5.04 KCAL/MOL
REMARK 922        TOTAL FREE ENERGY PREDICTED BY IDOCK:   -6.21 KCAL/MOL
REMARK 923 INTER-LIGAND FREE ENERGY PREDICTED BY IDOCK:   -5.97 KCAL/MOL
REMARK 924 INTRA-LIGAND FREE ENERGY PREDICTED BY IDOCK:   -0.24 KCAL/MOL
REMARK 927      BINDING AFFINITY PREDICTED BY RF-SCORE:    0.00 PKD
ROOT
HETATM    1  C   UNL     1      -9.593  14.367  66.458  1.00  0.00    -0.293 C  
ENDROOT
BRANCH   1   2
HETATM    2  C   UNL     1     -10.684  13.671  65.716  1.00  0.00    -0.280 A  
HETATM    3  O   UNL     1     -10.612  13.693  64.351  1.00  0.00    -0.423 OA 
HETATM    4  C   UNL     1     -11.789  12.950  66.117  1.00  0.00    -0.487 A  
HETATM    5  C   UNL     1     -11.659  12.961  63.889  1.00  0.00    -0.453 A  
HETATM    6  C   UNL     1     -12.413  12.483  64.936  1.00  0.00    -0.524 A  
ENDBRANCH   1   2
BRANCH   1   7
HETATM    7  N   UNL     1      -9.153  15.636  65.890  1.00  0.00    -0.361 NA 
HETATM    8  H   UNL     1      -8.989  15.736  64.888  1.00  0.00     0.000 HD 
BRANCH   7   9
HETATM    9  C   UNL     1      -8.964  16.703  66.755  1.00  0.00    -0.237 A  
HETATM   10  C   UNL     1      -7.962  17.729  68.590  1.00  0.00    -0.276 A  
HETATM   11  N   UNL     1      -8.520  18.937  68.452  1.00  0.00    -0.338 NA 
HETATM   12  N   UNL     1      -8.129  16.633  67.815  1.00  0.00    -0.174 NA 
HETATM   13  C   UNL     1      -9.334  19.002  67.384  1.00  0.00    -0.303 A  
HETATM   14  C   UNL     1      -9.575  17.930  66.546  1.00  0.00    -0.313 A  
HETATM   15  N   UNL     1     -10.427  18.426  65.596  1.00  0.00    -0.619 NA 
HETATM   16  H   UNL     1     -10.817  17.908  64.809  1.00  0.00     0.000 HD 
HETATM   17  C   UNL     1     -10.660  19.740  65.890  1.00  0.00    -0.453 A  
HETATM   18  N   UNL     1     -10.017  20.117  66.973  1.00  0.00    -0.432 NA 
ENDBRANCH   7   9
ENDBRANCH   1   7
TORSDOF 3
ENDMDL
MODEL       54
REMARK 921   NORMALIZED FREE ENERGY PREDICTED BY IDOCK:   -4.97 KCAL/MOL
REMARK 922        TOTAL FREE ENERGY PREDICTED BY IDOCK:   -6.12 KCAL/MOL
REMARK 923 INTER-LIGAND FREE ENERGY PREDICTED BY IDOCK:   -5.87 KCAL/MOL
REMARK 924 INTRA-LIGAND FREE ENERGY PREDICTED BY IDOCK:   -0.25 KCAL/MOL
REMARK 927      BINDING AFFINITY PREDICTED BY RF-SCORE:    0.00 PKD
ROOT
HETATM    1  C   UNL     1     -11.345  11.188  68.158  1.00  0.00    -0.309 C  
ENDROOT
BRANCH   1   2
HETATM    2  C   UNL     1     -11.651  12.352  67.278  1.00  0.00    -0.365 A  
HETATM    3  O   UNL     1     -12.097  12.072  66.017  1.00  0.00    -0.561 OA 
HETATM    4  C   UNL     1     -11.611  13.717  67.469  1.00  0.00    -0.387 A  
HETATM    5  C   UNL     1     -12.365  13.262  65.419  1.00  0.00    -0.479 A  
HETATM    6  C   UNL     1     -12.081  14.304  66.270  1.00  0.00    -0.433 A  
ENDBRANCH   1   2
BRANCH   1   7
HETATM    7  N   UNL     1     -11.065  11.506  69.553  1.00  0.00    -0.407 NA 
HETATM    8  H   UNL     1     -10.477  12.300  69.804  1.00  0.00     0.000 HD 
BRANCH   7   9
HETATM    9  C   UNL     1     -11.624  10.694  70.529  1.00  0.00    -0.350 A  
HETATM   10  C   UNL     1     -13.375  10.018  71.906  1.00  0.00    -0.415 A  
HETATM   11  N   UNL     1     -12.777   8.954  72.454  1.00  0.00    -0.388 NA 
HETATM   12  N   UNL     1     -12.882  10.877  70.985  1.00  0.00    -0.380 NA 
HETATM   13  C   UNL     1     -11.534   8.770  71.980  1.00  0.00    -0.371 A  
HETATM   14  C   UNL     1     -10.943   9.604  71.049  1.00  0.00    -0.361 A  
HETATM   15  N   UNL     1      -9.709   9.052  70.832  1.00  0.00    -0.240 NA 
HETATM   16  H   UNL     1      -8.995   9.408  70.197  1.00  0.00     0.000 HD 
HETATM   17  C   UNL     1      -9.606   7.939  71.619  1.00  0.00    -0.163 A  
HETATM   18  N   UNL     1     -10.694   7.745  72.331  1.00  0.00    -0.264 NA 
ENDBRANCH   7   9
ENDBRANCH   1   7
TORSDOF 3
ENDMDL
MODEL       55
REMARK 921   NORMALIZED FREE ENERGY PREDICTED BY IDOCK:   -4.97 KCAL/MOL
REMARK 922        TOTAL FREE ENERGY PREDICTED BY IDOCK:   -6.12 KCAL/MOL
REMARK 923 INTER-LIGAND FREE ENERGY PREDICTED BY IDOCK:   -5.99 KCAL/MOL
REMARK 924 INTRA-LIGAND FREE ENERGY PREDICTED BY IDOCK:   -0.12 KCAL/MOL
REMARK 927      BINDING AFFINITY PREDICTED BY RF-SCORE:    0.00 PKD
ROOT
HETATM    1  C   UNL     1     -11.321  14.740  67.670  1.00  0.00    -0.339 C  
ENDROOT
BRANCH   1   2
HETATM    2  C   UNL     1     -10.814  16.128  67.477  1.00  0.00    -0.284 A  
HETATM    3  O   UNL     1     -10.729  16.914  68.592  1.00  0.00    -0.333 OA 
HETATM    4  C   UNL     1     -10.361  16.825  66.376  1.00  0.00    -0.309 A  
HETATM    5  C   UNL     1     -10.196  18.101  68.199  1.00  0.00    -0.388 A  
HETATM    6  C   UNL     1      -9.954  18.096  66.846  1.00  0.00    -0.345 A  
ENDBRANCH   1   2
BRANCH   1   7
HETATM    7  N   UNL     1     -12.416  14.339  66.794  1.00  0.00    -0.547 NA 
HETATM    8  H   UNL     1     -13.381  14.588  67.009  1.00  0.00     0.000 HD 
BRANCH   7   9
HETATM    9  C   UNL     1     -12.102  13.607  65.658  1.00  0.00    -0.425 A  
HETATM   10  C   UNL     1     -12.047  13.285  63.353  1.00  0.00    -0.439 A  
HETATM   11  N   UNL     1     -11.360  12.137  63.345  1.00  0.00    -0.426 NA 
HETATM   12  N   UNL     1     -12.424  14.031  64.417  1.00  0.00    -0.669 NA 
HETATM   13  C   UNL     1     -11.030  11.735  64.583  1.00  0.00    -0.310 A  
HETATM   14  C   UNL     1     -11.384  12.424  65.727  1.00  0.00    -0.352 A  
HETATM   15  N   UNL     1     -10.838  11.693  66.748  1.00  0.00    -0.264 NA 
HETATM   16  H   UNL     1     -10.900  11.909  67.742  1.00  0.00     0.000 HD 
HETATM   17  C   UNL     1     -10.195  10.620  66.195  1.00  0.00    -0.248 A  
HETATM   18  N   UNL     1     -10.299  10.614  64.884  1.00  0.00    -0.313 NA 
ENDBRANCH   7   9
ENDBRANCH   1   7
TORSDOF 3
ENDMDL
MODEL       56
REMARK 921   NORMALIZED FREE ENERGY PREDICTED BY IDOCK:   -4.96 KCAL/MOL
REMARK 922        TOTAL FREE ENERGY PREDICTED BY IDOCK:   -6.11 KCAL/MOL
REMARK 923 INTER-LIGAND FREE ENERGY PREDICTED BY IDOCK:   -5.84 KCAL/MOL
REMARK 924 INTRA-LIGAND FREE ENERGY PREDICTED BY IDOCK:   -0.27 KCAL/MOL
REMARK 927      BINDING AFFINITY PREDICTED BY RF-SCORE:    0.00 PKD
ROOT
HETATM    1  C   UNL     1     -10.019  18.388  66.443  1.00  0.00    -0.386 C  
ENDROOT
BRANCH   1   2
HETATM    2  C   UNL     1      -8.930  18.995  67.260  1.00  0.00    -0.284 A  
HETATM    3  O   UNL     1      -8.372  18.206  68.227  1.00  0.00    -0.274 OA 
HETATM    4  C   UNL     1      -8.307  20.225  67.242  1.00  0.00    -0.404 A  
HETATM    5  C   UNL     1      -7.377  18.930  68.802  1.00  0.00    -0.322 A  
HETATM    6  C   UNL     1      -7.298  20.179  68.233  1.00  0.00    -0.254 A  
ENDBRANCH   1   2
BRANCH   1   7
HETATM    7  N   UNL     1      -9.649  17.204  65.676  1.00  0.00    -0.525 NA 
HETATM    8  H   UNL     1      -8.691  17.063  65.354  1.00  0.00     0.000 HD 
BRANCH   7   9
HETATM    9  C   UNL     1     -10.640  16.275  65.398  1.00  0.00    -0.352 A  
HETATM   10  C   UNL     1     -12.200  15.269  63.992  1.00  0.00     0.005 A  
HETATM   11  N   UNL     1     -12.596  14.298  64.823  1.00  0.00    -0.651 NA 
HETATM   12  N   UNL     1     -11.273  16.231  64.206  1.00  0.00    -0.786 NA 
HETATM   13  C   UNL     1     -11.947  14.339  65.999  1.00  0.00    -0.400 A  
HETATM   14  C   UNL     1     -10.996  15.294  66.310  1.00  0.00    -0.300 A  
HETATM   15  N   UNL     1     -10.581  14.961  67.572  1.00  0.00    -0.262 NA 
HETATM   16  H   UNL     1      -9.878  15.454  68.122  1.00  0.00     0.000 HD 
HETATM   17  C   UNL     1     -11.278  13.851  67.961  1.00  0.00    -0.271 A  
HETATM   18  N   UNL     1     -12.118  13.454  67.032  1.00  0.00    -0.369 NA 
ENDBRANCH   7   9
ENDBRANCH   1   7
TORSDOF 3
ENDMDL
MODEL       57
REMARK 921   NORMALIZED FREE ENERGY PREDICTED BY IDOCK:   -4.96 KCAL/MOL
REMARK 922        TOTAL FREE ENERGY PREDICTED BY IDOCK:   -6.11 KCAL/MOL
REMARK 923 INTER-LIGAND FREE ENERGY PREDICTED BY IDOCK:   -5.52 KCAL/MOL
REMARK 924 INTRA-LIGAND FREE ENERGY PREDICTED BY IDOCK:   -0.59 KCAL/MOL
REMARK 927      BINDING AFFINITY PREDICTED BY RF-SCORE:    0.00 PKD
ROOT
HETATM    1  C   UNL     1     -12.511   8.346  71.949  1.00  0.00    -0.347 C  
ENDROOT
BRANCH   1   2
HETATM    2  C   UNL     1     -11.740   7.286  71.239  1.00  0.00    -0.296 A  
HETATM    3  O   UNL     1     -11.399   7.537  69.939  1.00  0.00    -0.172 OA 
HETATM    4  C   UNL     1     -11.244   6.058  71.625  1.00  0.00    -0.328 A  
HETATM    5  C   UNL     1     -10.662   6.479  69.512  1.00  0.00    -0.270 A  
HETATM    6  C   UNL     1     -10.539   5.542  70.511  1.00  0.00    -0.339 A  
ENDBRANCH   1   2
BRANCH   1   7
HETATM    7  N   UNL     1     -13.375   9.169  71.110  1.00  0.00    -0.547 NA 
HETATM    8  H   UNL     1     -14.216   8.783  70.682  1.00  0.00     0.000 HD 
BRANCH   7   9
HETATM    9  C   UNL     1     -13.015  10.493  70.911  1.00  0.00    -0.367 A  
HETATM   10  C   UNL     1     -12.819  12.710  71.596  1.00  0.00    -0.264 A  
HETATM   11  N   UNL     1     -12.178  13.178  70.519  1.00  0.00    -0.361 NA 
HETATM   12  N   UNL     1     -13.237  11.447  71.842  1.00  0.00    -0.458 NA 
HETATM   13  C   UNL     1     -11.947  12.218  69.608  1.00  0.00    -0.279 A  
HETATM   14  C   UNL     1     -12.350  10.905  69.768  1.00  0.00    -0.256 A  
HETATM   15  N   UNL     1     -11.902  10.273  68.639  1.00  0.00    -0.682 NA 
HETATM   16  H   UNL     1     -12.022   9.285  68.416  1.00  0.00     0.000 HD 
HETATM   17  C   UNL     1     -11.267  11.202  67.864  1.00  0.00    -0.302 A  
HETATM   18  N   UNL     1     -11.283  12.393  68.421  1.00  0.00    -0.251 NA 
ENDBRANCH   7   9
ENDBRANCH   1   7
TORSDOF 3
ENDMDL
MODEL       58
REMARK 921   NORMALIZED FREE ENERGY PREDICTED BY IDOCK:   -4.94 KCAL/MOL
REMARK 922        TOTAL FREE ENERGY PREDICTED BY IDOCK:   -6.08 KCAL/MOL
REMARK 923 INTER-LIGAND FREE ENERGY PREDICTED BY IDOCK:   -5.81 KCAL/MOL
REMARK 924 INTRA-LIGAND FREE ENERGY PREDICTED BY IDOCK:   -0.27 KCAL/MOL
REMARK 927      BINDING AFFINITY PREDICTED BY RF-SCORE:    0.00 PKD
ROOT
HETATM    1  C   UNL     1     -10.898  16.188  68.841  1.00  0.00    -0.305 C  
ENDROOT
BRANCH   1   2
HETATM    2  C   UNL     1      -9.791  16.263  67.845  1.00  0.00    -0.237 A  
HETATM    3  O   UNL     1      -8.744  15.403  68.021  1.00  0.00    -0.158 OA 
HETATM    4  C   UNL     1      -9.587  17.024  66.713  1.00  0.00    -0.274 A  
HETATM    5  C   UNL     1      -7.890  15.601  66.983  1.00  0.00    -0.231 A  
HETATM    6  C   UNL     1      -8.363  16.589  66.152  1.00  0.00    -0.305 A  
ENDBRANCH   1   2
BRANCH   1   7
HETATM    7  N   UNL     1     -11.980  15.266  68.515  1.00  0.00    -0.556 NA 
HETATM    8  H   UNL     1     -12.509  15.361  67.648  1.00  0.00     0.000 HD 
BRANCH   7   9
HETATM    9  C   UNL     1     -12.267  14.257  69.422  1.00  0.00    -0.278 A  
HETATM   10  C   UNL     1     -12.033  12.097  70.259  1.00  0.00    -0.305 A  
HETATM   11  N   UNL     1     -12.796  12.239  71.349  1.00  0.00    -0.339 NA 
HETATM   12  N   UNL     1     -11.741  13.018  69.312  1.00  0.00    -0.304 NA 
HETATM   13  C   UNL     1     -13.299  13.480  71.458  1.00  0.00    -0.285 A  
HETATM   14  C   UNL     1     -13.067  14.480  70.532  1.00  0.00    -0.174 A  
HETATM   15  N   UNL     1     -13.735  15.566  71.029  1.00  0.00    -0.803 NA 
HETATM   16  H   UNL     1     -13.781  16.491  70.602  1.00  0.00     0.000 HD 
HETATM   17  C   UNL     1     -14.328  15.190  72.202  1.00  0.00    -0.552 A  
HETATM   18  N   UNL     1     -14.088  13.929  72.485  1.00  0.00    -0.702 NA 
ENDBRANCH   7   9
ENDBRANCH   1   7
TORSDOF 3
ENDMDL
MODEL       59
REMARK 921   NORMALIZED FREE ENERGY PREDICTED BY IDOCK:   -4.94 KCAL/MOL
REMARK 922        TOTAL FREE ENERGY PREDICTED BY IDOCK:   -6.08 KCAL/MOL
REMARK 923 INTER-LIGAND FREE ENERGY PREDICTED BY IDOCK:   -5.87 KCAL/MOL
REMARK 924 INTRA-LIGAND FREE ENERGY PREDICTED BY IDOCK:   -0.21 KCAL/MOL
REMARK 927      BINDING AFFINITY PREDICTED BY RF-SCORE:    0.00 PKD
ROOT
HETATM    1  C   UNL     1     -10.410  14.767  65.991  1.00  0.00    -0.305 C  
ENDROOT
BRANCH   1   2
HETATM    2  C   UNL     1     -10.982  13.848  64.966  1.00  0.00    -0.368 A  
HETATM    3  O   UNL     1     -10.118  12.972  64.371  1.00  0.00    -0.329 OA 
HETATM    4  C   UNL     1     -12.258  13.653  64.478  1.00  0.00    -0.444 A  
HETATM    5  C   UNL     1     -10.853  12.204  63.526  1.00  0.00    -0.458 A  
HETATM    6  C   UNL     1     -12.174  12.584  63.554  1.00  0.00    -0.652 A  
ENDBRANCH   1   2
BRANCH   1   7
HETATM    7  N   UNL     1     -10.059  16.101  65.518  1.00  0.00    -0.503 NA 
HETATM    8  H   UNL     1     -10.010  16.310  64.521  1.00  0.00     0.000 HD 
BRANCH   7   9
HETATM    9  C   UNL     1      -9.793  17.076  66.468  1.00  0.00    -0.294 A  
HETATM   10  C   UNL     1     -10.267  18.243  68.426  1.00  0.00    -0.380 A  
HETATM   11  N   UNL     1      -9.173  19.013  68.450  1.00  0.00    -0.337 NA 
HETATM   12  N   UNL     1     -10.613  17.303  67.516  1.00  0.00    -0.351 NA 
HETATM   13  C   UNL     1      -8.356  18.766  67.413  1.00  0.00    -0.264 A  
HETATM   14  C   UNL     1      -8.635  17.836  66.429  1.00  0.00    -0.231 A  
HETATM   15  N   UNL     1      -7.551  17.889  65.594  1.00  0.00    -0.527 NA 
HETATM   16  H   UNL     1      -7.414  17.332  64.751  1.00  0.00     0.000 HD 
HETATM   17  C   UNL     1      -6.686  18.823  66.092  1.00  0.00    -0.231 A  
HETATM   18  N   UNL     1      -7.149  19.377  67.191  1.00  0.00    -0.199 NA 
ENDBRANCH   7   9
ENDBRANCH   1   7
TORSDOF 3
ENDMDL
MODEL       60
REMARK 921   NORMALIZED FREE ENERGY PREDICTED BY IDOCK:   -4.92 KCAL/MOL
REMARK 922        TOTAL FREE ENERGY PREDICTED BY IDOCK:   -6.06 KCAL/MOL
REMARK 923 INTER-LIGAND FREE ENERGY PREDICTED BY IDOCK:   -5.52 KCAL/MOL
REMARK 924 INTRA-LIGAND FREE ENERGY PREDICTED BY IDOCK:   -0.54 KCAL/MOL
REMARK 927      BINDING AFFINITY PREDICTED BY RF-SCORE:    0.00 PKD
ROOT
HETATM    1  C   UNL     1     -12.747  11.169  70.841  1.00  0.00    -0.344 C  
ENDROOT
BRANCH   1   2
HETATM    2  C   UNL     1     -12.184   9.921  71.431  1.00  0.00    -0.408 A  
HETATM    3  O   UNL     1     -10.886   9.624  71.123  1.00  0.00    -0.337 OA 
HETATM    4  C   UNL     1     -12.694   8.965  72.285  1.00  0.00    -0.464 A  
HETATM    5  C   UNL     1     -10.567   8.493  71.804  1.00  0.00    -0.301 A  
HETATM    6  C   UNL     1     -11.645   8.048  72.532  1.00  0.00    -0.464 A  
ENDBRANCH   1   2
BRANCH   1   7
HETATM    7  N   UNL     1     -11.771  12.172  70.433  1.00  0.00    -0.532 NA 
HETATM    8  H   UNL     1     -11.137  12.595  71.111  1.00  0.00     0.000 HD 
BRANCH   7   9
HETATM    9  C   UNL     1     -11.731  12.533  69.095  1.00  0.00    -0.321 A  
HETATM   10  C   UNL     1     -11.982  14.057  67.353  1.00  0.00    -0.404 A  
HETATM   11  N   UNL     1     -11.545  13.275  66.360  1.00  0.00    -0.331 NA 
HETATM   12  N   UNL     1     -12.089  13.764  68.669  1.00  0.00    -0.355 NA 
HETATM   13  C   UNL     1     -11.175  12.059  66.797  1.00  0.00    -0.322 A  
HETATM   14  C   UNL     1     -11.262  11.667  68.119  1.00  0.00    -0.263 A  
HETATM   15  N   UNL     1     -10.771  10.389  68.128  1.00  0.00    -0.217 NA 
HETATM   16  H   UNL     1     -10.684   9.784  68.945  1.00  0.00     0.000 HD 
HETATM   17  C   UNL     1     -10.418  10.069  66.847  1.00  0.00    -0.218 A  
HETATM   18  N   UNL     1     -10.657  11.059  66.015  1.00  0.00    -0.240 NA 
ENDBRANCH   7   9
ENDBRANCH   1   7
TORSDOF 3
ENDMDL
MODEL       61
REMARK 921   NORMALIZED FREE ENERGY PREDICTED BY IDOCK:   -4.91 KCAL/MOL
REMARK 922        TOTAL FREE ENERGY PREDICTED BY IDOCK:   -6.05 KCAL/MOL
REMARK 923 INTER-LIGAND FREE ENERGY PREDICTED BY IDOCK:   -5.73 KCAL/MOL
REMARK 924 INTRA-LIGAND FREE ENERGY PREDICTED BY IDOCK:   -0.32 KCAL/MOL
REMARK 927      BINDING AFFINITY PREDICTED BY RF-SCORE:    0.00 PKD
ROOT
HETATM    1  C   UNL     1     -11.185  11.425  67.206  1.00  0.00    -0.304 C  
ENDROOT
BRANCH   1   2
HETATM    2  C   UNL     1     -11.210  11.746  65.750  1.00  0.00    -0.281 A  
HETATM    3  O   UNL     1     -12.376  12.255  65.251  1.00  0.00    -0.555 OA 
HETATM    4  C   UNL     1     -10.265  11.666  64.748  1.00  0.00    -0.321 A  
HETATM    5  C   UNL     1     -12.159  12.524  63.937  1.00  0.00    -0.498 A  
HETATM    6  C   UNL     1     -10.877  12.178  63.579  1.00  0.00    -0.518 A  
ENDBRANCH   1   2
BRANCH   1   7
HETATM    7  N   UNL     1     -10.294  12.245  68.019  1.00  0.00    -0.208 NA 
HETATM    8  H   UNL     1      -9.399  11.884  68.346  1.00  0.00     0.000 HD 
BRANCH   7   9
HETATM    9  C   UNL     1     -10.704  13.532  68.334  1.00  0.00    -0.259 A  
HETATM   10  C   UNL     1     -10.898  15.809  67.891  1.00  0.00    -0.314 A  
HETATM   11  N   UNL     1     -11.642  16.140  68.954  1.00  0.00    -0.341 NA 
HETATM   12  N   UNL     1     -10.428  14.590  67.541  1.00  0.00    -0.252 NA 
HETATM   13  C   UNL     1     -11.925  15.077  69.725  1.00  0.00    -0.328 A  
HETATM   14  C   UNL     1     -11.477  13.798  69.453  1.00  0.00    -0.286 A  
HETATM   15  N   UNL     1     -12.003  13.032  70.459  1.00  0.00    -0.534 NA 
HETATM   16  H   UNL     1     -11.877  12.027  70.577  1.00  0.00     0.000 HD 
HETATM   17  C   UNL     1     -12.727  13.856  71.275  1.00  0.00    -0.367 A  
HETATM   18  N   UNL     1     -12.694  15.103  70.860  1.00  0.00    -0.369 NA 
ENDBRANCH   7   9
ENDBRANCH   1   7
TORSDOF 3
ENDMDL
MODEL       62
REMARK 921   NORMALIZED FREE ENERGY PREDICTED BY IDOCK:   -4.87 KCAL/MOL
REMARK 922        TOTAL FREE ENERGY PREDICTED BY IDOCK:   -6.00 KCAL/MOL
REMARK 923 INTER-LIGAND FREE ENERGY PREDICTED BY IDOCK:   -5.70 KCAL/MOL
REMARK 924 INTRA-LIGAND FREE ENERGY PREDICTED BY IDOCK:   -0.30 KCAL/MOL
REMARK 927      BINDING AFFINITY PREDICTED BY RF-SCORE:    0.00 PKD
ROOT
HETATM    1  C   UNL     1     -10.938  10.322  68.566  1.00  0.00    -0.247 C  
ENDROOT
BRANCH   1   2
HETATM    2  C   UNL     1     -11.643  10.590  69.851  1.00  0.00    -0.307 A  
HETATM    3  O   UNL     1     -12.111  11.860  70.044  1.00  0.00    -0.311 OA 
HETATM    4  C   UNL     1     -11.971   9.800  70.933  1.00  0.00    -0.413 A  
HETATM    5  C   UNL     1     -12.760  11.865  71.238  1.00  0.00    -0.298 A  
HETATM    6  C   UNL     1     -12.701  10.622  71.824  1.00  0.00    -0.489 A  
ENDBRANCH   1   2
BRANCH   1   7
HETATM    7  N   UNL     1     -10.422  11.495  67.871  1.00  0.00    -0.179 NA 
HETATM    8  H   UNL     1      -9.909  12.221  68.372  1.00  0.00     0.000 HD 
BRANCH   7   9
HETATM    9  C   UNL     1     -10.650  11.594  66.506  1.00  0.00    -0.253 A  
HETATM   10  C   UNL     1     -10.435  10.846  64.312  1.00  0.00    -0.335 A  
HETATM   11  N   UNL     1     -11.217  11.762  63.729  1.00  0.00    -0.410 NA 
HETATM   12  N   UNL     1     -10.132  10.712  65.624  1.00  0.00    -0.262 NA 
HETATM   13  C   UNL     1     -11.740  12.622  64.618  1.00  0.00    -0.357 A  
HETATM   14  C   UNL     1     -11.477  12.570  65.974  1.00  0.00    -0.377 A  
HETATM   15  N   UNL     1     -12.215  13.595  66.503  1.00  0.00    -0.419 NA 
HETATM   16  H   UNL     1     -12.263  13.854  67.488  1.00  0.00     0.000 HD 
HETATM   17  C   UNL     1     -12.875  14.208  65.475  1.00  0.00    -0.376 A  
HETATM   18  N   UNL     1     -12.603  13.645  64.319  1.00  0.00    -0.664 NA 
ENDBRANCH   7   9
ENDBRANCH   1   7
TORSDOF 3
ENDMDL
MODEL       63
REMARK 921   NORMALIZED FREE ENERGY PREDICTED BY IDOCK:   -4.86 KCAL/MOL
REMARK 922        TOTAL FREE ENERGY PREDICTED BY IDOCK:   -5.99 KCAL/MOL
REMARK 923 INTER-LIGAND FREE ENERGY PREDICTED BY IDOCK:   -5.85 KCAL/MOL
REMARK 924 INTRA-LIGAND FREE ENERGY PREDICTED BY IDOCK:   -0.13 KCAL/MOL
REMARK 927      BINDING AFFINITY PREDICTED BY RF-SCORE:    0.00 PKD
ROOT
HETATM    1  C   UNL     1     -11.017   9.949  69.739  1.00  0.00    -0.268 C  
ENDROOT
BRANCH   1   2
HETATM    2  C   UNL     1     -11.210   8.519  70.113  1.00  0.00    -0.136 A  
HETATM    3  O   UNL     1     -11.993   8.268  71.205  1.00  0.00    -0.285 OA 
HETATM    4  C   UNL     1     -10.778   7.330  69.562  1.00  0.00    -0.244 A  
HETATM    5  C   UNL     1     -12.078   6.917  71.328  1.00  0.00    -0.373 A  
HETATM    6  C   UNL     1     -11.347   6.296  70.342  1.00  0.00    -0.440 A  
ENDBRANCH   1   2
BRANCH   1   7
HETATM    7  N   UNL     1     -12.045  10.521  68.877  1.00  0.00    -0.747 NA 
HETATM    8  H   UNL     1     -12.847   9.968  68.576  1.00  0.00     0.000 HD 
BRANCH   7   9
HETATM    9  C   UNL     1     -11.896  11.842  68.480  1.00  0.00    -0.303 A  
HETATM   10  C   UNL     1     -11.643  13.503  66.868  1.00  0.00    -0.363 A  
HETATM   11  N   UNL     1     -11.696  14.561  67.685  1.00  0.00    -0.373 NA 
HETATM   12  N   UNL     1     -11.738  12.191  67.185  1.00  0.00    -0.538 NA 
HETATM   13  C   UNL     1     -11.872  14.203  68.968  1.00  0.00    -0.348 A  
HETATM   14  C   UNL     1     -11.965  12.888  69.386  1.00  0.00    -0.269 A  
HETATM   15  N   UNL     1     -12.158  12.974  70.738  1.00  0.00    -0.497 NA 
HETATM   16  H   UNL     1     -12.271  12.190  71.380  1.00  0.00     0.000 HD 
HETATM   17  C   UNL     1     -12.173  14.299  71.075  1.00  0.00    -0.356 A  
HETATM   18  N   UNL     1     -11.995  15.069  70.024  1.00  0.00    -0.311 NA 
ENDBRANCH   7   9
ENDBRANCH   1   7
TORSDOF 3
ENDMDL
MODEL       64
REMARK 921   NORMALIZED FREE ENERGY PREDICTED BY IDOCK:   -4.85 KCAL/MOL
REMARK 922        TOTAL FREE ENERGY PREDICTED BY IDOCK:   -5.98 KCAL/MOL
REMARK 923 INTER-LIGAND FREE ENERGY PREDICTED BY IDOCK:   -5.69 KCAL/MOL
REMARK 924 INTRA-LIGAND FREE ENERGY PREDICTED BY IDOCK:   -0.30 KCAL/MOL
REMARK 927      BINDING AFFINITY PREDICTED BY RF-SCORE:    0.00 PKD
ROOT
HETATM    1  C   UNL     1     -11.531  12.080  68.874  1.00  0.00    -0.301 C  
ENDROOT
BRANCH   1   2
HETATM    2  C   UNL     1     -12.156  11.651  70.158  1.00  0.00    -0.333 A  
HETATM    3  O   UNL     1     -12.602  12.641  70.987  1.00  0.00    -0.361 OA 
HETATM    4  C   UNL     1     -12.424  10.417  70.713  1.00  0.00    -0.461 A  
HETATM    5  C   UNL     1     -13.178  12.032  72.056  1.00  0.00    -0.375 A  
HETATM    6  C   UNL     1     -13.093  10.664  71.936  1.00  0.00    -0.563 A  
ENDBRANCH   1   2
BRANCH   1   7
HETATM    7  N   UNL     1     -10.375  12.961  68.996  1.00  0.00    -0.436 NA 
HETATM    8  H   UNL     1      -9.485  12.614  69.353  1.00  0.00     0.000 HD 
BRANCH   7   9
HETATM    9  C   UNL     1     -10.525  14.285  68.612  1.00  0.00    -0.249 A  
HETATM   10  C   UNL     1     -10.704  16.563  69.058  1.00  0.00    -0.332 A  
HETATM   11  N   UNL     1     -10.731  16.996  67.792  1.00  0.00    -0.342 NA 
HETATM   12  N   UNL     1     -10.602  15.291  69.509  1.00  0.00    -0.253 NA 
HETATM   13  C   UNL     1     -10.635  15.988  66.909  1.00  0.00    -0.300 A  
HETATM   14  C   UNL     1     -10.542  14.659  67.277  1.00  0.00    -0.284 A  
HETATM   15  N   UNL     1     -10.444  13.983  66.091  1.00  0.00    -0.290 NA 
HETATM   16  H   UNL     1     -10.358  12.974  65.980  1.00  0.00     0.000 HD 
HETATM   17  C   UNL     1     -10.481  14.905  65.081  1.00  0.00    -0.417 A  
HETATM   18  N   UNL     1     -10.604  16.129  65.546  1.00  0.00    -0.388 NA 
ENDBRANCH   7   9
ENDBRANCH   1   7
TORSDOF 3
ENDMDL
MODEL       65
REMARK 921   NORMALIZED FREE ENERGY PREDICTED BY IDOCK:   -4.79 KCAL/MOL
REMARK 922        TOTAL FREE ENERGY PREDICTED BY IDOCK:   -5.91 KCAL/MOL
REMARK 923 INTER-LIGAND FREE ENERGY PREDICTED BY IDOCK:   -5.60 KCAL/MOL
REMARK 924 INTRA-LIGAND FREE ENERGY PREDICTED BY IDOCK:   -0.31 KCAL/MOL
REMARK 927      BINDING AFFINITY PREDICTED BY RF-SCORE:    0.00 PKD
ROOT
HETATM    1  C   UNL     1      -9.428  10.192  64.854  1.00  0.00    -0.289 C  
ENDROOT
BRANCH   1   2
HETATM    2  C   UNL     1      -9.510   9.547  66.196  1.00  0.00    -0.221 A  
HETATM    3  O   UNL     1     -10.412  10.071  67.078  1.00  0.00    -0.237 OA 
HETATM    4  C   UNL     1      -8.868   8.468  66.767  1.00  0.00    -0.158 A  
HETATM    5  C   UNL     1     -10.361   9.306  68.198  1.00  0.00    -0.215 A  
HETATM    6  C   UNL     1      -9.425   8.307  68.058  1.00  0.00    -0.153 A  
ENDBRANCH   1   2
BRANCH   1   7
HETATM    7  N   UNL     1      -9.232  11.637  64.859  1.00  0.00    -0.420 NA 
HETATM    8  H   UNL     1      -8.339  12.047  65.135  1.00  0.00     0.000 HD 
BRANCH   7   9
HETATM    9  C   UNL     1     -10.297  12.438  64.476  1.00  0.00    -0.325 A  
HETATM   10  C   UNL     1     -12.386  12.780  63.506  1.00  0.00    -0.467 A  
HETATM   11  N   UNL     1     -12.510  14.081  63.793  1.00  0.00    -0.796 NA 
HETATM   12  N   UNL     1     -11.363  11.947  63.808  1.00  0.00    -0.418 NA 
HETATM   13  C   UNL     1     -11.453  14.554  64.473  1.00  0.00    -0.343 A  
HETATM   14  C   UNL     1     -10.358  13.781  64.812  1.00  0.00    -0.398 A  
HETATM   15  N   UNL     1      -9.540  14.634  65.503  1.00  0.00    -0.520 NA 
HETATM   16  H   UNL     1      -8.635  14.401  65.909  1.00  0.00     0.000 HD 
HETATM   17  C   UNL     1     -10.155  15.854  65.551  1.00  0.00    -0.320 A  
HETATM   18  N   UNL     1     -11.314  15.839  64.930  1.00  0.00    -0.324 NA 
ENDBRANCH   7   9
ENDBRANCH   1   7
TORSDOF 3
ENDMDL
MODEL       66
REMARK 921   NORMALIZED FREE ENERGY PREDICTED BY IDOCK:   -4.77 KCAL/MOL
REMARK 922        TOTAL FREE ENERGY PREDICTED BY IDOCK:   -5.88 KCAL/MOL
REMARK 923 INTER-LIGAND FREE ENERGY PREDICTED BY IDOCK:   -5.66 KCAL/MOL
REMARK 924 INTRA-LIGAND FREE ENERGY PREDICTED BY IDOCK:   -0.23 KCAL/MOL
REMARK 927      BINDING AFFINITY PREDICTED BY RF-SCORE:    0.00 PKD
ROOT
HETATM    1  C   UNL     1     -10.572   9.907  67.779  1.00  0.00    -0.261 C  
ENDROOT
BRANCH   1   2
HETATM    2  C   UNL     1     -10.624   8.424  67.924  1.00  0.00    -0.154 A  
HETATM    3  O   UNL     1     -10.689   7.693  66.770  1.00  0.00    -0.318 OA 
HETATM    4  C   UNL     1     -10.591   7.578  69.013  1.00  0.00    -0.190 A  
HETATM    5  C   UNL     1     -10.669   6.384  67.130  1.00  0.00    -0.361 A  
HETATM    6  C   UNL     1     -10.611   6.260  68.499  1.00  0.00    -0.315 A  
ENDBRANCH   1   2
BRANCH   1   7
HETATM    7  N   UNL     1     -11.822  10.611  68.037  1.00  0.00    -0.767 NA 
HETATM    8  H   UNL     1     -12.673  10.103  68.278  1.00  0.00     0.000 HD 
BRANCH   7   9
HETATM    9  C   UNL     1     -11.818  11.995  67.945  1.00  0.00    -0.250 A  
HETATM   10  C   UNL     1     -11.569  14.129  68.842  1.00  0.00    -0.310 A  
HETATM   11  N   UNL     1     -11.716  14.823  67.708  1.00  0.00    -0.355 NA 
HETATM   12  N   UNL     1     -11.602  12.788  69.017  1.00  0.00    -0.297 NA 
HETATM   13  C   UNL     1     -11.913  14.024  66.646  1.00  0.00    -0.445 A  
HETATM   14  C   UNL     1     -11.975  12.646  66.732  1.00  0.00    -0.292 A  
HETATM   15  N   UNL     1     -12.162  12.233  65.440  1.00  0.00    -0.558 NA 
HETATM   16  H   UNL     1     -12.253  11.267  65.125  1.00  0.00     0.000 HD 
HETATM   17  C   UNL     1     -12.205  13.346  64.648  1.00  0.00    -0.407 A  
HETATM   18  N   UNL     1     -12.063  14.448  65.351  1.00  0.00    -0.376 NA 
ENDBRANCH   7   9
ENDBRANCH   1   7
TORSDOF 3
ENDMDL
MODEL       67
REMARK 921   NORMALIZED FREE ENERGY PREDICTED BY IDOCK:   -4.76 KCAL/MOL
REMARK 922        TOTAL FREE ENERGY PREDICTED BY IDOCK:   -5.87 KCAL/MOL
REMARK 923 INTER-LIGAND FREE ENERGY PREDICTED BY IDOCK:   -5.64 KCAL/MOL
REMARK 924 INTRA-LIGAND FREE ENERGY PREDICTED BY IDOCK:   -0.23 KCAL/MOL
REMARK 927      BINDING AFFINITY PREDICTED BY RF-SCORE:    0.00 PKD
ROOT
HETATM    1  C   UNL     1     -10.978  10.124  69.829  1.00  0.00    -0.280 C  
ENDROOT
BRANCH   1   2
HETATM    2  C   UNL     1     -11.516   9.020  70.673  1.00  0.00    -0.248 A  
HETATM    3  O   UNL     1     -10.961   7.783  70.497  1.00  0.00    -0.239 OA 
HETATM    4  C   UNL     1     -12.477   8.967  71.662  1.00  0.00    -0.403 A  
HETATM    5  C   UNL     1     -11.553   6.953  71.395  1.00  0.00    -0.299 A  
HETATM    6  C   UNL     1     -12.493   7.632  72.134  1.00  0.00    -0.249 A  
ENDBRANCH   1   2
BRANCH   1   7
HETATM    7  N   UNL     1     -11.906  10.684  68.853  1.00  0.00    -0.603 NA 
HETATM    8  H   UNL     1     -12.538  10.084  68.324  1.00  0.00     0.000 HD 
BRANCH   7   9
HETATM    9  C   UNL     1     -11.902  12.059  68.668  1.00  0.00    -0.311 A  
HETATM   10  C   UNL     1     -11.812  14.252  69.444  1.00  0.00    -0.326 A  
HETATM   11  N   UNL     1     -11.794  14.866  68.255  1.00  0.00    -0.310 NA 
HETATM   12  N   UNL     1     -11.857  12.925  69.703  1.00  0.00    -0.326 NA 
HETATM   13  C   UNL     1     -11.820  13.995  67.233  1.00  0.00    -0.411 A  
HETATM   14  C   UNL     1     -11.881  12.624  67.403  1.00  0.00    -0.328 A  
HETATM   15  N   UNL     1     -11.867  12.123  66.129  1.00  0.00    -0.582 NA 
HETATM   16  H   UNL     1     -11.900  11.137  65.871  1.00  0.00     0.000 HD 
HETATM   17  C   UNL     1     -11.801  13.180  65.265  1.00  0.00    -0.365 A  
HETATM   18  N   UNL     1     -11.778  14.329  65.904  1.00  0.00    -0.363 NA 
ENDBRANCH   7   9
ENDBRANCH   1   7
TORSDOF 3
ENDMDL
MODEL       68
REMARK 921   NORMALIZED FREE ENERGY PREDICTED BY IDOCK:   -4.75 KCAL/MOL
REMARK 922        TOTAL FREE ENERGY PREDICTED BY IDOCK:   -5.87 KCAL/MOL
REMARK 923 INTER-LIGAND FREE ENERGY PREDICTED BY IDOCK:   -5.52 KCAL/MOL
REMARK 924 INTRA-LIGAND FREE ENERGY PREDICTED BY IDOCK:   -0.34 KCAL/MOL
REMARK 927      BINDING AFFINITY PREDICTED BY RF-SCORE:    0.00 PKD
ROOT
HETATM    1  C   UNL     1     -12.098  12.600  65.753  1.00  0.00    -0.423 C  
ENDROOT
BRANCH   1   2
HETATM    2  C   UNL     1     -11.036  11.869  65.004  1.00  0.00    -0.305 A  
HETATM    3  O   UNL     1     -11.049  11.987  63.643  1.00  0.00    -0.383 OA 
HETATM    4  C   UNL     1      -9.973  11.083  65.397  1.00  0.00    -0.313 A  
HETATM    5  C   UNL     1      -9.976  11.297  63.176  1.00  0.00    -0.365 A  
HETATM    6  C   UNL     1      -9.284  10.721  64.215  1.00  0.00    -0.246 A  
ENDBRANCH   1   2
BRANCH   1   7
HETATM    7  N   UNL     1     -12.183  14.033  65.493  1.00  0.00    -0.414 NA 
HETATM    8  H   UNL     1     -12.885  14.411  64.858  1.00  0.00     0.000 HD 
BRANCH   7   9
HETATM    9  C   UNL     1     -11.278  14.864  66.136  1.00  0.00    -0.325 A  
HETATM   10  C   UNL     1      -9.404  16.246  66.179  1.00  0.00    -0.339 A  
HETATM   11  N   UNL     1      -9.497  16.641  67.453  1.00  0.00    -0.230 NA 
HETATM   12  N   UNL     1     -10.221  15.409  65.497  1.00  0.00    -0.361 NA 
HETATM   13  C   UNL     1     -10.562  16.107  68.074  1.00  0.00    -0.304 A  
HETATM   14  C   UNL     1     -11.441  15.233  67.462  1.00  0.00    -0.265 A  
HETATM   15  N   UNL     1     -12.372  14.956  68.426  1.00  0.00    -0.578 NA 
HETATM   16  H   UNL     1     -13.178  14.340  68.324  1.00  0.00     0.000 HD 
HETATM   17  C   UNL     1     -12.029  15.653  69.551  1.00  0.00    -0.345 A  
HETATM   18  N   UNL     1     -10.932  16.355  69.371  1.00  0.00    -0.327 NA 
ENDBRANCH   7   9
ENDBRANCH   1   7
TORSDOF 3
ENDMDL
MODEL       69
REMARK 921   NORMALIZED FREE ENERGY PREDICTED BY IDOCK:   -4.74 KCAL/MOL
REMARK 922        TOTAL FREE ENERGY PREDICTED BY IDOCK:   -5.85 KCAL/MOL
REMARK 923 INTER-LIGAND FREE ENERGY PREDICTED BY IDOCK:   -5.57 KCAL/MOL
REMARK 924 INTRA-LIGAND FREE ENERGY PREDICTED BY IDOCK:   -0.28 KCAL/MOL
REMARK 927      BINDING AFFINITY PREDICTED BY RF-SCORE:    0.00 PKD
ROOT
HETATM    1  C   UNL     1     -10.884  15.158  65.351  1.00  0.00    -0.381 C  
ENDROOT
BRANCH   1   2
HETATM    2  C   UNL     1     -11.327  13.943  64.608  1.00  0.00    -0.375 A  
HETATM    3  O   UNL     1     -10.357  13.226  63.964  1.00  0.00    -0.354 OA 
HETATM    4  C   UNL     1     -12.552  13.333  64.439  1.00  0.00    -0.282 A  
HETATM    5  C   UNL     1     -10.967  12.146  63.410  1.00  0.00    -0.412 A  
HETATM    6  C   UNL     1     -12.317  12.167  63.672  1.00  0.00    -0.673 A  
ENDBRANCH   1   2
BRANCH   1   7
HETATM    7  N   UNL     1     -10.106  14.911  66.559  1.00  0.00    -0.262 NA 
HETATM    8  H   UNL     1      -9.222  15.392  66.723  1.00  0.00     0.000 HD 
BRANCH   7   9
HETATM    9  C   UNL     1     -10.606  14.002  67.479  1.00  0.00    -0.260 A  
HETATM   10  C   UNL     1     -10.773  11.871  68.403  1.00  0.00    -0.220 A  
HETATM   11  N   UNL     1     -11.566  12.181  69.435  1.00  0.00    -0.302 NA 
HETATM   12  N   UNL     1     -10.281  12.691  67.446  1.00  0.00    -0.216 NA 
HETATM   13  C   UNL     1     -11.868  13.489  69.469  1.00  0.00    -0.334 A  
HETATM   14  C   UNL     1     -11.423  14.398  68.526  1.00  0.00    -0.297 A  
HETATM   15  N   UNL     1     -11.935  15.598  68.942  1.00  0.00    -0.560 NA 
HETATM   16  H   UNL     1     -11.806  16.498  68.480  1.00  0.00     0.000 HD 
HETATM   17  C   UNL     1     -12.650  15.373  70.085  1.00  0.00    -0.293 A  
HETATM   18  N   UNL     1     -12.634  14.103  70.426  1.00  0.00    -0.347 NA 
ENDBRANCH   7   9
ENDBRANCH   1   7
TORSDOF 3
ENDMDL
MODEL       70
REMARK 921   NORMALIZED FREE ENERGY PREDICTED BY IDOCK:   -4.72 KCAL/MOL
REMARK 922        TOTAL FREE ENERGY PREDICTED BY IDOCK:   -5.82 KCAL/MOL
REMARK 923 INTER-LIGAND FREE ENERGY PREDICTED BY IDOCK:   -5.56 KCAL/MOL
REMARK 924 INTRA-LIGAND FREE ENERGY PREDICTED BY IDOCK:   -0.27 KCAL/MOL
REMARK 927      BINDING AFFINITY PREDICTED BY RF-SCORE:    0.00 PKD
ROOT
HETATM    1  C   UNL     1     -10.488  12.041  68.116  1.00  0.00    -0.202 C  
ENDROOT
BRANCH   1   2
HETATM    2  C   UNL     1     -10.254  10.648  67.639  1.00  0.00    -0.194 A  
HETATM    3  O   UNL     1     -10.161   9.676  68.595  1.00  0.00    -0.167 OA 
HETATM    4  C   UNL     1     -10.132  10.086  66.385  1.00  0.00    -0.307 A  
HETATM    5  C   UNL     1     -10.007   8.494  67.943  1.00  0.00    -0.181 A  
HETATM    6  C   UNL     1      -9.982   8.692  66.583  1.00  0.00    -0.357 A  
ENDBRANCH   1   2
BRANCH   1   7
HETATM    7  N   UNL     1     -11.768  12.631  67.742  1.00  0.00    -0.350 NA 
HETATM    8  H   UNL     1     -12.556  12.631  68.389  1.00  0.00     0.000 HD 
BRANCH   7   9
HETATM    9  C   UNL     1     -11.880  13.191  66.479  1.00  0.00    -0.400 A  
HETATM   10  C   UNL     1     -12.650  13.207  64.281  1.00  0.00    -0.209 A  
HETATM   11  N   UNL     1     -12.178  14.408  63.930  1.00  0.00    -0.657 NA 
HETATM   12  N   UNL     1     -12.545  12.579  65.475  1.00  0.00    -0.573 NA 
HETATM   13  C   UNL     1     -11.534  15.016  64.941  1.00  0.00    -0.399 A  
HETATM   14  C   UNL     1     -11.366  14.445  66.189  1.00  0.00    -0.350 A  
HETATM   15  N   UNL     1     -10.688  15.393  66.908  1.00  0.00    -0.311 NA 
HETATM   16  H   UNL     1     -10.393  15.312  67.880  1.00  0.00     0.000 HD 
HETATM   17  C   UNL     1     -10.479  16.467  66.089  1.00  0.00    -0.294 A  
HETATM   18  N   UNL     1     -10.974  16.266  64.887  1.00  0.00    -0.608 NA 
ENDBRANCH   7   9
ENDBRANCH   1   7
TORSDOF 3
ENDMDL
MODEL       71
REMARK 921   NORMALIZED FREE ENERGY PREDICTED BY IDOCK:   -4.69 KCAL/MOL
REMARK 922        TOTAL FREE ENERGY PREDICTED BY IDOCK:   -5.79 KCAL/MOL
REMARK 923 INTER-LIGAND FREE ENERGY PREDICTED BY IDOCK:   -5.53 KCAL/MOL
REMARK 924 INTRA-LIGAND FREE ENERGY PREDICTED BY IDOCK:   -0.26 KCAL/MOL
REMARK 927      BINDING AFFINITY PREDICTED BY RF-SCORE:    0.00 PKD
ROOT
HETATM    1  C   UNL     1     -11.999  11.326  69.302  1.00  0.00    -0.342 C  
ENDROOT
BRANCH   1   2
HETATM    2  C   UNL     1     -11.462  10.311  70.253  1.00  0.00    -0.317 A  
HETATM    3  O   UNL     1     -10.111  10.101  70.233  1.00  0.00    -0.227 OA 
HETATM    4  C   UNL     1     -12.046   9.516  71.217  1.00  0.00    -0.443 A  
HETATM    5  C   UNL     1      -9.838   9.192  71.205  1.00  0.00    -0.301 A  
HETATM    6  C   UNL     1     -10.995   8.800  71.838  1.00  0.00    -0.435 A  
ENDBRANCH   1   2
BRANCH   1   7
HETATM    7  N   UNL     1     -11.793  11.038  67.887  1.00  0.00    -0.696 NA 
HETATM    8  H   UNL     1     -11.978  10.110  67.507  1.00  0.00     0.000 HD 
BRANCH   7   9
HETATM    9  C   UNL     1     -11.337  12.066  67.075  1.00  0.00    -0.336 A  
HETATM   10  C   UNL     1     -11.520  13.498  65.249  1.00  0.00    -0.299 A  
HETATM   11  N   UNL     1     -10.433  14.240  65.488  1.00  0.00    -0.326 NA 
HETATM   12  N   UNL     1     -12.002  12.458  65.968  1.00  0.00    -0.602 NA 
HETATM   13  C   UNL     1      -9.789  13.853  66.602  1.00  0.00    -0.284 A  
HETATM   14  C   UNL     1     -10.201  12.794  67.390  1.00  0.00    -0.222 A  
HETATM   15  N   UNL     1      -9.293  12.759  68.414  1.00  0.00    -0.324 NA 
HETATM   16  H   UNL     1      -9.288  12.099  69.190  1.00  0.00     0.000 HD 
HETATM   17  C   UNL     1      -8.394  13.769  68.209  1.00  0.00    -0.161 A  
HETATM   18  N   UNL     1      -8.664  14.446  67.115  1.00  0.00    -0.216 NA 
ENDBRANCH   7   9
ENDBRANCH   1   7
TORSDOF 3
ENDMDL
MODEL       72
REMARK 921   NORMALIZED FREE ENERGY PREDICTED BY IDOCK:   -4.68 KCAL/MOL
REMARK 922        TOTAL FREE ENERGY PREDICTED BY IDOCK:   -5.78 KCAL/MOL
REMARK 923 INTER-LIGAND FREE ENERGY PREDICTED BY IDOCK:   -5.19 KCAL/MOL
REMARK 924 INTRA-LIGAND FREE ENERGY PREDICTED BY IDOCK:   -0.60 KCAL/MOL
REMARK 927      BINDING AFFINITY PREDICTED BY RF-SCORE:    0.00 PKD
ROOT
HETATM    1  C   UNL     1     -13.220  10.013  71.736  1.00  0.00    -0.437 C  
ENDROOT
BRANCH   1   2
HETATM    2  C   UNL     1     -13.032  11.478  71.532  1.00  0.00    -0.380 A  
HETATM    3  O   UNL     1     -12.244  11.858  70.482  1.00  0.00    -0.362 OA 
HETATM    4  C   UNL     1     -13.521  12.593  72.180  1.00  0.00    -0.561 A  
HETATM    5  C   UNL     1     -12.258  13.216  70.449  1.00  0.00    -0.316 A  
HETATM    6  C   UNL     1     -13.027  13.716  71.474  1.00  0.00    -0.443 A  
ENDBRANCH   1   2
BRANCH   1   7
HETATM    7  N   UNL     1     -12.015   9.261  72.066  1.00  0.00    -0.352 NA 
HETATM    8  H   UNL     1     -11.582   9.337  72.986  1.00  0.00     0.000 HD 
BRANCH   7   9
HETATM    9  C   UNL     1     -11.475   8.439  71.088  1.00  0.00    -0.274 A  
HETATM   10  C   UNL     1     -11.387   6.460  69.865  1.00  0.00    -0.434 A  
HETATM   11  N   UNL     1     -10.418   6.814  69.013  1.00  0.00    -0.194 NA 
HETATM   12  N   UNL     1     -11.933   7.188  70.866  1.00  0.00    -0.338 NA 
HETATM   13  C   UNL     1      -9.983   8.066  69.231  1.00  0.00    -0.191 A  
HETATM   14  C   UNL     1     -10.472   8.877  70.238  1.00  0.00    -0.210 A  
HETATM   15  N   UNL     1      -9.784  10.052  70.094  1.00  0.00    -0.394 NA 
HETATM   16  H   UNL     1      -9.889  10.885  70.672  1.00  0.00     0.000 HD 
HETATM   17  C   UNL     1      -8.929   9.907  69.037  1.00  0.00    -0.160 A  
HETATM   18  N   UNL     1      -9.022   8.712  68.497  1.00  0.00    -0.139 NA 
ENDBRANCH   7   9
ENDBRANCH   1   7
TORSDOF 3
ENDMDL
MODEL       73
REMARK 921   NORMALIZED FREE ENERGY PREDICTED BY IDOCK:   -4.68 KCAL/MOL
REMARK 922        TOTAL FREE ENERGY PREDICTED BY IDOCK:   -5.78 KCAL/MOL
REMARK 923 INTER-LIGAND FREE ENERGY PREDICTED BY IDOCK:   -5.50 KCAL/MOL
REMARK 924 INTRA-LIGAND FREE ENERGY PREDICTED BY IDOCK:   -0.28 KCAL/MOL
REMARK 927      BINDING AFFINITY PREDICTED BY RF-SCORE:    0.00 PKD
ROOT
HETATM    1  C   UNL     1     -11.399  11.761  67.065  1.00  0.00    -0.321 C  
ENDROOT
BRANCH   1   2
HETATM    2  C   UNL     1     -11.479  12.128  65.623  1.00  0.00    -0.355 A  
HETATM    3  O   UNL     1     -10.359  11.914  64.869  1.00  0.00    -0.265 OA 
HETATM    4  C   UNL     1     -12.488  12.636  64.831  1.00  0.00    -0.564 A  
HETATM    5  C   UNL     1     -10.670  12.261  63.593  1.00  0.00    -0.467 A  
HETATM    6  C   UNL     1     -11.967  12.712  63.517  1.00  0.00    -0.630 A  
ENDBRANCH   1   2
BRANCH   1   7
HETATM    7  N   UNL     1     -10.514  12.585  67.880  1.00  0.00    -0.212 NA 
HETATM    8  H   UNL     1      -9.503  12.455  67.856  1.00  0.00     0.000 HD 
BRANCH   7   9
HETATM    9  C   UNL     1     -11.091  13.552  68.690  1.00  0.00    -0.269 A  
HETATM   10  C   UNL     1     -12.531  14.244  70.384  1.00  0.00    -0.362 A  
HETATM   11  N   UNL     1     -12.184  15.536  70.403  1.00  0.00    -0.388 NA 
HETATM   12  N   UNL     1     -12.045  13.255  69.598  1.00  0.00    -0.297 NA 
HETATM   13  C   UNL     1     -11.222  15.816  69.508  1.00  0.00    -0.317 A  
HETATM   14  C   UNL     1     -10.677  14.874  68.656  1.00  0.00    -0.250 A  
HETATM   15  N   UNL     1      -9.736  15.566  67.941  1.00  0.00    -0.211 NA 
HETATM   16  H   UNL     1      -9.132  15.182  67.214  1.00  0.00     0.000 HD 
HETATM   17  C   UNL     1      -9.749  16.861  68.377  1.00  0.00    -0.263 A  
HETATM   18  N   UNL     1     -10.645  17.046  69.322  1.00  0.00    -0.323 NA 
ENDBRANCH   7   9
ENDBRANCH   1   7
TORSDOF 3
ENDMDL
MODEL       74
REMARK 921   NORMALIZED FREE ENERGY PREDICTED BY IDOCK:   -4.68 KCAL/MOL
REMARK 922        TOTAL FREE ENERGY PREDICTED BY IDOCK:   -5.78 KCAL/MOL
REMARK 923 INTER-LIGAND FREE ENERGY PREDICTED BY IDOCK:   -5.49 KCAL/MOL
REMARK 924 INTRA-LIGAND FREE ENERGY PREDICTED BY IDOCK:   -0.29 KCAL/MOL
REMARK 927      BINDING AFFINITY PREDICTED BY RF-SCORE:    0.00 PKD
ROOT
HETATM    1  C   UNL     1     -12.148  11.006  70.048  1.00  0.00    -0.364 C  
ENDROOT
BRANCH   1   2
HETATM    2  C   UNL     1     -12.534  12.260  70.755  1.00  0.00    -0.265 A  
HETATM    3  O   UNL     1     -13.342  12.128  71.850  1.00  0.00    -0.463 OA 
HETATM    4  C   UNL     1     -12.221  13.590  70.562  1.00  0.00    -0.433 A  
HETATM    5  C   UNL     1     -13.518  13.372  72.365  1.00  0.00    -0.584 A  
HETATM    6  C   UNL     1     -12.850  14.306  71.608  1.00  0.00    -0.424 A  
ENDBRANCH   1   2
BRANCH   1   7
HETATM    7  N   UNL     1     -12.759   9.782  70.553  1.00  0.00    -0.530 NA 
HETATM    8  H   UNL     1     -13.768   9.641  70.509  1.00  0.00     0.000 HD 
BRANCH   7   9
HETATM    9  C   UNL     1     -11.925   8.816  71.094  1.00  0.00    -0.285 A  
HETATM   10  C   UNL     1     -11.055   7.593  72.874  1.00  0.00    -0.393 A  
HETATM   11  N   UNL     1     -10.281   6.763  72.166  1.00  0.00    -0.193 NA 
HETATM   12  N   UNL     1     -11.860   8.582  72.423  1.00  0.00    -0.384 NA 
HETATM   13  C   UNL     1     -10.366   6.993  70.845  1.00  0.00    -0.198 A  
HETATM   14  C   UNL     1     -11.151   7.989  70.295  1.00  0.00    -0.224 A  
HETATM   15  N   UNL     1     -10.965   7.862  68.945  1.00  0.00    -0.424 NA 
HETATM   16  H   UNL     1     -11.396   8.438  68.222  1.00  0.00     0.000 HD 
HETATM   17  C   UNL     1     -10.100   6.824  68.738  1.00  0.00    -0.160 A  
HETATM   18  N   UNL     1      -9.714   6.281  69.872  1.00  0.00    -0.165 NA 
ENDBRANCH   7   9
ENDBRANCH   1   7
TORSDOF 3
ENDMDL
MODEL       75
REMARK 921   NORMALIZED FREE ENERGY PREDICTED BY IDOCK:   -4.61 KCAL/MOL
REMARK 922        TOTAL FREE ENERGY PREDICTED BY IDOCK:   -5.70 KCAL/MOL
REMARK 923 INTER-LIGAND FREE ENERGY PREDICTED BY IDOCK:   -5.46 KCAL/MOL
REMARK 924 INTRA-LIGAND FREE ENERGY PREDICTED BY IDOCK:   -0.24 KCAL/MOL
REMARK 927      BINDING AFFINITY PREDICTED BY RF-SCORE:    0.00 PKD
ROOT
HETATM    1  C   UNL     1     -12.280  14.761  69.705  1.00  0.00    -0.270 C  
ENDROOT
BRANCH   1   2
HETATM    2  C   UNL     1     -12.537  15.184  71.111  1.00  0.00    -0.367 A  
HETATM    3  O   UNL     1     -13.845  15.280  71.497  1.00  0.00    -0.460 OA 
HETATM    4  C   UNL     1     -11.711  15.488  72.173  1.00  0.00    -0.566 A  
HETATM    5  C   UNL     1     -13.845  15.620  72.812  1.00  0.00    -0.545 A  
HETATM    6  C   UNL     1     -12.557  15.761  73.274  1.00  0.00    -0.627 A  
ENDBRANCH   1   2
BRANCH   1   7
HETATM    7  N   UNL     1     -10.981  14.146  69.456  1.00  0.00    -0.410 NA 
HETATM    8  H   UNL     1     -10.624  13.408  70.062  1.00  0.00     0.000 HD 
BRANCH   7   9
HETATM    9  C   UNL     1     -10.247  14.598  68.370  1.00  0.00    -0.235 A  
HETATM   10  C   UNL     1     -10.024  15.730  66.348  1.00  0.00    -0.277 A  
HETATM   11  N   UNL     1      -8.700  15.597  66.208  1.00  0.00    -0.320 NA 
HETATM   12  N   UNL     1     -10.812  15.283  67.353  1.00  0.00    -0.298 NA 
HETATM   13  C   UNL     1      -8.146  14.931  67.234  1.00  0.00    -0.208 A  
HETATM   14  C   UNL     1      -8.873  14.426  68.296  1.00  0.00    -0.182 A  
HETATM   15  N   UNL     1      -7.934  13.851  69.109  1.00  0.00    -0.338 NA 
HETATM   16  H   UNL     1      -8.114  13.378  69.994  1.00  0.00     0.000 HD 
HETATM   17  C   UNL     1      -6.711  14.026  68.523  1.00  0.00    -0.099 A  
HETATM   18  N   UNL     1      -6.808  14.671  67.382  1.00  0.00    -0.261 NA 
ENDBRANCH   7   9
ENDBRANCH   1   7
TORSDOF 3
ENDMDL
MODEL       76
REMARK 921   NORMALIZED FREE ENERGY PREDICTED BY IDOCK:   -4.57 KCAL/MOL
REMARK 922        TOTAL FREE ENERGY PREDICTED BY IDOCK:   -5.65 KCAL/MOL
REMARK 923 INTER-LIGAND FREE ENERGY PREDICTED BY IDOCK:   -5.41 KCAL/MOL
REMARK 924 INTRA-LIGAND FREE ENERGY PREDICTED BY IDOCK:   -0.25 KCAL/MOL
REMARK 927      BINDING AFFINITY PREDICTED BY RF-SCORE:    0.00 PKD
ROOT
HETATM    1  C   UNL     1     -10.330  10.845  67.503  1.00  0.00    -0.202 C  
ENDROOT
BRANCH   1   2
HETATM    2  C   UNL     1     -10.358   9.589  68.304  1.00  0.00    -0.207 A  
HETATM    3  O   UNL     1     -10.761   9.696  69.606  1.00  0.00    -0.220 OA 
HETATM    4  C   UNL     1     -10.082   8.271  68.006  1.00  0.00    -0.243 A  
HETATM    5  C   UNL     1     -10.766   8.440  70.123  1.00  0.00    -0.236 A  
HETATM    6  C   UNL     1     -10.354   7.528  69.180  1.00  0.00    -0.215 A  
ENDBRANCH   1   2
BRANCH   1   7
HETATM    7  N   UNL     1     -11.545  11.651  67.548  1.00  0.00    -0.531 NA 
HETATM    8  H   UNL     1     -12.328  11.389  68.145  1.00  0.00     0.000 HD 
BRANCH   7   9
HETATM    9  C   UNL     1     -11.601  12.785  66.751  1.00  0.00    -0.370 A  
HETATM   10  C   UNL     1     -11.251  15.051  66.347  1.00  0.00    -0.310 A  
HETATM   11  N   UNL     1     -11.634  15.070  65.065  1.00  0.00    -0.357 NA 
HETATM   12  N   UNL     1     -11.209  13.998  67.196  1.00  0.00    -0.303 NA 
HETATM   13  C   UNL     1     -12.005  13.855  64.628  1.00  0.00    -0.419 A  
HETATM   14  C   UNL     1     -12.008  12.727  65.427  1.00  0.00    -0.436 A  
HETATM   15  N   UNL     1     -12.426  11.722  64.596  1.00  0.00    -0.155 NA 
HETATM   16  H   UNL     1     -12.545  10.743  64.851  1.00  0.00     0.000 HD 
HETATM   17  C   UNL     1     -12.653  12.268  63.364  1.00  0.00    -0.427 A  
HETATM   18  N   UNL     1     -12.414  13.561  63.353  1.00  0.00    -0.778 NA 
ENDBRANCH   7   9
ENDBRANCH   1   7
TORSDOF 3
ENDMDL
MODEL       77
REMARK 921   NORMALIZED FREE ENERGY PREDICTED BY IDOCK:   -4.56 KCAL/MOL
REMARK 922        TOTAL FREE ENERGY PREDICTED BY IDOCK:   -5.64 KCAL/MOL
REMARK 923 INTER-LIGAND FREE ENERGY PREDICTED BY IDOCK:   -5.07 KCAL/MOL
REMARK 924 INTRA-LIGAND FREE ENERGY PREDICTED BY IDOCK:   -0.57 KCAL/MOL
REMARK 927      BINDING AFFINITY PREDICTED BY RF-SCORE:    0.00 PKD
ROOT
HETATM    1  C   UNL     1     -12.425  14.311  70.814  1.00  0.00    -0.358 C  
ENDROOT
BRANCH   1   2
HETATM    2  C   UNL     1     -12.640  12.856  71.056  1.00  0.00    -0.287 A  
HETATM    3  O   UNL     1     -12.229  12.000  70.074  1.00  0.00    -0.271 OA 
HETATM    4  C   UNL     1     -13.162  12.140  72.114  1.00  0.00    -0.438 A  
HETATM    5  C   UNL     1     -12.466  10.740  70.523  1.00  0.00    -0.360 A  
HETATM    6  C   UNL     1     -13.040  10.772  71.772  1.00  0.00    -0.573 A  
ENDBRANCH   1   2
BRANCH   1   7
HETATM    7  N   UNL     1     -12.430  14.727  69.417  1.00  0.00    -0.573 NA 
HETATM    8  H   UNL     1     -13.236  14.549  68.817  1.00  0.00     0.000 HD 
BRANCH   7   9
HETATM    9  C   UNL     1     -11.304  15.372  68.928  1.00  0.00    -0.314 A  
HETATM   10  C   UNL     1     -10.101  17.275  68.334  1.00  0.00    -0.333 A  
HETATM   11  N   UNL     1      -8.949  16.673  68.019  1.00  0.00    -0.207 NA 
HETATM   12  N   UNL     1     -11.250  16.712  68.775  1.00  0.00    -0.273 NA 
HETATM   13  C   UNL     1      -9.007  15.342  68.192  1.00  0.00    -0.176 A  
HETATM   14  C   UNL     1     -10.141  14.680  68.625  1.00  0.00    -0.238 A  
HETATM   15  N   UNL     1      -9.766  13.365  68.682  1.00  0.00    -0.390 NA 
HETATM   16  H   UNL     1     -10.356  12.583  68.965  1.00  0.00     0.000 HD 
HETATM   17  C   UNL     1      -8.458  13.286  68.292  1.00  0.00    -0.160 A  
HETATM   18  N   UNL     1      -7.972  14.468  67.982  1.00  0.00    -0.125 NA 
ENDBRANCH   7   9
ENDBRANCH   1   7
TORSDOF 3
ENDMDL
MODEL       78
REMARK 921   NORMALIZED FREE ENERGY PREDICTED BY IDOCK:   -4.56 KCAL/MOL
REMARK 922        TOTAL FREE ENERGY PREDICTED BY IDOCK:   -5.64 KCAL/MOL
REMARK 923 INTER-LIGAND FREE ENERGY PREDICTED BY IDOCK:   -5.36 KCAL/MOL
REMARK 924 INTRA-LIGAND FREE ENERGY PREDICTED BY IDOCK:   -0.28 KCAL/MOL
REMARK 927      BINDING AFFINITY PREDICTED BY RF-SCORE:    0.00 PKD
ROOT
HETATM    1  C   UNL     1     -11.858  11.368  69.647  1.00  0.00    -0.362 C  
ENDROOT
BRANCH   1   2
HETATM    2  C   UNL     1     -11.779  12.094  68.348  1.00  0.00    -0.332 A  
HETATM    3  O   UNL     1     -12.106  13.421  68.362  1.00  0.00    -0.343 OA 
HETATM    4  C   UNL     1     -11.405  11.717  67.075  1.00  0.00    -0.373 A  
HETATM    5  C   UNL     1     -11.912  13.889  67.101  1.00  0.00    -0.420 A  
HETATM    6  C   UNL     1     -11.483  12.880  66.272  1.00  0.00    -0.395 A  
ENDBRANCH   1   2
BRANCH   1   7
HETATM    7  N   UNL     1     -10.708  10.533  69.976  1.00  0.00    -0.420 NA 
HETATM    8  H   UNL     1      -9.757  10.851  69.792  1.00  0.00     0.000 HD 
BRANCH   7   9
HETATM    9  C   UNL     1     -10.949   9.292  70.545  1.00  0.00    -0.265 A  
HETATM   10  C   UNL     1     -11.526   7.907  72.326  1.00  0.00    -0.348 A  
HETATM   11  N   UNL     1     -11.536   6.747  71.660  1.00  0.00    -0.278 NA 
HETATM   12  N   UNL     1     -11.260   9.146  71.851  1.00  0.00    -0.370 NA 
HETATM   13  C   UNL     1     -11.244   6.906  70.358  1.00  0.00    -0.312 A  
HETATM   14  C   UNL     1     -10.946   8.130  69.789  1.00  0.00    -0.132 A  
HETATM   15  N   UNL     1     -10.736   7.848  68.466  1.00  0.00    -0.399 NA 
HETATM   16  H   UNL     1     -10.494   8.520  67.740  1.00  0.00     0.000 HD 
HETATM   17  C   UNL     1     -10.909   6.502  68.294  1.00  0.00    -0.288 A  
HETATM   18  N   UNL     1     -11.211   5.903  69.424  1.00  0.00    -0.328 NA 
ENDBRANCH   7   9
ENDBRANCH   1   7
TORSDOF 3
ENDMDL
MODEL       79
REMARK 921   NORMALIZED FREE ENERGY PREDICTED BY IDOCK:   -4.55 KCAL/MOL
REMARK 922        TOTAL FREE ENERGY PREDICTED BY IDOCK:   -5.63 KCAL/MOL
REMARK 923 INTER-LIGAND FREE ENERGY PREDICTED BY IDOCK:   -5.32 KCAL/MOL
REMARK 924 INTRA-LIGAND FREE ENERGY PREDICTED BY IDOCK:   -0.31 KCAL/MOL
REMARK 927      BINDING AFFINITY PREDICTED BY RF-SCORE:    0.00 PKD
ROOT
HETATM    1  C   UNL     1     -11.620  11.142  69.696  1.00  0.00    -0.326 C  
ENDROOT
BRANCH   1   2
HETATM    2  C   UNL     1     -12.136  10.164  70.696  1.00  0.00    -0.319 A  
HETATM    3  O   UNL     1     -13.490   9.976  70.732  1.00  0.00    -0.316 OA 
HETATM    4  C   UNL     1     -11.524   9.343  71.619  1.00  0.00    -0.463 A  
HETATM    5  C   UNL     1     -13.730   9.015  71.662  1.00  0.00    -0.387 A  
HETATM    6  C   UNL     1     -12.554   8.595  72.237  1.00  0.00    -0.457 A  
ENDBRANCH   1   2
BRANCH   1   7
HETATM    7  N   UNL     1     -12.146  11.002  68.343  1.00  0.00    -0.786 NA 
HETATM    8  H   UNL     1     -13.137  11.140  68.147  1.00  0.00     0.000 HD 
BRANCH   7   9
HETATM    9  C   UNL     1     -11.256  10.673  67.332  1.00  0.00    -0.205 A  
HETATM   10  C   UNL     1      -9.913  11.199  65.504  1.00  0.00    -0.249 A  
HETATM   11  N   UNL     1      -9.356   9.995  65.333  1.00  0.00    -0.208 NA 
HETATM   12  N   UNL     1     -10.815  11.583  66.437  1.00  0.00    -0.278 NA 
HETATM   13  C   UNL     1      -9.787   9.103  66.240  1.00  0.00    -0.289 A  
HETATM   14  C   UNL     1     -10.717   9.401  67.219  1.00  0.00    -0.188 A  
HETATM   15  N   UNL     1     -10.852   8.237  67.926  1.00  0.00    -0.481 NA 
HETATM   16  H   UNL     1     -11.462   8.090  68.730  1.00  0.00     0.000 HD 
HETATM   17  C   UNL     1     -10.023   7.307  67.362  1.00  0.00    -0.174 A  
HETATM   18  N   UNL     1      -9.369   7.800  66.334  1.00  0.00    -0.189 NA 
ENDBRANCH   7   9
ENDBRANCH   1   7
TORSDOF 3
ENDMDL
MODEL       80
REMARK 921   NORMALIZED FREE ENERGY PREDICTED BY IDOCK:   -4.53 KCAL/MOL
REMARK 922        TOTAL FREE ENERGY PREDICTED BY IDOCK:   -5.60 KCAL/MOL
REMARK 923 INTER-LIGAND FREE ENERGY PREDICTED BY IDOCK:   -5.47 KCAL/MOL
REMARK 924 INTRA-LIGAND FREE ENERGY PREDICTED BY IDOCK:   -0.13 KCAL/MOL
REMARK 927      BINDING AFFINITY PREDICTED BY RF-SCORE:    0.00 PKD
ROOT
HETATM    1  C   UNL     1     -10.997  15.066  64.909  1.00  0.00    -0.413 C  
ENDROOT
BRANCH   1   2
HETATM    2  C   UNL     1     -11.251  13.703  64.361  1.00  0.00    -0.367 A  
HETATM    3  O   UNL     1     -12.557  13.351  64.163  1.00  0.00    -0.636 OA 
HETATM    4  C   UNL     1     -10.423  12.675  63.962  1.00  0.00    -0.443 A  
HETATM    5  C   UNL     1     -12.553  12.110  63.612  1.00  0.00    -0.504 A  
HETATM    6  C   UNL     1     -11.265  11.649  63.470  1.00  0.00    -0.462 A  
ENDBRANCH   1   2
BRANCH   1   7
HETATM    7  N   UNL     1     -11.187  15.214  66.348  1.00  0.00    -0.317 NA 
HETATM    8  H   UNL     1     -11.468  16.107  66.752  1.00  0.00     0.000 HD 
BRANCH   7   9
HETATM    9  C   UNL     1     -10.973  14.102  67.148  1.00  0.00    -0.299 A  
HETATM   10  C   UNL     1     -11.705  12.312  68.445  1.00  0.00    -0.337 A  
HETATM   11  N   UNL     1     -10.509  11.770  68.701  1.00  0.00    -0.221 NA 
HETATM   12  N   UNL     1     -11.988  13.413  67.711  1.00  0.00    -0.347 NA 
HETATM   13  C   UNL     1      -9.507  12.453  68.122  1.00  0.00    -0.214 A  
HETATM   14  C   UNL     1      -9.701  13.595  67.367  1.00  0.00    -0.228 A  
HETATM   15  N   UNL     1      -8.444  13.949  66.956  1.00  0.00    -0.361 NA 
HETATM   16  H   UNL     1      -8.206  14.751  66.375  1.00  0.00     0.000 HD 
HETATM   17  C   UNL     1      -7.566  13.033  67.464  1.00  0.00    -0.165 A  
HETATM   18  N   UNL     1      -8.179  12.117  68.181  1.00  0.00    -0.156 NA 
ENDBRANCH   7   9
ENDBRANCH   1   7
TORSDOF 3
ENDMDL
MODEL       81
REMARK 921   NORMALIZED FREE ENERGY PREDICTED BY IDOCK:   -4.52 KCAL/MOL
REMARK 922        TOTAL FREE ENERGY PREDICTED BY IDOCK:   -5.59 KCAL/MOL
REMARK 923 INTER-LIGAND FREE ENERGY PREDICTED BY IDOCK:   -5.02 KCAL/MOL
REMARK 924 INTRA-LIGAND FREE ENERGY PREDICTED BY IDOCK:   -0.57 KCAL/MOL
REMARK 927      BINDING AFFINITY PREDICTED BY RF-SCORE:    0.00 PKD
ROOT
HETATM    1  C   UNL     1      -9.542  10.115  64.841  1.00  0.00    -0.306 C  
ENDROOT
BRANCH   1   2
HETATM    2  C   UNL     1      -9.548   9.391  66.144  1.00  0.00    -0.247 A  
HETATM    3  O   UNL     1      -9.382  10.147  67.271  1.00  0.00    -0.150 OA 
HETATM    4  C   UNL     1      -9.720   8.066  66.488  1.00  0.00    -0.297 A  
HETATM    5  C   UNL     1      -9.477   9.302  68.330  1.00  0.00    -0.138 A  
HETATM    6  C   UNL     1      -9.683   8.012  67.902  1.00  0.00    -0.189 A  
ENDBRANCH   1   2
BRANCH   1   7
HETATM    7  N   UNL     1      -9.324  11.555  64.919  1.00  0.00    -0.399 NA 
HETATM    8  H   UNL     1      -8.384  11.941  65.011  1.00  0.00     0.000 HD 
BRANCH   7   9
HETATM    9  C   UNL     1     -10.434  12.384  64.865  1.00  0.00    -0.298 A  
HETATM   10  C   UNL     1     -12.250  13.344  63.768  1.00  0.00    -0.417 A  
HETATM   11  N   UNL     1     -12.763  14.008  64.810  1.00  0.00    -0.683 NA 
HETATM   12  N   UNL     1     -11.152  12.554  63.734  1.00  0.00    -0.415 NA 
HETATM   13  C   UNL     1     -12.052  13.817  65.934  1.00  0.00    -0.433 A  
HETATM   14  C   UNL     1     -10.911  13.039  65.990  1.00  0.00    -0.272 A  
HETATM   15  N   UNL     1     -10.523  13.097  67.301  1.00  0.00    -0.242 NA 
HETATM   16  H   UNL     1      -9.711  12.635  67.709  1.00  0.00     0.000 HD 
HETATM   17  C   UNL     1     -11.420  13.886  67.967  1.00  0.00    -0.307 A  
HETATM   18  N   UNL     1     -12.355  14.343  67.163  1.00  0.00    -0.229 NA 
ENDBRANCH   7   9
ENDBRANCH   1   7
TORSDOF 3
ENDMDL
MODEL       82
REMARK 921   NORMALIZED FREE ENERGY PREDICTED BY IDOCK:   -4.51 KCAL/MOL
REMARK 922        TOTAL FREE ENERGY PREDICTED BY IDOCK:   -5.58 KCAL/MOL
REMARK 923 INTER-LIGAND FREE ENERGY PREDICTED BY IDOCK:   -5.11 KCAL/MOL
REMARK 924 INTRA-LIGAND FREE ENERGY PREDICTED BY IDOCK:   -0.47 KCAL/MOL
REMARK 927      BINDING AFFINITY PREDICTED BY RF-SCORE:    0.00 PKD
ROOT
HETATM    1  C   UNL     1     -11.038  10.696  67.879  1.00  0.00    -0.308 C  
ENDROOT
BRANCH   1   2
HETATM    2  C   UNL     1     -10.068  10.548  66.756  1.00  0.00    -0.219 A  
HETATM    3  O   UNL     1     -10.507   9.885  65.645  1.00  0.00    -0.144 OA 
HETATM    4  C   UNL     1      -8.770  10.976  66.566  1.00  0.00    -0.169 A  
HETATM    5  C   UNL     1      -9.495   9.917  64.740  1.00  0.00    -0.291 A  
HETATM    6  C   UNL     1      -8.404  10.575  65.259  1.00  0.00    -0.155 A  
ENDBRANCH   1   2
BRANCH   1   7
HETATM    7  N   UNL     1     -12.113  11.658  67.662  1.00  0.00    -0.573 NA 
HETATM    8  H   UNL     1     -13.065  11.460  67.969  1.00  0.00     0.000 HD 
BRANCH   7   9
HETATM    9  C   UNL     1     -11.800  12.849  67.025  1.00  0.00    -0.374 A  
HETATM   10  C   UNL     1     -10.886  14.989  66.969  1.00  0.00    -0.311 A  
HETATM   11  N   UNL     1     -11.081  15.238  65.670  1.00  0.00    -0.329 NA 
HETATM   12  N   UNL     1     -11.200  13.874  67.668  1.00  0.00    -0.284 NA 
HETATM   13  C   UNL     1     -11.661  14.205  65.036  1.00  0.00    -0.376 A  
HETATM   14  C   UNL     1     -12.030  13.034  65.671  1.00  0.00    -0.429 A  
HETATM   15  N   UNL     1     -12.555  12.257  64.673  1.00  0.00    -0.543 NA 
HETATM   16  H   UNL     1     -12.930  11.315  64.779  1.00  0.00     0.000 HD 
HETATM   17  C   UNL     1     -12.485  12.971  63.509  1.00  0.00    -0.300 A  
HETATM   18  N   UNL     1     -11.955  14.159  63.698  1.00  0.00    -0.303 NA 
ENDBRANCH   7   9
ENDBRANCH   1   7
TORSDOF 3
ENDMDL
MODEL       83
REMARK 921   NORMALIZED FREE ENERGY PREDICTED BY IDOCK:   -4.50 KCAL/MOL
REMARK 922        TOTAL FREE ENERGY PREDICTED BY IDOCK:   -5.57 KCAL/MOL
REMARK 923 INTER-LIGAND FREE ENERGY PREDICTED BY IDOCK:   -5.19 KCAL/MOL
REMARK 924 INTRA-LIGAND FREE ENERGY PREDICTED BY IDOCK:   -0.38 KCAL/MOL
REMARK 927      BINDING AFFINITY PREDICTED BY RF-SCORE:    0.00 PKD
ROOT
HETATM    1  C   UNL     1      -6.087  20.357  68.267  1.00  0.00    -0.291 C  
ENDROOT
BRANCH   1   2
HETATM    2  C   UNL     1      -5.788  19.854  69.638  1.00  0.00    -0.290 A  
HETATM    3  O   UNL     1      -5.836  20.768  70.654  1.00  0.00    -0.549 OA 
HETATM    4  C   UNL     1      -5.485  18.607  70.143  1.00  0.00    -0.232 A  
HETATM    5  C   UNL     1      -5.590  20.091  71.806  1.00  0.00    -0.407 A  
HETATM    6  C   UNL     1      -5.366  18.760  71.545  1.00  0.00    -0.247 A  
ENDBRANCH   1   2
BRANCH   1   7
HETATM    7  N   UNL     1      -6.728  19.402  67.369  1.00  0.00    -0.198 NA 
HETATM    8  H   UNL     1      -6.175  18.801  66.759  1.00  0.00     0.000 HD 
BRANCH   7   9
HETATM    9  C   UNL     1      -8.113  19.339  67.372  1.00  0.00    -0.277 A  
HETATM   10  C   UNL     1     -10.222  20.106  66.753  1.00  0.00    -0.430 A  
HETATM   11  N   UNL     1     -10.944  19.127  67.310  1.00  0.00    -0.427 NA 
HETATM   12  N   UNL     1      -8.878  20.258  66.744  1.00  0.00    -0.300 NA 
HETATM   13  C   UNL     1     -10.173  18.209  67.915  1.00  0.00    -0.379 A  
HETATM   14  C   UNL     1      -8.794  18.289  67.969  1.00  0.00    -0.280 A  
HETATM   15  N   UNL     1      -8.414  17.162  68.646  1.00  0.00    -0.261 NA 
HETATM   16  H   UNL     1      -7.457  16.890  68.871  1.00  0.00     0.000 HD 
HETATM   17  C   UNL     1      -9.546  16.465  68.966  1.00  0.00    -0.264 A  
HETATM   18  N   UNL     1     -10.629  17.078  68.542  1.00  0.00    -0.359 NA 
ENDBRANCH   7   9
ENDBRANCH   1   7
TORSDOF 3
ENDMDL
MODEL       84
REMARK 921   NORMALIZED FREE ENERGY PREDICTED BY IDOCK:   -4.49 KCAL/MOL
REMARK 922        TOTAL FREE ENERGY PREDICTED BY IDOCK:   -5.56 KCAL/MOL
REMARK 923 INTER-LIGAND FREE ENERGY PREDICTED BY IDOCK:   -5.30 KCAL/MOL
REMARK 924 INTRA-LIGAND FREE ENERGY PREDICTED BY IDOCK:   -0.26 KCAL/MOL
REMARK 927      BINDING AFFINITY PREDICTED BY RF-SCORE:    0.00 PKD
ROOT
HETATM    1  C   UNL     1      -9.652  14.992  68.068  1.00  0.00    -0.208 C  
ENDROOT
BRANCH   1   2
HETATM    2  C   UNL     1      -8.701  16.126  67.889  1.00  0.00    -0.174 A  
HETATM    3  O   UNL     1      -8.470  16.916  68.980  1.00  0.00    -0.231 OA 
HETATM    4  C   UNL     1      -7.942  16.564  66.823  1.00  0.00    -0.290 A  
HETATM    5  C   UNL     1      -7.543  17.837  68.612  1.00  0.00    -0.276 A  
HETATM    6  C   UNL     1      -7.187  17.664  67.294  1.00  0.00    -0.203 A  
ENDBRANCH   1   2
BRANCH   1   7
HETATM    7  N   UNL     1      -9.534  13.908  67.099  1.00  0.00    -0.237 NA 
HETATM    8  H   UNL     1      -8.663  13.389  66.994  1.00  0.00     0.000 HD 
BRANCH   7   9
HETATM    9  C   UNL     1     -10.644  13.606  66.326  1.00  0.00    -0.289 A  
HETATM   10  C   UNL     1     -12.863  13.899  65.684  1.00  0.00    -0.424 A  
HETATM   11  N   UNL     1     -12.873  13.039  64.660  1.00  0.00    -0.732 NA 
HETATM   12  N   UNL     1     -11.836  14.214  66.507  1.00  0.00    -0.401 NA 
HETATM   13  C   UNL     1     -11.678  12.453  64.477  1.00  0.00    -0.362 A  
HETATM   14  C   UNL     1     -10.578  12.703  65.276  1.00  0.00    -0.291 A  
HETATM   15  N   UNL     1      -9.585  11.930  64.738  1.00  0.00    -0.427 NA 
HETATM   16  H   UNL     1      -8.625  11.864  65.076  1.00  0.00     0.000 HD 
HETATM   17  C   UNL     1     -10.109  11.262  63.666  1.00  0.00    -0.382 A  
HETATM   18  N   UNL     1     -11.379  11.554  63.487  1.00  0.00    -0.369 NA 
ENDBRANCH   7   9
ENDBRANCH   1   7
TORSDOF 3
ENDMDL
MODEL       85
REMARK 921   NORMALIZED FREE ENERGY PREDICTED BY IDOCK:   -4.49 KCAL/MOL
REMARK 922        TOTAL FREE ENERGY PREDICTED BY IDOCK:   -5.56 KCAL/MOL
REMARK 923 INTER-LIGAND FREE ENERGY PREDICTED BY IDOCK:   -5.30 KCAL/MOL
REMARK 924 INTRA-LIGAND FREE ENERGY PREDICTED BY IDOCK:   -0.26 KCAL/MOL
REMARK 927      BINDING AFFINITY PREDICTED BY RF-SCORE:    0.00 PKD
ROOT
HETATM    1  C   UNL     1     -11.455  12.626  67.148  1.00  0.00    -0.346 C  
ENDROOT
BRANCH   1   2
HETATM    2  C   UNL     1     -11.566  12.620  65.661  1.00  0.00    -0.377 A  
HETATM    3  O   UNL     1     -10.428  12.334  64.959  1.00  0.00    -0.273 OA 
HETATM    4  C   UNL     1     -12.617  12.819  64.791  1.00  0.00    -0.518 A  
HETATM    5  C   UNL     1     -10.767  12.326  63.644  1.00  0.00    -0.467 A  
HETATM    6  C   UNL     1     -12.102  12.620  63.488  1.00  0.00    -0.648 A  
ENDBRANCH   1   2
BRANCH   1   7
HETATM    7  N   UNL     1     -12.094  11.510  67.835  1.00  0.00    -0.605 NA 
HETATM    8  H   UNL     1     -13.098  11.509  68.016  1.00  0.00     0.000 HD 
BRANCH   7   9
HETATM    9  C   UNL     1     -11.294  10.450  68.234  1.00  0.00    -0.224 A  
HETATM   10  C   UNL     1      -9.643   8.850  67.869  1.00  0.00    -0.148 A  
HETATM   11  N   UNL     1      -9.598   8.347  69.107  1.00  0.00    -0.162 NA 
HETATM   12  N   UNL     1     -10.422   9.850  67.396  1.00  0.00    -0.250 NA 
HETATM   13  C   UNL     1     -10.456   8.963  69.937  1.00  0.00    -0.214 A  
HETATM   14  C   UNL     1     -11.300   9.983  69.539  1.00  0.00    -0.169 A  
HETATM   15  N   UNL     1     -11.974  10.331  70.679  1.00  0.00    -0.315 NA 
HETATM   16  H   UNL     1     -12.684  11.058  70.758  1.00  0.00     0.000 HD 
HETATM   17  C   UNL     1     -11.524   9.529  71.691  1.00  0.00    -0.363 A  
HETATM   18  N   UNL     1     -10.608   8.685  71.271  1.00  0.00    -0.221 NA 
ENDBRANCH   7   9
ENDBRANCH   1   7
TORSDOF 3
ENDMDL
MODEL       86
REMARK 921   NORMALIZED FREE ENERGY PREDICTED BY IDOCK:   -4.46 KCAL/MOL
REMARK 922        TOTAL FREE ENERGY PREDICTED BY IDOCK:   -5.53 KCAL/MOL
REMARK 923 INTER-LIGAND FREE ENERGY PREDICTED BY IDOCK:   -4.93 KCAL/MOL
REMARK 924 INTRA-LIGAND FREE ENERGY PREDICTED BY IDOCK:   -0.60 KCAL/MOL
REMARK 927      BINDING AFFINITY PREDICTED BY RF-SCORE:    0.00 PKD
ROOT
HETATM    1  C   UNL     1      -9.811  13.650  66.433  1.00  0.00    -0.296 C  
ENDROOT
BRANCH   1   2
HETATM    2  C   UNL     1      -9.575  15.113  66.595  1.00  0.00    -0.253 A  
HETATM    3  O   UNL     1     -10.667  15.888  66.867  1.00  0.00    -0.321 OA 
HETATM    4  C   UNL     1      -8.441  15.897  66.557  1.00  0.00    -0.348 A  
HETATM    5  C   UNL     1     -10.219  17.160  67.029  1.00  0.00    -0.313 A  
HETATM    6  C   UNL     1      -8.857  17.219  66.847  1.00  0.00    -0.259 A  
ENDBRANCH   1   2
BRANCH   1   7
HETATM    7  N   UNL     1     -11.167  13.193  66.715  1.00  0.00    -0.289 NA 
HETATM    8  H   UNL     1     -11.909  13.290  66.023  1.00  0.00     0.000 HD 
BRANCH   7   9
HETATM    9  C   UNL     1     -11.415  12.624  67.955  1.00  0.00    -0.318 A  
HETATM   10  C   UNL     1     -11.508  10.821  69.425  1.00  0.00    -0.295 A  
HETATM   11  N   UNL     1     -11.833  11.501  70.530  1.00  0.00    -0.328 NA 
HETATM   12  N   UNL     1     -11.292  11.298  68.177  1.00  0.00    -0.279 NA 
HETATM   13  C   UNL     1     -11.935  12.821  70.302  1.00  0.00    -0.280 A  
HETATM   14  C   UNL     1     -11.746  13.395  69.059  1.00  0.00    -0.323 A  
HETATM   15  N   UNL     1     -11.919  14.736  69.274  1.00  0.00    -0.408 NA 
HETATM   16  H   UNL     1     -11.851  15.471  68.570  1.00  0.00     0.000 HD 
HETATM   17  C   UNL     1     -12.199  14.914  70.600  1.00  0.00    -0.318 A  
HETATM   18  N   UNL     1     -12.223  13.770  71.248  1.00  0.00    -0.302 NA 
ENDBRANCH   7   9
ENDBRANCH   1   7
TORSDOF 3
ENDMDL
MODEL       87
REMARK 921   NORMALIZED FREE ENERGY PREDICTED BY IDOCK:   -4.46 KCAL/MOL
REMARK 922        TOTAL FREE ENERGY PREDICTED BY IDOCK:   -5.52 KCAL/MOL
REMARK 923 INTER-LIGAND FREE ENERGY PREDICTED BY IDOCK:   -5.49 KCAL/MOL
REMARK 924 INTRA-LIGAND FREE ENERGY PREDICTED BY IDOCK:   -0.03 KCAL/MOL
REMARK 927      BINDING AFFINITY PREDICTED BY RF-SCORE:    0.00 PKD
ROOT
HETATM    1  C   UNL     1     -11.085  16.104  68.957  1.00  0.00    -0.336 C  
ENDROOT
BRANCH   1   2
HETATM    2  C   UNL     1      -9.937  15.916  68.024  1.00  0.00    -0.220 A  
HETATM    3  O   UNL     1      -9.811  16.824  67.011  1.00  0.00    -0.247 OA 
HETATM    4  C   UNL     1      -8.906  15.001  67.966  1.00  0.00    -0.165 A  
HETATM    5  C   UNL     1      -8.682  16.500  66.328  1.00  0.00    -0.333 A  
HETATM    6  C   UNL     1      -8.091  15.386  66.875  1.00  0.00    -0.259 A  
ENDBRANCH   1   2
BRANCH   1   7
HETATM    7  N   UNL     1     -12.274  15.312  68.665  1.00  0.00    -0.583 NA 
HETATM    8  H   UNL     1     -13.201  15.631  68.946  1.00  0.00     0.000 HD 
BRANCH   7   9
HETATM    9  C   UNL     1     -12.104  14.111  67.993  1.00  0.00    -0.268 A  
HETATM   10  C   UNL     1     -11.899  12.832  66.058  1.00  0.00    -0.439 A  
HETATM   11  N   UNL     1     -11.655  11.654  66.642  1.00  0.00    -0.506 NA 
HETATM   12  N   UNL     1     -12.115  14.032  66.645  1.00  0.00    -0.450 NA 
HETATM   13  C   UNL     1     -11.629  11.747  67.982  1.00  0.00    -0.316 A  
HETATM   14  C   UNL     1     -11.852  12.927  68.667  1.00  0.00    -0.312 A  
HETATM   15  N   UNL     1     -11.714  12.585  69.986  1.00  0.00    -0.514 NA 
HETATM   16  H   UNL     1     -11.811  13.214  70.782  1.00  0.00     0.000 HD 
HETATM   17  C   UNL     1     -11.422  11.251  70.043  1.00  0.00    -0.275 A  
HETATM   18  N   UNL     1     -11.370  10.713  68.844  1.00  0.00    -0.265 NA 
ENDBRANCH   7   9
ENDBRANCH   1   7
TORSDOF 3
ENDMDL
MODEL       88
REMARK 921   NORMALIZED FREE ENERGY PREDICTED BY IDOCK:   -4.46 KCAL/MOL
REMARK 922        TOTAL FREE ENERGY PREDICTED BY IDOCK:   -5.52 KCAL/MOL
REMARK 923 INTER-LIGAND FREE ENERGY PREDICTED BY IDOCK:   -5.21 KCAL/MOL
REMARK 924 INTRA-LIGAND FREE ENERGY PREDICTED BY IDOCK:   -0.31 KCAL/MOL
REMARK 927      BINDING AFFINITY PREDICTED BY RF-SCORE:    0.00 PKD
ROOT
HETATM    1  C   UNL     1     -10.462   9.545  68.671  1.00  0.00    -0.211 C  
ENDROOT
BRANCH   1   2
HETATM    2  C   UNL     1     -10.573   8.059  68.709  1.00  0.00    -0.118 A  
HETATM    3  O   UNL     1     -10.949   7.498  69.897  1.00  0.00    -0.250 OA 
HETATM    4  C   UNL     1     -10.399   7.073  67.759  1.00  0.00    -0.255 A  
HETATM    5  C   UNL     1     -11.040   6.159  69.691  1.00  0.00    -0.419 A  
HETATM    6  C   UNL     1     -10.711   5.847  68.393  1.00  0.00    -0.323 A  
ENDBRANCH   1   2
BRANCH   1   7
HETATM    7  N   UNL     1     -11.721  10.270  68.545  1.00  0.00    -0.672 NA 
HETATM    8  H   UNL     1     -12.239  10.277  67.666  1.00  0.00     0.000 HD 
BRANCH   7   9
HETATM    9  C   UNL     1     -12.193  10.949  69.658  1.00  0.00    -0.283 A  
HETATM   10  C   UNL     1     -13.070  11.037  71.813  1.00  0.00    -0.449 A  
HETATM   11  N   UNL     1     -13.059  12.366  71.962  1.00  0.00    -0.411 NA 
HETATM   12  N   UNL     1     -12.667  10.307  70.747  1.00  0.00    -0.348 NA 
HETATM   13  C   UNL     1     -12.568  12.994  70.880  1.00  0.00    -0.280 A  
HETATM   14  C   UNL     1     -12.146  12.332  69.742  1.00  0.00    -0.229 A  
HETATM   15  N   UNL     1     -11.709  13.329  68.911  1.00  0.00    -0.306 NA 
HETATM   16  H   UNL     1     -11.325  13.205  67.975  1.00  0.00     0.000 HD 
HETATM   17  C   UNL     1     -11.880  14.519  69.562  1.00  0.00    -0.329 A  
HETATM   18  N   UNL     1     -12.405  14.349  70.755  1.00  0.00    -0.323 NA 
ENDBRANCH   7   9
ENDBRANCH   1   7
TORSDOF 3
ENDMDL
MODEL       89
REMARK 921   NORMALIZED FREE ENERGY PREDICTED BY IDOCK:   -4.45 KCAL/MOL
REMARK 922        TOTAL FREE ENERGY PREDICTED BY IDOCK:   -5.51 KCAL/MOL
REMARK 923 INTER-LIGAND FREE ENERGY PREDICTED BY IDOCK:   -5.05 KCAL/MOL
REMARK 924 INTRA-LIGAND FREE ENERGY PREDICTED BY IDOCK:   -0.46 KCAL/MOL
REMARK 927      BINDING AFFINITY PREDICTED BY RF-SCORE:    0.00 PKD
ROOT
HETATM    1  C   UNL     1     -11.724  12.752  67.985  1.00  0.00    -0.356 C  
ENDROOT
BRANCH   1   2
HETATM    2  C   UNL     1     -11.826  13.166  66.557  1.00  0.00    -0.400 A  
HETATM    3  O   UNL     1     -12.281  12.227  65.674  1.00  0.00    -0.605 OA 
HETATM    4  C   UNL     1     -11.579  14.351  65.895  1.00  0.00    -0.361 A  
HETATM    5  C   UNL     1     -12.347  12.827  64.457  1.00  0.00    -0.445 A  
HETATM    6  C   UNL     1     -11.925  14.134  64.540  1.00  0.00    -0.476 A  
ENDBRANCH   1   2
BRANCH   1   7
HETATM    7  N   UNL     1     -12.023  11.352  68.261  1.00  0.00    -0.610 NA 
HETATM    8  H   UNL     1     -12.959  10.975  68.115  1.00  0.00     0.000 HD 
BRANCH   7   9
HETATM    9  C   UNL     1     -10.994  10.549  68.728  1.00  0.00    -0.251 A  
HETATM   10  C   UNL     1      -9.791   9.502  70.425  1.00  0.00    -0.271 A  
HETATM   11  N   UNL     1      -8.939   8.819  69.652  1.00  0.00    -0.143 NA 
HETATM   12  N   UNL     1     -10.789  10.334  70.046  1.00  0.00    -0.292 NA 
HETATM   13  C   UNL     1      -9.163   9.026  68.344  1.00  0.00    -0.136 A  
HETATM   14  C   UNL     1     -10.150   9.868  67.865  1.00  0.00    -0.173 A  
HETATM   15  N   UNL     1     -10.047   9.771  66.503  1.00  0.00    -0.236 NA 
HETATM   16  H   UNL     1     -10.626  10.261  65.821  1.00  0.00     0.000 HD 
HETATM   17  C   UNL     1      -9.032   8.900  66.222  1.00  0.00    -0.170 A  
HETATM   18  N   UNL     1      -8.472   8.437  67.317  1.00  0.00    -0.123 NA 
ENDBRANCH   7   9
ENDBRANCH   1   7
TORSDOF 3
ENDMDL
MODEL       90
REMARK 921   NORMALIZED FREE ENERGY PREDICTED BY IDOCK:   -4.42 KCAL/MOL
REMARK 922        TOTAL FREE ENERGY PREDICTED BY IDOCK:   -5.48 KCAL/MOL
REMARK 923 INTER-LIGAND FREE ENERGY PREDICTED BY IDOCK:   -5.21 KCAL/MOL
REMARK 924 INTRA-LIGAND FREE ENERGY PREDICTED BY IDOCK:   -0.27 KCAL/MOL
REMARK 927      BINDING AFFINITY PREDICTED BY RF-SCORE:    0.00 PKD
ROOT
HETATM    1  C   UNL     1     -10.497  17.790  66.660  1.00  0.00    -0.300 C  
ENDROOT
BRANCH   1   2
HETATM    2  C   UNL     1      -9.177  18.420  66.372  1.00  0.00    -0.273 A  
HETATM    3  O   UNL     1      -8.201  17.606  65.870  1.00  0.00    -0.534 OA 
HETATM    4  C   UNL     1      -8.704  19.711  66.476  1.00  0.00    -0.402 A  
HETATM    5  C   UNL     1      -7.117  18.389  65.632  1.00  0.00    -0.165 A  
HETATM    6  C   UNL     1      -7.375  19.692  65.989  1.00  0.00    -0.308 A  
ENDBRANCH   1   2
BRANCH   1   7
HETATM    7  N   UNL     1     -10.535  16.334  66.575  1.00  0.00    -0.303 NA 
HETATM    8  H   UNL     1     -10.217  15.848  65.737  1.00  0.00     0.000 HD 
BRANCH   7   9
HETATM    9  C   UNL     1     -11.017  15.633  67.669  1.00  0.00    -0.315 A  
HETATM   10  C   UNL     1     -11.914  15.502  69.814  1.00  0.00    -0.364 A  
HETATM   11  N   UNL     1     -12.094  14.177  69.857  1.00  0.00    -0.328 NA 
HETATM   12  N   UNL     1     -11.413  16.250  68.803  1.00  0.00    -0.337 NA 
HETATM   13  C   UNL     1     -11.714  13.576  68.718  1.00  0.00    -0.337 A  
HETATM   14  C   UNL     1     -11.179  14.256  67.640  1.00  0.00    -0.304 A  
HETATM   15  N   UNL     1     -10.956  13.285  66.701  1.00  0.00    -0.281 NA 
HETATM   16  H   UNL     1     -10.564  13.427  65.771  1.00  0.00     0.000 HD 
HETATM   17  C   UNL     1     -11.352  12.090  67.235  1.00  0.00    -0.330 A  
HETATM   18  N   UNL     1     -11.810  12.233  68.459  1.00  0.00    -0.325 NA 
ENDBRANCH   7   9
ENDBRANCH   1   7
TORSDOF 3
ENDMDL
MODEL       91
REMARK 921   NORMALIZED FREE ENERGY PREDICTED BY IDOCK:   -4.42 KCAL/MOL
REMARK 922        TOTAL FREE ENERGY PREDICTED BY IDOCK:   -5.47 KCAL/MOL
REMARK 923 INTER-LIGAND FREE ENERGY PREDICTED BY IDOCK:   -4.94 KCAL/MOL
REMARK 924 INTRA-LIGAND FREE ENERGY PREDICTED BY IDOCK:   -0.53 KCAL/MOL
REMARK 927      BINDING AFFINITY PREDICTED BY RF-SCORE:    0.00 PKD
ROOT
HETATM    1  C   UNL     1      -9.805   9.538  67.891  1.00  0.00    -0.156 C  
ENDROOT
BRANCH   1   2
HETATM    2  C   UNL     1     -10.352  10.640  67.049  1.00  0.00    -0.231 A  
HETATM    3  O   UNL     1     -11.589  11.115  67.383  1.00  0.00    -0.522 OA 
HETATM    4  C   UNL     1      -9.853  11.344  65.973  1.00  0.00    -0.256 A  
HETATM    5  C   UNL     1     -11.862  12.139  66.533  1.00  0.00    -0.246 A  
HETATM    6  C   UNL     1     -10.826  12.318  65.646  1.00  0.00    -0.321 A  
ENDBRANCH   1   2
BRANCH   1   7
HETATM    7  N   UNL     1      -9.586   9.864  69.296  1.00  0.00    -0.193 NA 
HETATM    8  H   UNL     1      -8.814  10.464  69.583  1.00  0.00     0.000 HD 
BRANCH   7   9
HETATM    9  C   UNL     1     -10.463   9.330  70.229  1.00  0.00    -0.228 A  
HETATM   10  C   UNL     1     -11.207   7.631  71.636  1.00  0.00    -0.247 A  
HETATM   11  N   UNL     1     -12.212   8.299  72.214  1.00  0.00    -0.362 NA 
HETATM   12  N   UNL     1     -10.341   8.068  70.693  1.00  0.00    -0.200 NA 
HETATM   13  C   UNL     1     -12.312   9.559  71.760  1.00  0.00    -0.394 A  
HETATM   14  C   UNL     1     -11.481  10.086  70.789  1.00  0.00    -0.356 A  
HETATM   15  N   UNL     1     -11.907  11.379  70.641  1.00  0.00    -0.440 NA 
HETATM   16  H   UNL     1     -11.517  12.071  70.002  1.00  0.00     0.000 HD 
HETATM   17  C   UNL     1     -12.950  11.575  71.503  1.00  0.00    -0.380 A  
HETATM   18  N   UNL     1     -13.223  10.488  72.191  1.00  0.00    -0.405 NA 
ENDBRANCH   7   9
ENDBRANCH   1   7
TORSDOF 3
ENDMDL
MODEL       92
REMARK 921   NORMALIZED FREE ENERGY PREDICTED BY IDOCK:   -4.37 KCAL/MOL
REMARK 922        TOTAL FREE ENERGY PREDICTED BY IDOCK:   -5.42 KCAL/MOL
REMARK 923 INTER-LIGAND FREE ENERGY PREDICTED BY IDOCK:   -4.82 KCAL/MOL
REMARK 924 INTRA-LIGAND FREE ENERGY PREDICTED BY IDOCK:   -0.60 KCAL/MOL
REMARK 927      BINDING AFFINITY PREDICTED BY RF-SCORE:    0.00 PKD
ROOT
HETATM    1  C   UNL     1     -10.461  10.670  65.470  1.00  0.00    -0.176 C  
ENDROOT
BRANCH   1   2
HETATM    2  C   UNL     1     -11.135  11.821  64.805  1.00  0.00    -0.296 A  
HETATM    3  O   UNL     1     -11.134  13.010  65.479  1.00  0.00    -0.274 OA 
HETATM    4  C   UNL     1     -11.766  11.972  63.588  1.00  0.00    -0.587 A  
HETATM    5  C   UNL     1     -11.742  13.921  64.675  1.00  0.00    -0.397 A  
HETATM    6  C   UNL     1     -12.150  13.332  63.501  1.00  0.00    -0.550 A  
ENDBRANCH   1   2
BRANCH   1   7
HETATM    7  N   UNL     1      -9.737  10.984  66.697  1.00  0.00    -0.191 NA 
HETATM    8  H   UNL     1      -8.828  11.445  66.668  1.00  0.00     0.000 HD 
BRANCH   7   9
HETATM    9  C   UNL     1     -10.324  10.635  67.904  1.00  0.00    -0.199 A  
HETATM   10  C   UNL     1     -10.727   9.161  69.661  1.00  0.00    -0.225 A  
HETATM   11  N   UNL     1     -11.456   9.982  70.425  1.00  0.00    -0.292 NA 
HETATM   12  N   UNL     1     -10.159   9.415  68.459  1.00  0.00    -0.180 NA 
HETATM   13  C   UNL     1     -11.597  11.198  69.872  1.00  0.00    -0.337 A  
HETATM   14  C   UNL     1     -11.065  11.542  68.644  1.00  0.00    -0.238 A  
HETATM   15  N   UNL     1     -11.421  12.854  68.474  1.00  0.00    -0.286 NA 
HETATM   16  H   UNL     1     -11.194  13.438  67.671  1.00  0.00     0.000 HD 
HETATM   17  C   UNL     1     -12.134  13.238  69.576  1.00  0.00    -0.258 A  
HETATM   18  N   UNL     1     -12.264  12.254  70.438  1.00  0.00    -0.329 NA 
ENDBRANCH   7   9
ENDBRANCH   1   7
TORSDOF 3
ENDMDL
MODEL       93
REMARK 921   NORMALIZED FREE ENERGY PREDICTED BY IDOCK:   -4.35 KCAL/MOL
REMARK 922        TOTAL FREE ENERGY PREDICTED BY IDOCK:   -5.39 KCAL/MOL
REMARK 923 INTER-LIGAND FREE ENERGY PREDICTED BY IDOCK:   -5.38 KCAL/MOL
REMARK 924 INTRA-LIGAND FREE ENERGY PREDICTED BY IDOCK:   -0.02 KCAL/MOL
REMARK 927      BINDING AFFINITY PREDICTED BY RF-SCORE:    0.00 PKD
ROOT
HETATM    1  C   UNL     1     -10.069  12.150  66.847  1.00  0.00    -0.206 C  
ENDROOT
BRANCH   1   2
HETATM    2  C   UNL     1     -10.669  13.153  67.773  1.00  0.00    -0.240 A  
HETATM    3  O   UNL     1      -9.801  13.890  68.530  1.00  0.00    -0.226 OA 
HETATM    4  C   UNL     1     -11.966  13.545  68.031  1.00  0.00    -0.372 A  
HETATM    5  C   UNL     1     -10.550  14.768  69.247  1.00  0.00    -0.240 A  
HETATM    6  C   UNL     1     -11.887  14.595  68.977  1.00  0.00    -0.346 A  
ENDBRANCH   1   2
BRANCH   1   7
HETATM    7  N   UNL     1      -9.861  12.601  65.476  1.00  0.00    -0.396 NA 
HETATM    8  H   UNL     1      -9.299  12.056  64.823  1.00  0.00     0.000 HD 
BRANCH   7   9
HETATM    9  C   UNL     1     -10.452  13.794  65.088  1.00  0.00    -0.384 A  
HETATM   10  C   UNL     1     -12.157  15.035  64.102  1.00  0.00    -0.223 A  
HETATM   11  N   UNL     1     -11.689  16.254  64.395  1.00  0.00    -0.550 NA 
HETATM   12  N   UNL     1     -11.618  13.832  64.408  1.00  0.00    -0.393 NA 
HETATM   13  C   UNL     1     -10.539  16.203  65.087  1.00  0.00    -0.343 A  
HETATM   14  C   UNL     1      -9.909  15.022  65.432  1.00  0.00    -0.277 A  
HETATM   15  N   UNL     1      -8.803  15.418  66.135  1.00  0.00    -0.446 NA 
HETATM   16  H   UNL     1      -8.102  14.804  66.547  1.00  0.00     0.000 HD 
HETATM   17  C   UNL     1      -8.808  16.784  66.185  1.00  0.00    -0.263 A  
HETATM   18  N   UNL     1      -9.844  17.290  65.553  1.00  0.00    -0.472 NA 
ENDBRANCH   7   9
ENDBRANCH   1   7
TORSDOF 3
ENDMDL
MODEL       94
REMARK 921   NORMALIZED FREE ENERGY PREDICTED BY IDOCK:   -4.35 KCAL/MOL
REMARK 922        TOTAL FREE ENERGY PREDICTED BY IDOCK:   -5.39 KCAL/MOL
REMARK 923 INTER-LIGAND FREE ENERGY PREDICTED BY IDOCK:   -5.55 KCAL/MOL
REMARK 924 INTRA-LIGAND FREE ENERGY PREDICTED BY IDOCK:    0.16 KCAL/MOL
REMARK 927      BINDING AFFINITY PREDICTED BY RF-SCORE:    0.00 PKD
ROOT
HETATM    1  C   UNL     1     -11.786  12.061  69.051  1.00  0.00    -0.325 C  
ENDROOT
BRANCH   1   2
HETATM    2  C   UNL     1     -11.777  10.968  70.065  1.00  0.00    -0.355 A  
HETATM    3  O   UNL     1     -10.695  10.132  70.060  1.00  0.00    -0.268 OA 
HETATM    4  C   UNL     1     -12.643  10.609  71.076  1.00  0.00    -0.516 A  
HETATM    5  C   UNL     1     -10.866   9.260  71.088  1.00  0.00    -0.337 A  
HETATM    6  C   UNL     1     -12.049   9.511  71.742  1.00  0.00    -0.459 A  
ENDBRANCH   1   2
BRANCH   1   7
HETATM    7  N   UNL     1     -10.915  13.196  69.336  1.00  0.00    -0.450 NA 
HETATM    8  H   UNL     1     -10.707  13.471  70.296  1.00  0.00     0.000 HD 
BRANCH   7   9
HETATM    9  C   UNL     1     -10.379  13.889  68.261  1.00  0.00    -0.249 A  
HETATM   10  C   UNL     1      -8.632  14.944  67.141  1.00  0.00    -0.225 A  
HETATM   11  N   UNL     1      -9.282  15.219  66.005  1.00  0.00    -0.312 NA 
HETATM   12  N   UNL     1      -9.097  14.312  68.244  1.00  0.00    -0.184 NA 
HETATM   13  C   UNL     1     -10.551  14.778  66.026  1.00  0.00    -0.312 A  
HETATM   14  C   UNL     1     -11.115  14.135  67.112  1.00  0.00    -0.307 A  
HETATM   15  N   UNL     1     -12.391  13.844  66.710  1.00  0.00    -0.472 NA 
HETATM   16  H   UNL     1     -13.100  13.365  67.264  1.00  0.00     0.000 HD 
HETATM   17  C   UNL     1     -12.542  14.310  65.434  1.00  0.00    -0.410 A  
HETATM   18  N   UNL     1     -11.446  14.887  64.994  1.00  0.00    -0.373 NA 
ENDBRANCH   7   9
ENDBRANCH   1   7
TORSDOF 3
ENDMDL
MODEL       95
REMARK 921   NORMALIZED FREE ENERGY PREDICTED BY IDOCK:   -4.33 KCAL/MOL
REMARK 922        TOTAL FREE ENERGY PREDICTED BY IDOCK:   -5.37 KCAL/MOL
REMARK 923 INTER-LIGAND FREE ENERGY PREDICTED BY IDOCK:   -5.02 KCAL/MOL
REMARK 924 INTRA-LIGAND FREE ENERGY PREDICTED BY IDOCK:   -0.35 KCAL/MOL
REMARK 927      BINDING AFFINITY PREDICTED BY RF-SCORE:    0.00 PKD
ROOT
HETATM    1  C   UNL     1      -8.718  10.150  64.234  1.00  0.00    -0.205 C  
ENDROOT
BRANCH   1   2
HETATM    2  C   UNL     1      -8.341   9.992  65.667  1.00  0.00    -0.145 A  
HETATM    3  O   UNL     1      -7.401  10.855  66.156  1.00  0.00    -0.140 OA 
HETATM    4  C   UNL     1      -8.770   9.148  66.670  1.00  0.00    -0.140 A  
HETATM    5  C   UNL     1      -7.254  10.573  67.477  1.00  0.00    -0.090 A  
HETATM    6  C   UNL     1      -8.074   9.530  67.842  1.00  0.00    -0.106 A  
ENDBRANCH   1   2
BRANCH   1   7
HETATM    7  N   UNL     1      -8.936  11.520  63.784  1.00  0.00    -0.418 NA 
HETATM    8  H   UNL     1      -8.180  12.064  63.368  1.00  0.00     0.000 HD 
BRANCH   7   9
HETATM    9  C   UNL     1     -10.204  12.060  63.939  1.00  0.00    -0.398 A  
HETATM   10  C   UNL     1     -12.516  12.027  63.668  1.00  0.00    -0.525 A  
HETATM   11  N   UNL     1     -12.798  13.137  64.360  1.00  0.00    -0.687 NA 
HETATM   12  N   UNL     1     -11.307  11.464  63.439  1.00  0.00    -0.245 NA 
HETATM   13  C   UNL     1     -11.695  13.711  64.869  1.00  0.00    -0.360 A  
HETATM   14  C   UNL     1     -10.419  13.215  64.674  1.00  0.00    -0.392 A  
HETATM   15  N   UNL     1      -9.611  14.074  65.368  1.00  0.00    -0.552 NA 
HETATM   16  H   UNL     1      -8.596  14.013  65.447  1.00  0.00     0.000 HD 
HETATM   17  C   UNL     1     -10.407  15.029  65.938  1.00  0.00    -0.313 A  
HETATM   18  N   UNL     1     -11.675  14.840  65.647  1.00  0.00    -0.304 NA 
ENDBRANCH   7   9
ENDBRANCH   1   7
TORSDOF 3
ENDMDL
MODEL       96
REMARK 921   NORMALIZED FREE ENERGY PREDICTED BY IDOCK:   -4.31 KCAL/MOL
REMARK 922        TOTAL FREE ENERGY PREDICTED BY IDOCK:   -5.34 KCAL/MOL
REMARK 923 INTER-LIGAND FREE ENERGY PREDICTED BY IDOCK:   -5.18 KCAL/MOL
REMARK 924 INTRA-LIGAND FREE ENERGY PREDICTED BY IDOCK:   -0.16 KCAL/MOL
REMARK 927      BINDING AFFINITY PREDICTED BY RF-SCORE:    0.00 PKD
ROOT
HETATM    1  C   UNL     1     -10.853  13.665  67.292  1.00  0.00    -0.284 C  
ENDROOT
BRANCH   1   2
HETATM    2  C   UNL     1      -9.799  14.672  66.979  1.00  0.00    -0.244 A  
HETATM    3  O   UNL     1      -8.578  14.490  67.567  1.00  0.00    -0.167 OA 
HETATM    4  C   UNL     1      -9.767  15.787  66.168  1.00  0.00    -0.351 A  
HETATM    5  C   UNL     1      -7.766  15.476  67.105  1.00  0.00    -0.222 A  
HETATM    6  C   UNL     1      -8.451  16.300  66.243  1.00  0.00    -0.369 A  
ENDBRANCH   1   2
BRANCH   1   7
HETATM    7  N   UNL     1     -10.858  13.158  68.659  1.00  0.00    -0.255 NA 
HETATM    8  H   UNL     1     -10.342  12.315  68.910  1.00  0.00     0.000 HD 
BRANCH   7   9
HETATM    9  C   UNL     1     -11.587  13.859  69.608  1.00  0.00    -0.286 A  
HETATM   10  C   UNL     1     -12.472  15.815  70.509  1.00  0.00    -0.332 A  
HETATM   11  N   UNL     1     -13.168  15.259  71.507  1.00  0.00    -0.422 NA 
HETATM   12  N   UNL     1     -11.708  15.204  69.575  1.00  0.00    -0.308 NA 
HETATM   13  C   UNL     1     -13.055  13.920  71.520  1.00  0.00    -0.365 A  
HETATM   14  C   UNL     1     -12.287  13.212  70.614  1.00  0.00    -0.326 A  
HETATM   15  N   UNL     1     -12.467  11.902  70.966  1.00  0.00    -0.348 NA 
HETATM   16  H   UNL     1     -12.046  11.093  70.509  1.00  0.00     0.000 HD 
HETATM   17  C   UNL     1     -13.313  11.871  72.041  1.00  0.00    -0.320 A  
HETATM   18  N   UNL     1     -13.681  13.079  72.404  1.00  0.00    -0.578 NA 
ENDBRANCH   7   9
ENDBRANCH   1   7
TORSDOF 3
ENDMDL
MODEL       97
REMARK 921   NORMALIZED FREE ENERGY PREDICTED BY IDOCK:   -4.30 KCAL/MOL
REMARK 922        TOTAL FREE ENERGY PREDICTED BY IDOCK:   -5.33 KCAL/MOL
REMARK 923 INTER-LIGAND FREE ENERGY PREDICTED BY IDOCK:   -4.74 KCAL/MOL
REMARK 924 INTRA-LIGAND FREE ENERGY PREDICTED BY IDOCK:   -0.60 KCAL/MOL
REMARK 927      BINDING AFFINITY PREDICTED BY RF-SCORE:    0.00 PKD
ROOT
HETATM    1  C   UNL     1     -10.339   8.903  70.538  1.00  0.00    -0.203 C  
ENDROOT
BRANCH   1   2
HETATM    2  C   UNL     1     -11.594   9.309  71.233  1.00  0.00    -0.349 A  
HETATM    3  O   UNL     1     -11.935  10.631  71.168  1.00  0.00    -0.342 OA 
HETATM    4  C   UNL     1     -12.551   8.612  71.940  1.00  0.00    -0.411 A  
HETATM    5  C   UNL     1     -13.124  10.765  71.811  1.00  0.00    -0.468 A  
HETATM    6  C   UNL     1     -13.544   9.552  72.306  1.00  0.00    -0.494 A  
ENDBRANCH   1   2
BRANCH   1   7
HETATM    7  N   UNL     1      -9.579   9.985  69.922  1.00  0.00    -0.332 NA 
HETATM    8  H   UNL     1      -8.975  10.588  70.481  1.00  0.00     0.000 HD 
BRANCH   7   9
HETATM    9  C   UNL     1      -9.703  10.169  68.553  1.00  0.00    -0.154 A  
HETATM   10  C   UNL     1      -9.291   9.578  66.339  1.00  0.00    -0.179 A  
HETATM   11  N   UNL     1     -10.057  10.507  65.756  1.00  0.00    -0.260 NA 
HETATM   12  N   UNL     1      -9.088   9.365  67.660  1.00  0.00    -0.122 NA 
HETATM   13  C   UNL     1     -10.679  11.289  66.654  1.00  0.00    -0.272 A  
HETATM   14  C   UNL     1     -10.520  11.154  68.021  1.00  0.00    -0.188 A  
HETATM   15  N   UNL     1     -11.333  12.117  68.555  1.00  0.00    -0.250 NA 
HETATM   16  H   UNL     1     -11.467  12.307  69.547  1.00  0.00     0.000 HD 
HETATM   17  C   UNL     1     -11.933  12.778  67.519  1.00  0.00    -0.281 A  
HETATM   18  N   UNL     1     -11.551  12.303  66.354  1.00  0.00    -0.432 NA 
ENDBRANCH   7   9
ENDBRANCH   1   7
TORSDOF 3
ENDMDL
MODEL       98
REMARK 921   NORMALIZED FREE ENERGY PREDICTED BY IDOCK:   -4.28 KCAL/MOL
REMARK 922        TOTAL FREE ENERGY PREDICTED BY IDOCK:   -5.31 KCAL/MOL
REMARK 923 INTER-LIGAND FREE ENERGY PREDICTED BY IDOCK:   -4.97 KCAL/MOL
REMARK 924 INTRA-LIGAND FREE ENERGY PREDICTED BY IDOCK:   -0.35 KCAL/MOL
REMARK 927      BINDING AFFINITY PREDICTED BY RF-SCORE:    0.00 PKD
ROOT
HETATM    1  C   UNL     1     -11.409   6.942  70.563  1.00  0.00    -0.327 C  
ENDROOT
BRANCH   1   2
HETATM    2  C   UNL     1     -12.223   8.076  71.089  1.00  0.00    -0.245 A  
HETATM    3  O   UNL     1     -13.358   7.753  71.779  1.00  0.00    -0.332 OA 
HETATM    4  C   UNL     1     -12.066   9.446  71.059  1.00  0.00    -0.373 A  
HETATM    5  C   UNL     1     -13.904   8.920  72.209  1.00  0.00    -0.474 A  
HETATM    6  C   UNL     1     -13.148   9.990  71.791  1.00  0.00    -0.562 A  
ENDBRANCH   1   2
BRANCH   1   7
HETATM    7  N   UNL     1     -11.776   6.463  69.235  1.00  0.00    -0.537 NA 
HETATM    8  H   UNL     1     -12.710   6.100  69.046  1.00  0.00     0.000 HD 
BRANCH   7   9
HETATM    9  C   UNL     1     -10.814   6.518  68.238  1.00  0.00    -0.288 A  
HETATM   10  C   UNL     1      -9.241   5.546  66.823  1.00  0.00    -0.129 A  
HETATM   11  N   UNL     1      -8.922   6.641  66.124  1.00  0.00    -0.153 NA 
HETATM   12  N   UNL     1     -10.133   5.424  67.833  1.00  0.00    -0.165 NA 
HETATM   13  C   UNL     1      -9.618   7.719  66.522  1.00  0.00    -0.201 A  
HETATM   14  C   UNL     1     -10.539   7.691  67.553  1.00  0.00    -0.252 A  
HETATM   15  N   UNL     1     -11.022   8.971  67.612  1.00  0.00    -0.479 NA 
HETATM   16  H   UNL     1     -11.726   9.318  68.263  1.00  0.00     0.000 HD 
HETATM   17  C   UNL     1     -10.391   9.700  66.643  1.00  0.00    -0.208 A  
HETATM   18  N   UNL     1      -9.529   8.970  65.970  1.00  0.00    -0.240 NA 
ENDBRANCH   7   9
ENDBRANCH   1   7
TORSDOF 3
ENDMDL
MODEL       99
REMARK 921   NORMALIZED FREE ENERGY PREDICTED BY IDOCK:   -4.28 KCAL/MOL
REMARK 922        TOTAL FREE ENERGY PREDICTED BY IDOCK:   -5.31 KCAL/MOL
REMARK 923 INTER-LIGAND FREE ENERGY PREDICTED BY IDOCK:   -5.02 KCAL/MOL
REMARK 924 INTRA-LIGAND FREE ENERGY PREDICTED BY IDOCK:   -0.29 KCAL/MOL
REMARK 927      BINDING AFFINITY PREDICTED BY RF-SCORE:    0.00 PKD
ROOT
HETATM    1  C   UNL     1     -10.472  14.545  67.798  1.00  0.00    -0.242 C  
ENDROOT
BRANCH   1   2
HETATM    2  C   UNL     1     -10.933  14.817  66.406  1.00  0.00    -0.331 A  
HETATM    3  O   UNL     1     -11.913  14.003  65.911  1.00  0.00    -0.370 OA 
HETATM    4  C   UNL     1     -10.595  15.770  65.468  1.00  0.00    -0.424 A  
HETATM    5  C   UNL     1     -12.216  14.460  64.668  1.00  0.00    -0.464 A  
HETATM    6  C   UNL     1     -11.432  15.544  64.349  1.00  0.00    -0.264 A  
ENDBRANCH   1   2
BRANCH   1   7
HETATM    7  N   UNL     1     -11.496  14.069  68.721  1.00  0.00    -0.271 NA 
HETATM    8  H   UNL     1     -12.210  14.700  69.085  1.00  0.00     0.000 HD 
BRANCH   7   9
HETATM    9  C   UNL     1     -11.467  12.733  69.090  1.00  0.00    -0.306 A  
HETATM   10  C   UNL     1     -10.711  10.541  68.875  1.00  0.00    -0.220 A  
HETATM   11  N   UNL     1     -11.349  10.023  69.930  1.00  0.00    -0.254 NA 
HETATM   12  N   UNL     1     -10.724  11.819  68.430  1.00  0.00    -0.209 NA 
HETATM   13  C   UNL     1     -12.070  10.944  70.591  1.00  0.00    -0.371 A  
HETATM   14  C   UNL     1     -12.153  12.268  70.202  1.00  0.00    -0.287 A  
HETATM   15  N   UNL     1     -12.956  12.850  71.145  1.00  0.00    -0.234 NA 
HETATM   16  H   UNL     1     -13.235  13.830  71.174  1.00  0.00     0.000 HD 
HETATM   17  C   UNL     1     -13.317  11.883  72.041  1.00  0.00    -0.320 A  
HETATM   18  N   UNL     1     -12.800  10.714  71.728  1.00  0.00    -0.458 NA 
ENDBRANCH   7   9
ENDBRANCH   1   7
TORSDOF 3
ENDMDL
MODEL      100
REMARK 921   NORMALIZED FREE ENERGY PREDICTED BY IDOCK:   -4.26 KCAL/MOL
REMARK 922        TOTAL FREE ENERGY PREDICTED BY IDOCK:   -5.28 KCAL/MOL
REMARK 923 INTER-LIGAND FREE ENERGY PREDICTED BY IDOCK:   -4.97 KCAL/MOL
REMARK 924 INTRA-LIGAND FREE ENERGY PREDICTED BY IDOCK:   -0.32 KCAL/MOL
REMARK 927      BINDING AFFINITY PREDICTED BY RF-SCORE:    0.00 PKD
ROOT
HETATM    1  C   UNL     1     -12.516  12.445  70.604  1.00  0.00    -0.234 C  
ENDROOT
BRANCH   1   2
HETATM    2  C   UNL     1     -12.111  13.487  69.616  1.00  0.00    -0.306 A  
HETATM    3  O   UNL     1     -12.089  13.114  68.301  1.00  0.00    -0.317 OA 
HETATM    4  C   UNL     1     -11.764  14.816  69.733  1.00  0.00    -0.354 A  
HETATM    5  C   UNL     1     -11.754  14.217  67.584  1.00  0.00    -0.389 A  
HETATM    6  C   UNL     1     -11.542  15.290  68.418  1.00  0.00    -0.365 A  
ENDBRANCH   1   2
BRANCH   1   7
HETATM    7  N   UNL     1     -12.539  11.075  70.105  1.00  0.00    -0.254 NA 
HETATM    8  H   UNL     1     -13.008  10.842  69.230  1.00  0.00     0.000 HD 
BRANCH   7   9
HETATM    9  C   UNL     1     -11.901  10.100  70.857  1.00  0.00    -0.374 A  
HETATM   10  C   UNL     1     -11.886   8.353  72.396  1.00  0.00    -0.384 A  
HETATM   11  N   UNL     1     -10.587   8.045  72.310  1.00  0.00    -0.266 NA 
HETATM   12  N   UNL     1     -12.568   9.313  71.729  1.00  0.00    -0.354 NA 
HETATM   13  C   UNL     1      -9.938   8.822  71.427  1.00  0.00    -0.283 A  
HETATM   14  C   UNL     1     -10.549   9.834  70.712  1.00  0.00    -0.301 A  
HETATM   15  N   UNL     1      -9.550  10.348  69.929  1.00  0.00    -0.411 NA 
HETATM   16  H   UNL     1      -9.642  11.116  69.265  1.00  0.00     0.000 HD 
HETATM   17  C   UNL     1      -8.408   9.645  70.195  1.00  0.00    -0.198 A  
HETATM   18  N   UNL     1      -8.610   8.717  71.105  1.00  0.00    -0.179 NA 
ENDBRANCH   7   9
ENDBRANCH   1   7
TORSDOF 3
ENDMDL
MODEL      101
REMARK 921   NORMALIZED FREE ENERGY PREDICTED BY IDOCK:   -4.26 KCAL/MOL
REMARK 922        TOTAL FREE ENERGY PREDICTED BY IDOCK:   -5.28 KCAL/MOL
REMARK 923 INTER-LIGAND FREE ENERGY PREDICTED BY IDOCK:   -4.93 KCAL/MOL
REMARK 924 INTRA-LIGAND FREE ENERGY PREDICTED BY IDOCK:   -0.35 KCAL/MOL
REMARK 927      BINDING AFFINITY PREDICTED BY RF-SCORE:    0.00 PKD
ROOT
HETATM    1  C   UNL     1     -12.020  15.720  69.213  1.00  0.00    -0.289 C  
ENDROOT
BRANCH   1   2
HETATM    2  C   UNL     1     -12.067  14.278  69.590  1.00  0.00    -0.346 A  
HETATM    3  O   UNL     1     -11.691  13.378  68.634  1.00  0.00    -0.305 OA 
HETATM    4  C   UNL     1     -12.395  13.616  70.755  1.00  0.00    -0.446 A  
HETATM    5  C   UNL     1     -11.755  12.146  69.203  1.00  0.00    -0.328 A  
HETATM    6  C   UNL     1     -12.184  12.239  70.507  1.00  0.00    -0.387 A  
ENDBRANCH   1   2
BRANCH   1   7
HETATM    7  N   UNL     1     -11.284  16.030  67.992  1.00  0.00    -0.333 NA 
HETATM    8  H   UNL     1     -11.540  15.604  67.102  1.00  0.00     0.000 HD 
BRANCH   7   9
HETATM    9  C   UNL     1     -10.227  16.923  68.081  1.00  0.00    -0.311 A  
HETATM   10  C   UNL     1      -9.292  19.048  67.912  1.00  0.00    -0.308 A  
HETATM   11  N   UNL     1      -8.071  18.748  68.368  1.00  0.00    -0.329 NA 
HETATM   12  N   UNL     1     -10.357  18.228  67.758  1.00  0.00    -0.383 NA 
HETATM   13  C   UNL     1      -7.958  17.452  68.703  1.00  0.00    -0.271 A  
HETATM   14  C   UNL     1      -8.987  16.539  68.567  1.00  0.00    -0.231 A  
HETATM   15  N   UNL     1      -8.463  15.364  69.035  1.00  0.00    -0.211 NA 
HETATM   16  H   UNL     1      -8.947  14.468  69.085  1.00  0.00     0.000 HD 
HETATM   17  C   UNL     1      -7.175  15.607  69.424  1.00  0.00    -0.212 A  
HETATM   18  N   UNL     1      -6.838  16.863  69.228  1.00  0.00    -0.238 NA 
ENDBRANCH   7   9
ENDBRANCH   1   7
TORSDOF 3
ENDMDL
MODEL      102
REMARK 921   NORMALIZED FREE ENERGY PREDICTED BY IDOCK:   -4.24 KCAL/MOL
REMARK 922        TOTAL FREE ENERGY PREDICTED BY IDOCK:   -5.26 KCAL/MOL
REMARK 923 INTER-LIGAND FREE ENERGY PREDICTED BY IDOCK:   -5.15 KCAL/MOL
REMARK 924 INTRA-LIGAND FREE ENERGY PREDICTED BY IDOCK:   -0.11 KCAL/MOL
REMARK 927      BINDING AFFINITY PREDICTED BY RF-SCORE:    0.00 PKD
ROOT
HETATM    1  C   UNL     1     -11.772  12.775  69.831  1.00  0.00    -0.251 C  
ENDROOT
BRANCH   1   2
HETATM    2  C   UNL     1     -12.562  13.548  70.832  1.00  0.00    -0.337 A  
HETATM    3  O   UNL     1     -12.795  14.865  70.550  1.00  0.00    -0.355 OA 
HETATM    4  C   UNL     1     -13.166  13.210  72.025  1.00  0.00    -0.543 A  
HETATM    5  C   UNL     1     -13.571  15.353  71.553  1.00  0.00    -0.512 A  
HETATM    6  C   UNL     1     -13.825  14.375  72.485  1.00  0.00    -0.559 A  
ENDBRANCH   1   2
BRANCH   1   7
HETATM    7  N   UNL     1     -12.136  11.371  69.686  1.00  0.00    -0.314 NA 
HETATM    8  H   UNL     1     -12.979  10.998  70.122  1.00  0.00     0.000 HD 
BRANCH   7   9
HETATM    9  C   UNL     1     -11.300  10.558  68.936  1.00  0.00    -0.251 A  
HETATM   10  C   UNL     1      -9.914   8.708  68.659  1.00  0.00    -0.183 A  
HETATM   11  N   UNL     1      -9.671   8.854  67.351  1.00  0.00    -0.166 NA 
HETATM   12  N   UNL     1     -10.681   9.480  69.463  1.00  0.00    -0.224 NA 
HETATM   13  C   UNL     1     -10.307   9.919  66.834  1.00  0.00    -0.235 A  
HETATM   14  C   UNL     1     -11.099  10.770  67.581  1.00  0.00    -0.319 A  
HETATM   15  N   UNL     1     -11.560  11.688  66.676  1.00  0.00    -0.506 NA 
HETATM   16  H   UNL     1     -12.179  12.472  66.878  1.00  0.00     0.000 HD 
HETATM   17  C   UNL     1     -11.043  11.364  65.453  1.00  0.00    -0.128 A  
HETATM   18  N   UNL     1     -10.273  10.300  65.517  1.00  0.00    -0.270 NA 
ENDBRANCH   7   9
ENDBRANCH   1   7
TORSDOF 3
ENDMDL
MODEL      103
REMARK 921   NORMALIZED FREE ENERGY PREDICTED BY IDOCK:   -4.24 KCAL/MOL
REMARK 922        TOTAL FREE ENERGY PREDICTED BY IDOCK:   -5.26 KCAL/MOL
REMARK 923 INTER-LIGAND FREE ENERGY PREDICTED BY IDOCK:   -4.97 KCAL/MOL
REMARK 924 INTRA-LIGAND FREE ENERGY PREDICTED BY IDOCK:   -0.28 KCAL/MOL
REMARK 927      BINDING AFFINITY PREDICTED BY RF-SCORE:    0.00 PKD
ROOT
HETATM    1  C   UNL     1     -11.446  11.578  67.312  1.00  0.00    -0.263 C  
ENDROOT
BRANCH   1   2
HETATM    2  C   UNL     1     -11.551  11.909  65.862  1.00  0.00    -0.224 A  
HETATM    3  O   UNL     1     -10.635  11.329  65.029  1.00  0.00    -0.294 OA 
HETATM    4  C   UNL     1     -12.423  12.687  65.130  1.00  0.00    -0.531 A  
HETATM    5  C   UNL     1     -10.947  11.719  63.766  1.00  0.00    -0.429 A  
HETATM    6  C   UNL     1     -12.038  12.556  63.775  1.00  0.00    -0.615 A  
ENDBRANCH   1   2
BRANCH   1   7
HETATM    7  N   UNL     1     -10.276  10.799  67.700  1.00  0.00    -0.182 NA 
HETATM    8  H   UNL     1      -9.373  10.948  67.250  1.00  0.00     0.000 HD 
BRANCH   7   9
HETATM    9  C   UNL     1     -10.430   9.850  68.699  1.00  0.00    -0.206 A  
HETATM   10  C   UNL     1     -10.647   9.204  70.925  1.00  0.00    -0.273 A  
HETATM   11  N   UNL     1     -10.847   7.898  70.718  1.00  0.00    -0.228 NA 
HETATM   12  N   UNL     1     -10.448  10.179  70.009  1.00  0.00    -0.277 NA 
HETATM   13  C   UNL     1     -10.845   7.584  69.412  1.00  0.00    -0.150 A  
HETATM   14  C   UNL     1     -10.637   8.511  68.407  1.00  0.00    -0.111 A  
HETATM   15  N   UNL     1     -10.736   7.786  67.250  1.00  0.00    -0.489 NA 
HETATM   16  H   UNL     1     -10.636   8.150  66.303  1.00  0.00     0.000 HD 
HETATM   17  C   UNL     1     -10.992   6.488  67.592  1.00  0.00    -0.337 A  
HETATM   18  N   UNL     1     -11.057   6.332  68.896  1.00  0.00    -0.365 NA 
ENDBRANCH   7   9
ENDBRANCH   1   7
TORSDOF 3
ENDMDL
MODEL      104
REMARK 921   NORMALIZED FREE ENERGY PREDICTED BY IDOCK:   -4.23 KCAL/MOL
REMARK 922        TOTAL FREE ENERGY PREDICTED BY IDOCK:   -5.25 KCAL/MOL
REMARK 923 INTER-LIGAND FREE ENERGY PREDICTED BY IDOCK:   -5.05 KCAL/MOL
REMARK 924 INTRA-LIGAND FREE ENERGY PREDICTED BY IDOCK:   -0.20 KCAL/MOL
REMARK 927      BINDING AFFINITY PREDICTED BY RF-SCORE:    0.00 PKD
ROOT
HETATM    1  C   UNL     1      -8.430  15.873  69.187  1.00  0.00    -0.254 C  
ENDROOT
BRANCH   1   2
HETATM    2  C   UNL     1      -9.854  15.432  69.185  1.00  0.00    -0.247 A  
HETATM    3  O   UNL     1     -10.745  16.219  69.861  1.00  0.00    -0.322 OA 
HETATM    4  C   UNL     1     -10.515  14.371  68.602  1.00  0.00    -0.247 A  
HETATM    5  C   UNL     1     -11.974  15.669  69.681  1.00  0.00    -0.349 A  
HETATM    6  C   UNL     1     -11.885  14.530  68.916  1.00  0.00    -0.359 A  
ENDBRANCH   1   2
BRANCH   1   7
HETATM    7  N   UNL     1      -7.997  16.618  68.011  1.00  0.00    -0.168 NA 
HETATM    8  H   UNL     1      -7.093  16.435  67.576  1.00  0.00     0.000 HD 
BRANCH   7   9
HETATM    9  C   UNL     1      -8.852  17.583  67.502  1.00  0.00    -0.229 A  
HETATM   10  C   UNL     1      -9.689  19.753  67.382  1.00  0.00    -0.373 A  
HETATM   11  N   UNL     1     -10.547  19.563  66.373  1.00  0.00    -0.467 NA 
HETATM   12  N   UNL     1      -8.856  18.855  67.957  1.00  0.00    -0.298 NA 
HETATM   13  C   UNL     1     -10.522  18.300  65.917  1.00  0.00    -0.307 A  
HETATM   14  C   UNL     1      -9.714  17.313  66.451  1.00  0.00    -0.290 A  
HETATM   15  N   UNL     1      -9.982  16.206  65.691  1.00  0.00    -0.466 NA 
HETATM   16  H   UNL     1      -9.560  15.285  65.803  1.00  0.00     0.000 HD 
HETATM   17  C   UNL     1     -10.914  16.558  64.755  1.00  0.00    -0.177 A  
HETATM   18  N   UNL     1     -11.266  17.819  64.870  1.00  0.00    -0.498 NA 
ENDBRANCH   7   9
ENDBRANCH   1   7
TORSDOF 3
ENDMDL
MODEL      105
REMARK 921   NORMALIZED FREE ENERGY PREDICTED BY IDOCK:   -4.23 KCAL/MOL
REMARK 922        TOTAL FREE ENERGY PREDICTED BY IDOCK:   -5.25 KCAL/MOL
REMARK 923 INTER-LIGAND FREE ENERGY PREDICTED BY IDOCK:   -4.88 KCAL/MOL
REMARK 924 INTRA-LIGAND FREE ENERGY PREDICTED BY IDOCK:   -0.37 KCAL/MOL
REMARK 927      BINDING AFFINITY PREDICTED BY RF-SCORE:    0.00 PKD
ROOT
HETATM    1  C   UNL     1     -10.201   7.508  69.234  1.00  0.00    -0.201 C  
ENDROOT
BRANCH   1   2
HETATM    2  C   UNL     1     -10.948   7.652  70.516  1.00  0.00    -0.249 A  
HETATM    3  O   UNL     1     -10.757   8.811  71.215  1.00  0.00    -0.229 OA 
HETATM    4  C   UNL     1     -11.855   6.850  71.177  1.00  0.00    -0.395 A  
HETATM    5  C   UNL     1     -11.566   8.754  72.304  1.00  0.00    -0.321 A  
HETATM    6  C   UNL     1     -12.261   7.567  72.328  1.00  0.00    -0.233 A  
ENDBRANCH   1   2
BRANCH   1   7
HETATM    7  N   UNL     1     -10.955   7.821  68.025  1.00  0.00    -0.462 NA 
HETATM    8  H   UNL     1     -11.780   7.281  67.765  1.00  0.00     0.000 HD 
BRANCH   7   9
HETATM    9  C   UNL     1     -10.515   8.876  67.240  1.00  0.00    -0.277 A  
HETATM   10  C   UNL     1      -9.377   9.762  65.413  1.00  0.00    -0.252 A  
HETATM   11  N   UNL     1      -9.710  11.045  65.594  1.00  0.00    -0.219 NA 
HETATM   12  N   UNL     1      -9.732   8.689  66.156  1.00  0.00    -0.248 NA 
HETATM   13  C   UNL     1     -10.504  11.217  66.664  1.00  0.00    -0.247 A  
HETATM   14  C   UNL     1     -10.905  10.182  67.488  1.00  0.00    -0.290 A  
HETATM   15  N   UNL     1     -11.705  10.782  68.423  1.00  0.00    -0.662 NA 
HETATM   16  H   UNL     1     -12.180  10.316  69.196  1.00  0.00     0.000 HD 
HETATM   17  C   UNL     1     -11.754  12.118  68.135  1.00  0.00    -0.341 A  
HETATM   18  N   UNL     1     -11.030  12.414  67.078  1.00  0.00    -0.250 NA 
ENDBRANCH   7   9
ENDBRANCH   1   7
TORSDOF 3
ENDMDL
MODEL      106
REMARK 921   NORMALIZED FREE ENERGY PREDICTED BY IDOCK:   -4.22 KCAL/MOL
REMARK 922        TOTAL FREE ENERGY PREDICTED BY IDOCK:   -5.24 KCAL/MOL
REMARK 923 INTER-LIGAND FREE ENERGY PREDICTED BY IDOCK:   -5.03 KCAL/MOL
REMARK 924 INTRA-LIGAND FREE ENERGY PREDICTED BY IDOCK:   -0.21 KCAL/MOL
REMARK 927      BINDING AFFINITY PREDICTED BY RF-SCORE:    0.00 PKD
ROOT
HETATM    1  C   UNL     1     -11.525  12.157  69.476  1.00  0.00    -0.265 C  
ENDROOT
BRANCH   1   2
HETATM    2  C   UNL     1     -12.291  12.661  70.651  1.00  0.00    -0.290 A  
HETATM    3  O   UNL     1     -12.059  13.953  71.032  1.00  0.00    -0.340 OA 
HETATM    4  C   UNL     1     -13.251  12.097  71.466  1.00  0.00    -0.270 A  
HETATM    5  C   UNL     1     -12.893  14.215  72.071  1.00  0.00    -0.338 A  
HETATM    6  C   UNL     1     -13.646  13.106  72.377  1.00  0.00    -0.667 A  
ENDBRANCH   1   2
BRANCH   1   7
HETATM    7  N   UNL     1     -11.948  10.864  68.952  1.00  0.00    -0.630 NA 
HETATM    8  H   UNL     1     -12.720  10.351  69.377  1.00  0.00     0.000 HD 
BRANCH   7   9
HETATM    9  C   UNL     1     -11.266  10.352  67.858  1.00  0.00    -0.263 A  
HETATM   10  C   UNL     1     -10.272  10.547  65.762  1.00  0.00    -0.243 A  
HETATM   11  N   UNL     1      -9.781   9.305  65.676  1.00  0.00    -0.275 NA 
HETATM   12  N   UNL     1     -10.979  11.102  66.773  1.00  0.00    -0.271 NA 
HETATM   13  C   UNL     1     -10.055   8.574  66.769  1.00  0.00    -0.299 A  
HETATM   14  C   UNL     1     -10.782   9.053  67.842  1.00  0.00    -0.138 A  
HETATM   15  N   UNL     1     -10.808   8.010  68.728  1.00  0.00    -0.420 NA 
HETATM   16  H   UNL     1     -11.262   8.008  69.641  1.00  0.00     0.000 HD 
HETATM   17  C   UNL     1     -10.116   6.971  68.170  1.00  0.00    -0.169 A  
HETATM   18  N   UNL     1      -9.653   7.280  66.979  1.00  0.00    -0.156 NA 
ENDBRANCH   7   9
ENDBRANCH   1   7
TORSDOF 3
ENDMDL
MODEL      107
REMARK 921   NORMALIZED FREE ENERGY PREDICTED BY IDOCK:   -4.22 KCAL/MOL
REMARK 922        TOTAL FREE ENERGY PREDICTED BY IDOCK:   -5.23 KCAL/MOL
REMARK 923 INTER-LIGAND FREE ENERGY PREDICTED BY IDOCK:   -4.91 KCAL/MOL
REMARK 924 INTRA-LIGAND FREE ENERGY PREDICTED BY IDOCK:   -0.33 KCAL/MOL
REMARK 927      BINDING AFFINITY PREDICTED BY RF-SCORE:    0.00 PKD
ROOT
HETATM    1  C   UNL     1     -10.596   8.815  68.279  1.00  0.00    -0.142 C  
ENDROOT
BRANCH   1   2
HETATM    2  C   UNL     1     -10.367   7.382  67.938  1.00  0.00    -0.204 A  
HETATM    3  O   UNL     1      -9.508   6.687  68.742  1.00  0.00    -0.131 OA 
HETATM    4  C   UNL     1     -10.873   6.550  66.961  1.00  0.00    -0.465 A  
HETATM    5  C   UNL     1      -9.492   5.406  68.289  1.00  0.00    -0.119 A  
HETATM    6  C   UNL     1     -10.314   5.271  67.195  1.00  0.00    -0.268 A  
ENDBRANCH   1   2
BRANCH   1   7
HETATM    7  N   UNL     1     -10.339   9.184  69.666  1.00  0.00    -0.211 NA 
HETATM    8  H   UNL     1      -9.388   9.337  70.002  1.00  0.00     0.000 HD 
BRANCH   7   9
HETATM    9  C   UNL     1     -11.428   9.320  70.514  1.00  0.00    -0.248 A  
HETATM   10  C   UNL     1     -13.013   8.481  71.999  1.00  0.00    -0.371 A  
HETATM   11  N   UNL     1     -13.594   9.642  72.322  1.00  0.00    -0.423 NA 
HETATM   12  N   UNL     1     -11.979   8.265  71.153  1.00  0.00    -0.283 NA 
HETATM   13  C   UNL     1     -13.026  10.685  71.695  1.00  0.00    -0.477 A  
HETATM   14  C   UNL     1     -11.977  10.559  70.804  1.00  0.00    -0.370 A  
HETATM   15  N   UNL     1     -11.698  11.844  70.422  1.00  0.00    -0.523 NA 
HETATM   16  H   UNL     1     -10.972  12.131  69.767  1.00  0.00     0.000 HD 
HETATM   17  C   UNL     1     -12.565  12.672  71.079  1.00  0.00    -0.262 A  
HETATM   18  N   UNL     1     -13.388  11.998  71.852  1.00  0.00    -0.408 NA 
ENDBRANCH   7   9
ENDBRANCH   1   7
TORSDOF 3
ENDMDL
MODEL      108
REMARK 921   NORMALIZED FREE ENERGY PREDICTED BY IDOCK:   -4.19 KCAL/MOL
REMARK 922        TOTAL FREE ENERGY PREDICTED BY IDOCK:   -5.20 KCAL/MOL
REMARK 923 INTER-LIGAND FREE ENERGY PREDICTED BY IDOCK:   -4.63 KCAL/MOL
REMARK 924 INTRA-LIGAND FREE ENERGY PREDICTED BY IDOCK:   -0.57 KCAL/MOL
REMARK 927      BINDING AFFINITY PREDICTED BY RF-SCORE:    0.00 PKD
ROOT
HETATM    1  C   UNL     1     -10.157  10.110  67.308  1.00  0.00    -0.206 C  
ENDROOT
BRANCH   1   2
HETATM    2  C   UNL     1      -9.026  10.224  68.273  1.00  0.00    -0.132 A  
HETATM    3  O   UNL     1      -8.188  11.292  68.117  1.00  0.00    -0.127 OA 
HETATM    4  C   UNL     1      -8.632   9.472  69.360  1.00  0.00    -0.159 A  
HETATM    5  C   UNL     1      -7.278  11.230  69.124  1.00  0.00    -0.115 A  
HETATM    6  C   UNL     1      -7.507  10.128  69.914  1.00  0.00    -0.176 A  
ENDBRANCH   1   2
BRANCH   1   7
HETATM    7  N   UNL     1     -11.371  10.833  67.668  1.00  0.00    -0.460 NA 
HETATM    8  H   UNL     1     -12.062  10.422  68.296  1.00  0.00     0.000 HD 
BRANCH   7   9
HETATM    9  C   UNL     1     -11.557  12.098  67.130  1.00  0.00    -0.335 A  
HETATM   10  C   UNL     1     -12.444  13.570  65.560  1.00  0.00    -0.491 A  
HETATM   11  N   UNL     1     -12.004  14.709  66.107  1.00  0.00    -0.298 NA 
HETATM   12  N   UNL     1     -12.269  12.303  66.001  1.00  0.00    -0.597 NA 
HETATM   13  C   UNL     1     -11.313  14.494  67.239  1.00  0.00    -0.350 A  
HETATM   14  C   UNL     1     -11.072  13.235  67.757  1.00  0.00    -0.265 A  
HETATM   15  N   UNL     1     -10.366  13.469  68.906  1.00  0.00    -0.407 NA 
HETATM   16  H   UNL     1     -10.018  12.761  69.552  1.00  0.00     0.000 HD 
HETATM   17  C   UNL     1     -10.212  14.822  69.033  1.00  0.00    -0.237 A  
HETATM   18  N   UNL     1     -10.769  15.470  68.034  1.00  0.00    -0.274 NA 
ENDBRANCH   7   9
ENDBRANCH   1   7
TORSDOF 3
ENDMDL
MODEL      109
REMARK 921   NORMALIZED FREE ENERGY PREDICTED BY IDOCK:   -4.18 KCAL/MOL
REMARK 922        TOTAL FREE ENERGY PREDICTED BY IDOCK:   -5.20 KCAL/MOL
REMARK 923 INTER-LIGAND FREE ENERGY PREDICTED BY IDOCK:   -4.97 KCAL/MOL
REMARK 924 INTRA-LIGAND FREE ENERGY PREDICTED BY IDOCK:   -0.23 KCAL/MOL
REMARK 927      BINDING AFFINITY PREDICTED BY RF-SCORE:    0.00 PKD
ROOT
HETATM    1  C   UNL     1     -10.076  12.873  68.539  1.00  0.00    -0.189 C  
ENDROOT
BRANCH   1   2
HETATM    2  C   UNL     1     -10.281  11.454  68.948  1.00  0.00    -0.168 A  
HETATM    3  O   UNL     1      -9.264  10.582  68.678  1.00  0.00    -0.156 OA 
HETATM    4  C   UNL     1     -11.306  10.795  69.594  1.00  0.00    -0.362 A  
HETATM    5  C   UNL     1      -9.635   9.375  69.180  1.00  0.00    -0.163 A  
HETATM    6  C   UNL     1     -10.884   9.454  69.752  1.00  0.00    -0.250 A  
ENDBRANCH   1   2
BRANCH   1   7
HETATM    7  N   UNL     1      -9.608  13.077  67.173  1.00  0.00    -0.223 NA 
HETATM    8  H   UNL     1      -9.254  12.299  66.617  1.00  0.00     0.000 HD 
BRANCH   7   9
HETATM    9  C   UNL     1      -9.660  14.362  66.654  1.00  0.00    -0.281 A  
HETATM   10  C   UNL     1      -8.872  16.543  66.444  1.00  0.00    -0.310 A  
HETATM   11  N   UNL     1      -9.726  16.956  65.501  1.00  0.00    -0.518 NA 
HETATM   12  N   UNL     1      -8.788  15.324  67.026  1.00  0.00    -0.220 NA 
HETATM   13  C   UNL     1     -10.576  15.986  65.125  1.00  0.00    -0.370 A  
HETATM   14  C   UNL     1     -10.573  14.717  65.674  1.00  0.00    -0.332 A  
HETATM   15  N   UNL     1     -11.565  14.054  65.003  1.00  0.00    -0.335 NA 
HETATM   16  H   UNL     1     -11.845  13.084  65.149  1.00  0.00     0.000 HD 
HETATM   17  C   UNL     1     -12.113  14.924  64.102  1.00  0.00    -0.267 A  
HETATM   18  N   UNL     1     -11.539  16.105  64.157  1.00  0.00    -0.822 NA 
ENDBRANCH   7   9
ENDBRANCH   1   7
TORSDOF 3
ENDMDL
MODEL      110
REMARK 921   NORMALIZED FREE ENERGY PREDICTED BY IDOCK:   -4.18 KCAL/MOL
REMARK 922        TOTAL FREE ENERGY PREDICTED BY IDOCK:   -5.19 KCAL/MOL
REMARK 923 INTER-LIGAND FREE ENERGY PREDICTED BY IDOCK:   -4.97 KCAL/MOL
REMARK 924 INTRA-LIGAND FREE ENERGY PREDICTED BY IDOCK:   -0.22 KCAL/MOL
REMARK 927      BINDING AFFINITY PREDICTED BY RF-SCORE:    0.00 PKD
ROOT
HETATM    1  C   UNL     1     -11.113   9.138  70.274  1.00  0.00    -0.239 C  
ENDROOT
BRANCH   1   2
HETATM    2  C   UNL     1     -11.844  10.353  70.736  1.00  0.00    -0.368 A  
HETATM    3  O   UNL     1     -11.614  11.510  70.046  1.00  0.00    -0.301 OA 
HETATM    4  C   UNL     1     -12.768  10.578  71.735  1.00  0.00    -0.508 A  
HETATM    5  C   UNL     1     -12.414  12.462  70.593  1.00  0.00    -0.234 A  
HETATM    6  C   UNL     1     -13.143  11.939  71.636  1.00  0.00    -0.433 A  
ENDBRANCH   1   2
BRANCH   1   7
HETATM    7  N   UNL     1     -11.852   7.884  70.363  1.00  0.00    -0.472 NA 
HETATM    8  H   UNL     1     -12.841   7.872  70.611  1.00  0.00     0.000 HD 
BRANCH   7   9
HETATM    9  C   UNL     1     -11.167   6.707  70.100  1.00  0.00    -0.360 A  
HETATM   10  C   UNL     1     -10.108   4.738  70.750  1.00  0.00    -0.216 A  
HETATM   11  N   UNL     1      -9.854   4.255  69.529  1.00  0.00    -0.199 NA 
HETATM   12  N   UNL     1     -10.731   5.892  71.084  1.00  0.00    -0.255 NA 
HETATM   13  C   UNL     1     -10.308   5.064  68.558  1.00  0.00    -0.024 A  
HETATM   14  C   UNL     1     -10.943   6.267  68.805  1.00  0.00    -0.352 A  
HETATM   15  N   UNL     1     -11.253   6.750  67.562  1.00  0.00    -0.644 NA 
HETATM   16  H   UNL     1     -11.732   7.627  67.360  1.00  0.00     0.000 HD 
HETATM   17  C   UNL     1     -10.805   5.845  66.639  1.00  0.00    -0.217 A  
HETATM   18  N   UNL     1     -10.221   4.816  67.213  1.00  0.00    -0.145 NA 
ENDBRANCH   7   9
ENDBRANCH   1   7
TORSDOF 3
ENDMDL
MODEL      111
REMARK 921   NORMALIZED FREE ENERGY PREDICTED BY IDOCK:   -4.17 KCAL/MOL
REMARK 922        TOTAL FREE ENERGY PREDICTED BY IDOCK:   -5.19 KCAL/MOL
REMARK 923 INTER-LIGAND FREE ENERGY PREDICTED BY IDOCK:   -4.78 KCAL/MOL
REMARK 924 INTRA-LIGAND FREE ENERGY PREDICTED BY IDOCK:   -0.40 KCAL/MOL
REMARK 927      BINDING AFFINITY PREDICTED BY RF-SCORE:    0.00 PKD
ROOT
HETATM    1  C   UNL     1      -9.621  14.686  66.987  1.00  0.00    -0.240 C  
ENDROOT
BRANCH   1   2
HETATM    2  C   UNL     1     -10.890  14.477  66.232  1.00  0.00    -0.317 A  
HETATM    3  O   UNL     1     -10.879  14.804  64.905  1.00  0.00    -0.389 OA 
HETATM    4  C   UNL     1     -12.127  13.978  66.583  1.00  0.00    -0.487 A  
HETATM    5  C   UNL     1     -12.103  14.485  64.410  1.00  0.00    -0.472 A  
HETATM    6  C   UNL     1     -12.907  13.975  65.402  1.00  0.00    -0.442 A  
ENDBRANCH   1   2
BRANCH   1   7
HETATM    7  N   UNL     1      -8.537  13.764  66.667  1.00  0.00    -0.445 NA 
HETATM    8  H   UNL     1      -7.700  14.085  66.180  1.00  0.00     0.000 HD 
BRANCH   7   9
HETATM    9  C   UNL     1      -8.680  12.437  67.045  1.00  0.00    -0.207 A  
HETATM   10  C   UNL     1      -8.764  10.733  68.628  1.00  0.00    -0.152 A  
HETATM   11  N   UNL     1      -9.078   9.729  67.801  1.00  0.00    -0.131 NA 
HETATM   12  N   UNL     1      -8.568  12.038  68.330  1.00  0.00    -0.174 NA 
HETATM   13  C   UNL     1      -9.205  10.141  66.529  1.00  0.00    -0.153 A  
HETATM   14  C   UNL     1      -9.010  11.450  66.129  1.00  0.00    -0.201 A  
HETATM   15  N   UNL     1      -9.257  11.435  64.783  1.00  0.00    -0.398 NA 
HETATM   16  H   UNL     1      -9.207  12.236  64.154  1.00  0.00     0.000 HD 
HETATM   17  C   UNL     1      -9.581  10.154  64.432  1.00  0.00    -0.302 A  
HETATM   18  N   UNL     1      -9.552   9.345  65.468  1.00  0.00    -0.275 NA 
ENDBRANCH   7   9
ENDBRANCH   1   7
TORSDOF 3
ENDMDL
MODEL      112
REMARK 921   NORMALIZED FREE ENERGY PREDICTED BY IDOCK:   -4.16 KCAL/MOL
REMARK 922        TOTAL FREE ENERGY PREDICTED BY IDOCK:   -5.17 KCAL/MOL
REMARK 923 INTER-LIGAND FREE ENERGY PREDICTED BY IDOCK:   -4.83 KCAL/MOL
REMARK 924 INTRA-LIGAND FREE ENERGY PREDICTED BY IDOCK:   -0.34 KCAL/MOL
REMARK 927      BINDING AFFINITY PREDICTED BY RF-SCORE:    0.00 PKD
ROOT
HETATM    1  C   UNL     1      -9.376  13.999  67.138  1.00  0.00    -0.242 C  
ENDROOT
BRANCH   1   2
HETATM    2  C   UNL     1     -10.655  14.164  66.390  1.00  0.00    -0.280 A  
HETATM    3  O   UNL     1     -10.564  14.638  65.111  1.00  0.00    -0.363 OA 
HETATM    4  C   UNL     1     -11.973  13.908  66.704  1.00  0.00    -0.474 A  
HETATM    5  C   UNL     1     -11.825  14.655  64.606  1.00  0.00    -0.452 A  
HETATM    6  C   UNL     1     -12.728  14.217  65.547  1.00  0.00    -0.468 A  
ENDBRANCH   1   2
BRANCH   1   7
HETATM    7  N   UNL     1      -8.500  12.933  66.665  1.00  0.00    -0.424 NA 
HETATM    8  H   UNL     1      -7.524  13.117  66.435  1.00  0.00     0.000 HD 
BRANCH   7   9
HETATM    9  C   UNL     1      -9.037  11.661  66.537  1.00  0.00    -0.197 A  
HETATM   10  C   UNL     1      -9.680   9.800  65.293  1.00  0.00    -0.300 A  
HETATM   11  N   UNL     1     -10.047   9.016  66.313  1.00  0.00    -0.286 NA 
HETATM   12  N   UNL     1      -9.189  11.060  65.337  1.00  0.00    -0.207 NA 
HETATM   13  C   UNL     1      -9.874   9.616  67.503  1.00  0.00    -0.169 A  
HETATM   14  C   UNL     1      -9.393  10.905  67.642  1.00  0.00    -0.156 A  
HETATM   15  N   UNL     1      -9.355  11.109  68.996  1.00  0.00    -0.386 NA 
HETATM   16  H   UNL     1      -9.048  11.959  69.466  1.00  0.00     0.000 HD 
HETATM   17  C   UNL     1      -9.804   9.969  69.602  1.00  0.00    -0.235 A  
HETATM   18  N   UNL     1     -10.132   9.048  68.723  1.00  0.00    -0.193 NA 
ENDBRANCH   7   9
ENDBRANCH   1   7
TORSDOF 3
ENDMDL
MODEL      113
REMARK 921   NORMALIZED FREE ENERGY PREDICTED BY IDOCK:   -4.13 KCAL/MOL
REMARK 922        TOTAL FREE ENERGY PREDICTED BY IDOCK:   -5.14 KCAL/MOL
REMARK 923 INTER-LIGAND FREE ENERGY PREDICTED BY IDOCK:   -4.54 KCAL/MOL
REMARK 924 INTRA-LIGAND FREE ENERGY PREDICTED BY IDOCK:   -0.60 KCAL/MOL
REMARK 927      BINDING AFFINITY PREDICTED BY RF-SCORE:    0.00 PKD
ROOT
HETATM    1  C   UNL     1     -10.887  16.295  68.978  1.00  0.00    -0.315 C  
ENDROOT
BRANCH   1   2
HETATM    2  C   UNL     1      -9.832  16.614  67.974  1.00  0.00    -0.245 A  
HETATM    3  O   UNL     1      -9.573  15.662  67.028  1.00  0.00    -0.217 OA 
HETATM    4  C   UNL     1      -9.038  17.720  67.756  1.00  0.00    -0.249 A  
HETATM    5  C   UNL     1      -8.634  16.179  66.195  1.00  0.00    -0.296 A  
HETATM    6  C   UNL     1      -8.270  17.441  66.600  1.00  0.00    -0.290 A  
ENDBRANCH   1   2
BRANCH   1   7
HETATM    7  N   UNL     1     -11.884  15.316  68.559  1.00  0.00    -0.501 NA 
HETATM    8  H   UNL     1     -12.553  15.530  67.820  1.00  0.00     0.000 HD 
BRANCH   7   9
HETATM    9  C   UNL     1     -11.893  14.085  69.197  1.00  0.00    -0.350 A  
HETATM   10  C   UNL     1     -12.581  12.630  70.880  1.00  0.00    -0.249 A  
HETATM   11  N   UNL     1     -11.973  11.527  70.428  1.00  0.00    -0.367 NA 
HETATM   12  N   UNL     1     -12.584  13.870  70.338  1.00  0.00    -0.312 NA 
HETATM   13  C   UNL     1     -11.305  11.748  69.284  1.00  0.00    -0.286 A  
HETATM   14  C   UNL     1     -11.241  12.983  68.666  1.00  0.00    -0.277 A  
HETATM   15  N   UNL     1     -10.492  12.763  67.541  1.00  0.00    -0.217 NA 
HETATM   16  H   UNL     1     -10.241  13.460  66.841  1.00  0.00     0.000 HD 
HETATM   17  C   UNL     1     -10.143  11.441  67.525  1.00  0.00    -0.183 A  
HETATM   18  N   UNL     1     -10.615  10.801  68.571  1.00  0.00    -0.182 NA 
ENDBRANCH   7   9
ENDBRANCH   1   7
TORSDOF 3
ENDMDL
MODEL      114
REMARK 921   NORMALIZED FREE ENERGY PREDICTED BY IDOCK:   -4.13 KCAL/MOL
REMARK 922        TOTAL FREE ENERGY PREDICTED BY IDOCK:   -5.14 KCAL/MOL
REMARK 923 INTER-LIGAND FREE ENERGY PREDICTED BY IDOCK:   -4.87 KCAL/MOL
REMARK 924 INTRA-LIGAND FREE ENERGY PREDICTED BY IDOCK:   -0.26 KCAL/MOL
REMARK 927      BINDING AFFINITY PREDICTED BY RF-SCORE:    0.00 PKD
ROOT
HETATM    1  C   UNL     1      -9.787  14.410  68.590  1.00  0.00    -0.231 C  
ENDROOT
BRANCH   1   2
HETATM    2  C   UNL     1      -9.839  12.946  68.313  1.00  0.00    -0.228 A  
HETATM    3  O   UNL     1     -10.775  12.222  68.997  1.00  0.00    -0.194 OA 
HETATM    4  C   UNL     1      -9.139  12.120  67.459  1.00  0.00    -0.180 A  
HETATM    5  C   UNL     1     -10.684  10.941  68.554  1.00  0.00    -0.204 A  
HETATM    6  C   UNL     1      -9.692  10.826  67.609  1.00  0.00    -0.185 A  
ENDBRANCH   1   2
BRANCH   1   7
HETATM    7  N   UNL     1      -9.033  15.208  67.631  1.00  0.00    -0.177 NA 
HETATM    8  H   UNL     1      -8.026  15.337  67.730  1.00  0.00     0.000 HD 
BRANCH   7   9
HETATM    9  C   UNL     1      -9.728  15.787  66.580  1.00  0.00    -0.265 A  
HETATM   10  C   UNL     1     -10.996  15.685  64.630  1.00  0.00    -0.325 A  
HETATM   11  N   UNL     1     -11.229  16.995  64.494  1.00  0.00    -1.059 NA 
HETATM   12  N   UNL     1     -10.296  15.052  65.600  1.00  0.00    -0.325 NA 
HETATM   13  C   UNL     1     -10.675  17.715  65.484  1.00  0.00    -0.037 A  
HETATM   14  C   UNL     1      -9.933  17.156  66.507  1.00  0.00    -0.302 A  
HETATM   15  N   UNL     1      -9.582  18.221  67.293  1.00  0.00    -0.276 NA 
HETATM   16  H   UNL     1      -9.026  18.180  68.147  1.00  0.00     0.000 HD 
HETATM   17  C   UNL     1     -10.111  19.348  66.729  1.00  0.00    -0.396 A  
HETATM   18  N   UNL     1     -10.774  19.075  65.627  1.00  0.00    -0.491 NA 
ENDBRANCH   7   9
ENDBRANCH   1   7
TORSDOF 3
ENDMDL
MODEL      115
REMARK 921   NORMALIZED FREE ENERGY PREDICTED BY IDOCK:   -4.13 KCAL/MOL
REMARK 922        TOTAL FREE ENERGY PREDICTED BY IDOCK:   -5.13 KCAL/MOL
REMARK 923 INTER-LIGAND FREE ENERGY PREDICTED BY IDOCK:   -4.64 KCAL/MOL
REMARK 924 INTRA-LIGAND FREE ENERGY PREDICTED BY IDOCK:   -0.49 KCAL/MOL
REMARK 927      BINDING AFFINITY PREDICTED BY RF-SCORE:    0.00 PKD
ROOT
HETATM    1  C   UNL     1     -11.277   6.466  71.905  1.00  0.00    -0.280 C  
ENDROOT
BRANCH   1   2
HETATM    2  C   UNL     1     -12.436   7.404  71.917  1.00  0.00    -0.302 A  
HETATM    3  O   UNL     1     -12.192   8.680  72.341  1.00  0.00    -0.374 OA 
HETATM    4  C   UNL     1     -13.759   7.275  71.551  1.00  0.00    -0.451 A  
HETATM    5  C   UNL     1     -13.358   9.367  72.218  1.00  0.00    -0.461 A  
HETATM    6  C   UNL     1     -14.352   8.547  71.737  1.00  0.00    -0.522 A  
ENDBRANCH   1   2
BRANCH   1   7
HETATM    7  N   UNL     1     -10.160   6.853  71.051  1.00  0.00    -0.193 NA 
HETATM    8  H   UNL     1      -9.220   6.962  71.431  1.00  0.00     0.000 HD 
BRANCH   7   9
HETATM    9  C   UNL     1     -10.416   7.066  69.705  1.00  0.00    -0.223 A  
HETATM   10  C   UNL     1     -10.979   6.345  67.564  1.00  0.00    -0.364 A  
HETATM   11  N   UNL     1     -11.035   7.544  66.975  1.00  0.00    -0.211 NA 
HETATM   12  N   UNL     1     -10.696   6.055  68.855  1.00  0.00    -0.288 NA 
HETATM   13  C   UNL     1     -10.773   8.544  67.833  1.00  0.00    -0.082 A  
HETATM   14  C   UNL     1     -10.461   8.342  69.164  1.00  0.00    -0.206 A  
HETATM   15  N   UNL     1     -10.292   9.603  69.669  1.00  0.00    -0.211 NA 
HETATM   16  H   UNL     1     -10.053   9.838  70.632  1.00  0.00     0.000 HD 
HETATM   17  C   UNL     1     -10.503  10.492  68.652  1.00  0.00    -0.191 A  
HETATM   18  N   UNL     1     -10.790   9.880  67.524  1.00  0.00    -0.278 NA 
ENDBRANCH   7   9
ENDBRANCH   1   7
TORSDOF 3
ENDMDL
MODEL      116
REMARK 921   NORMALIZED FREE ENERGY PREDICTED BY IDOCK:   -4.12 KCAL/MOL
REMARK 922        TOTAL FREE ENERGY PREDICTED BY IDOCK:   -5.12 KCAL/MOL
REMARK 923 INTER-LIGAND FREE ENERGY PREDICTED BY IDOCK:   -4.73 KCAL/MOL
REMARK 924 INTRA-LIGAND FREE ENERGY PREDICTED BY IDOCK:   -0.39 KCAL/MOL
REMARK 927      BINDING AFFINITY PREDICTED BY RF-SCORE:    0.00 PKD
ROOT
HETATM    1  C   UNL     1      -7.880  13.437  67.260  1.00  0.00    -0.095 C  
ENDROOT
BRANCH   1   2
HETATM    2  C   UNL     1      -8.184  11.978  67.308  1.00  0.00    -0.173 A  
HETATM    3  O   UNL     1      -8.920  11.536  68.372  1.00  0.00    -0.167 OA 
HETATM    4  C   UNL     1      -7.899  10.924  66.465  1.00  0.00    -0.152 A  
HETATM    5  C   UNL     1      -9.124  10.206  68.187  1.00  0.00    -0.128 A  
HETATM    6  C   UNL     1      -8.514   9.781  67.029  1.00  0.00    -0.117 A  
ENDBRANCH   1   2
BRANCH   1   7
HETATM    7  N   UNL     1      -8.564  14.190  66.215  1.00  0.00    -0.273 NA 
HETATM    8  H   UNL     1      -8.046  14.791  65.574  1.00  0.00     0.000 HD 
BRANCH   7   9
HETATM    9  C   UNL     1      -9.942  14.064  66.120  1.00  0.00    -0.312 A  
HETATM   10  C   UNL     1     -12.115  14.509  66.826  1.00  0.00    -0.288 A  
HETATM   11  N   UNL     1     -12.761  13.872  65.843  1.00  0.00    -0.472 NA 
HETATM   12  N   UNL     1     -10.780  14.639  67.008  1.00  0.00    -0.285 NA 
HETATM   13  C   UNL     1     -11.918  13.320  64.956  1.00  0.00    -0.371 A  
HETATM   14  C   UNL     1     -10.542  13.390  65.068  1.00  0.00    -0.358 A  
HETATM   15  N   UNL     1     -10.076  12.727  63.964  1.00  0.00    -0.594 NA 
HETATM   16  H   UNL     1      -9.097  12.582  63.719  1.00  0.00     0.000 HD 
HETATM   17  C   UNL     1     -11.159  12.296  63.249  1.00  0.00    -0.319 A  
HETATM   18  N   UNL     1     -12.290  12.634  63.829  1.00  0.00    -0.624 NA 
ENDBRANCH   7   9
ENDBRANCH   1   7
TORSDOF 3
ENDMDL
MODEL      117
REMARK 921   NORMALIZED FREE ENERGY PREDICTED BY IDOCK:   -4.10 KCAL/MOL
REMARK 922        TOTAL FREE ENERGY PREDICTED BY IDOCK:   -5.09 KCAL/MOL
REMARK 923 INTER-LIGAND FREE ENERGY PREDICTED BY IDOCK:   -4.77 KCAL/MOL
REMARK 924 INTRA-LIGAND FREE ENERGY PREDICTED BY IDOCK:   -0.33 KCAL/MOL
REMARK 927      BINDING AFFINITY PREDICTED BY RF-SCORE:    0.00 PKD
ROOT
HETATM    1  C   UNL     1      -8.061  19.705  66.172  1.00  0.00    -0.346 C  
ENDROOT
BRANCH   1   2
HETATM    2  C   UNL     1      -7.245  20.192  67.321  1.00  0.00    -0.270 A  
HETATM    3  O   UNL     1      -7.258  19.429  68.455  1.00  0.00    -0.292 OA 
HETATM    4  C   UNL     1      -6.415  21.280  67.497  1.00  0.00    -0.391 A  
HETATM    5  C   UNL     1      -6.415  20.021  69.340  1.00  0.00    -0.330 A  
HETATM    6  C   UNL     1      -5.872  21.163  68.799  1.00  0.00    -0.221 A  
ENDBRANCH   1   2
BRANCH   1   7
HETATM    7  N   UNL     1      -7.692  18.396  65.645  1.00  0.00    -0.494 NA 
HETATM    8  H   UNL     1      -6.870  18.280  65.052  1.00  0.00     0.000 HD 
BRANCH   7   9
HETATM    9  C   UNL     1      -8.494  17.314  65.976  1.00  0.00    -0.101 A  
HETATM   10  C   UNL     1     -10.510  16.150  65.961  1.00  0.00    -0.338 A  
HETATM   11  N   UNL     1     -10.087  15.041  66.578  1.00  0.00    -0.267 NA 
HETATM   12  N   UNL     1      -9.801  17.258  65.643  1.00  0.00    -0.551 NA 
HETATM   13  C   UNL     1      -8.781  15.100  66.888  1.00  0.00    -0.259 A  
HETATM   14  C   UNL     1      -7.982  16.195  66.615  1.00  0.00    -0.270 A  
HETATM   15  N   UNL     1      -6.742  15.833  67.068  1.00  0.00    -0.281 NA 
HETATM   16  H   UNL     1      -5.898  16.404  67.028  1.00  0.00     0.000 HD 
HETATM   17  C   UNL     1      -6.838  14.570  67.583  1.00  0.00    -0.182 A  
HETATM   18  N   UNL     1      -8.063  14.102  67.494  1.00  0.00    -0.174 NA 
ENDBRANCH   7   9
ENDBRANCH   1   7
TORSDOF 3
ENDMDL
MODEL      118
REMARK 921   NORMALIZED FREE ENERGY PREDICTED BY IDOCK:   -4.09 KCAL/MOL
REMARK 922        TOTAL FREE ENERGY PREDICTED BY IDOCK:   -5.08 KCAL/MOL
REMARK 923 INTER-LIGAND FREE ENERGY PREDICTED BY IDOCK:   -4.82 KCAL/MOL
REMARK 924 INTRA-LIGAND FREE ENERGY PREDICTED BY IDOCK:   -0.26 KCAL/MOL
REMARK 927      BINDING AFFINITY PREDICTED BY RF-SCORE:    0.00 PKD
ROOT
HETATM    1  C   UNL     1     -11.868   8.983  71.680  1.00  0.00    -0.360 C  
ENDROOT
BRANCH   1   2
HETATM    2  C   UNL     1     -11.401   7.669  72.209  1.00  0.00    -0.306 A  
HETATM    3  O   UNL     1     -10.276   7.683  72.986  1.00  0.00    -0.261 OA 
HETATM    4  C   UNL     1     -11.887   6.382  72.109  1.00  0.00    -0.361 A  
HETATM    5  C   UNL     1     -10.068   6.406  73.400  1.00  0.00    -0.210 A  
HETATM    6  C   UNL     1     -11.030   5.568  72.887  1.00  0.00    -0.332 A  
ENDBRANCH   1   2
BRANCH   1   7
HETATM    7  N   UNL     1     -10.824   9.876  71.193  1.00  0.00    -0.275 NA 
HETATM    8  H   UNL     1     -10.054  10.165  71.797  1.00  0.00     0.000 HD 
BRANCH   7   9
HETATM    9  C   UNL     1     -10.910  10.322  69.883  1.00  0.00    -0.302 A  
HETATM   10  C   UNL     1     -10.922   9.988  67.579  1.00  0.00    -0.212 A  
HETATM   11  N   UNL     1     -11.191  11.247  67.213  1.00  0.00    -0.355 NA 
HETATM   12  N   UNL     1     -10.783   9.488  68.829  1.00  0.00    -0.214 NA 
HETATM   13  C   UNL     1     -11.333  12.063  68.270  1.00  0.00    -0.286 A  
HETATM   14  C   UNL     1     -11.195  11.644  69.580  1.00  0.00    -0.213 A  
HETATM   15  N   UNL     1     -11.438  12.768  70.324  1.00  0.00    -0.491 NA 
HETATM   16  H   UNL     1     -11.422  12.829  71.341  1.00  0.00     0.000 HD 
HETATM   17  C   UNL     1     -11.705  13.791  69.458  1.00  0.00    -0.323 A  
HETATM   18  N   UNL     1     -11.643  13.397  68.206  1.00  0.00    -0.321 NA 
ENDBRANCH   7   9
ENDBRANCH   1   7
TORSDOF 3
ENDMDL
MODEL      119
REMARK 921   NORMALIZED FREE ENERGY PREDICTED BY IDOCK:   -4.08 KCAL/MOL
REMARK 922        TOTAL FREE ENERGY PREDICTED BY IDOCK:   -5.08 KCAL/MOL
REMARK 923 INTER-LIGAND FREE ENERGY PREDICTED BY IDOCK:   -4.60 KCAL/MOL
REMARK 924 INTRA-LIGAND FREE ENERGY PREDICTED BY IDOCK:   -0.48 KCAL/MOL
REMARK 927      BINDING AFFINITY PREDICTED BY RF-SCORE:    0.00 PKD
ROOT
HETATM    1  C   UNL     1     -11.223   6.279  72.836  1.00  0.00    -0.200 C  
ENDROOT
BRANCH   1   2
HETATM    2  C   UNL     1     -10.607   5.047  72.266  1.00  0.00    -0.206 A  
HETATM    3  O   UNL     1     -10.243   5.093  70.949  1.00  0.00    -0.216 OA 
HETATM    4  C   UNL     1     -10.280   3.819  72.801  1.00  0.00    -0.236 A  
HETATM    5  C   UNL     1      -9.659   3.901  70.659  1.00  0.00    -0.189 A  
HETATM    6  C   UNL     1      -9.659   3.082  71.764  1.00  0.00    -0.224 A  
ENDBRANCH   1   2
BRANCH   1   7
HETATM    7  N   UNL     1     -12.384   6.796  72.120  1.00  0.00    -0.513 NA 
HETATM    8  H   UNL     1     -13.176   6.193  71.896  1.00  0.00     0.000 HD 
BRANCH   7   9
HETATM    9  C   UNL     1     -12.378   8.133  71.753  1.00  0.00    -0.321 A  
HETATM   10  C   UNL     1     -13.118  10.333  71.934  1.00  0.00    -0.463 A  
HETATM   11  N   UNL     1     -12.274  10.883  71.053  1.00  0.00    -0.358 NA 
HETATM   12  N   UNL     1     -13.212   9.037  72.311  1.00  0.00    -0.432 NA 
HETATM   13  C   UNL     1     -11.438   9.978  70.518  1.00  0.00    -0.330 A  
HETATM   14  C   UNL     1     -11.470   8.632  70.833  1.00  0.00    -0.275 A  
HETATM   15  N   UNL     1     -10.455   8.086  70.094  1.00  0.00    -0.220 NA 
HETATM   16  H   UNL     1     -10.186   7.103  70.078  1.00  0.00     0.000 HD 
HETATM   17  C   UNL     1      -9.868   9.094  69.382  1.00  0.00    -0.172 A  
HETATM   18  N   UNL     1     -10.446  10.252  69.612  1.00  0.00    -0.241 NA 
ENDBRANCH   7   9
ENDBRANCH   1   7
TORSDOF 3
ENDMDL
MODEL      120
REMARK 921   NORMALIZED FREE ENERGY PREDICTED BY IDOCK:   -4.08 KCAL/MOL
REMARK 922        TOTAL FREE ENERGY PREDICTED BY IDOCK:   -5.07 KCAL/MOL
REMARK 923 INTER-LIGAND FREE ENERGY PREDICTED BY IDOCK:   -4.87 KCAL/MOL
REMARK 924 INTRA-LIGAND FREE ENERGY PREDICTED BY IDOCK:   -0.20 KCAL/MOL
REMARK 927      BINDING AFFINITY PREDICTED BY RF-SCORE:    0.00 PKD
ROOT
HETATM    1  C   UNL     1     -10.775   9.674  66.987  1.00  0.00    -0.155 C  
ENDROOT
BRANCH   1   2
HETATM    2  C   UNL     1     -10.714   8.324  67.615  1.00  0.00    -0.125 A  
HETATM    3  O   UNL     1     -10.904   7.250  66.790  1.00  0.00    -0.311 OA 
HETATM    4  C   UNL     1     -10.471   7.889  68.901  1.00  0.00    -0.205 A  
HETATM    5  C   UNL     1     -10.752   6.135  67.551  1.00  0.00    -0.313 A  
HETATM    6  C   UNL     1     -10.486   6.475  68.857  1.00  0.00    -0.249 A  
ENDBRANCH   1   2
BRANCH   1   7
HETATM    7  N   UNL     1     -11.408  10.716  67.786  1.00  0.00    -0.480 NA 
HETATM    8  H   UNL     1     -11.826  10.503  68.692  1.00  0.00     0.000 HD 
BRANCH   7   9
HETATM    9  C   UNL     1     -11.425  12.006  67.277  1.00  0.00    -0.335 A  
HETATM   10  C   UNL     1     -11.387  13.541  65.527  1.00  0.00    -0.296 A  
HETATM   11  N   UNL     1     -11.561  14.651  66.253  1.00  0.00    -0.363 NA 
HETATM   12  N   UNL     1     -11.319  12.259  65.954  1.00  0.00    -0.344 NA 
HETATM   13  C   UNL     1     -11.683  14.386  67.564  1.00  0.00    -0.387 A  
HETATM   14  C   UNL     1     -11.613  13.110  68.092  1.00  0.00    -0.339 A  
HETATM   15  N   UNL     1     -11.804  13.288  69.436  1.00  0.00    -0.319 NA 
HETATM   16  H   UNL     1     -11.816  12.553  70.143  1.00  0.00     0.000 HD 
HETATM   17  C   UNL     1     -11.978  14.625  69.660  1.00  0.00    -0.323 A  
HETATM   18  N   UNL     1     -11.902  15.318  68.545  1.00  0.00    -0.321 NA 
ENDBRANCH   7   9
ENDBRANCH   1   7
TORSDOF 3
ENDMDL
MODEL      121
REMARK 921   NORMALIZED FREE ENERGY PREDICTED BY IDOCK:   -4.06 KCAL/MOL
REMARK 922        TOTAL FREE ENERGY PREDICTED BY IDOCK:   -5.06 KCAL/MOL
REMARK 923 INTER-LIGAND FREE ENERGY PREDICTED BY IDOCK:   -4.80 KCAL/MOL
REMARK 924 INTRA-LIGAND FREE ENERGY PREDICTED BY IDOCK:   -0.26 KCAL/MOL
REMARK 927      BINDING AFFINITY PREDICTED BY RF-SCORE:    0.00 PKD
ROOT
HETATM    1  C   UNL     1     -11.821   9.990  70.144  1.00  0.00    -0.173 C  
ENDROOT
BRANCH   1   2
HETATM    2  C   UNL     1     -12.337  11.248  70.755  1.00  0.00    -0.398 A  
HETATM    3  O   UNL     1     -11.967  12.421  70.158  1.00  0.00    -0.341 OA 
HETATM    4  C   UNL     1     -13.168  11.508  71.825  1.00  0.00    -0.456 A  
HETATM    5  C   UNL     1     -12.587  13.422  70.835  1.00  0.00    -0.327 A  
HETATM    6  C   UNL     1     -13.336  12.913  71.870  1.00  0.00    -0.530 A  
ENDBRANCH   1   2
BRANCH   1   7
HETATM    7  N   UNL     1     -12.268   8.752  70.772  1.00  0.00    -0.483 NA 
HETATM    8  H   UNL     1     -13.194   8.680  71.193  1.00  0.00     0.000 HD 
BRANCH   7   9
HETATM    9  C   UNL     1     -11.393   7.676  70.780  1.00  0.00    -0.281 A  
HETATM   10  C   UNL     1     -10.524   5.709  69.890  1.00  0.00    -0.308 A  
HETATM   11  N   UNL     1      -9.525   5.538  70.764  1.00  0.00    -0.162 NA 
HETATM   12  N   UNL     1     -11.438   6.705  69.843  1.00  0.00    -0.366 NA 
HETATM   13  C   UNL     1      -9.479   6.519  71.680  1.00  0.00    -0.156 A  
HETATM   14  C   UNL     1     -10.379   7.568  71.718  1.00  0.00    -0.192 A  
HETATM   15  N   UNL     1      -9.964   8.334  72.774  1.00  0.00    -0.283 NA 
HETATM   16  H   UNL     1     -10.399   9.198  73.097  1.00  0.00     0.000 HD 
HETATM   17  C   UNL     1      -8.861   7.735  73.317  1.00  0.00    -0.221 A  
HETATM   18  N   UNL     1      -8.547   6.628  72.679  1.00  0.00    -0.124 NA 
ENDBRANCH   7   9
ENDBRANCH   1   7
TORSDOF 3
ENDMDL
MODEL      122
REMARK 921   NORMALIZED FREE ENERGY PREDICTED BY IDOCK:   -4.05 KCAL/MOL
REMARK 922        TOTAL FREE ENERGY PREDICTED BY IDOCK:   -5.04 KCAL/MOL
REMARK 923 INTER-LIGAND FREE ENERGY PREDICTED BY IDOCK:   -4.84 KCAL/MOL
REMARK 924 INTRA-LIGAND FREE ENERGY PREDICTED BY IDOCK:   -0.20 KCAL/MOL
REMARK 927      BINDING AFFINITY PREDICTED BY RF-SCORE:    0.00 PKD
ROOT
HETATM    1  C   UNL     1     -11.605  12.928  68.758  1.00  0.00    -0.311 C  
ENDROOT
BRANCH   1   2
HETATM    2  C   UNL     1     -12.149  12.169  69.919  1.00  0.00    -0.253 A  
HETATM    3  O   UNL     1     -12.891  12.875  70.824  1.00  0.00    -0.181 OA 
HETATM    4  C   UNL     1     -12.093  10.842  70.292  1.00  0.00    -0.440 A  
HETATM    5  C   UNL     1     -13.328  11.987  71.755  1.00  0.00    -0.237 A  
HETATM    6  C   UNL     1     -12.863  10.724  71.473  1.00  0.00    -0.567 A  
ENDBRANCH   1   2
BRANCH   1   7
HETATM    7  N   UNL     1     -12.268  12.691  67.480  1.00  0.00    -0.340 NA 
HETATM    8  H   UNL     1     -13.277  12.801  67.382  1.00  0.00     0.000 HD 
BRANCH   7   9
HETATM    9  C   UNL     1     -11.482  12.309  66.403  1.00  0.00    -0.378 A  
HETATM   10  C   UNL     1     -10.466  12.691  64.343  1.00  0.00    -0.373 A  
HETATM   11  N   UNL     1      -9.788  11.541  64.257  1.00  0.00    -0.247 NA 
HETATM   12  N   UNL     1     -11.281  13.114  65.337  1.00  0.00    -0.289 NA 
HETATM   13  C   UNL     1      -9.981  10.757  65.330  1.00  0.00    -0.271 A  
HETATM   14  C   UNL     1     -10.805  11.100  66.386  1.00  0.00    -0.225 A  
HETATM   15  N   UNL     1     -10.698  10.049  67.257  1.00  0.00    -0.262 NA 
HETATM   16  H   UNL     1     -11.175   9.961  68.154  1.00  0.00     0.000 HD 
HETATM   17  C   UNL     1      -9.839   9.138  66.708  1.00  0.00    -0.226 A  
HETATM   18  N   UNL     1      -9.392   9.536  65.537  1.00  0.00    -0.237 NA 
ENDBRANCH   7   9
ENDBRANCH   1   7
TORSDOF 3
ENDMDL
MODEL      123
REMARK 921   NORMALIZED FREE ENERGY PREDICTED BY IDOCK:   -4.03 KCAL/MOL
REMARK 922        TOTAL FREE ENERGY PREDICTED BY IDOCK:   -5.01 KCAL/MOL
REMARK 923 INTER-LIGAND FREE ENERGY PREDICTED BY IDOCK:   -4.73 KCAL/MOL
REMARK 924 INTRA-LIGAND FREE ENERGY PREDICTED BY IDOCK:   -0.28 KCAL/MOL
REMARK 927      BINDING AFFINITY PREDICTED BY RF-SCORE:    0.00 PKD
ROOT
HETATM    1  C   UNL     1     -10.229  11.234  64.023  1.00  0.00    -0.348 C  
ENDROOT
BRANCH   1   2
HETATM    2  C   UNL     1     -11.129  12.332  64.478  1.00  0.00    -0.321 A  
HETATM    3  O   UNL     1     -10.867  13.584  63.996  1.00  0.00    -0.308 OA 
HETATM    4  C   UNL     1     -12.240  12.366  65.294  1.00  0.00    -0.418 A  
HETATM    5  C   UNL     1     -11.830  14.406  64.487  1.00  0.00    -0.449 A  
HETATM    6  C   UNL     1     -12.698  13.706  65.292  1.00  0.00    -0.478 A  
ENDBRANCH   1   2
BRANCH   1   7
HETATM    7  N   UNL     1      -9.016  11.044  64.810  1.00  0.00    -0.340 NA 
HETATM    8  H   UNL     1      -8.094  11.082  64.374  1.00  0.00     0.000 HD 
BRANCH   7   9
HETATM    9  C   UNL     1      -9.154  10.810  66.169  1.00  0.00    -0.174 A  
HETATM   10  C   UNL     1      -9.106  11.474  68.400  1.00  0.00    -0.185 A  
HETATM   11  N   UNL     1      -9.543  10.331  68.941  1.00  0.00    -0.180 NA 
HETATM   12  N   UNL     1      -8.906  11.763  67.094  1.00  0.00    -0.167 NA 
HETATM   13  C   UNL     1      -9.804   9.397  68.012  1.00  0.00    -0.164 A  
HETATM   14  C   UNL     1      -9.617   9.598  66.657  1.00  0.00    -0.187 A  
HETATM   15  N   UNL     1     -10.018   8.423  66.080  1.00  0.00    -0.472 NA 
HETATM   16  H   UNL     1     -10.018   8.213  65.083  1.00  0.00     0.000 HD 
HETATM   17  C   UNL     1     -10.419   7.582  67.081  1.00  0.00    -0.336 A  
HETATM   18  N   UNL     1     -10.295   8.142  68.264  1.00  0.00    -0.206 NA 
ENDBRANCH   7   9
ENDBRANCH   1   7
TORSDOF 3
ENDMDL
MODEL      124
REMARK 921   NORMALIZED FREE ENERGY PREDICTED BY IDOCK:   -4.02 KCAL/MOL
REMARK 922        TOTAL FREE ENERGY PREDICTED BY IDOCK:   -5.00 KCAL/MOL
REMARK 923 INTER-LIGAND FREE ENERGY PREDICTED BY IDOCK:   -4.77 KCAL/MOL
REMARK 924 INTRA-LIGAND FREE ENERGY PREDICTED BY IDOCK:   -0.23 KCAL/MOL
REMARK 927      BINDING AFFINITY PREDICTED BY RF-SCORE:    0.00 PKD
ROOT
HETATM    1  C   UNL     1     -10.103   9.144  67.600  1.00  0.00    -0.220 C  
ENDROOT
BRANCH   1   2
HETATM    2  C   UNL     1     -10.504  10.348  66.816  1.00  0.00    -0.225 A  
HETATM    3  O   UNL     1     -11.497  11.124  67.343  1.00  0.00    -0.466 OA 
HETATM    4  C   UNL     1     -10.056  10.897  65.633  1.00  0.00    -0.318 A  
HETATM    5  C   UNL     1     -11.659  12.181  66.505  1.00  0.00    -0.359 A  
HETATM    6  C   UNL     1     -10.797  12.087  65.437  1.00  0.00    -0.336 A  
ENDBRANCH   1   2
BRANCH   1   7
HETATM    7  N   UNL     1     -10.981   7.987  67.474  1.00  0.00    -0.506 NA 
HETATM    8  H   UNL     1     -11.799   8.010  66.865  1.00  0.00     0.000 HD 
BRANCH   7   9
HETATM    9  C   UNL     1     -10.670   6.854  68.211  1.00  0.00    -0.214 A  
HETATM   10  C   UNL     1      -9.625   4.793  68.498  1.00  0.00    -0.156 A  
HETATM   11  N   UNL     1      -9.966   4.591  69.776  1.00  0.00    -0.229 NA 
HETATM   12  N   UNL     1      -9.925   5.848  67.705  1.00  0.00    -0.128 NA 
HETATM   13  C   UNL     1     -10.691   5.606  70.274  1.00  0.00    -0.294 A  
HETATM   14  C   UNL     1     -11.056   6.716  69.535  1.00  0.00    -0.322 A  
HETATM   15  N   UNL     1     -11.756   7.496  70.416  1.00  0.00    -0.478 NA 
HETATM   16  H   UNL     1     -12.178   8.401  70.212  1.00  0.00     0.000 HD 
HETATM   17  C   UNL     1     -11.785   6.845  71.618  1.00  0.00    -0.304 A  
HETATM   18  N   UNL     1     -11.154   5.693  71.562  1.00  0.00    -0.213 NA 
ENDBRANCH   7   9
ENDBRANCH   1   7
TORSDOF 3
ENDMDL
MODEL      125
REMARK 921   NORMALIZED FREE ENERGY PREDICTED BY IDOCK:   -3.99 KCAL/MOL
REMARK 922        TOTAL FREE ENERGY PREDICTED BY IDOCK:   -4.97 KCAL/MOL
REMARK 923 INTER-LIGAND FREE ENERGY PREDICTED BY IDOCK:   -4.70 KCAL/MOL
REMARK 924 INTRA-LIGAND FREE ENERGY PREDICTED BY IDOCK:   -0.27 KCAL/MOL
REMARK 927      BINDING AFFINITY PREDICTED BY RF-SCORE:    0.00 PKD
ROOT
HETATM    1  C   UNL     1     -10.436  12.931  68.292  1.00  0.00    -0.242 C  
ENDROOT
BRANCH   1   2
HETATM    2  C   UNL     1     -10.035  11.798  67.410  1.00  0.00    -0.184 A  
HETATM    3  O   UNL     1     -10.606  11.751  66.169  1.00  0.00    -0.243 OA 
HETATM    4  C   UNL     1      -9.151  10.750  67.560  1.00  0.00    -0.143 A  
HETATM    5  C   UNL     1     -10.062  10.686  65.524  1.00  0.00    -0.280 A  
HETATM    6  C   UNL     1      -9.162  10.037  66.337  1.00  0.00    -0.191 A  
ENDBRANCH   1   2
BRANCH   1   7
HETATM    7  N   UNL     1     -11.870  13.082  68.514  1.00  0.00    -0.330 NA 
HETATM    8  H   UNL     1     -12.466  13.529  67.817  1.00  0.00     0.000 HD 
BRANCH   7   9
HETATM    9  C   UNL     1     -12.397  12.599  69.702  1.00  0.00     0.015 A  
HETATM   10  C   UNL     1     -12.767  10.920  71.272  1.00  0.00    -0.437 A  
HETATM   11  N   UNL     1     -13.402  11.661  72.187  1.00  0.00    -0.394 NA 
HETATM   12  N   UNL     1     -12.264  11.309  70.077  1.00  0.00    -0.318 NA 
HETATM   13  C   UNL     1     -13.513  12.946  71.811  1.00  0.00    -0.280 A  
HETATM   14  C   UNL     1     -13.042  13.430  70.605  1.00  0.00     0.119 A  
HETATM   15  N   UNL     1     -13.337  14.766  70.636  1.00  0.00    -0.593 NA 
HETATM   16  H   UNL     1     -13.130  15.444  69.903  1.00  0.00     0.000 HD 
HETATM   17  C   UNL     1     -13.958  15.029  71.825  1.00  0.00    -0.501 A  
HETATM   18  N   UNL     1     -14.085  13.944  72.556  1.00  0.00    -0.702 NA 
ENDBRANCH   7   9
ENDBRANCH   1   7
TORSDOF 3
ENDMDL
MODEL      126
REMARK 921   NORMALIZED FREE ENERGY PREDICTED BY IDOCK:   -3.98 KCAL/MOL
REMARK 922        TOTAL FREE ENERGY PREDICTED BY IDOCK:   -4.96 KCAL/MOL
REMARK 923 INTER-LIGAND FREE ENERGY PREDICTED BY IDOCK:   -4.55 KCAL/MOL
REMARK 924 INTRA-LIGAND FREE ENERGY PREDICTED BY IDOCK:   -0.41 KCAL/MOL
REMARK 927      BINDING AFFINITY PREDICTED BY RF-SCORE:    0.00 PKD
ROOT
HETATM    1  C   UNL     1     -11.735  12.155  67.182  1.00  0.00    -0.302 C  
ENDROOT
BRANCH   1   2
HETATM    2  C   UNL     1     -11.877  12.782  65.837  1.00  0.00    -0.437 A  
HETATM    3  O   UNL     1     -11.604  11.991  64.757  1.00  0.00    -0.324 OA 
HETATM    4  C   UNL     1     -12.268  14.035  65.415  1.00  0.00    -0.453 A  
HETATM    5  C   UNL     1     -11.849  12.737  63.648  1.00  0.00    -0.532 A  
HETATM    6  C   UNL     1     -12.259  14.002  64.000  1.00  0.00    -0.395 A  
ENDBRANCH   1   2
BRANCH   1   7
HETATM    7  N   UNL     1     -10.403  11.664  67.514  1.00  0.00    -0.194 NA 
HETATM    8  H   UNL     1      -9.727  12.258  67.995  1.00  0.00     0.000 HD 
BRANCH   7   9
HETATM    9  C   UNL     1     -10.082  10.363  67.155  1.00  0.00    -0.208 A  
HETATM   10  C   UNL     1     -10.222   8.053  67.404  1.00  0.00    -0.261 A  
HETATM   11  N   UNL     1      -9.492   7.709  66.338  1.00  0.00    -0.184 NA 
HETATM   12  N   UNL     1     -10.541   9.293  67.840  1.00  0.00    -0.246 NA 
HETATM   13  C   UNL     1      -9.056   8.780  65.654  1.00  0.00    -0.191 A  
HETATM   14  C   UNL     1      -9.321  10.083  66.032  1.00  0.00    -0.174 A  
HETATM   15  N   UNL     1      -8.721  10.846  65.066  1.00  0.00    -0.331 NA 
HETATM   16  H   UNL     1      -8.714  11.864  65.023  1.00  0.00     0.000 HD 
HETATM   17  C   UNL     1      -8.134   9.997  64.169  1.00  0.00    -0.153 A  
HETATM   18  N   UNL     1      -8.314   8.738  64.502  1.00  0.00    -0.168 NA 
ENDBRANCH   7   9
ENDBRANCH   1   7
TORSDOF 3
ENDMDL
MODEL      127
REMARK 921   NORMALIZED FREE ENERGY PREDICTED BY IDOCK:   -3.93 KCAL/MOL
REMARK 922        TOTAL FREE ENERGY PREDICTED BY IDOCK:   -4.90 KCAL/MOL
REMARK 923 INTER-LIGAND FREE ENERGY PREDICTED BY IDOCK:   -4.68 KCAL/MOL
REMARK 924 INTRA-LIGAND FREE ENERGY PREDICTED BY IDOCK:   -0.22 KCAL/MOL
REMARK 927      BINDING AFFINITY PREDICTED BY RF-SCORE:    0.00 PKD
ROOT
HETATM    1  C   UNL     1      -9.866  10.241  65.467  1.00  0.00    -0.282 C  
ENDROOT
BRANCH   1   2
HETATM    2  C   UNL     1     -10.875  11.256  65.047  1.00  0.00    -0.216 A  
HETATM    3  O   UNL     1     -11.221  11.271  63.725  1.00  0.00    -0.359 OA 
HETATM    4  C   UNL     1     -11.595  12.212  65.732  1.00  0.00    -0.414 A  
HETATM    5  C   UNL     1     -12.181  12.220  63.579  1.00  0.00    -0.568 A  
HETATM    6  C   UNL     1     -12.446  12.829  64.783  1.00  0.00    -0.539 A  
ENDBRANCH   1   2
BRANCH   1   7
HETATM    7  N   UNL     1     -10.124   9.584  66.743  1.00  0.00    -0.231 NA 
HETATM    8  H   UNL     1     -10.510  10.100  67.533  1.00  0.00     0.000 HD 
BRANCH   7   9
HETATM    9  C   UNL     1      -9.826   8.234  66.849  1.00  0.00    -0.247 A  
HETATM   10  C   UNL     1      -8.719   6.299  66.177  1.00  0.00    -0.145 A  
HETATM   11  N   UNL     1      -9.156   5.490  67.150  1.00  0.00    -0.112 NA 
HETATM   12  N   UNL     1      -8.997   7.609  65.985  1.00  0.00    -0.164 NA 
HETATM   13  C   UNL     1      -9.965   6.127  68.013  1.00  0.00    -0.141 A  
HETATM   14  C   UNL     1     -10.315   7.458  67.888  1.00  0.00    -0.204 A  
HETATM   15  N   UNL     1     -11.119   7.701  68.969  1.00  0.00    -0.424 NA 
HETATM   16  H   UNL     1     -11.563   8.590  69.200  1.00  0.00     0.000 HD 
HETATM   17  C   UNL     1     -11.220   6.540  69.684  1.00  0.00    -0.384 A  
HETATM   18  N   UNL     1     -10.537   5.565  69.126  1.00  0.00    -0.252 NA 
ENDBRANCH   7   9
ENDBRANCH   1   7
TORSDOF 3
ENDMDL
MODEL      128
REMARK 921   NORMALIZED FREE ENERGY PREDICTED BY IDOCK:   -3.93 KCAL/MOL
REMARK 922        TOTAL FREE ENERGY PREDICTED BY IDOCK:   -4.90 KCAL/MOL
REMARK 923 INTER-LIGAND FREE ENERGY PREDICTED BY IDOCK:   -4.63 KCAL/MOL
REMARK 924 INTRA-LIGAND FREE ENERGY PREDICTED BY IDOCK:   -0.27 KCAL/MOL
REMARK 927      BINDING AFFINITY PREDICTED BY RF-SCORE:    0.00 PKD
ROOT
HETATM    1  C   UNL     1     -12.271   6.963  71.293  1.00  0.00    -0.380 C  
ENDROOT
BRANCH   1   2
HETATM    2  C   UNL     1     -12.557   8.418  71.442  1.00  0.00    -0.277 A  
HETATM    3  O   UNL     1     -11.841   9.272  70.650  1.00  0.00    -0.267 OA 
HETATM    4  C   UNL     1     -13.446   9.133  72.218  1.00  0.00    -0.546 A  
HETATM    5  C   UNL     1     -12.298  10.525  70.906  1.00  0.00    -0.390 A  
HETATM    6  C   UNL     1     -13.284  10.493  71.864  1.00  0.00    -0.526 A  
ENDBRANCH   1   2
BRANCH   1   7
HETATM    7  N   UNL     1     -12.293   6.184  72.526  1.00  0.00    -0.542 NA 
HETATM    8  H   UNL     1     -13.159   6.050  73.048  1.00  0.00     0.000 HD 
BRANCH   7   9
HETATM    9  C   UNL     1     -11.100   5.632  72.966  1.00  0.00    -0.282 A  
HETATM   10  C   UNL     1      -9.634   3.850  73.279  1.00  0.00    -0.112 A  
HETATM   11  N   UNL     1      -8.607   4.544  73.783  1.00  0.00    -0.103 NA 
HETATM   12  N   UNL     1     -10.839   4.311  72.869  1.00  0.00    -0.174 NA 
HETATM   13  C   UNL     1      -8.871   5.859  73.858  1.00  0.00    -0.126 A  
HETATM   14  C   UNL     1     -10.077   6.417  73.475  1.00  0.00    -0.226 A  
HETATM   15  N   UNL     1      -9.916   7.759  73.692  1.00  0.00    -0.323 NA 
HETATM   16  H   UNL     1     -10.611   8.483  73.517  1.00  0.00     0.000 HD 
HETATM   17  C   UNL     1      -8.655   7.954  74.183  1.00  0.00    -0.239 A  
HETATM   18  N   UNL     1      -7.999   6.820  74.301  1.00  0.00    -0.112 NA 
ENDBRANCH   7   9
ENDBRANCH   1   7
TORSDOF 3
ENDMDL
MODEL      129
REMARK 921   NORMALIZED FREE ENERGY PREDICTED BY IDOCK:   -3.93 KCAL/MOL
REMARK 922        TOTAL FREE ENERGY PREDICTED BY IDOCK:   -4.90 KCAL/MOL
REMARK 923 INTER-LIGAND FREE ENERGY PREDICTED BY IDOCK:   -4.45 KCAL/MOL
REMARK 924 INTRA-LIGAND FREE ENERGY PREDICTED BY IDOCK:   -0.44 KCAL/MOL
REMARK 927      BINDING AFFINITY PREDICTED BY RF-SCORE:    0.00 PKD
ROOT
HETATM    1  C   UNL     1      -7.667  16.029  69.085  1.00  0.00    -0.231 C  
ENDROOT
BRANCH   1   2
HETATM    2  C   UNL     1      -8.974  15.311  69.119  1.00  0.00    -0.233 A  
HETATM    3  O   UNL     1      -9.976  15.890  69.847  1.00  0.00    -0.261 OA 
HETATM    4  C   UNL     1      -9.432  14.152  68.530  1.00  0.00    -0.202 A  
HETATM    5  C   UNL     1     -11.077  15.109  69.695  1.00  0.00    -0.270 A  
HETATM    6  C   UNL     1     -10.793  14.026  68.895  1.00  0.00    -0.278 A  
ENDBRANCH   1   2
BRANCH   1   7
HETATM    7  N   UNL     1      -7.303  16.618  67.802  1.00  0.00    -0.144 NA 
HETATM    8  H   UNL     1      -6.989  16.036  67.025  1.00  0.00     0.000 HD 
BRANCH   7   9
HETATM    9  C   UNL     1      -7.396  17.995  67.671  1.00  0.00    -0.208 A  
HETATM   10  C   UNL     1      -6.472  20.121  67.452  1.00  0.00    -0.211 A  
HETATM   11  N   UNL     1      -7.614  20.803  67.301  1.00  0.00    -0.344 NA 
HETATM   12  N   UNL     1      -6.305  18.790  67.626  1.00  0.00    -0.203 NA 
HETATM   13  C   UNL     1      -8.691  20.000  67.329  1.00  0.00    -0.343 A  
HETATM   14  C   UNL     1      -8.617  18.633  67.516  1.00  0.00    -0.269 A  
HETATM   15  N   UNL     1      -9.918  18.210  67.456  1.00  0.00    -0.318 NA 
HETATM   16  H   UNL     1     -10.242  17.248  67.553  1.00  0.00     0.000 HD 
HETATM   17  C   UNL     1     -10.704  19.308  67.243  1.00  0.00    -0.488 A  
HETATM   18  N   UNL     1      -9.990  20.410  67.169  1.00  0.00    -0.452 NA 
ENDBRANCH   7   9
ENDBRANCH   1   7
TORSDOF 3
ENDMDL
MODEL      130
REMARK 921   NORMALIZED FREE ENERGY PREDICTED BY IDOCK:   -3.91 KCAL/MOL
REMARK 922        TOTAL FREE ENERGY PREDICTED BY IDOCK:   -4.87 KCAL/MOL
REMARK 923 INTER-LIGAND FREE ENERGY PREDICTED BY IDOCK:   -4.59 KCAL/MOL
REMARK 924 INTRA-LIGAND FREE ENERGY PREDICTED BY IDOCK:   -0.29 KCAL/MOL
REMARK 927      BINDING AFFINITY PREDICTED BY RF-SCORE:    0.00 PKD
ROOT
HETATM    1  C   UNL     1      -8.190  10.963  66.635  1.00  0.00    -0.145 C  
ENDROOT
BRANCH   1   2
HETATM    2  C   UNL     1      -7.086  11.479  67.495  1.00  0.00    -0.106 A  
HETATM    3  O   UNL     1      -7.402  11.776  68.791  1.00  0.00    -0.109 OA 
HETATM    4  C   UNL     1      -5.744  11.709  67.274  1.00  0.00    -0.106 A  
HETATM    5  C   UNL     1      -6.251  12.168  69.398  1.00  0.00    -0.106 A  
HETATM    6  C   UNL     1      -5.204  12.145  68.507  1.00  0.00    -0.050 A  
ENDBRANCH   1   2
BRANCH   1   7
HETATM    7  N   UNL     1      -8.712  11.900  65.647  1.00  0.00    -0.383 NA 
HETATM    8  H   UNL     1      -8.181  12.129  64.807  1.00  0.00     0.000 HD 
BRANCH   7   9
HETATM    9  C   UNL     1      -9.953  12.471  65.886  1.00  0.00    -0.257 A  
HETATM   10  C   UNL     1     -11.413  13.817  67.100  1.00  0.00    -0.340 A  
HETATM   11  N   UNL     1     -12.477  13.706  66.296  1.00  0.00    -0.403 NA 
HETATM   12  N   UNL     1     -10.189  13.260  66.956  1.00  0.00    -0.242 NA 
HETATM   13  C   UNL     1     -12.225  12.934  65.226  1.00  0.00    -0.476 A  
HETATM   14  C   UNL     1     -11.010  12.313  65.004  1.00  0.00    -0.302 A  
HETATM   15  N   UNL     1     -11.176  11.657  63.814  1.00  0.00    -0.409 NA 
HETATM   16  H   UNL     1     -10.475  11.089  63.338  1.00  0.00     0.000 HD 
HETATM   17  C   UNL     1     -12.448  11.900  63.377  1.00  0.00    -0.463 A  
HETATM   18  N   UNL     1     -13.112  12.666  64.215  1.00  0.00    -0.687 NA 
ENDBRANCH   7   9
ENDBRANCH   1   7
TORSDOF 3
ENDMDL
MODEL      131
REMARK 921   NORMALIZED FREE ENERGY PREDICTED BY IDOCK:   -3.91 KCAL/MOL
REMARK 922        TOTAL FREE ENERGY PREDICTED BY IDOCK:   -4.87 KCAL/MOL
REMARK 923 INTER-LIGAND FREE ENERGY PREDICTED BY IDOCK:   -4.60 KCAL/MOL
REMARK 924 INTRA-LIGAND FREE ENERGY PREDICTED BY IDOCK:   -0.27 KCAL/MOL
REMARK 927      BINDING AFFINITY PREDICTED BY RF-SCORE:    0.00 PKD
ROOT
HETATM    1  C   UNL     1     -12.510  12.438  70.562  1.00  0.00    -0.187 C  
ENDROOT
BRANCH   1   2
HETATM    2  C   UNL     1     -12.064  13.618  69.767  1.00  0.00    -0.334 A  
HETATM    3  O   UNL     1     -12.072  13.485  68.407  1.00  0.00    -0.352 OA 
HETATM    4  C   UNL     1     -11.649  14.888  70.111  1.00  0.00    -0.333 A  
HETATM    5  C   UNL     1     -11.689  14.681  67.890  1.00  0.00    -0.351 A  
HETATM    6  C   UNL     1     -11.416  15.577  68.897  1.00  0.00    -0.362 A  
ENDBRANCH   1   2
BRANCH   1   7
HETATM    7  N   UNL     1     -12.608  11.182  69.827  1.00  0.00    -0.162 NA 
HETATM    8  H   UNL     1     -13.097  11.131  68.934  1.00  0.00     0.000 HD 
BRANCH   7   9
HETATM    9  C   UNL     1     -12.015  10.058  70.383  1.00  0.00    -0.236 A  
HETATM   10  C   UNL     1     -10.169   8.823  71.081  1.00  0.00    -0.246 A  
HETATM   11  N   UNL     1     -10.832   7.790  71.615  1.00  0.00    -0.226 NA 
HETATM   12  N   UNL     1     -10.675   9.929  70.488  1.00  0.00    -0.306 NA 
HETATM   13  C   UNL     1     -12.163   7.938  71.521  1.00  0.00    -0.311 A  
HETATM   14  C   UNL     1     -12.768   9.026  70.920  1.00  0.00     0.014 A  
HETATM   15  N   UNL     1     -14.109   8.791  71.060  1.00  0.00    -0.590 NA 
HETATM   16  H   UNL     1     -14.863   9.394  70.731  1.00  0.00     0.000 HD 
HETATM   17  C   UNL     1     -14.258   7.603  71.721  1.00  0.00    -0.426 A  
HETATM   18  N   UNL     1     -13.096   7.059  72.008  1.00  0.00    -0.192 NA 
ENDBRANCH   7   9
ENDBRANCH   1   7
TORSDOF 3
ENDMDL
MODEL      132
REMARK 921   NORMALIZED FREE ENERGY PREDICTED BY IDOCK:   -3.89 KCAL/MOL
REMARK 922        TOTAL FREE ENERGY PREDICTED BY IDOCK:   -4.85 KCAL/MOL
REMARK 923 INTER-LIGAND FREE ENERGY PREDICTED BY IDOCK:   -4.54 KCAL/MOL
REMARK 924 INTRA-LIGAND FREE ENERGY PREDICTED BY IDOCK:   -0.31 KCAL/MOL
REMARK 927      BINDING AFFINITY PREDICTED BY RF-SCORE:    0.00 PKD
ROOT
HETATM    1  C   UNL     1      -8.634   9.246  66.370  1.00  0.00    -0.131 C  
ENDROOT
BRANCH   1   2
HETATM    2  C   UNL     1      -9.491   8.442  67.288  1.00  0.00    -0.154 A  
HETATM    3  O   UNL     1     -10.230   7.440  66.723  1.00  0.00    -0.255 OA 
HETATM    4  C   UNL     1      -9.696   8.463  68.652  1.00  0.00    -0.171 A  
HETATM    5  C   UNL     1     -10.881   6.810  67.734  1.00  0.00    -0.264 A  
HETATM    6  C   UNL     1     -10.587   7.402  68.940  1.00  0.00    -0.191 A  
ENDBRANCH   1   2
BRANCH   1   7
HETATM    7  N   UNL     1      -9.333   9.923  65.284  1.00  0.00    -0.230 NA 
HETATM    8  H   UNL     1      -9.506   9.453  64.396  1.00  0.00     0.000 HD 
BRANCH   7   9
HETATM    9  C   UNL     1      -9.756  11.227  65.497  1.00  0.00    -0.229 A  
HETATM   10  C   UNL     1      -9.628  13.298  66.553  1.00  0.00    -0.264 A  
HETATM   11  N   UNL     1     -10.574  13.924  65.843  1.00  0.00    -0.287 NA 
HETATM   12  N   UNL     1      -9.193  12.023  66.432  1.00  0.00    -0.219 NA 
HETATM   13  C   UNL     1     -11.114  13.129  64.904  1.00  0.00    -0.314 A  
HETATM   14  C   UNL     1     -10.742  11.811  64.718  1.00  0.00    -0.302 A  
HETATM   15  N   UNL     1     -11.509  11.386  63.666  1.00  0.00    -0.597 NA 
HETATM   16  H   UNL     1     -11.498  10.455  63.252  1.00  0.00     0.000 HD 
HETATM   17  C   UNL     1     -12.292  12.435  63.271  1.00  0.00    -0.391 A  
HETATM   18  N   UNL     1     -12.080  13.504  64.007  1.00  0.00    -0.537 NA 
ENDBRANCH   7   9
ENDBRANCH   1   7
TORSDOF 3
ENDMDL
MODEL      133
REMARK 921   NORMALIZED FREE ENERGY PREDICTED BY IDOCK:   -3.88 KCAL/MOL
REMARK 922        TOTAL FREE ENERGY PREDICTED BY IDOCK:   -4.84 KCAL/MOL
REMARK 923 INTER-LIGAND FREE ENERGY PREDICTED BY IDOCK:   -4.48 KCAL/MOL
REMARK 924 INTRA-LIGAND FREE ENERGY PREDICTED BY IDOCK:   -0.36 KCAL/MOL
REMARK 927      BINDING AFFINITY PREDICTED BY RF-SCORE:    0.00 PKD
ROOT
HETATM    1  C   UNL     1     -11.010   5.092  73.436  1.00  0.00    -0.327 C  
ENDROOT
BRANCH   1   2
HETATM    2  C   UNL     1     -10.707   3.694  73.016  1.00  0.00    -0.142 A  
HETATM    3  O   UNL     1     -11.382   2.696  73.663  1.00  0.00    -0.222 OA 
HETATM    4  C   UNL     1      -9.879   3.154  72.054  1.00  0.00    -0.241 A  
HETATM    5  C   UNL     1     -10.999   1.525  73.089  1.00  0.00    -0.148 A  
HETATM    6  C   UNL     1     -10.076   1.753  72.096  1.00  0.00    -0.227 A  
ENDBRANCH   1   2
BRANCH   1   7
HETATM    7  N   UNL     1     -12.110   5.740  72.732  1.00  0.00    -0.534 NA 
HETATM    8  H   UNL     1     -13.061   5.376  72.794  1.00  0.00     0.000 HD 
BRANCH   7   9
HETATM    9  C   UNL     1     -11.823   6.865  71.975  1.00  0.00    -0.310 A  
HETATM   10  C   UNL     1     -11.593   9.164  71.688  1.00  0.00    -0.379 A  
HETATM   11  N   UNL     1     -11.131   9.147  70.433  1.00  0.00    -0.247 NA 
HETATM   12  N   UNL     1     -11.933   8.116  72.473  1.00  0.00    -0.378 NA 
HETATM   13  C   UNL     1     -11.008   7.898  69.954  1.00  0.00    -0.178 A  
HETATM   14  C   UNL     1     -11.344   6.769  70.678  1.00  0.00    -0.334 A  
HETATM   15  N   UNL     1     -11.049   5.728  69.840  1.00  0.00    -0.339 NA 
HETATM   16  H   UNL     1     -11.171   4.737  70.047  1.00  0.00     0.000 HD 
HETATM   17  C   UNL     1     -10.561   6.254  68.676  1.00  0.00    -0.264 A  
HETATM   18  N   UNL     1     -10.530   7.568  68.712  1.00  0.00    -0.207 NA 
ENDBRANCH   7   9
ENDBRANCH   1   7
TORSDOF 3
ENDMDL
MODEL      134
REMARK 921   NORMALIZED FREE ENERGY PREDICTED BY IDOCK:   -3.88 KCAL/MOL
REMARK 922        TOTAL FREE ENERGY PREDICTED BY IDOCK:   -4.84 KCAL/MOL
REMARK 923 INTER-LIGAND FREE ENERGY PREDICTED BY IDOCK:   -4.61 KCAL/MOL
REMARK 924 INTRA-LIGAND FREE ENERGY PREDICTED BY IDOCK:   -0.22 KCAL/MOL
REMARK 927      BINDING AFFINITY PREDICTED BY RF-SCORE:    0.00 PKD
ROOT
HETATM    1  C   UNL     1     -10.560   9.391  67.541  1.00  0.00    -0.267 C  
ENDROOT
BRANCH   1   2
HETATM    2  C   UNL     1     -10.733   9.160  69.004  1.00  0.00    -0.153 A  
HETATM    3  O   UNL     1     -11.144   7.914  69.386  1.00  0.00    -0.089 OA 
HETATM    4  C   UNL     1     -10.535   9.951  70.116  1.00  0.00    -0.339 A  
HETATM    5  C   UNL     1     -11.179   7.909  70.744  1.00  0.00    -0.266 A  
HETATM    6  C   UNL     1     -10.815   9.139  71.241  1.00  0.00    -0.402 A  
ENDBRANCH   1   2
BRANCH   1   7
HETATM    7  N   UNL     1      -9.740  10.540  67.175  1.00  0.00    -0.168 NA 
HETATM    8  H   UNL     1      -8.944  10.823  67.747  1.00  0.00     0.000 HD 
BRANCH   7   9
HETATM    9  C   UNL     1     -10.076  11.237  66.025  1.00  0.00    -0.239 A  
HETATM   10  C   UNL     1     -10.863  11.366  63.837  1.00  0.00    -0.393 A  
HETATM   11  N   UNL     1     -10.853  12.698  63.717  1.00  0.00    -0.427 NA 
HETATM   12  N   UNL     1     -10.511  10.616  64.907  1.00  0.00    -0.280 NA 
HETATM   13  C   UNL     1     -10.436  13.306  64.840  1.00  0.00    -0.371 A  
HETATM   14  C   UNL     1     -10.044  12.622  65.975  1.00  0.00    -0.262 A  
HETATM   15  N   UNL     1      -9.723  13.606  66.871  1.00  0.00    -0.254 NA 
HETATM   16  H   UNL     1      -9.391  13.465  67.825  1.00  0.00     0.000 HD 
HETATM   17  C   UNL     1      -9.927  14.811  66.259  1.00  0.00    -0.291 A  
HETATM   18  N   UNL     1     -10.353  14.662  65.024  1.00  0.00    -0.414 NA 
ENDBRANCH   7   9
ENDBRANCH   1   7
TORSDOF 3
ENDMDL
MODEL      135
REMARK 921   NORMALIZED FREE ENERGY PREDICTED BY IDOCK:   -3.87 KCAL/MOL
REMARK 922        TOTAL FREE ENERGY PREDICTED BY IDOCK:   -4.83 KCAL/MOL
REMARK 923 INTER-LIGAND FREE ENERGY PREDICTED BY IDOCK:   -4.61 KCAL/MOL
REMARK 924 INTRA-LIGAND FREE ENERGY PREDICTED BY IDOCK:   -0.22 KCAL/MOL
REMARK 927      BINDING AFFINITY PREDICTED BY RF-SCORE:    0.00 PKD
ROOT
HETATM    1  C   UNL     1     -10.708   9.094  69.517  1.00  0.00    -0.215 C  
ENDROOT
BRANCH   1   2
HETATM    2  C   UNL     1     -11.671   9.159  70.654  1.00  0.00    -0.209 A  
HETATM    3  O   UNL     1     -12.219  10.380  70.929  1.00  0.00    -0.318 OA 
HETATM    4  C   UNL     1     -12.180   8.211  71.517  1.00  0.00    -0.332 A  
HETATM    5  C   UNL     1     -13.097  10.198  71.950  1.00  0.00    -0.466 A  
HETATM    6  C   UNL     1     -13.108   8.882  72.348  1.00  0.00    -0.476 A  
ENDBRANCH   1   2
BRANCH   1   7
HETATM    7  N   UNL     1     -11.248   9.453  68.211  1.00  0.00    -0.490 NA 
HETATM    8  H   UNL     1     -11.686   8.753  67.612  1.00  0.00     0.000 HD 
BRANCH   7   9
HETATM    9  C   UNL     1     -11.145  10.776  67.808  1.00  0.00    -0.318 A  
HETATM   10  C   UNL     1     -12.013  12.909  67.464  1.00  0.00    -0.296 A  
HETATM   11  N   UNL     1     -10.882  13.506  67.071  1.00  0.00    -0.280 NA 
HETATM   12  N   UNL     1     -12.199  11.620  67.831  1.00  0.00    -0.437 NA 
HETATM   13  C   UNL     1      -9.837  12.662  67.069  1.00  0.00    -0.225 A  
HETATM   14  C   UNL     1      -9.936  11.327  67.415  1.00  0.00    -0.182 A  
HETATM   15  N   UNL     1      -8.658  10.850  67.299  1.00  0.00    -0.128 NA 
HETATM   16  H   UNL     1      -8.355   9.894  67.480  1.00  0.00     0.000 HD 
HETATM   17  C   UNL     1      -7.860  11.886  66.900  1.00  0.00    -0.120 A  
HETATM   18  N   UNL     1      -8.548  12.996  66.745  1.00  0.00    -0.115 NA 
ENDBRANCH   7   9
ENDBRANCH   1   7
TORSDOF 3
ENDMDL
MODEL      136
REMARK 921   NORMALIZED FREE ENERGY PREDICTED BY IDOCK:   -3.87 KCAL/MOL
REMARK 922        TOTAL FREE ENERGY PREDICTED BY IDOCK:   -4.82 KCAL/MOL
REMARK 923 INTER-LIGAND FREE ENERGY PREDICTED BY IDOCK:   -4.44 KCAL/MOL
REMARK 924 INTRA-LIGAND FREE ENERGY PREDICTED BY IDOCK:   -0.38 KCAL/MOL
REMARK 927      BINDING AFFINITY PREDICTED BY RF-SCORE:    0.00 PKD
ROOT
HETATM    1  C   UNL     1     -10.261  11.971  67.151  1.00  0.00    -0.202 C  
ENDROOT
BRANCH   1   2
HETATM    2  C   UNL     1      -9.248  11.051  67.742  1.00  0.00    -0.155 A  
HETATM    3  O   UNL     1      -9.408   9.716  67.495  1.00  0.00    -0.129 OA 
HETATM    4  C   UNL     1      -8.112  11.255  68.498  1.00  0.00    -0.148 A  
HETATM    5  C   UNL     1      -8.357   9.078  68.071  1.00  0.00    -0.117 A  
HETATM    6  C   UNL     1      -7.532   9.980  68.702  1.00  0.00    -0.083 A  
ENDBRANCH   1   2
BRANCH   1   7
HETATM    7  N   UNL     1     -11.639  11.753  67.578  1.00  0.00    -0.506 NA 
HETATM    8  H   UNL     1     -12.311  11.289  66.968  1.00  0.00     0.000 HD 
BRANCH   7   9
HETATM    9  C   UNL     1     -12.005  12.197  68.839  1.00  0.00    -0.242 A  
HETATM   10  C   UNL     1     -12.520  13.867  70.378  1.00  0.00    -0.334 A  
HETATM   11  N   UNL     1     -12.853  13.075  71.403  1.00  0.00    -0.344 NA 
HETATM   12  N   UNL     1     -12.115  13.510  69.137  1.00  0.00    -0.320 NA 
HETATM   13  C   UNL     1     -12.758  11.772  71.090  1.00  0.00    -0.305 A  
HETATM   14  C   UNL     1     -12.341  11.315  69.854  1.00  0.00    -0.233 A  
HETATM   15  N   UNL     1     -12.409   9.952  69.955  1.00  0.00    -0.481 NA 
HETATM   16  H   UNL     1     -12.172   9.282  69.223  1.00  0.00     0.000 HD 
HETATM   17  C   UNL     1     -12.852   9.648  71.213  1.00  0.00    -0.350 A  
HETATM   18  N   UNL     1     -13.066  10.731  71.927  1.00  0.00    -0.494 NA 
ENDBRANCH   7   9
ENDBRANCH   1   7
TORSDOF 3
ENDMDL
MODEL      137
REMARK 921   NORMALIZED FREE ENERGY PREDICTED BY IDOCK:   -3.86 KCAL/MOL
REMARK 922        TOTAL FREE ENERGY PREDICTED BY IDOCK:   -4.82 KCAL/MOL
REMARK 923 INTER-LIGAND FREE ENERGY PREDICTED BY IDOCK:   -4.56 KCAL/MOL
REMARK 924 INTRA-LIGAND FREE ENERGY PREDICTED BY IDOCK:   -0.26 KCAL/MOL
REMARK 927      BINDING AFFINITY PREDICTED BY RF-SCORE:    0.00 PKD
ROOT
HETATM    1  C   UNL     1     -10.252   6.978  73.935  1.00  0.00    -0.350 C  
ENDROOT
BRANCH   1   2
HETATM    2  C   UNL     1     -10.279   5.490  73.840  1.00  0.00    -0.241 A  
HETATM    3  O   UNL     1     -11.489   4.911  73.576  1.00  0.00    -0.311 OA 
HETATM    4  C   UNL     1      -9.305   4.519  73.936  1.00  0.00    -0.117 A  
HETATM    5  C   UNL     1     -11.273   3.573  73.478  1.00  0.00    -0.181 A  
HETATM    6  C   UNL     1      -9.946   3.281  73.693  1.00  0.00    -0.170 A  
ENDBRANCH   1   2
BRANCH   1   7
HETATM    7  N   UNL     1     -11.297   7.677  73.196  1.00  0.00    -0.596 NA 
HETATM    8  H   UNL     1     -12.246   7.744  73.563  1.00  0.00     0.000 HD 
BRANCH   7   9
HETATM    9  C   UNL     1     -10.959   8.248  71.978  1.00  0.00    -0.306 A  
HETATM   10  C   UNL     1      -9.766   8.309  69.980  1.00  0.00    -0.176 A  
HETATM   11  N   UNL     1     -10.358   9.383  69.445  1.00  0.00    -0.204 NA 
HETATM   12  N   UNL     1     -10.011   7.721  71.173  1.00  0.00    -0.176 NA 
HETATM   13  C   UNL     1     -11.312   9.888  70.246  1.00  0.00    -0.291 A  
HETATM   14  C   UNL     1     -11.620   9.363  71.487  1.00  0.00    -0.397 A  
HETATM   15  N   UNL     1     -12.642  10.150  71.945  1.00  0.00    -0.386 NA 
HETATM   16  H   UNL     1     -13.123  10.051  72.838  1.00  0.00     0.000 HD 
HETATM   17  C   UNL     1     -12.902  11.094  70.990  1.00  0.00    -0.329 A  
HETATM   18  N   UNL     1     -12.107  10.965  69.951  1.00  0.00    -0.333 NA 
ENDBRANCH   7   9
ENDBRANCH   1   7
TORSDOF 3
ENDMDL
MODEL      138
REMARK 921   NORMALIZED FREE ENERGY PREDICTED BY IDOCK:   -3.85 KCAL/MOL
REMARK 922        TOTAL FREE ENERGY PREDICTED BY IDOCK:   -4.80 KCAL/MOL
REMARK 923 INTER-LIGAND FREE ENERGY PREDICTED BY IDOCK:   -4.49 KCAL/MOL
REMARK 924 INTRA-LIGAND FREE ENERGY PREDICTED BY IDOCK:   -0.31 KCAL/MOL
REMARK 927      BINDING AFFINITY PREDICTED BY RF-SCORE:    0.00 PKD
ROOT
HETATM    1  C   UNL     1     -11.116  11.009  69.146  1.00  0.00    -0.243 C  
ENDROOT
BRANCH   1   2
HETATM    2  C   UNL     1     -11.933  10.642  70.338  1.00  0.00    -0.346 A  
HETATM    3  O   UNL     1     -12.610  11.655  70.957  1.00  0.00    -0.378 OA 
HETATM    4  C   UNL     1     -12.194   9.446  70.973  1.00  0.00    -0.354 A  
HETATM    5  C   UNL     1     -13.323  11.094  71.968  1.00  0.00    -0.278 A  
HETATM    6  C   UNL     1     -13.100   9.738  72.021  1.00  0.00    -0.546 A  
ENDBRANCH   1   2
BRANCH   1   7
HETATM    7  N   UNL     1     -11.521  10.391  67.888  1.00  0.00    -0.653 NA 
HETATM    8  H   UNL     1     -12.390  10.657  67.426  1.00  0.00     0.000 HD 
BRANCH   7   9
HETATM    9  C   UNL     1     -10.685   9.429  67.341  1.00  0.00    -0.210 A  
HETATM   10  C   UNL     1      -9.933   7.240  67.090  1.00  0.00    -0.215 A  
HETATM   11  N   UNL     1      -9.030   7.465  66.129  1.00  0.00    -0.164 NA 
HETATM   12  N   UNL     1     -10.751   8.129  67.700  1.00  0.00    -0.186 NA 
HETATM   13  C   UNL     1      -8.986   8.758  65.766  1.00  0.00    -0.206 A  
HETATM   14  C   UNL     1      -9.773   9.737  66.343  1.00  0.00    -0.216 A  
HETATM   15  N   UNL     1      -9.432  10.884  65.677  1.00  0.00    -0.204 NA 
HETATM   16  H   UNL     1      -9.820  11.812  65.842  1.00  0.00     0.000 HD 
HETATM   17  C   UNL     1      -8.480  10.561  64.751  1.00  0.00    -0.147 A  
HETATM   18  N   UNL     1      -8.183   9.280  64.786  1.00  0.00    -0.139 NA 
ENDBRANCH   7   9
ENDBRANCH   1   7
TORSDOF 3
ENDMDL
MODEL      139
REMARK 921   NORMALIZED FREE ENERGY PREDICTED BY IDOCK:   -3.84 KCAL/MOL
REMARK 922        TOTAL FREE ENERGY PREDICTED BY IDOCK:   -4.79 KCAL/MOL
REMARK 923 INTER-LIGAND FREE ENERGY PREDICTED BY IDOCK:   -4.58 KCAL/MOL
REMARK 924 INTRA-LIGAND FREE ENERGY PREDICTED BY IDOCK:   -0.21 KCAL/MOL
REMARK 927      BINDING AFFINITY PREDICTED BY RF-SCORE:    0.00 PKD
ROOT
HETATM    1  C   UNL     1     -12.226  15.511  69.133  1.00  0.00    -0.146 C  
ENDROOT
BRANCH   1   2
HETATM    2  C   UNL     1     -10.985  16.297  68.880  1.00  0.00    -0.334 A  
HETATM    3  O   UNL     1      -9.854  15.890  69.529  1.00  0.00    -0.260 OA 
HETATM    4  C   UNL     1     -10.700  17.381  68.076  1.00  0.00    -0.359 A  
HETATM    5  C   UNL     1      -8.846  16.700  69.114  1.00  0.00    -0.136 A  
HETATM    6  C   UNL     1      -9.316  17.635  68.221  1.00  0.00    -0.290 A  
ENDBRANCH   1   2
BRANCH   1   7
HETATM    7  N   UNL     1     -12.089  14.394  70.061  1.00  0.00    -0.323 NA 
HETATM    8  H   UNL     1     -12.145  14.538  71.069  1.00  0.00     0.000 HD 
BRANCH   7   9
HETATM    9  C   UNL     1     -11.881  13.131  69.529  1.00  0.00    -0.322 A  
HETATM   10  C   UNL     1     -11.080  11.678  67.895  1.00  0.00    -0.247 A  
HETATM   11  N   UNL     1     -11.376  10.528  68.512  1.00  0.00    -0.273 NA 
HETATM   12  N   UNL     1     -11.290  12.942  68.330  1.00  0.00    -0.269 NA 
HETATM   13  C   UNL     1     -11.946  10.727  69.712  1.00  0.00    -0.325 A  
HETATM   14  C   UNL     1     -12.211  11.981  70.230  1.00  0.00    -0.266 A  
HETATM   15  N   UNL     1     -12.764  11.732  71.457  1.00  0.00    -0.338 NA 
HETATM   16  H   UNL     1     -13.084  12.433  72.125  1.00  0.00     0.000 HD 
HETATM   17  C   UNL     1     -12.810  10.376  71.627  1.00  0.00    -0.474 A  
HETATM   18  N   UNL     1     -12.328   9.740  70.583  1.00  0.00    -0.217 NA 
ENDBRANCH   7   9
ENDBRANCH   1   7
TORSDOF 3
ENDMDL
MODEL      140
REMARK 921   NORMALIZED FREE ENERGY PREDICTED BY IDOCK:   -3.83 KCAL/MOL
REMARK 922        TOTAL FREE ENERGY PREDICTED BY IDOCK:   -4.78 KCAL/MOL
REMARK 923 INTER-LIGAND FREE ENERGY PREDICTED BY IDOCK:   -4.85 KCAL/MOL
REMARK 924 INTRA-LIGAND FREE ENERGY PREDICTED BY IDOCK:    0.07 KCAL/MOL
REMARK 927      BINDING AFFINITY PREDICTED BY RF-SCORE:    0.00 PKD
ROOT
HETATM    1  C   UNL     1      -9.170  14.968  67.643  1.00  0.00    -0.182 C  
ENDROOT
BRANCH   1   2
HETATM    2  C   UNL     1     -10.373  14.415  68.328  1.00  0.00    -0.239 A  
HETATM    3  O   UNL     1     -10.292  13.126  68.773  1.00  0.00    -0.216 OA 
HETATM    4  C   UNL     1     -11.603  14.948  68.656  1.00  0.00    -0.342 A  
HETATM    5  C   UNL     1     -11.461  12.852  69.407  1.00  0.00    -0.260 A  
HETATM    6  C   UNL     1     -12.302  13.939  69.361  1.00  0.00    -0.240 A  
ENDBRANCH   1   2
BRANCH   1   7
HETATM    7  N   UNL     1      -8.868  14.396  66.336  1.00  0.00    -0.477 NA 
HETATM    8  H   UNL     1      -7.946  14.504  65.915  1.00  0.00     0.000 HD 
BRANCH   7   9
HETATM    9  C   UNL     1      -9.874  13.699  65.685  1.00  0.00    -0.175 A  
HETATM   10  C   UNL     1     -11.041  11.754  65.160  1.00  0.00    -0.282 A  
HETATM   11  N   UNL     1     -12.005  12.312  64.419  1.00  0.00    -0.391 NA 
HETATM   12  N   UNL     1     -10.008  12.359  65.790  1.00  0.00    -0.255 NA 
HETATM   13  C   UNL     1     -11.873  13.646  64.336  1.00  0.00    -0.424 A  
HETATM   14  C   UNL     1     -10.842  14.348  64.934  1.00  0.00    -0.416 A  
HETATM   15  N   UNL     1     -11.096  15.656  64.623  1.00  0.00    -0.672 NA 
HETATM   16  H   UNL     1     -10.535  16.460  64.902  1.00  0.00     0.000 HD 
HETATM   17  C   UNL     1     -12.237  15.693  63.870  1.00  0.00     0.333 A  
HETATM   18  N   UNL     1     -12.727  14.489  63.673  1.00  0.00    -0.613 NA 
ENDBRANCH   7   9
ENDBRANCH   1   7
TORSDOF 3
ENDMDL
MODEL      141
REMARK 921   NORMALIZED FREE ENERGY PREDICTED BY IDOCK:   -3.83 KCAL/MOL
REMARK 922        TOTAL FREE ENERGY PREDICTED BY IDOCK:   -4.78 KCAL/MOL
REMARK 923 INTER-LIGAND FREE ENERGY PREDICTED BY IDOCK:   -4.50 KCAL/MOL
REMARK 924 INTRA-LIGAND FREE ENERGY PREDICTED BY IDOCK:   -0.28 KCAL/MOL
REMARK 927      BINDING AFFINITY PREDICTED BY RF-SCORE:    0.00 PKD
ROOT
HETATM    1  C   UNL     1     -11.113  11.331  68.749  1.00  0.00    -0.233 C  
ENDROOT
BRANCH   1   2
HETATM    2  C   UNL     1     -11.389  12.692  68.207  1.00  0.00    -0.295 A  
HETATM    3  O   UNL     1     -11.932  12.759  66.955  1.00  0.00    -0.398 OA 
HETATM    4  C   UNL     1     -11.238  13.963  68.722  1.00  0.00    -0.302 A  
HETATM    5  C   UNL     1     -12.150  14.073  66.688  1.00  0.00    -0.456 A  
HETATM    6  C   UNL     1     -11.739  14.854  67.743  1.00  0.00    -0.340 A  
ENDBRANCH   1   2
BRANCH   1   7
HETATM    7  N   UNL     1     -11.623  10.219  67.955  1.00  0.00    -0.698 NA 
HETATM    8  H   UNL     1     -12.576  10.225  67.593  1.00  0.00     0.000 HD 
BRANCH   7   9
HETATM    9  C   UNL     1     -10.771   9.153  67.709  1.00  0.00    -0.179 A  
HETATM   10  C   UNL     1      -9.151   8.044  66.458  1.00  0.00    -0.173 A  
HETATM   11  N   UNL     1      -8.962   7.006  67.281  1.00  0.00    -0.118 NA 
HETATM   12  N   UNL     1      -9.990   9.095  66.609  1.00  0.00    -0.251 NA 
HETATM   13  C   UNL     1      -9.730   7.084  68.380  1.00  0.00    -0.139 A  
HETATM   14  C   UNL     1     -10.625   8.112  68.612  1.00  0.00    -0.109 A  
HETATM   15  N   UNL     1     -11.172   7.818  69.833  1.00  0.00    -0.441 NA 
HETATM   16  H   UNL     1     -11.877   8.367  70.323  1.00  0.00     0.000 HD 
HETATM   17  C   UNL     1     -10.602   6.657  70.276  1.00  0.00    -0.222 A  
HETATM   18  N   UNL     1      -9.729   6.184  69.415  1.00  0.00    -0.143 NA 
ENDBRANCH   7   9
ENDBRANCH   1   7
TORSDOF 3
ENDMDL
MODEL      142
REMARK 921   NORMALIZED FREE ENERGY PREDICTED BY IDOCK:   -3.82 KCAL/MOL
REMARK 922        TOTAL FREE ENERGY PREDICTED BY IDOCK:   -4.77 KCAL/MOL
REMARK 923 INTER-LIGAND FREE ENERGY PREDICTED BY IDOCK:   -4.49 KCAL/MOL
REMARK 924 INTRA-LIGAND FREE ENERGY PREDICTED BY IDOCK:   -0.28 KCAL/MOL
REMARK 927      BINDING AFFINITY PREDICTED BY RF-SCORE:    0.00 PKD
ROOT
HETATM    1  C   UNL     1      -9.925   8.800  66.739  1.00  0.00    -0.268 C  
ENDROOT
BRANCH   1   2
HETATM    2  C   UNL     1      -8.604   8.705  67.423  1.00  0.00    -0.134 A  
HETATM    3  O   UNL     1      -8.184   7.455  67.783  1.00  0.00    -0.117 OA 
HETATM    4  C   UNL     1      -7.648   9.638  67.769  1.00  0.00    -0.087 A  
HETATM    5  C   UNL     1      -6.949   7.596  68.331  1.00  0.00    -0.072 A  
HETATM    6  C   UNL     1      -6.575   8.919  68.347  1.00  0.00    -0.060 A  
ENDBRANCH   1   2
BRANCH   1   7
HETATM    7  N   UNL     1     -10.033   9.830  65.713  1.00  0.00    -0.292 NA 
HETATM    8  H   UNL     1      -9.588   9.715  64.802  1.00  0.00     0.000 HD 
BRANCH   7   9
HETATM    9  C   UNL     1     -10.759  10.972  66.014  1.00  0.00    -0.177 A  
HETATM   10  C   UNL     1     -11.599  12.562  67.494  1.00  0.00    -0.361 A  
HETATM   11  N   UNL     1     -12.167  13.370  66.591  1.00  0.00    -0.370 NA 
HETATM   12  N   UNL     1     -10.914  11.414  67.280  1.00  0.00    -0.265 NA 
HETATM   13  C   UNL     1     -11.991  12.931  65.334  1.00  0.00    -0.426 A  
HETATM   14  C   UNL     1     -11.318  11.764  65.023  1.00  0.00    -0.225 A  
HETATM   15  N   UNL     1     -11.352  11.706  63.655  1.00  0.00    -0.525 NA 
HETATM   16  H   UNL     1     -10.947  10.973  63.075  1.00  0.00     0.000 HD 
HETATM   17  C   UNL     1     -12.026  12.808  63.208  1.00  0.00    -0.443 A  
HETATM   18  N   UNL     1     -12.432  13.566  64.202  1.00  0.00    -0.665 NA 
ENDBRANCH   7   9
ENDBRANCH   1   7
TORSDOF 3
ENDMDL
MODEL      143
REMARK 921   NORMALIZED FREE ENERGY PREDICTED BY IDOCK:   -3.81 KCAL/MOL
REMARK 922        TOTAL FREE ENERGY PREDICTED BY IDOCK:   -4.76 KCAL/MOL
REMARK 923 INTER-LIGAND FREE ENERGY PREDICTED BY IDOCK:   -4.54 KCAL/MOL
REMARK 924 INTRA-LIGAND FREE ENERGY PREDICTED BY IDOCK:   -0.22 KCAL/MOL
REMARK 927      BINDING AFFINITY PREDICTED BY RF-SCORE:    0.00 PKD
ROOT
HETATM    1  C   UNL     1      -8.978  11.329  66.331  1.00  0.00    -0.188 C  
ENDROOT
BRANCH   1   2
HETATM    2  C   UNL     1      -9.541  10.013  66.746  1.00  0.00    -0.181 A  
HETATM    3  O   UNL     1      -8.869   8.897  66.333  1.00  0.00    -0.138 OA 
HETATM    4  C   UNL     1     -10.628   9.648  67.514  1.00  0.00    -0.339 A  
HETATM    5  C   UNL     1      -9.515   7.826  66.864  1.00  0.00    -0.187 A  
HETATM    6  C   UNL     1     -10.604   8.236  67.597  1.00  0.00    -0.264 A  
ENDBRANCH   1   2
BRANCH   1   7
HETATM    7  N   UNL     1      -9.944  12.303  65.835  1.00  0.00    -0.251 NA 
HETATM    8  H   UNL     1     -10.798  12.004  65.366  1.00  0.00     0.000 HD 
BRANCH   7   9
HETATM    9  C   UNL     1      -9.664  13.648  66.022  1.00  0.00    -0.222 A  
HETATM   10  C   UNL     1      -8.397  15.398  66.889  1.00  0.00    -0.255 A  
HETATM   11  N   UNL     1      -9.053  16.407  66.306  1.00  0.00    -0.303 NA 
HETATM   12  N   UNL     1      -8.636  14.070  66.789  1.00  0.00    -0.124 NA 
HETATM   13  C   UNL     1     -10.062  15.975  65.531  1.00  0.00    -0.304 A  
HETATM   14  C   UNL     1     -10.388  14.640  65.380  1.00  0.00    -0.383 A  
HETATM   15  N   UNL     1     -11.442  14.644  64.506  1.00  0.00    -0.580 NA 
HETATM   16  H   UNL     1     -11.942  13.824  64.164  1.00  0.00     0.000 HD 
HETATM   17  C   UNL     1     -11.704  15.944  64.174  1.00  0.00    -0.027 A  
HETATM   18  N   UNL     1     -10.888  16.775  64.785  1.00  0.00    -0.799 NA 
ENDBRANCH   7   9
ENDBRANCH   1   7
TORSDOF 3
ENDMDL
MODEL      144
REMARK 921   NORMALIZED FREE ENERGY PREDICTED BY IDOCK:   -3.80 KCAL/MOL
REMARK 922        TOTAL FREE ENERGY PREDICTED BY IDOCK:   -4.75 KCAL/MOL
REMARK 923 INTER-LIGAND FREE ENERGY PREDICTED BY IDOCK:   -4.51 KCAL/MOL
REMARK 924 INTRA-LIGAND FREE ENERGY PREDICTED BY IDOCK:   -0.24 KCAL/MOL
REMARK 927      BINDING AFFINITY PREDICTED BY RF-SCORE:    0.00 PKD
ROOT
HETATM    1  C   UNL     1     -11.519   9.264  71.456  1.00  0.00    -0.384 C  
ENDROOT
BRANCH   1   2
HETATM    2  C   UNL     1     -10.842   8.350  72.419  1.00  0.00    -0.346 A  
HETATM    3  O   UNL     1     -11.600   7.346  72.953  1.00  0.00    -0.262 OA 
HETATM    4  C   UNL     1      -9.550   8.267  72.896  1.00  0.00    -0.320 A  
HETATM    5  C   UNL     1     -10.779   6.610  73.748  1.00  0.00    -0.182 A  
HETATM    6  C   UNL     1      -9.509   7.137  73.748  1.00  0.00    -0.286 A  
ENDBRANCH   1   2
BRANCH   1   7
HETATM    7  N   UNL     1     -10.692  10.337  70.915  1.00  0.00    -0.291 NA 
HETATM    8  H   UNL     1      -9.914  10.721  71.449  1.00  0.00     0.000 HD 
BRANCH   7   9
HETATM    9  C   UNL     1     -11.000  10.818  69.651  1.00  0.00    -0.264 A  
HETATM   10  C   UNL     1     -11.898  12.402  68.200  1.00  0.00    -0.315 A  
HETATM   11  N   UNL     1     -11.527  11.828  67.050  1.00  0.00    -0.471 NA 
HETATM   12  N   UNL     1     -11.673  11.973  69.464  1.00  0.00    -0.323 NA 
HETATM   13  C   UNL     1     -10.842  10.689  67.248  1.00  0.00    -0.287 A  
HETATM   14  C   UNL     1     -10.578  10.169  68.501  1.00  0.00    -0.216 A  
HETATM   15  N   UNL     1      -9.853   9.034  68.252  1.00  0.00    -0.160 NA 
HETATM   16  H   UNL     1      -9.483   8.392  68.952  1.00  0.00     0.000 HD 
HETATM   17  C   UNL     1      -9.713   8.918  66.897  1.00  0.00    -0.202 A  
HETATM   18  N   UNL     1     -10.308   9.902  66.261  1.00  0.00    -0.202 NA 
ENDBRANCH   7   9
ENDBRANCH   1   7
TORSDOF 3
ENDMDL
MODEL      145
REMARK 921   NORMALIZED FREE ENERGY PREDICTED BY IDOCK:   -3.80 KCAL/MOL
REMARK 922        TOTAL FREE ENERGY PREDICTED BY IDOCK:   -4.75 KCAL/MOL
REMARK 923 INTER-LIGAND FREE ENERGY PREDICTED BY IDOCK:   -4.61 KCAL/MOL
REMARK 924 INTRA-LIGAND FREE ENERGY PREDICTED BY IDOCK:   -0.14 KCAL/MOL
REMARK 927      BINDING AFFINITY PREDICTED BY RF-SCORE:    0.00 PKD
ROOT
HETATM    1  C   UNL     1      -8.645  13.919  67.324  1.00  0.00    -0.211 C  
ENDROOT
BRANCH   1   2
HETATM    2  C   UNL     1      -9.882  13.128  67.581  1.00  0.00    -0.219 A  
HETATM    3  O   UNL     1     -10.009  11.945  66.909  1.00  0.00    -0.198 OA 
HETATM    4  C   UNL     1     -10.970  13.317  68.408  1.00  0.00    -0.289 A  
HETATM    5  C   UNL     1     -11.165  11.372  67.332  1.00  0.00    -0.305 A  
HETATM    6  C   UNL     1     -11.794  12.177  68.253  1.00  0.00    -0.361 A  
ENDBRANCH   1   2
BRANCH   1   7
HETATM    7  N   UNL     1      -8.666  14.755  66.129  1.00  0.00    -0.402 NA 
HETATM    8  H   UNL     1      -8.320  14.405  65.236  1.00  0.00     0.000 HD 
BRANCH   7   9
HETATM    9  C   UNL     1      -9.172  16.041  66.245  1.00  0.00    -0.333 A  
HETATM   10  C   UNL     1     -10.692  17.723  65.718  1.00  0.00    -0.098 A  
HETATM   11  N   UNL     1     -10.247  18.648  66.577  1.00  0.00    -0.389 NA 
HETATM   12  N   UNL     1     -10.227  16.469  65.519  1.00  0.00    -0.578 NA 
HETATM   13  C   UNL     1      -9.209  18.206  67.306  1.00  0.00    -0.252 A  
HETATM   14  C   UNL     1      -8.659  16.946  67.161  1.00  0.00    -0.197 A  
HETATM   15  N   UNL     1      -7.658  16.903  68.094  1.00  0.00    -0.181 NA 
HETATM   16  H   UNL     1      -7.035  16.115  68.271  1.00  0.00     0.000 HD 
HETATM   17  C   UNL     1      -7.643  18.104  68.746  1.00  0.00    -0.274 A  
HETATM   18  N   UNL     1      -8.567  18.918  68.286  1.00  0.00    -0.318 NA 
ENDBRANCH   7   9
ENDBRANCH   1   7
TORSDOF 3
ENDMDL
MODEL      146
REMARK 921   NORMALIZED FREE ENERGY PREDICTED BY IDOCK:   -3.79 KCAL/MOL
REMARK 922        TOTAL FREE ENERGY PREDICTED BY IDOCK:   -4.73 KCAL/MOL
REMARK 923 INTER-LIGAND FREE ENERGY PREDICTED BY IDOCK:   -4.40 KCAL/MOL
REMARK 924 INTRA-LIGAND FREE ENERGY PREDICTED BY IDOCK:   -0.33 KCAL/MOL
REMARK 927      BINDING AFFINITY PREDICTED BY RF-SCORE:    0.00 PKD
ROOT
HETATM    1  C   UNL     1     -10.336  11.068  68.028  1.00  0.00    -0.185 C  
ENDROOT
BRANCH   1   2
HETATM    2  C   UNL     1      -9.663  10.307  66.937  1.00  0.00    -0.186 A  
HETATM    3  O   UNL     1      -8.778  10.998  66.158  1.00  0.00    -0.175 OA 
HETATM    4  C   UNL     1      -9.715   8.989  66.533  1.00  0.00    -0.311 A  
HETATM    5  C   UNL     1      -8.248  10.109  65.278  1.00  0.00    -0.157 A  
HETATM    6  C   UNL     1      -8.793   8.860  65.466  1.00  0.00    -0.238 A  
ENDBRANCH   1   2
BRANCH   1   7
HETATM    7  N   UNL     1     -11.693  10.645  68.351  1.00  0.00    -0.701 NA 
HETATM    8  H   UNL     1     -12.424  10.632  67.640  1.00  0.00     0.000 HD 
BRANCH   7   9
HETATM    9  C   UNL     1     -11.959  10.259  69.656  1.00  0.00    -0.060 A  
HETATM   10  C   UNL     1     -12.860  10.607  71.775  1.00  0.00    -0.444 A  
HETATM   11  N   UNL     1     -12.580   9.406  72.293  1.00  0.00    -0.340 NA 
HETATM   12  N   UNL     1     -12.595  11.068  70.531  1.00  0.00    -0.320 NA 
HETATM   13  C   UNL     1     -11.964   8.603  71.409  1.00  0.00    -0.304 A  
HETATM   14  C   UNL     1     -11.642   8.993  70.122  1.00  0.00     0.011 A  
HETATM   15  N   UNL     1     -11.057   7.886  69.568  1.00  0.00    -0.446 NA 
HETATM   16  H   UNL     1     -10.693   7.811  68.618  1.00  0.00     0.000 HD 
HETATM   17  C   UNL     1     -11.049   6.900  70.514  1.00  0.00    -0.288 A  
HETATM   18  N   UNL     1     -11.586   7.307  71.644  1.00  0.00    -0.264 NA 
ENDBRANCH   7   9
ENDBRANCH   1   7
TORSDOF 3
ENDMDL
MODEL      147
REMARK 921   NORMALIZED FREE ENERGY PREDICTED BY IDOCK:   -3.74 KCAL/MOL
REMARK 922        TOTAL FREE ENERGY PREDICTED BY IDOCK:   -4.68 KCAL/MOL
REMARK 923 INTER-LIGAND FREE ENERGY PREDICTED BY IDOCK:   -4.38 KCAL/MOL
REMARK 924 INTRA-LIGAND FREE ENERGY PREDICTED BY IDOCK:   -0.30 KCAL/MOL
REMARK 927      BINDING AFFINITY PREDICTED BY RF-SCORE:    0.00 PKD
ROOT
HETATM    1  C   UNL     1     -12.609   6.828  71.435  1.00  0.00    -0.297 C  
ENDROOT
BRANCH   1   2
HETATM    2  C   UNL     1     -12.653   8.314  71.539  1.00  0.00    -0.309 A  
HETATM    3  O   UNL     1     -11.534   8.994  71.146  1.00  0.00    -0.270 OA 
HETATM    4  C   UNL     1     -13.628   9.206  71.935  1.00  0.00    -0.493 A  
HETATM    5  C   UNL     1     -11.812  10.318  71.269  1.00  0.00    -0.335 A  
HETATM    6  C   UNL     1     -13.087  10.500  71.752  1.00  0.00    -0.570 A  
ENDBRANCH   1   2
BRANCH   1   7
HETATM    7  N   UNL     1     -12.237   6.120  72.655  1.00  0.00    -0.527 NA 
HETATM    8  H   UNL     1     -12.933   5.616  73.204  1.00  0.00     0.000 HD 
BRANCH   7   9
HETATM    9  C   UNL     1     -10.907   6.153  73.044  1.00  0.00    -0.257 A  
HETATM   10  C   UNL     1      -9.126   7.034  74.258  1.00  0.00    -0.215 A  
HETATM   11  N   UNL     1      -8.200   6.137  73.903  1.00  0.00    -0.110 NA 
HETATM   12  N   UNL     1     -10.427   7.091  73.888  1.00  0.00    -0.365 NA 
HETATM   13  C   UNL     1      -8.693   5.198  73.078  1.00  0.00    -0.114 A  
HETATM   14  C   UNL     1     -10.003   5.184  72.637  1.00  0.00    -0.165 A  
HETATM   15  N   UNL     1     -10.085   4.068  71.849  1.00  0.00    -0.172 NA 
HETATM   16  H   UNL     1     -10.914   3.742  71.354  1.00  0.00     0.000 HD 
HETATM   17  C   UNL     1      -8.856   3.469  71.845  1.00  0.00    -0.095 A  
HETATM   18  N   UNL     1      -7.989   4.134  72.576  1.00  0.00    -0.085 NA 
ENDBRANCH   7   9
ENDBRANCH   1   7
TORSDOF 3
ENDMDL
MODEL      148
REMARK 921   NORMALIZED FREE ENERGY PREDICTED BY IDOCK:   -3.74 KCAL/MOL
REMARK 922        TOTAL FREE ENERGY PREDICTED BY IDOCK:   -4.67 KCAL/MOL
REMARK 923 INTER-LIGAND FREE ENERGY PREDICTED BY IDOCK:   -4.35 KCAL/MOL
REMARK 924 INTRA-LIGAND FREE ENERGY PREDICTED BY IDOCK:   -0.32 KCAL/MOL
REMARK 927      BINDING AFFINITY PREDICTED BY RF-SCORE:    0.00 PKD
ROOT
HETATM    1  C   UNL     1     -10.346   6.842  69.431  1.00  0.00    -0.199 C  
ENDROOT
BRANCH   1   2
HETATM    2  C   UNL     1     -10.318   6.050  68.168  1.00  0.00    -0.205 A  
HETATM    3  O   UNL     1      -9.584   4.897  68.179  1.00  0.00    -0.131 OA 
HETATM    4  C   UNL     1     -10.919   6.212  66.938  1.00  0.00    -0.384 A  
HETATM    5  C   UNL     1      -9.743   4.316  66.962  1.00  0.00    -0.206 A  
HETATM    6  C   UNL     1     -10.555   5.086  66.162  1.00  0.00    -0.321 A  
ENDBRANCH   1   2
BRANCH   1   7
HETATM    7  N   UNL     1      -9.658   8.127  69.387  1.00  0.00    -0.166 NA 
HETATM    8  H   UNL     1      -8.663   8.199  69.598  1.00  0.00     0.000 HD 
BRANCH   7   9
HETATM    9  C   UNL     1     -10.401   9.249  69.050  1.00  0.00    -0.214 A  
HETATM   10  C   UNL     1     -11.233  10.799  67.525  1.00  0.00    -0.274 A  
HETATM   11  N   UNL     1     -12.010  11.488  68.370  1.00  0.00    -0.562 NA 
HETATM   12  N   UNL     1     -10.452   9.726  67.787  1.00  0.00    -0.229 NA 
HETATM   13  C   UNL     1     -11.965  10.994  69.618  1.00  0.00    -0.353 A  
HETATM   14  C   UNL     1     -11.186   9.911  69.981  1.00  0.00    -0.276 A  
HETATM   15  N   UNL     1     -11.451   9.732  71.312  1.00  0.00    -0.379 NA 
HETATM   16  H   UNL     1     -11.047   9.014  71.913  1.00  0.00     0.000 HD 
HETATM   17  C   UNL     1     -12.353  10.687  71.690  1.00  0.00    -0.234 A  
HETATM   18  N   UNL     1     -12.679  11.471  70.687  1.00  0.00    -0.222 NA 
ENDBRANCH   7   9
ENDBRANCH   1   7
TORSDOF 3
ENDMDL
MODEL      149
REMARK 921   NORMALIZED FREE ENERGY PREDICTED BY IDOCK:   -3.73 KCAL/MOL
REMARK 922        TOTAL FREE ENERGY PREDICTED BY IDOCK:   -4.67 KCAL/MOL
REMARK 923 INTER-LIGAND FREE ENERGY PREDICTED BY IDOCK:   -4.57 KCAL/MOL
REMARK 924 INTRA-LIGAND FREE ENERGY PREDICTED BY IDOCK:   -0.10 KCAL/MOL
REMARK 927      BINDING AFFINITY PREDICTED BY RF-SCORE:    0.00 PKD
ROOT
HETATM    1  C   UNL     1      -5.636  19.116  67.086  1.00  0.00    -0.167 C  
ENDROOT
BRANCH   1   2
HETATM    2  C   UNL     1      -5.502  18.355  68.361  1.00  0.00    -0.172 A  
HETATM    3  O   UNL     1      -5.748  19.041  69.517  1.00  0.00    -0.214 OA 
HETATM    4  C   UNL     1      -5.198  17.041  68.651  1.00  0.00    -0.132 A  
HETATM    5  C   UNL     1      -5.626  18.153  70.537  1.00  0.00    -0.191 A  
HETATM    6  C   UNL     1      -5.287  16.910  70.057  1.00  0.00    -0.198 A  
ENDBRANCH   1   2
BRANCH   1   7
HETATM    7  N   UNL     1      -6.295  18.409  65.994  1.00  0.00    -0.206 NA 
HETATM    8  H   UNL     1      -5.805  18.214  65.121  1.00  0.00     0.000 HD 
BRANCH   7   9
HETATM    9  C   UNL     1      -7.610  18.010  66.179  1.00  0.00    -0.250 A  
HETATM   10  C   UNL     1      -9.293  16.404  66.273  1.00  0.00    -0.315 A  
HETATM   11  N   UNL     1     -10.290  17.206  66.664  1.00  0.00    -0.323 NA 
HETATM   12  N   UNL     1      -8.001  16.726  66.032  1.00  0.00    -0.380 NA 
HETATM   13  C   UNL     1      -9.886  18.477  66.825  1.00  0.00    -0.342 A  
HETATM   14  C   UNL     1      -8.591  18.899  66.589  1.00  0.00    -0.307 A  
HETATM   15  N   UNL     1      -8.609  20.235  66.891  1.00  0.00    -0.443 NA 
HETATM   16  H   UNL     1      -7.817  20.874  66.832  1.00  0.00     0.000 HD 
HETATM   17  C   UNL     1      -9.878  20.556  67.285  1.00  0.00    -0.441 A  
HETATM   18  N   UNL     1     -10.677  19.513  67.249  1.00  0.00    -0.490 NA 
ENDBRANCH   7   9
ENDBRANCH   1   7
TORSDOF 3
ENDMDL
MODEL      150
REMARK 921   NORMALIZED FREE ENERGY PREDICTED BY IDOCK:   -3.73 KCAL/MOL
REMARK 922        TOTAL FREE ENERGY PREDICTED BY IDOCK:   -4.66 KCAL/MOL
REMARK 923 INTER-LIGAND FREE ENERGY PREDICTED BY IDOCK:   -4.38 KCAL/MOL
REMARK 924 INTRA-LIGAND FREE ENERGY PREDICTED BY IDOCK:   -0.28 KCAL/MOL
REMARK 927      BINDING AFFINITY PREDICTED BY RF-SCORE:    0.00 PKD
ROOT
HETATM    1  C   UNL     1     -10.936  10.988  68.847  1.00  0.00    -0.227 C  
ENDROOT
BRANCH   1   2
HETATM    2  C   UNL     1     -11.257  11.569  67.512  1.00  0.00    -0.298 A  
HETATM    3  O   UNL     1     -12.021  12.702  67.500  1.00  0.00    -0.382 OA 
HETATM    4  C   UNL     1     -10.916  11.219  66.222  1.00  0.00    -0.265 A  
HETATM    5  C   UNL     1     -12.140  13.085  66.202  1.00  0.00    -0.409 A  
HETATM    6  C   UNL     1     -11.480  12.205  65.377  1.00  0.00    -0.387 A  
ENDBRANCH   1   2
BRANCH   1   7
HETATM    7  N   UNL     1     -11.589   9.722  69.160  1.00  0.00    -0.457 NA 
HETATM    8  H   UNL     1     -12.606   9.649  69.192  1.00  0.00     0.000 HD 
BRANCH   7   9
HETATM    9  C   UNL     1     -10.785   8.622  69.411  1.00  0.00    -0.158 A  
HETATM   10  C   UNL     1      -8.843   7.368  69.129  1.00  0.00    -0.136 A  
HETATM   11  N   UNL     1      -9.113   6.409  70.021  1.00  0.00    -0.149 NA 
HETATM   12  N   UNL     1      -9.594   8.445  68.800  1.00  0.00    -0.148 NA 
HETATM   13  C   UNL     1     -10.291   6.604  70.636  1.00  0.00    -0.202 A  
HETATM   14  C   UNL     1     -11.129   7.666  70.355  1.00  0.00    -0.258 A  
HETATM   15  N   UNL     1     -12.189   7.498  71.206  1.00  0.00    -0.323 NA 
HETATM   16  H   UNL     1     -13.005   8.105  71.275  1.00  0.00     0.000 HD 
HETATM   17  C   UNL     1     -11.955   6.373  71.946  1.00  0.00    -0.329 A  
HETATM   18  N   UNL     1     -10.816   5.805  71.619  1.00  0.00    -0.255 NA 
ENDBRANCH   7   9
ENDBRANCH   1   7
TORSDOF 3
ENDMDL
MODEL      151
REMARK 921   NORMALIZED FREE ENERGY PREDICTED BY IDOCK:   -3.73 KCAL/MOL
REMARK 922        TOTAL FREE ENERGY PREDICTED BY IDOCK:   -4.66 KCAL/MOL
REMARK 923 INTER-LIGAND FREE ENERGY PREDICTED BY IDOCK:   -4.31 KCAL/MOL
REMARK 924 INTRA-LIGAND FREE ENERGY PREDICTED BY IDOCK:   -0.35 KCAL/MOL
REMARK 927      BINDING AFFINITY PREDICTED BY RF-SCORE:    0.00 PKD
ROOT
HETATM    1  C   UNL     1      -7.596  14.762  68.360  1.00  0.00    -0.116 C  
ENDROOT
BRANCH   1   2
HETATM    2  C   UNL     1      -8.587  15.871  68.455  1.00  0.00    -0.190 A  
HETATM    3  O   UNL     1      -8.276  17.033  67.806  1.00  0.00    -0.187 OA 
HETATM    4  C   UNL     1      -9.823  15.987  69.057  1.00  0.00    -0.239 A  
HETATM    5  C   UNL     1      -9.330  17.875  67.975  1.00  0.00    -0.274 A  
HETATM    6  C   UNL     1     -10.306  17.278  68.739  1.00  0.00    -0.358 A  
ENDBRANCH   1   2
BRANCH   1   7
HETATM    7  N   UNL     1      -8.030  13.479  68.901  1.00  0.00    -0.339 NA 
HETATM    8  H   UNL     1      -7.790  13.201  69.852  1.00  0.00     0.000 HD 
BRANCH   7   9
HETATM    9  C   UNL     1      -8.777  12.648  68.079  1.00  0.00    -0.190 A  
HETATM   10  C   UNL     1      -9.077  11.346  66.173  1.00  0.00    -0.207 A  
HETATM   11  N   UNL     1     -10.292  10.869  66.466  1.00  0.00    -0.240 NA 
HETATM   12  N   UNL     1      -8.307  12.188  66.900  1.00  0.00    -0.174 NA 
HETATM   13  C   UNL     1     -10.742  11.318  67.649  1.00  0.00    -0.226 A  
HETATM   14  C   UNL     1     -10.031  12.191  68.452  1.00  0.00    -0.206 A  
HETATM   15  N   UNL     1     -10.829  12.368  69.551  1.00  0.00    -0.452 NA 
HETATM   16  H   UNL     1     -10.618  12.955  70.357  1.00  0.00     0.000 HD 
HETATM   17  C   UNL     1     -11.958  11.618  69.372  1.00  0.00    -0.316 A  
HETATM   18  N   UNL     1     -11.938  10.975  68.226  1.00  0.00    -0.597 NA 
ENDBRANCH   7   9
ENDBRANCH   1   7
TORSDOF 3
ENDMDL
MODEL      152
REMARK 921   NORMALIZED FREE ENERGY PREDICTED BY IDOCK:   -3.71 KCAL/MOL
REMARK 922        TOTAL FREE ENERGY PREDICTED BY IDOCK:   -4.64 KCAL/MOL
REMARK 923 INTER-LIGAND FREE ENERGY PREDICTED BY IDOCK:   -4.32 KCAL/MOL
REMARK 924 INTRA-LIGAND FREE ENERGY PREDICTED BY IDOCK:   -0.32 KCAL/MOL
REMARK 927      BINDING AFFINITY PREDICTED BY RF-SCORE:    0.00 PKD
ROOT
HETATM    1  C   UNL     1      -9.216   9.325  67.892  1.00  0.00    -0.129 C  
ENDROOT
BRANCH   1   2
HETATM    2  C   UNL     1      -9.691   7.996  67.413  1.00  0.00    -0.166 A  
HETATM    3  O   UNL     1      -8.909   7.357  66.492  1.00  0.00    -0.135 OA 
HETATM    4  C   UNL     1     -10.783   7.213  67.725  1.00  0.00    -0.282 A  
HETATM    5  C   UNL     1      -9.493   6.156  66.243  1.00  0.00    -0.113 A  
HETATM    6  C   UNL     1     -10.649   6.020  66.975  1.00  0.00    -0.385 A  
ENDBRANCH   1   2
BRANCH   1   7
HETATM    7  N   UNL     1      -9.190   9.503  69.339  1.00  0.00    -0.165 NA 
HETATM    8  H   UNL     1      -8.352   9.291  69.880  1.00  0.00     0.000 HD 
BRANCH   7   9
HETATM    9  C   UNL     1     -10.340   9.970  69.957  1.00  0.00    -0.272 A  
HETATM   10  C   UNL     1     -12.092  11.484  70.197  1.00  0.00    -0.351 A  
HETATM   11  N   UNL     1     -12.750  10.850  71.174  1.00  0.00    -0.401 NA 
HETATM   12  N   UNL     1     -10.948  11.114  69.576  1.00  0.00    -0.239 NA 
HETATM   13  C   UNL     1     -12.147   9.705  71.532  1.00  0.00    -0.401 A  
HETATM   14  C   UNL     1     -10.969   9.255  70.964  1.00  0.00    -0.320 A  
HETATM   15  N   UNL     1     -10.722   8.064  71.592  1.00  0.00    -0.225 NA 
HETATM   16  H   UNL     1      -9.927   7.449  71.421  1.00  0.00     0.000 HD 
HETATM   17  C   UNL     1     -11.730   7.848  72.490  1.00  0.00    -0.367 A  
HETATM   18  N   UNL     1     -12.606   8.829  72.481  1.00  0.00    -0.366 NA 
ENDBRANCH   7   9
ENDBRANCH   1   7
TORSDOF 3
ENDMDL
MODEL      153
REMARK 921   NORMALIZED FREE ENERGY PREDICTED BY IDOCK:   -3.70 KCAL/MOL
REMARK 922        TOTAL FREE ENERGY PREDICTED BY IDOCK:   -4.62 KCAL/MOL
REMARK 923 INTER-LIGAND FREE ENERGY PREDICTED BY IDOCK:   -4.04 KCAL/MOL
REMARK 924 INTRA-LIGAND FREE ENERGY PREDICTED BY IDOCK:   -0.58 KCAL/MOL
REMARK 927      BINDING AFFINITY PREDICTED BY RF-SCORE:    0.00 PKD
ROOT
HETATM    1  C   UNL     1      -8.918  11.251  68.334  1.00  0.00    -0.167 C  
ENDROOT
BRANCH   1   2
HETATM    2  C   UNL     1      -7.810  11.068  67.353  1.00  0.00    -0.118 A  
HETATM    3  O   UNL     1      -7.909  10.002  66.503  1.00  0.00    -0.109 OA 
HETATM    4  C   UNL     1      -6.663  11.783  67.078  1.00  0.00    -0.139 A  
HETATM    5  C   UNL     1      -6.837  10.060  65.670  1.00  0.00    -0.114 A  
HETATM    6  C   UNL     1      -6.040  11.137  65.984  1.00  0.00    -0.047 A  
ENDBRANCH   1   2
BRANCH   1   7
HETATM    7  N   UNL     1     -10.255  10.936  67.844  1.00  0.00    -0.174 NA 
HETATM    8  H   UNL     1     -10.684  10.030  68.030  1.00  0.00     0.000 HD 
BRANCH   7   9
HETATM    9  C   UNL     1     -10.924  11.908  67.116  1.00  0.00    -0.269 A  
HETATM   10  C   UNL     1     -12.212  13.839  66.935  1.00  0.00    -0.366 A  
HETATM   11  N   UNL     1     -12.202  13.942  65.601  1.00  0.00    -0.424 NA 
HETATM   12  N   UNL     1     -11.621  12.901  67.710  1.00  0.00    -0.322 NA 
HETATM   13  C   UNL     1     -11.492  12.960  65.022  1.00  0.00    -0.315 A  
HETATM   14  C   UNL     1     -10.866  11.952  65.732  1.00  0.00    -0.295 A  
HETATM   15  N   UNL     1     -10.250  11.193  64.774  1.00  0.00    -0.285 NA 
HETATM   16  H   UNL     1      -9.689  10.357  64.938  1.00  0.00     0.000 HD 
HETATM   17  C   UNL     1     -10.521  11.755  63.558  1.00  0.00    -0.449 A  
HETATM   18  N   UNL     1     -11.278  12.824  63.675  1.00  0.00    -0.448 NA 
ENDBRANCH   7   9
ENDBRANCH   1   7
TORSDOF 3
ENDMDL
MODEL      154
REMARK 921   NORMALIZED FREE ENERGY PREDICTED BY IDOCK:   -3.69 KCAL/MOL
REMARK 922        TOTAL FREE ENERGY PREDICTED BY IDOCK:   -4.62 KCAL/MOL
REMARK 923 INTER-LIGAND FREE ENERGY PREDICTED BY IDOCK:   -4.29 KCAL/MOL
REMARK 924 INTRA-LIGAND FREE ENERGY PREDICTED BY IDOCK:   -0.33 KCAL/MOL
REMARK 927      BINDING AFFINITY PREDICTED BY RF-SCORE:    0.00 PKD
ROOT
HETATM    1  C   UNL     1     -11.248   6.093  69.432  1.00  0.00    -0.396 C  
ENDROOT
BRANCH   1   2
HETATM    2  C   UNL     1     -11.391   7.241  70.372  1.00  0.00    -0.271 A  
HETATM    3  O   UNL     1     -12.244   7.070  71.427  1.00  0.00    -0.325 OA 
HETATM    4  C   UNL     1     -10.807   8.488  70.438  1.00  0.00    -0.251 A  
HETATM    5  C   UNL     1     -12.178   8.202  72.175  1.00  0.00    -0.350 A  
HETATM    6  C   UNL     1     -11.310   9.105  71.608  1.00  0.00    -0.446 A  
ENDBRANCH   1   2
BRANCH   1   7
HETATM    7  N   UNL     1     -11.637   6.355  68.051  1.00  0.00    -0.473 NA 
HETATM    8  H   UNL     1     -12.619   6.393  67.779  1.00  0.00     0.000 HD 
BRANCH   7   9
HETATM    9  C   UNL     1     -10.629   6.549  67.119  1.00  0.00    -0.328 A  
HETATM   10  C   UNL     1      -9.099   7.876  65.970  1.00  0.00    -0.132 A  
HETATM   11  N   UNL     1      -8.496   6.903  65.277  1.00  0.00    -0.101 NA 
HETATM   12  N   UNL     1     -10.111   7.770  66.861  1.00  0.00    -0.263 NA 
HETATM   13  C   UNL     1      -9.006   5.692  65.554  1.00  0.00    -0.104 A  
HETATM   14  C   UNL     1     -10.049   5.489  66.439  1.00  0.00    -0.182 A  
HETATM   15  N   UNL     1     -10.235   4.133  66.441  1.00  0.00    -0.387 NA 
HETATM   16  H   UNL     1     -10.929   3.623  66.987  1.00  0.00     0.000 HD 
HETATM   17  C   UNL     1      -9.324   3.586  65.581  1.00  0.00    -0.158 A  
HETATM   18  N   UNL     1      -8.569   4.506  65.023  1.00  0.00    -0.127 NA 
ENDBRANCH   7   9
ENDBRANCH   1   7
TORSDOF 3
ENDMDL
MODEL      155
REMARK 921   NORMALIZED FREE ENERGY PREDICTED BY IDOCK:   -3.69 KCAL/MOL
REMARK 922        TOTAL FREE ENERGY PREDICTED BY IDOCK:   -4.62 KCAL/MOL
REMARK 923 INTER-LIGAND FREE ENERGY PREDICTED BY IDOCK:   -4.36 KCAL/MOL
REMARK 924 INTRA-LIGAND FREE ENERGY PREDICTED BY IDOCK:   -0.26 KCAL/MOL
REMARK 927      BINDING AFFINITY PREDICTED BY RF-SCORE:    0.00 PKD
ROOT
HETATM    1  C   UNL     1     -10.480   9.806  67.558  1.00  0.00    -0.251 C  
ENDROOT
BRANCH   1   2
HETATM    2  C   UNL     1     -11.056  11.137  67.215  1.00  0.00    -0.302 A  
HETATM    3  O   UNL     1     -11.574  11.869  68.246  1.00  0.00    -0.284 OA 
HETATM    4  C   UNL     1     -11.165  11.844  66.036  1.00  0.00    -0.377 A  
HETATM    5  C   UNL     1     -11.986  13.053  67.722  1.00  0.00    -0.295 A  
HETATM    6  C   UNL     1     -11.758  13.086  66.366  1.00  0.00    -0.444 A  
ENDBRANCH   1   2
BRANCH   1   7
HETATM    7  N   UNL     1     -10.141   9.607  68.963  1.00  0.00    -0.178 NA 
HETATM    8  H   UNL     1      -9.692  10.344  69.505  1.00  0.00     0.000 HD 
BRANCH   7   9
HETATM    9  C   UNL     1     -10.446   8.382  69.537  1.00  0.00    -0.224 A  
HETATM   10  C   UNL     1     -11.133   6.160  69.432  1.00  0.00    -0.409 A  
HETATM   11  N   UNL     1     -10.970   5.856  70.724  1.00  0.00    -0.287 NA 
HETATM   12  N   UNL     1     -10.897   7.338  68.809  1.00  0.00    -0.140 NA 
HETATM   13  C   UNL     1     -10.503   6.896  71.435  1.00  0.00    -0.209 A  
HETATM   14  C   UNL     1     -10.247   8.139  70.887  1.00  0.00    -0.189 A  
HETATM   15  N   UNL     1      -9.775   8.883  71.935  1.00  0.00    -0.313 NA 
HETATM   16  H   UNL     1      -9.483   9.859  71.895  1.00  0.00     0.000 HD 
HETATM   17  C   UNL     1      -9.766   8.083  73.043  1.00  0.00    -0.278 A  
HETATM   18  N   UNL     1     -10.208   6.874  72.774  1.00  0.00    -0.183 NA 
ENDBRANCH   7   9
ENDBRANCH   1   7
TORSDOF 3
ENDMDL
MODEL      156
REMARK 921   NORMALIZED FREE ENERGY PREDICTED BY IDOCK:   -3.67 KCAL/MOL
REMARK 922        TOTAL FREE ENERGY PREDICTED BY IDOCK:   -4.60 KCAL/MOL
REMARK 923 INTER-LIGAND FREE ENERGY PREDICTED BY IDOCK:   -4.21 KCAL/MOL
REMARK 924 INTRA-LIGAND FREE ENERGY PREDICTED BY IDOCK:   -0.39 KCAL/MOL
REMARK 927      BINDING AFFINITY PREDICTED BY RF-SCORE:    0.00 PKD
ROOT
HETATM    1  C   UNL     1     -10.304  13.398  66.410  1.00  0.00    -0.288 C  
ENDROOT
BRANCH   1   2
HETATM    2  C   UNL     1     -10.773  14.279  67.517  1.00  0.00    -0.270 A  
HETATM    3  O   UNL     1      -9.827  14.714  68.402  1.00  0.00    -0.208 OA 
HETATM    4  C   UNL     1     -12.005  14.804  67.850  1.00  0.00    -0.260 A  
HETATM    5  C   UNL     1     -10.457  15.538  69.281  1.00  0.00    -0.245 A  
HETATM    6  C   UNL     1     -11.797  15.624  68.985  1.00  0.00    -0.379 A  
ENDBRANCH   1   2
BRANCH   1   7
HETATM    7  N   UNL     1     -10.676  11.992  66.520  1.00  0.00    -0.248 NA 
HETATM    8  H   UNL     1     -11.308  11.561  65.846  1.00  0.00     0.000 HD 
BRANCH   7   9
HETATM    9  C   UNL     1     -10.143  11.260  67.570  1.00  0.00    -0.183 A  
HETATM   10  C   UNL     1      -8.373  10.278  68.722  1.00  0.00    -0.125 A  
HETATM   11  N   UNL     1      -9.063   9.844  69.783  1.00  0.00    -0.225 NA 
HETATM   12  N   UNL     1      -8.828  10.959  67.644  1.00  0.00    -0.133 NA 
HETATM   13  C   UNL     1     -10.366  10.165  69.707  1.00  0.00    -0.259 A  
HETATM   14  C   UNL     1     -10.921  10.846  68.639  1.00  0.00    -0.227 A  
HETATM   15  N   UNL     1     -12.242  10.980  68.972  1.00  0.00    -0.669 NA 
HETATM   16  H   UNL     1     -12.960  11.437  68.410  1.00  0.00     0.000 HD 
HETATM   17  C   UNL     1     -12.428  10.391  70.192  1.00  0.00    -0.176 A  
HETATM   18  N   UNL     1     -11.309   9.882  70.660  1.00  0.00    -0.312 NA 
ENDBRANCH   7   9
ENDBRANCH   1   7
TORSDOF 3
ENDMDL
MODEL      157
REMARK 921   NORMALIZED FREE ENERGY PREDICTED BY IDOCK:   -3.67 KCAL/MOL
REMARK 922        TOTAL FREE ENERGY PREDICTED BY IDOCK:   -4.59 KCAL/MOL
REMARK 923 INTER-LIGAND FREE ENERGY PREDICTED BY IDOCK:   -4.41 KCAL/MOL
REMARK 924 INTRA-LIGAND FREE ENERGY PREDICTED BY IDOCK:   -0.18 KCAL/MOL
REMARK 927      BINDING AFFINITY PREDICTED BY RF-SCORE:    0.00 PKD
ROOT
HETATM    1  C   UNL     1     -10.424  12.227  67.666  1.00  0.00    -0.214 C  
ENDROOT
BRANCH   1   2
HETATM    2  C   UNL     1     -10.998  12.852  66.440  1.00  0.00    -0.285 A  
HETATM    3  O   UNL     1     -12.266  13.353  66.539  1.00  0.00    -0.399 OA 
HETATM    4  C   UNL     1     -10.503  13.076  65.172  1.00  0.00    -0.335 A  
HETATM    5  C   UNL     1     -12.562  13.919  65.340  1.00  0.00    -0.507 A  
HETATM    6  C   UNL     1     -11.511  13.773  64.465  1.00  0.00    -0.401 A  
ENDBRANCH   1   2
BRANCH   1   7
HETATM    7  N   UNL     1     -10.689  10.803  67.832  1.00  0.00    -0.219 NA 
HETATM    8  H   UNL     1     -11.425  10.474  68.457  1.00  0.00     0.000 HD 
BRANCH   7   9
HETATM    9  C   UNL     1      -9.907   9.909  67.116  1.00  0.00    -0.186 A  
HETATM   10  C   UNL     1      -8.071   9.363  65.793  1.00  0.00    -0.114 A  
HETATM   11  N   UNL     1      -8.270   8.042  65.739  1.00  0.00    -0.124 NA 
HETATM   12  N   UNL     1      -8.809  10.299  66.433  1.00  0.00    -0.143 NA 
HETATM   13  C   UNL     1      -9.354   7.663  66.436  1.00  0.00    -0.172 A  
HETATM   14  C   UNL     1     -10.175   8.549  67.109  1.00  0.00    -0.284 A  
HETATM   15  N   UNL     1     -11.128   7.757  67.690  1.00  0.00    -0.486 NA 
HETATM   16  H   UNL     1     -11.903   8.077  68.270  1.00  0.00     0.000 HD 
HETATM   17  C   UNL     1     -10.854   6.460  67.354  1.00  0.00    -0.375 A  
HETATM   18  N   UNL     1      -9.788   6.371  66.589  1.00  0.00    -0.166 NA 
ENDBRANCH   7   9
ENDBRANCH   1   7
TORSDOF 3
ENDMDL
MODEL      158
REMARK 921   NORMALIZED FREE ENERGY PREDICTED BY IDOCK:   -3.66 KCAL/MOL
REMARK 922        TOTAL FREE ENERGY PREDICTED BY IDOCK:   -4.58 KCAL/MOL
REMARK 923 INTER-LIGAND FREE ENERGY PREDICTED BY IDOCK:   -4.33 KCAL/MOL
REMARK 924 INTRA-LIGAND FREE ENERGY PREDICTED BY IDOCK:   -0.26 KCAL/MOL
REMARK 927      BINDING AFFINITY PREDICTED BY RF-SCORE:    0.00 PKD
ROOT
HETATM    1  C   UNL     1     -10.168   8.025  68.373  1.00  0.00    -0.207 C  
ENDROOT
BRANCH   1   2
HETATM    2  C   UNL     1     -10.641   7.291  69.581  1.00  0.00    -0.235 A  
HETATM    3  O   UNL     1     -10.978   8.046  70.669  1.00  0.00    -0.238 OA 
HETATM    4  C   UNL     1     -10.853   5.955  69.853  1.00  0.00    -0.439 A  
HETATM    5  C   UNL     1     -11.430   7.189  71.621  1.00  0.00    -0.266 A  
HETATM    6  C   UNL     1     -11.371   5.891  71.169  1.00  0.00    -0.230 A  
ENDBRANCH   1   2
BRANCH   1   7
HETATM    7  N   UNL     1      -9.560   9.327  68.622  1.00  0.00    -0.146 NA 
HETATM    8  H   UNL     1      -8.596   9.405  68.944  1.00  0.00     0.000 HD 
BRANCH   7   9
HETATM    9  C   UNL     1     -10.336  10.457  68.409  1.00  0.00    -0.174 A  
HETATM   10  C   UNL     1     -11.546  12.306  69.140  1.00  0.00    -0.318 A  
HETATM   11  N   UNL     1     -11.837  12.821  67.940  1.00  0.00    -0.356 NA 
HETATM   12  N   UNL     1     -10.834  11.192  69.426  1.00  0.00    -0.235 NA 
HETATM   13  C   UNL     1     -11.321  12.093  66.937  1.00  0.00    -0.343 A  
HETATM   14  C   UNL     1     -10.594  10.934  67.133  1.00  0.00    -0.255 A  
HETATM   15  N   UNL     1     -10.247  10.532  65.871  1.00  0.00    -0.256 NA 
HETATM   16  H   UNL     1      -9.701   9.705  65.633  1.00  0.00     0.000 HD 
HETATM   17  C   UNL     1     -10.765  11.437  64.988  1.00  0.00    -0.277 A  
HETATM   18  N   UNL     1     -11.427  12.392  65.603  1.00  0.00    -0.351 NA 
ENDBRANCH   7   9
ENDBRANCH   1   7
TORSDOF 3
ENDMDL
MODEL      159
REMARK 921   NORMALIZED FREE ENERGY PREDICTED BY IDOCK:   -3.65 KCAL/MOL
REMARK 922        TOTAL FREE ENERGY PREDICTED BY IDOCK:   -4.57 KCAL/MOL
REMARK 923 INTER-LIGAND FREE ENERGY PREDICTED BY IDOCK:   -4.35 KCAL/MOL
REMARK 924 INTRA-LIGAND FREE ENERGY PREDICTED BY IDOCK:   -0.22 KCAL/MOL
REMARK 927      BINDING AFFINITY PREDICTED BY RF-SCORE:    0.00 PKD
ROOT
HETATM    1  C   UNL     1     -10.167   9.086  67.529  1.00  0.00    -0.241 C  
ENDROOT
BRANCH   1   2
HETATM    2  C   UNL     1     -10.601  10.287  66.759  1.00  0.00    -0.185 A  
HETATM    3  O   UNL     1     -11.591  11.050  67.314  1.00  0.00    -0.496 OA 
HETATM    4  C   UNL     1     -10.190  10.847  65.568  1.00  0.00    -0.332 A  
HETATM    5  C   UNL     1     -11.786  12.108  66.485  1.00  0.00    -0.321 A  
HETATM    6  C   UNL     1     -10.949  12.029  65.396  1.00  0.00    -0.347 A  
ENDBRANCH   1   2
BRANCH   1   7
HETATM    7  N   UNL     1     -11.102   7.967  67.533  1.00  0.00    -0.462 NA 
HETATM    8  H   UNL     1     -12.033   8.057  67.129  1.00  0.00     0.000 HD 
BRANCH   7   9
HETATM    9  C   UNL     1     -10.684   6.775  68.107  1.00  0.00    -0.236 A  
HETATM   10  C   UNL     1     -10.296   5.378  69.928  1.00  0.00    -0.307 A  
HETATM   11  N   UNL     1      -9.918   4.290  69.247  1.00  0.00    -0.110 NA 
HETATM   12  N   UNL     1     -10.675   6.583  69.443  1.00  0.00    -0.249 NA 
HETATM   13  C   UNL     1      -9.947   4.487  67.919  1.00  0.00    -0.053 A  
HETATM   14  C   UNL     1     -10.308   5.687  67.335  1.00  0.00    -0.230 A  
HETATM   15  N   UNL     1     -10.224   5.450  65.989  1.00  0.00    -0.400 NA 
HETATM   16  H   UNL     1     -10.423   6.120  65.247  1.00  0.00     0.000 HD 
HETATM   17  C   UNL     1      -9.826   4.153  65.818  1.00  0.00    -0.202 A  
HETATM   18  N   UNL     1      -9.644   3.545  66.970  1.00  0.00    -0.180 NA 
ENDBRANCH   7   9
ENDBRANCH   1   7
TORSDOF 3
ENDMDL
MODEL      160
REMARK 921   NORMALIZED FREE ENERGY PREDICTED BY IDOCK:   -3.65 KCAL/MOL
REMARK 922        TOTAL FREE ENERGY PREDICTED BY IDOCK:   -4.57 KCAL/MOL
REMARK 923 INTER-LIGAND FREE ENERGY PREDICTED BY IDOCK:   -4.22 KCAL/MOL
REMARK 924 INTRA-LIGAND FREE ENERGY PREDICTED BY IDOCK:   -0.34 KCAL/MOL
REMARK 927      BINDING AFFINITY PREDICTED BY RF-SCORE:    0.00 PKD
ROOT
HETATM    1  C   UNL     1     -11.030   6.410  71.951  1.00  0.00    -0.253 C  
ENDROOT
BRANCH   1   2
HETATM    2  C   UNL     1     -12.292   7.203  71.920  1.00  0.00    -0.317 A  
HETATM    3  O   UNL     1     -12.246   8.456  72.465  1.00  0.00    -0.386 OA 
HETATM    4  C   UNL     1     -13.551   6.957  71.414  1.00  0.00    -0.234 A  
HETATM    5  C   UNL     1     -13.471   9.013  72.279  1.00  0.00    -0.475 A  
HETATM    6  C   UNL     1     -14.310   8.131  71.638  1.00  0.00    -0.570 A  
ENDBRANCH   1   2
BRANCH   1   7
HETATM    7  N   UNL     1      -9.981   6.853  71.040  1.00  0.00    -0.189 NA 
HETATM    8  H   UNL     1      -9.112   7.253  71.392  1.00  0.00     0.000 HD 
BRANCH   7   9
HETATM    9  C   UNL     1     -10.203   6.713  69.678  1.00  0.00    -0.186 A  
HETATM   10  C   UNL     1     -10.786   7.537  67.580  1.00  0.00    -0.226 A  
HETATM   11  N   UNL     1     -10.554   6.424  66.875  1.00  0.00    -0.290 NA 
HETATM   12  N   UNL     1     -10.633   7.737  68.909  1.00  0.00    -0.188 NA 
HETATM   13  C   UNL     1     -10.109   5.418  67.646  1.00  0.00    -0.175 A  
HETATM   14  C   UNL     1      -9.937   5.526  69.014  1.00  0.00    -0.181 A  
HETATM   15  N   UNL     1      -9.458   4.301  69.394  1.00  0.00    -0.171 NA 
HETATM   16  H   UNL     1      -9.215   4.020  70.343  1.00  0.00     0.000 HD 
HETATM   17  C   UNL     1      -9.364   3.524  68.274  1.00  0.00    -0.177 A  
HETATM   18  N   UNL     1      -9.758   4.170  67.199  1.00  0.00    -0.204 NA 
ENDBRANCH   7   9
ENDBRANCH   1   7
TORSDOF 3
ENDMDL
MODEL      161
REMARK 921   NORMALIZED FREE ENERGY PREDICTED BY IDOCK:   -3.58 KCAL/MOL
REMARK 922        TOTAL FREE ENERGY PREDICTED BY IDOCK:   -4.48 KCAL/MOL
REMARK 923 INTER-LIGAND FREE ENERGY PREDICTED BY IDOCK:   -4.36 KCAL/MOL
REMARK 924 INTRA-LIGAND FREE ENERGY PREDICTED BY IDOCK:   -0.12 KCAL/MOL
REMARK 927      BINDING AFFINITY PREDICTED BY RF-SCORE:    0.00 PKD
ROOT
HETATM    1  C   UNL     1     -10.456   6.768  68.126  1.00  0.00    -0.211 C  
ENDROOT
BRANCH   1   2
HETATM    2  C   UNL     1     -10.269   8.086  67.456  1.00  0.00    -0.245 A  
HETATM    3  O   UNL     1     -10.907   9.158  68.015  1.00  0.00    -0.185 OA 
HETATM    4  C   UNL     1      -9.538   8.495  66.359  1.00  0.00    -0.314 A  
HETATM    5  C   UNL     1     -10.557  10.250  67.287  1.00  0.00    -0.267 A  
HETATM    6  C   UNL     1      -9.718   9.895  66.256  1.00  0.00    -0.281 A  
ENDBRANCH   1   2
BRANCH   1   7
HETATM    7  N   UNL     1     -11.583   6.681  69.047  1.00  0.00    -0.603 NA 
HETATM    8  H   UNL     1     -12.515   6.432  68.717  1.00  0.00     0.000 HD 
BRANCH   7   9
HETATM    9  C   UNL     1     -11.347   6.947  70.388  1.00  0.00    -0.328 A  
HETATM   10  C   UNL     1     -11.743   8.102  72.370  1.00  0.00    -0.399 A  
HETATM   11  N   UNL     1     -10.917   7.404  73.157  1.00  0.00    -0.374 NA 
HETATM   12  N   UNL     1     -11.993   7.930  71.051  1.00  0.00    -0.284 NA 
HETATM   13  C   UNL     1     -10.294   6.417  72.491  1.00  0.00    -0.191 A  
HETATM   14  C   UNL     1     -10.477   6.176  71.142  1.00  0.00    -0.230 A  
HETATM   15  N   UNL     1      -9.685   5.090  70.881  1.00  0.00    -0.177 NA 
HETATM   16  H   UNL     1      -9.573   4.632  69.977  1.00  0.00     0.000 HD 
HETATM   17  C   UNL     1      -9.073   4.729  72.048  1.00  0.00    -0.128 A  
HETATM   18  N   UNL     1      -9.416   5.519  73.041  1.00  0.00    -0.147 NA 
ENDBRANCH   7   9
ENDBRANCH   1   7
TORSDOF 3
ENDMDL
MODEL      162
REMARK 921   NORMALIZED FREE ENERGY PREDICTED BY IDOCK:   -3.56 KCAL/MOL
REMARK 922        TOTAL FREE ENERGY PREDICTED BY IDOCK:   -4.46 KCAL/MOL
REMARK 923 INTER-LIGAND FREE ENERGY PREDICTED BY IDOCK:   -4.14 KCAL/MOL
REMARK 924 INTRA-LIGAND FREE ENERGY PREDICTED BY IDOCK:   -0.31 KCAL/MOL
REMARK 927      BINDING AFFINITY PREDICTED BY RF-SCORE:    0.00 PKD
ROOT
HETATM    1  C   UNL     1      -8.114  12.336  67.959  1.00  0.00    -0.156 C  
ENDROOT
BRANCH   1   2
HETATM    2  C   UNL     1      -9.471  11.728  68.067  1.00  0.00    -0.188 A  
HETATM    3  O   UNL     1      -9.615  10.453  67.597  1.00  0.00    -0.147 OA 
HETATM    4  C   UNL     1     -10.668  12.175  68.586  1.00  0.00    -0.261 A  
HETATM    5  C   UNL     1     -10.899  10.084  67.845  1.00  0.00    -0.271 A  
HETATM    6  C   UNL     1     -11.588  11.108  68.450  1.00  0.00    -0.376 A  
ENDBRANCH   1   2
BRANCH   1   7
HETATM    7  N   UNL     1      -7.968  13.383  66.954  1.00  0.00    -0.393 NA 
HETATM    8  H   UNL     1      -7.568  13.181  66.038  1.00  0.00     0.000 HD 
BRANCH   7   9
HETATM    9  C   UNL     1      -8.389  14.662  67.284  1.00  0.00    -0.213 A  
HETATM   10  C   UNL     1      -8.364  16.571  68.616  1.00  0.00    -0.235 A  
HETATM   11  N   UNL     1      -9.194  17.319  67.881  1.00  0.00    -0.242 NA 
HETATM   12  N   UNL     1      -7.941  15.307  68.383  1.00  0.00    -0.127 NA 
HETATM   13  C   UNL     1      -9.619  16.674  66.782  1.00  0.00    -0.257 A  
HETATM   14  C   UNL     1      -9.251  15.379  66.469  1.00  0.00    -0.292 A  
HETATM   15  N   UNL     1      -9.879  15.124  65.280  1.00  0.00    -0.338 NA 
HETATM   16  H   UNL     1      -9.831  14.255  64.749  1.00  0.00     0.000 HD 
HETATM   17  C   UNL     1     -10.582  16.244  64.931  1.00  0.00    -0.133 A  
HETATM   18  N   UNL     1     -10.449  17.198  65.825  1.00  0.00    -0.515 NA 
ENDBRANCH   7   9
ENDBRANCH   1   7
TORSDOF 3
ENDMDL
MODEL      163
REMARK 921   NORMALIZED FREE ENERGY PREDICTED BY IDOCK:   -3.52 KCAL/MOL
REMARK 922        TOTAL FREE ENERGY PREDICTED BY IDOCK:   -4.42 KCAL/MOL
REMARK 923 INTER-LIGAND FREE ENERGY PREDICTED BY IDOCK:   -4.11 KCAL/MOL
REMARK 924 INTRA-LIGAND FREE ENERGY PREDICTED BY IDOCK:   -0.30 KCAL/MOL
REMARK 927      BINDING AFFINITY PREDICTED BY RF-SCORE:    0.00 PKD
ROOT
HETATM    1  C   UNL     1      -9.844  14.187  66.158  1.00  0.00    -0.308 C  
ENDROOT
BRANCH   1   2
HETATM    2  C   UNL     1     -10.560  13.415  65.102  1.00  0.00    -0.343 A  
HETATM    3  O   UNL     1     -11.711  13.964  64.611  1.00  0.00    -0.362 OA 
HETATM    4  C   UNL     1     -10.295  12.225  64.457  1.00  0.00    -0.339 A  
HETATM    5  C   UNL     1     -12.160  13.133  63.635  1.00  0.00    -0.513 A  
HETATM    6  C   UNL     1     -11.324  12.048  63.502  1.00  0.00    -0.528 A  
ENDBRANCH   1   2
BRANCH   1   7
HETATM    7  N   UNL     1      -9.780  13.554  67.471  1.00  0.00    -0.222 NA 
HETATM    8  H   UNL     1     -10.542  13.656  68.141  1.00  0.00     0.000 HD 
BRANCH   7   9
HETATM    9  C   UNL     1      -8.651  12.810  67.778  1.00  0.00    -0.184 A  
HETATM   10  C   UNL     1      -6.355  12.425  67.755  1.00  0.00    -0.109 A  
HETATM   11  N   UNL     1      -6.347  11.320  68.508  1.00  0.00    -0.046 NA 
HETATM   12  N   UNL     1      -7.415  13.178  67.379  1.00  0.00    -0.150 NA 
HETATM   13  C   UNL     1      -7.579  10.974  68.915  1.00  0.00    -0.134 A  
HETATM   14  C   UNL     1      -8.720  11.674  68.570  1.00  0.00    -0.130 A  
HETATM   15  N   UNL     1      -9.734  11.006  69.201  1.00  0.00    -0.387 NA 
HETATM   16  H   UNL     1     -10.724  11.247  69.169  1.00  0.00     0.000 HD 
HETATM   17  C   UNL     1      -9.182   9.958  69.883  1.00  0.00    -0.212 A  
HETATM   18  N   UNL     1      -7.878   9.908  69.724  1.00  0.00    -0.147 NA 
ENDBRANCH   7   9
ENDBRANCH   1   7
TORSDOF 3
ENDMDL
MODEL      164
REMARK 921   NORMALIZED FREE ENERGY PREDICTED BY IDOCK:   -3.51 KCAL/MOL
REMARK 922        TOTAL FREE ENERGY PREDICTED BY IDOCK:   -4.40 KCAL/MOL
REMARK 923 INTER-LIGAND FREE ENERGY PREDICTED BY IDOCK:   -4.07 KCAL/MOL
REMARK 924 INTRA-LIGAND FREE ENERGY PREDICTED BY IDOCK:   -0.33 KCAL/MOL
REMARK 927      BINDING AFFINITY PREDICTED BY RF-SCORE:    0.00 PKD
ROOT
HETATM    1  C   UNL     1      -9.922  13.380  67.045  1.00  0.00    -0.246 C  
ENDROOT
BRANCH   1   2
HETATM    2  C   UNL     1     -10.774  13.410  65.822  1.00  0.00    -0.274 A  
HETATM    3  O   UNL     1     -11.485  14.555  65.593  1.00  0.00    -0.334 OA 
HETATM    4  C   UNL     1     -10.996  12.509  64.802  1.00  0.00    -0.339 A  
HETATM    5  C   UNL     1     -12.136  14.387  64.413  1.00  0.00    -0.470 A  
HETATM    6  C   UNL     1     -11.869  13.144  63.887  1.00  0.00    -0.533 A  
ENDBRANCH   1   2
BRANCH   1   7
HETATM    7  N   UNL     1     -10.448  12.606  68.163  1.00  0.00    -0.224 NA 
HETATM    8  H   UNL     1     -11.088  13.024  68.838  1.00  0.00     0.000 HD 
BRANCH   7   9
HETATM    9  C   UNL     1     -10.050  11.283  68.280  1.00  0.00    -0.188 A  
HETATM   10  C   UNL     1     -10.315   9.000  67.906  1.00  0.00    -0.235 A  
HETATM   11  N   UNL     1      -9.162   8.591  68.447  1.00  0.00    -0.135 NA 
HETATM   12  N   UNL     1     -10.789  10.263  67.793  1.00  0.00    -0.273 NA 
HETATM   13  C   UNL     1      -8.427   9.615  68.911  1.00  0.00    -0.125 A  
HETATM   14  C   UNL     1      -8.836  10.934  68.852  1.00  0.00    -0.138 A  
HETATM   15  N   UNL     1      -7.800  11.637  69.405  1.00  0.00    -0.338 NA 
HETATM   16  H   UNL     1      -7.757  12.649  69.525  1.00  0.00     0.000 HD 
HETATM   17  C   UNL     1      -6.834  10.741  69.767  1.00  0.00    -0.151 A  
HETATM   18  N   UNL     1      -7.188   9.506  69.487  1.00  0.00    -0.069 NA 
ENDBRANCH   7   9
ENDBRANCH   1   7
TORSDOF 3
ENDMDL
MODEL      165
REMARK 921   NORMALIZED FREE ENERGY PREDICTED BY IDOCK:   -3.49 KCAL/MOL
REMARK 922        TOTAL FREE ENERGY PREDICTED BY IDOCK:   -4.38 KCAL/MOL
REMARK 923 INTER-LIGAND FREE ENERGY PREDICTED BY IDOCK:   -4.23 KCAL/MOL
REMARK 924 INTRA-LIGAND FREE ENERGY PREDICTED BY IDOCK:   -0.15 KCAL/MOL
REMARK 927      BINDING AFFINITY PREDICTED BY RF-SCORE:    0.00 PKD
ROOT
HETATM    1  C   UNL     1      -8.682  12.744  66.827  1.00  0.00    -0.121 C  
ENDROOT
BRANCH   1   2
HETATM    2  C   UNL     1      -8.936  11.331  66.426  1.00  0.00    -0.188 A  
HETATM    3  O   UNL     1      -8.757  10.375  67.386  1.00  0.00    -0.125 OA 
HETATM    4  C   UNL     1      -9.360  10.743  65.252  1.00  0.00    -0.247 A  
HETATM    5  C   UNL     1      -9.094   9.184  66.826  1.00  0.00    -0.144 A  
HETATM    6  C   UNL     1      -9.470   9.357  65.515  1.00  0.00    -0.328 A  
ENDBRANCH   1   2
BRANCH   1   7
HETATM    7  N   UNL     1      -9.490  13.749  66.147  1.00  0.00    -0.471 NA 
HETATM    8  H   UNL     1      -9.700  13.671  65.152  1.00  0.00     0.000 HD 
BRANCH   7   9
HETATM    9  C   UNL     1      -9.964  14.816  66.896  1.00  0.00    -0.244 A  
HETATM   10  C   UNL     1     -10.202  17.089  67.342  1.00  0.00    -0.314 A  
HETATM   11  N   UNL     1     -11.030  16.984  68.388  1.00  0.00    -0.324 NA 
HETATM   12  N   UNL     1      -9.668  16.098  66.592  1.00  0.00    -0.232 NA 
HETATM   13  C   UNL     1     -11.333  15.706  68.671  1.00  0.00    -0.357 A  
HETATM   14  C   UNL     1     -10.823  14.630  67.968  1.00  0.00    -0.257 A  
HETATM   15  N   UNL     1     -11.394  13.536  68.560  1.00  0.00    -0.271 NA 
HETATM   16  H   UNL     1     -11.244  12.563  68.296  1.00  0.00     0.000 HD 
HETATM   17  C   UNL     1     -12.202  13.981  69.569  1.00  0.00    -0.308 A  
HETATM   18  N   UNL     1     -12.181  15.293  69.665  1.00  0.00    -0.300 NA 
ENDBRANCH   7   9
ENDBRANCH   1   7
TORSDOF 3
ENDMDL
MODEL      166
REMARK 921   NORMALIZED FREE ENERGY PREDICTED BY IDOCK:   -3.47 KCAL/MOL
REMARK 922        TOTAL FREE ENERGY PREDICTED BY IDOCK:   -4.35 KCAL/MOL
REMARK 923 INTER-LIGAND FREE ENERGY PREDICTED BY IDOCK:   -4.05 KCAL/MOL
REMARK 924 INTRA-LIGAND FREE ENERGY PREDICTED BY IDOCK:   -0.31 KCAL/MOL
REMARK 927      BINDING AFFINITY PREDICTED BY RF-SCORE:    0.00 PKD
ROOT
HETATM    1  C   UNL     1      -9.354   9.105  66.002  1.00  0.00    -0.238 C  
ENDROOT
BRANCH   1   2
HETATM    2  C   UNL     1      -8.296   9.091  64.953  1.00  0.00    -0.169 A  
HETATM    3  O   UNL     1      -8.272   8.011  64.115  1.00  0.00    -0.139 OA 
HETATM    4  C   UNL     1      -7.301   9.979  64.601  1.00  0.00    -0.143 A  
HETATM    5  C   UNL     1      -7.279   8.231  63.214  1.00  0.00    -0.093 A  
HETATM    6  C   UNL     1      -6.651   9.427  63.471  1.00  0.00    -0.095 A  
ENDBRANCH   1   2
BRANCH   1   7
HETATM    7  N   UNL     1     -10.405  10.101  65.828  1.00  0.00    -0.199 NA 
HETATM    8  H   UNL     1     -11.183   9.939  65.189  1.00  0.00     0.000 HD 
BRANCH   7   9
HETATM    9  C   UNL     1     -10.311  11.277  66.557  1.00  0.00    -0.240 A  
HETATM   10  C   UNL     1      -9.266  12.688  68.085  1.00  0.00    -0.209 A  
HETATM   11  N   UNL     1     -10.089  13.735  67.961  1.00  0.00    -0.238 NA 
HETATM   12  N   UNL     1      -9.317  11.498  67.443  1.00  0.00    -0.165 NA 
HETATM   13  C   UNL     1     -11.064  13.511  67.064  1.00  0.00    -0.296 A  
HETATM   14  C   UNL     1     -11.202  12.323  66.372  1.00  0.00    -0.324 A  
HETATM   15  N   UNL     1     -12.289  12.525  65.563  1.00  0.00    -0.642 NA 
HETATM   16  H   UNL     1     -12.682  11.851  64.907  1.00  0.00     0.000 HD 
HETATM   17  C   UNL     1     -12.751  13.790  65.794  1.00  0.00    -0.446 A  
HETATM   18  N   UNL     1     -12.033  14.411  66.704  1.00  0.00    -0.410 NA 
ENDBRANCH   7   9
ENDBRANCH   1   7
TORSDOF 3
ENDMDL
MODEL      167
REMARK 921   NORMALIZED FREE ENERGY PREDICTED BY IDOCK:   -3.46 KCAL/MOL
REMARK 922        TOTAL FREE ENERGY PREDICTED BY IDOCK:   -4.35 KCAL/MOL
REMARK 923 INTER-LIGAND FREE ENERGY PREDICTED BY IDOCK:   -4.12 KCAL/MOL
REMARK 924 INTRA-LIGAND FREE ENERGY PREDICTED BY IDOCK:   -0.23 KCAL/MOL
REMARK 927      BINDING AFFINITY PREDICTED BY RF-SCORE:    0.00 PKD
ROOT
HETATM    1  C   UNL     1     -11.010  10.696  67.255  1.00  0.00    -0.284 C  
ENDROOT
BRANCH   1   2
HETATM    2  C   UNL     1     -11.572  12.011  66.834  1.00  0.00    -0.318 A  
HETATM    3  O   UNL     1     -12.034  12.102  65.551  1.00  0.00    -0.461 OA 
HETATM    4  C   UNL     1     -11.766  13.210  67.488  1.00  0.00    -0.414 A  
HETATM    5  C   UNL     1     -12.546  13.352  65.402  1.00  0.00    -0.475 A  
HETATM    6  C   UNL     1     -12.404  14.072  66.565  1.00  0.00    -0.442 A  
ENDBRANCH   1   2
BRANCH   1   7
HETATM    7  N   UNL     1     -10.113  10.056  66.299  1.00  0.00    -0.245 NA 
HETATM    8  H   UNL     1      -9.621  10.602  65.593  1.00  0.00     0.000 HD 
BRANCH   7   9
HETATM    9  C   UNL     1      -9.951   8.682  66.382  1.00  0.00    -0.260 A  
HETATM   10  C   UNL     1     -10.635   6.551  67.023  1.00  0.00    -0.332 A  
HETATM   11  N   UNL     1      -9.644   5.859  66.449  1.00  0.00    -0.157 NA 
HETATM   12  N   UNL     1     -10.837   7.889  67.022  1.00  0.00    -0.224 NA 
HETATM   13  C   UNL     1      -8.779   6.656  65.800  1.00  0.00    -0.116 A  
HETATM   14  C   UNL     1      -8.897   8.033  65.757  1.00  0.00    -0.132 A  
HETATM   15  N   UNL     1      -7.840   8.441  64.989  1.00  0.00    -0.110 NA 
HETATM   16  H   UNL     1      -7.613   9.404  64.743  1.00  0.00     0.000 HD 
HETATM   17  C   UNL     1      -7.144   7.327  64.610  1.00  0.00    -0.057 A  
HETATM   18  N   UNL     1      -7.685   6.230  65.092  1.00  0.00    -0.092 NA 
ENDBRANCH   7   9
ENDBRANCH   1   7
TORSDOF 3
ENDMDL
MODEL      168
REMARK 921   NORMALIZED FREE ENERGY PREDICTED BY IDOCK:   -3.45 KCAL/MOL
REMARK 922        TOTAL FREE ENERGY PREDICTED BY IDOCK:   -4.33 KCAL/MOL
REMARK 923 INTER-LIGAND FREE ENERGY PREDICTED BY IDOCK:   -3.75 KCAL/MOL
REMARK 924 INTRA-LIGAND FREE ENERGY PREDICTED BY IDOCK:   -0.57 KCAL/MOL
REMARK 927      BINDING AFFINITY PREDICTED BY RF-SCORE:    0.00 PKD
ROOT
HETATM    1  C   UNL     1     -10.310  10.819  65.482  1.00  0.00    -0.241 C  
ENDROOT
BRANCH   1   2
HETATM    2  C   UNL     1     -10.928  12.136  65.151  1.00  0.00    -0.310 A  
HETATM    3  O   UNL     1     -10.087  13.210  65.079  1.00  0.00    -0.284 OA 
HETATM    4  C   UNL     1     -12.217  12.529  64.859  1.00  0.00    -0.534 A  
HETATM    5  C   UNL     1     -10.841  14.279  64.714  1.00  0.00    -0.405 A  
HETATM    6  C   UNL     1     -12.159  13.912  64.568  1.00  0.00    -0.473 A  
ENDBRANCH   1   2
BRANCH   1   7
HETATM    7  N   UNL     1      -8.857  10.816  65.608  1.00  0.00    -0.186 NA 
HETATM    8  H   UNL     1      -8.258  10.770  64.784  1.00  0.00     0.000 HD 
BRANCH   7   9
HETATM    9  C   UNL     1      -8.317  10.877  66.883  1.00  0.00    -0.133 A  
HETATM   10  C   UNL     1      -7.632   9.916  68.890  1.00  0.00    -0.083 A  
HETATM   11  N   UNL     1      -7.114  11.014  69.452  1.00  0.00    -0.128 NA 
HETATM   12  N   UNL     1      -8.211   9.788  67.674  1.00  0.00    -0.114 NA 
HETATM   13  C   UNL     1      -7.207  12.087  68.649  1.00  0.00    -0.110 A  
HETATM   14  C   UNL     1      -7.794  12.053  67.398  1.00  0.00    -0.162 A  
HETATM   15  N   UNL     1      -7.660  13.331  66.925  1.00  0.00    -0.326 NA 
HETATM   16  H   UNL     1      -7.982  13.673  66.020  1.00  0.00     0.000 HD 
HETATM   17  C   UNL     1      -7.016  14.065  67.882  1.00  0.00    -0.161 A  
HETATM   18  N   UNL     1      -6.734  13.340  68.942  1.00  0.00    -0.106 NA 
ENDBRANCH   7   9
ENDBRANCH   1   7
TORSDOF 3
ENDMDL
MODEL      169
REMARK 921   NORMALIZED FREE ENERGY PREDICTED BY IDOCK:   -3.44 KCAL/MOL
REMARK 922        TOTAL FREE ENERGY PREDICTED BY IDOCK:   -4.33 KCAL/MOL
REMARK 923 INTER-LIGAND FREE ENERGY PREDICTED BY IDOCK:   -3.96 KCAL/MOL
REMARK 924 INTRA-LIGAND FREE ENERGY PREDICTED BY IDOCK:   -0.37 KCAL/MOL
REMARK 927      BINDING AFFINITY PREDICTED BY RF-SCORE:    0.00 PKD
ROOT
HETATM    1  C   UNL     1     -10.206   4.631  66.275  1.00  0.00    -0.275 C  
ENDROOT
BRANCH   1   2
HETATM    2  C   UNL     1      -8.880   4.900  65.650  1.00  0.00    -0.139 A  
HETATM    3  O   UNL     1      -7.803   4.963  66.489  1.00  0.00    -0.098 OA 
HETATM    4  C   UNL     1      -8.469   5.082  64.345  1.00  0.00    -0.142 A  
HETATM    5  C   UNL     1      -6.706   5.157  65.712  1.00  0.00    -0.053 A  
HETATM    6  C   UNL     1      -7.063   5.238  64.386  1.00  0.00    -0.050 A  
ENDBRANCH   1   2
BRANCH   1   7
HETATM    7  N   UNL     1     -11.115   5.769  66.345  1.00  0.00    -0.767 NA 
HETATM    8  H   UNL     1     -11.856   5.894  65.656  1.00  0.00     0.000 HD 
BRANCH   7   9
HETATM    9  C   UNL     1     -10.939   6.678  67.378  1.00  0.00    -0.360 A  
HETATM   10  C   UNL     1     -10.947   7.283  69.626  1.00  0.00    -0.186 A  
HETATM   11  N   UNL     1     -10.474   8.527  69.483  1.00  0.00    -0.220 NA 
HETATM   12  N   UNL     1     -11.183   6.358  68.667  1.00  0.00    -0.314 NA 
HETATM   13  C   UNL     1     -10.218   8.827  68.199  1.00  0.00    -0.205 A  
HETATM   14  C   UNL     1     -10.441   7.951  67.153  1.00  0.00    -0.344 A  
HETATM   15  N   UNL     1     -10.031   8.637  66.041  1.00  0.00    -0.460 NA 
HETATM   16  H   UNL     1     -10.052   8.294  65.082  1.00  0.00     0.000 HD 
HETATM   17  C   UNL     1      -9.590   9.866  66.448  1.00  0.00    -0.200 A  
HETATM   18  N   UNL     1      -9.697  10.013  67.750  1.00  0.00    -0.148 NA 
ENDBRANCH   7   9
ENDBRANCH   1   7
TORSDOF 3
ENDMDL
MODEL      170
REMARK 921   NORMALIZED FREE ENERGY PREDICTED BY IDOCK:   -3.44 KCAL/MOL
REMARK 922        TOTAL FREE ENERGY PREDICTED BY IDOCK:   -4.32 KCAL/MOL
REMARK 923 INTER-LIGAND FREE ENERGY PREDICTED BY IDOCK:   -4.07 KCAL/MOL
REMARK 924 INTRA-LIGAND FREE ENERGY PREDICTED BY IDOCK:   -0.26 KCAL/MOL
REMARK 927      BINDING AFFINITY PREDICTED BY RF-SCORE:    0.00 PKD
ROOT
HETATM    1  C   UNL     1      -9.931  14.238  66.010  1.00  0.00    -0.319 C  
ENDROOT
BRANCH   1   2
HETATM    2  C   UNL     1     -10.705  13.528  64.952  1.00  0.00    -0.381 A  
HETATM    3  O   UNL     1     -10.222  12.317  64.542  1.00  0.00    -0.290 OA 
HETATM    4  C   UNL     1     -11.872  13.821  64.278  1.00  0.00    -0.451 A  
HETATM    5  C   UNL     1     -11.101  11.830  63.628  1.00  0.00    -0.439 A  
HETATM    6  C   UNL     1     -12.132  12.718  63.429  1.00  0.00    -0.619 A  
ENDBRANCH   1   2
BRANCH   1   7
HETATM    7  N   UNL     1      -9.743  13.503  67.256  1.00  0.00    -0.230 NA 
HETATM    8  H   UNL     1     -10.516  13.364  67.906  1.00  0.00     0.000 HD 
BRANCH   7   9
HETATM    9  C   UNL     1      -8.480  12.999  67.528  1.00  0.00    -0.190 A  
HETATM   10  C   UNL     1      -6.693  11.563  67.125  1.00  0.00    -0.129 A  
HETATM   11  N   UNL     1      -5.852  12.054  68.042  1.00  0.00    -0.050 NA 
HETATM   12  N   UNL     1      -7.949  11.972  66.831  1.00  0.00    -0.146 NA 
HETATM   13  C   UNL     1      -6.384  13.087  68.717  1.00  0.00    -0.084 A  
HETATM   14  C   UNL     1      -7.663  13.563  68.495  1.00  0.00    -0.125 A  
HETATM   15  N   UNL     1      -7.790  14.614  69.364  1.00  0.00    -0.350 NA 
HETATM   16  H   UNL     1      -8.612  15.206  69.474  1.00  0.00     0.000 HD 
HETATM   17  C   UNL     1      -6.617  14.726  70.057  1.00  0.00    -0.168 A  
HETATM   18  N   UNL     1      -5.747  13.810  69.692  1.00  0.00    -0.094 NA 
ENDBRANCH   7   9
ENDBRANCH   1   7
TORSDOF 3
ENDMDL
MODEL      171
REMARK 921   NORMALIZED FREE ENERGY PREDICTED BY IDOCK:   -3.44 KCAL/MOL
REMARK 922        TOTAL FREE ENERGY PREDICTED BY IDOCK:   -4.32 KCAL/MOL
REMARK 923 INTER-LIGAND FREE ENERGY PREDICTED BY IDOCK:   -3.93 KCAL/MOL
REMARK 924 INTRA-LIGAND FREE ENERGY PREDICTED BY IDOCK:   -0.39 KCAL/MOL
REMARK 927      BINDING AFFINITY PREDICTED BY RF-SCORE:    0.00 PKD
ROOT
HETATM    1  C   UNL     1      -8.432  11.546  66.495  1.00  0.00    -0.160 C  
ENDROOT
BRANCH   1   2
HETATM    2  C   UNL     1      -9.839  11.987  66.272  1.00  0.00    -0.231 A  
HETATM    3  O   UNL     1     -10.367  12.853  67.188  1.00  0.00    -0.236 OA 
HETATM    4  C   UNL     1     -10.766  11.727  65.284  1.00  0.00    -0.338 A  
HETATM    5  C   UNL     1     -11.619  13.162  66.763  1.00  0.00    -0.366 A  
HETATM    6  C   UNL     1     -11.913  12.494  65.597  1.00  0.00    -0.492 A  
ENDBRANCH   1   2
BRANCH   1   7
HETATM    7  N   UNL     1      -8.206  10.731  67.683  1.00  0.00    -0.114 NA 
HETATM    8  H   UNL     1      -7.488  10.978  68.363  1.00  0.00     0.000 HD 
BRANCH   7   9
HETATM    9  C   UNL     1      -9.000   9.607  67.859  1.00  0.00    -0.118 A  
HETATM   10  C   UNL     1      -9.772   7.500  67.239  1.00  0.00    -0.167 A  
HETATM   11  N   UNL     1     -10.560   7.275  68.297  1.00  0.00    -0.195 NA 
HETATM   12  N   UNL     1      -9.005   8.583  66.978  1.00  0.00    -0.134 NA 
HETATM   13  C   UNL     1     -10.533   8.291  69.175  1.00  0.00    -0.206 A  
HETATM   14  C   UNL     1      -9.790   9.441  68.986  1.00  0.00    -0.169 A  
HETATM   15  N   UNL     1     -10.029  10.189  70.107  1.00  0.00    -0.413 NA 
HETATM   16  H   UNL     1      -9.640  11.110  70.310  1.00  0.00     0.000 HD 
HETATM   17  C   UNL     1     -10.883   9.482  70.907  1.00  0.00    -0.337 A  
HETATM   18  N   UNL     1     -11.212   8.329  70.366  1.00  0.00    -0.251 NA 
ENDBRANCH   7   9
ENDBRANCH   1   7
TORSDOF 3
ENDMDL
MODEL      172
REMARK 921   NORMALIZED FREE ENERGY PREDICTED BY IDOCK:   -3.44 KCAL/MOL
REMARK 922        TOTAL FREE ENERGY PREDICTED BY IDOCK:   -4.32 KCAL/MOL
REMARK 923 INTER-LIGAND FREE ENERGY PREDICTED BY IDOCK:   -4.01 KCAL/MOL
REMARK 924 INTRA-LIGAND FREE ENERGY PREDICTED BY IDOCK:   -0.31 KCAL/MOL
REMARK 927      BINDING AFFINITY PREDICTED BY RF-SCORE:    0.00 PKD
ROOT
HETATM    1  C   UNL     1     -11.837  10.970  69.590  1.00  0.00    -0.342 C  
ENDROOT
BRANCH   1   2
HETATM    2  C   UNL     1     -12.449  10.218  70.722  1.00  0.00    -0.346 A  
HETATM    3  O   UNL     1     -12.230   8.869  70.756  1.00  0.00    -0.198 OA 
HETATM    4  C   UNL     1     -13.201  10.598  71.814  1.00  0.00    -0.526 A  
HETATM    5  C   UNL     1     -12.821   8.400  71.886  1.00  0.00    -0.353 A  
HETATM    6  C   UNL     1     -13.433   9.424  72.570  1.00  0.00    -0.437 A  
ENDBRANCH   1   2
BRANCH   1   7
HETATM    7  N   UNL     1     -10.387  11.120  69.641  1.00  0.00    -0.440 NA 
HETATM    8  H   UNL     1      -9.953  11.858  70.193  1.00  0.00     0.000 HD 
BRANCH   7   9
HETATM    9  C   UNL     1      -9.617  10.225  68.913  1.00  0.00    -0.190 A  
HETATM   10  C   UNL     1      -9.233   8.830  67.089  1.00  0.00    -0.136 A  
HETATM   11  N   UNL     1      -7.980   8.473  67.391  1.00  0.00    -0.102 NA 
HETATM   12  N   UNL     1     -10.058   9.661  67.768  1.00  0.00    -0.175 NA 
HETATM   13  C   UNL     1      -7.546   9.054  68.522  1.00  0.00    -0.093 A  
HETATM   14  C   UNL     1      -8.322   9.904  69.287  1.00  0.00    -0.151 A  
HETATM   15  N   UNL     1      -7.501  10.279  70.317  1.00  0.00    -0.405 NA 
HETATM   16  H   UNL     1      -7.745  10.909  71.080  1.00  0.00     0.000 HD 
HETATM   17  C   UNL     1      -6.296   9.658  70.138  1.00  0.00    -0.069 A  
HETATM   18  N   UNL     1      -6.295   8.903  69.062  1.00  0.00    -0.043 NA 
ENDBRANCH   7   9
ENDBRANCH   1   7
TORSDOF 3
ENDMDL
MODEL      173
REMARK 921   NORMALIZED FREE ENERGY PREDICTED BY IDOCK:   -3.43 KCAL/MOL
REMARK 922        TOTAL FREE ENERGY PREDICTED BY IDOCK:   -4.31 KCAL/MOL
REMARK 923 INTER-LIGAND FREE ENERGY PREDICTED BY IDOCK:   -4.08 KCAL/MOL
REMARK 924 INTRA-LIGAND FREE ENERGY PREDICTED BY IDOCK:   -0.23 KCAL/MOL
REMARK 927      BINDING AFFINITY PREDICTED BY RF-SCORE:    0.00 PKD
ROOT
HETATM    1  C   UNL     1     -10.424   9.862  70.258  1.00  0.00    -0.291 C  
ENDROOT
BRANCH   1   2
HETATM    2  C   UNL     1     -11.708   9.718  71.003  1.00  0.00    -0.370 A  
HETATM    3  O   UNL     1     -12.049   8.456  71.405  1.00  0.00    -0.291 OA 
HETATM    4  C   UNL     1     -12.663  10.619  71.424  1.00  0.00    -0.545 A  
HETATM    5  C   UNL     1     -13.208   8.565  72.105  1.00  0.00    -0.352 A  
HETATM    6  C   UNL     1     -13.627   9.874  72.144  1.00  0.00    -0.392 A  
ENDBRANCH   1   2
BRANCH   1   7
HETATM    7  N   UNL     1     -10.549  10.194  68.843  1.00  0.00    -0.204 NA 
HETATM    8  H   UNL     1     -11.439  10.095  68.355  1.00  0.00     0.000 HD 
BRANCH   7   9
HETATM    9  C   UNL     1      -9.418  10.648  68.181  1.00  0.00    -0.154 A  
HETATM   10  C   UNL     1      -7.559  10.346  66.812  1.00  0.00    -0.110 A  
HETATM   11  N   UNL     1      -7.164  11.623  66.755  1.00  0.00    -0.118 NA 
HETATM   12  N   UNL     1      -8.621   9.823  67.467  1.00  0.00    -0.125 NA 
HETATM   13  C   UNL     1      -7.974  12.436  67.453  1.00  0.00    -0.178 A  
HETATM   14  C   UNL     1      -9.072  11.990  68.163  1.00  0.00    -0.191 A  
HETATM   15  N   UNL     1      -9.617  13.127  68.697  1.00  0.00    -0.401 NA 
HETATM   16  H   UNL     1     -10.448  13.176  69.286  1.00  0.00     0.000 HD 
HETATM   17  C   UNL     1      -8.847  14.184  68.300  1.00  0.00    -0.187 A  
HETATM   18  N   UNL     1      -7.839  13.797  67.550  1.00  0.00    -0.172 NA 
ENDBRANCH   7   9
ENDBRANCH   1   7
TORSDOF 3
ENDMDL
MODEL      174
REMARK 921   NORMALIZED FREE ENERGY PREDICTED BY IDOCK:   -3.42 KCAL/MOL
REMARK 922        TOTAL FREE ENERGY PREDICTED BY IDOCK:   -4.30 KCAL/MOL
REMARK 923 INTER-LIGAND FREE ENERGY PREDICTED BY IDOCK:   -3.85 KCAL/MOL
REMARK 924 INTRA-LIGAND FREE ENERGY PREDICTED BY IDOCK:   -0.45 KCAL/MOL
REMARK 927      BINDING AFFINITY PREDICTED BY RF-SCORE:    0.00 PKD
ROOT
HETATM    1  C   UNL     1     -10.454   5.886  68.152  1.00  0.00    -0.233 C  
ENDROOT
BRANCH   1   2
HETATM    2  C   UNL     1      -9.700   6.537  67.043  1.00  0.00    -0.151 A  
HETATM    3  O   UNL     1      -9.881   7.882  66.881  1.00  0.00    -0.195 OA 
HETATM    4  C   UNL     1      -8.794   6.070  66.114  1.00  0.00    -0.152 A  
HETATM    5  C   UNL     1      -9.067   8.270  65.865  1.00  0.00    -0.149 A  
HETATM    6  C   UNL     1      -8.378   7.193  65.359  1.00  0.00    -0.122 A  
ENDBRANCH   1   2
BRANCH   1   7
HETATM    7  N   UNL     1     -11.443   6.723  68.822  1.00  0.00    -0.567 NA 
HETATM    8  H   UNL     1     -12.267   7.063  68.326  1.00  0.00     0.000 HD 
BRANCH   7   9
HETATM    9  C   UNL     1     -11.226   7.044  70.153  1.00  0.00    -0.284 A  
HETATM   10  C   UNL     1     -11.714   6.895  72.425  1.00  0.00    -0.214 A  
HETATM   11  N   UNL     1     -10.698   7.637  72.880  1.00  0.00    -0.339 NA 
HETATM   12  N   UNL     1     -12.013   6.574  71.145  1.00  0.00    -0.347 NA 
HETATM   13  C   UNL     1      -9.912   8.084  71.887  1.00  0.00    -0.195 A  
HETATM   14  C   UNL     1     -10.148   7.819  70.551  1.00  0.00    -0.192 A  
HETATM   15  N   UNL     1      -9.115   8.433  69.894  1.00  0.00    -0.145 NA 
HETATM   16  H   UNL     1      -8.966   8.444  68.886  1.00  0.00     0.000 HD 
HETATM   17  C   UNL     1      -8.319   9.028  70.833  1.00  0.00    -0.197 A  
HETATM   18  N   UNL     1      -8.780   8.840  72.050  1.00  0.00    -0.371 NA 
ENDBRANCH   7   9
ENDBRANCH   1   7
TORSDOF 3
ENDMDL
MODEL      175
REMARK 921   NORMALIZED FREE ENERGY PREDICTED BY IDOCK:   -3.41 KCAL/MOL
REMARK 922        TOTAL FREE ENERGY PREDICTED BY IDOCK:   -4.29 KCAL/MOL
REMARK 923 INTER-LIGAND FREE ENERGY PREDICTED BY IDOCK:   -4.04 KCAL/MOL
REMARK 924 INTRA-LIGAND FREE ENERGY PREDICTED BY IDOCK:   -0.25 KCAL/MOL
REMARK 927      BINDING AFFINITY PREDICTED BY RF-SCORE:    0.00 PKD
ROOT
HETATM    1  C   UNL     1      -9.205  13.155  66.834  1.00  0.00    -0.236 C  
ENDROOT
BRANCH   1   2
HETATM    2  C   UNL     1     -10.435  13.256  65.997  1.00  0.00    -0.286 A  
HETATM    3  O   UNL     1     -11.142  14.423  66.078  1.00  0.00    -0.313 OA 
HETATM    4  C   UNL     1     -11.035  12.405  65.092  1.00  0.00    -0.339 A  
HETATM    5  C   UNL     1     -12.176  14.320  65.203  1.00  0.00    -0.421 A  
HETATM    6  C   UNL     1     -12.155  13.098  64.573  1.00  0.00    -0.462 A  
ENDBRANCH   1   2
BRANCH   1   7
HETATM    7  N   UNL     1      -9.401  13.329  68.269  1.00  0.00    -0.226 NA 
HETATM    8  H   UNL     1      -8.898  14.050  68.785  1.00  0.00     0.000 HD 
BRANCH   7   9
HETATM    9  C   UNL     1     -10.292  12.481  68.909  1.00  0.00    -0.038 A  
HETATM   10  C   UNL     1     -12.258  12.043  70.076  1.00  0.00    -0.206 A  
HETATM   11  N   UNL     1     -12.149  10.711  70.126  1.00  0.00    -0.315 NA 
HETATM   12  N   UNL     1     -11.413  12.935  69.509  1.00  0.00    -0.254 NA 
HETATM   13  C   UNL     1     -11.040  10.269  69.510  1.00  0.00    -0.262 A  
HETATM   14  C   UNL     1     -10.114  11.106  68.916  1.00  0.00    -0.186 A  
HETATM   15  N   UNL     1      -9.171  10.259  68.400  1.00  0.00    -0.132 NA 
HETATM   16  H   UNL     1      -8.334  10.533  67.887  1.00  0.00     0.000 HD 
HETATM   17  C   UNL     1      -9.553   8.980  68.694  1.00  0.00    -0.153 A  
HETATM   18  N   UNL     1     -10.679   8.953  69.372  1.00  0.00    -0.214 NA 
ENDBRANCH   7   9
ENDBRANCH   1   7
TORSDOF 3
ENDMDL
MODEL      176
REMARK 921   NORMALIZED FREE ENERGY PREDICTED BY IDOCK:   -3.38 KCAL/MOL
REMARK 922        TOTAL FREE ENERGY PREDICTED BY IDOCK:   -4.26 KCAL/MOL
REMARK 923 INTER-LIGAND FREE ENERGY PREDICTED BY IDOCK:   -3.93 KCAL/MOL
REMARK 924 INTRA-LIGAND FREE ENERGY PREDICTED BY IDOCK:   -0.33 KCAL/MOL
REMARK 927      BINDING AFFINITY PREDICTED BY RF-SCORE:    0.00 PKD
ROOT
HETATM    1  C   UNL     1      -8.410   7.635  69.385  1.00  0.00    -0.131 C  
ENDROOT
BRANCH   1   2
HETATM    2  C   UNL     1      -9.577   7.043  70.100  1.00  0.00    -0.164 A  
HETATM    3  O   UNL     1      -9.301   6.240  71.171  1.00  0.00    -0.159 OA 
HETATM    4  C   UNL     1     -10.942   7.151  69.934  1.00  0.00    -0.278 A  
HETATM    5  C   UNL     1     -10.494   5.862  71.699  1.00  0.00    -0.233 A  
HETATM    6  C   UNL     1     -11.534   6.395  70.973  1.00  0.00    -0.394 A  
ENDBRANCH   1   2
BRANCH   1   7
HETATM    7  N   UNL     1      -8.374   9.092  69.331  1.00  0.00    -0.116 NA 
HETATM    8  H   UNL     1      -7.837   9.630  70.010  1.00  0.00     0.000 HD 
BRANCH   7   9
HETATM    9  C   UNL     1      -9.093   9.722  68.326  1.00  0.00    -0.122 A  
HETATM   10  C   UNL     1      -9.587  10.153  66.092  1.00  0.00    -0.203 A  
HETATM   11  N   UNL     1     -10.646  10.947  66.289  1.00  0.00    -0.241 NA 
HETATM   12  N   UNL     1      -8.814   9.538  67.018  1.00  0.00    -0.127 NA 
HETATM   13  C   UNL     1     -10.925  11.107  67.593  1.00  0.00    -0.269 A  
HETATM   14  C   UNL     1     -10.183  10.531  68.607  1.00  0.00    -0.183 A  
HETATM   15  N   UNL     1     -10.812  10.926  69.757  1.00  0.00    -0.412 NA 
HETATM   16  H   UNL     1     -10.535  10.683  70.707  1.00  0.00     0.000 HD 
HETATM   17  C   UNL     1     -11.878  11.704  69.402  1.00  0.00    -0.342 A  
HETATM   18  N   UNL     1     -11.969  11.838  68.097  1.00  0.00    -0.557 NA 
ENDBRANCH   7   9
ENDBRANCH   1   7
TORSDOF 3
ENDMDL
MODEL      177
REMARK 921   NORMALIZED FREE ENERGY PREDICTED BY IDOCK:   -3.35 KCAL/MOL
REMARK 922        TOTAL FREE ENERGY PREDICTED BY IDOCK:   -4.21 KCAL/MOL
REMARK 923 INTER-LIGAND FREE ENERGY PREDICTED BY IDOCK:   -4.04 KCAL/MOL
REMARK 924 INTRA-LIGAND FREE ENERGY PREDICTED BY IDOCK:   -0.17 KCAL/MOL
REMARK 927      BINDING AFFINITY PREDICTED BY RF-SCORE:    0.00 PKD
ROOT
HETATM    1  C   UNL     1      -8.253   8.212  70.200  1.00  0.00    -0.119 C  
ENDROOT
BRANCH   1   2
HETATM    2  C   UNL     1      -8.381   6.747  70.446  1.00  0.00    -0.130 A  
HETATM    3  O   UNL     1      -7.484   6.186  71.313  1.00  0.00    -0.088 OA 
HETATM    4  C   UNL     1      -9.261   5.785  69.995  1.00  0.00    -0.168 A  
HETATM    5  C   UNL     1      -7.816   4.875  71.431  1.00  0.00    -0.104 A  
HETATM    6  C   UNL     1      -8.901   4.578  70.639  1.00  0.00    -0.140 A  
ENDBRANCH   1   2
BRANCH   1   7
HETATM    7  N   UNL     1      -8.752   9.077  71.262  1.00  0.00    -0.281 NA 
HETATM    8  H   UNL     1      -8.147   9.768  71.706  1.00  0.00     0.000 HD 
BRANCH   7   9
HETATM    9  C   UNL     1     -10.075   8.931  71.650  1.00  0.00    -0.341 A  
HETATM   10  C   UNL     1     -11.769   7.932  72.896  1.00  0.00    -0.181 A  
HETATM   11  N   UNL     1     -12.776   8.719  72.501  1.00  0.00    -0.372 NA 
HETATM   12  N   UNL     1     -10.467   7.986  72.532  1.00  0.00    -0.290 NA 
HETATM   13  C   UNL     1     -12.372   9.666  71.639  1.00  0.00    -0.404 A  
HETATM   14  C   UNL     1     -11.066   9.789  71.200  1.00  0.00    -0.344 A  
HETATM   15  N   UNL     1     -11.088  10.874  70.366  1.00  0.00    -0.459 NA 
HETATM   16  H   UNL     1     -10.292  11.259  69.860  1.00  0.00     0.000 HD 
HETATM   17  C   UNL     1     -12.370  11.350  70.335  1.00  0.00    -0.319 A  
HETATM   18  N   UNL     1     -13.172  10.635  71.091  1.00  0.00    -0.300 NA 
ENDBRANCH   7   9
ENDBRANCH   1   7
TORSDOF 3
ENDMDL
MODEL      178
REMARK 921   NORMALIZED FREE ENERGY PREDICTED BY IDOCK:   -3.33 KCAL/MOL
REMARK 922        TOTAL FREE ENERGY PREDICTED BY IDOCK:   -4.20 KCAL/MOL
REMARK 923 INTER-LIGAND FREE ENERGY PREDICTED BY IDOCK:   -3.88 KCAL/MOL
REMARK 924 INTRA-LIGAND FREE ENERGY PREDICTED BY IDOCK:   -0.32 KCAL/MOL
REMARK 927      BINDING AFFINITY PREDICTED BY RF-SCORE:    0.00 PKD
ROOT
HETATM    1  C   UNL     1      -7.800  13.198  67.402  1.00  0.00    -0.165 C  
ENDROOT
BRANCH   1   2
HETATM    2  C   UNL     1      -7.850  11.727  67.165  1.00  0.00    -0.166 A  
HETATM    3  O   UNL     1      -8.916  11.053  67.692  1.00  0.00    -0.139 OA 
HETATM    4  C   UNL     1      -7.037  10.851  66.475  1.00  0.00    -0.139 A  
HETATM    5  C   UNL     1      -8.792   9.755  67.312  1.00  0.00    -0.132 A  
HETATM    6  C   UNL     1      -7.652   9.580  66.563  1.00  0.00    -0.094 A  
ENDBRANCH   1   2
BRANCH   1   7
HETATM    7  N   UNL     1      -8.766  13.992  66.653  1.00  0.00    -0.444 NA 
HETATM    8  H   UNL     1      -8.703  14.077  65.638  1.00  0.00     0.000 HD 
BRANCH   7   9
HETATM    9  C   UNL     1      -9.772  14.630  67.363  1.00  0.00    -0.218 A  
HETATM   10  C   UNL     1     -11.705  14.638  68.659  1.00  0.00    -0.329 A  
HETATM   11  N   UNL     1     -11.763  15.954  68.895  1.00  0.00    -0.396 NA 
HETATM   12  N   UNL     1     -10.783  13.952  67.945  1.00  0.00    -0.238 NA 
HETATM   13  C   UNL     1     -10.741  16.616  68.327  1.00  0.00    -0.351 A  
HETATM   14  C   UNL     1      -9.763  16.001  67.569  1.00  0.00    -0.228 A  
HETATM   15  N   UNL     1      -8.922  17.019  67.207  1.00  0.00    -0.213 NA 
HETATM   16  H   UNL     1      -8.080  16.930  66.639  1.00  0.00     0.000 HD 
HETATM   17  C   UNL     1      -9.413  18.176  67.745  1.00  0.00    -0.268 A  
HETATM   18  N   UNL     1     -10.519  17.965  68.424  1.00  0.00    -0.358 NA 
ENDBRANCH   7   9
ENDBRANCH   1   7
TORSDOF 3
ENDMDL
MODEL      179
REMARK 921   NORMALIZED FREE ENERGY PREDICTED BY IDOCK:   -3.33 KCAL/MOL
REMARK 922        TOTAL FREE ENERGY PREDICTED BY IDOCK:   -4.19 KCAL/MOL
REMARK 923 INTER-LIGAND FREE ENERGY PREDICTED BY IDOCK:   -4.36 KCAL/MOL
REMARK 924 INTRA-LIGAND FREE ENERGY PREDICTED BY IDOCK:    0.17 KCAL/MOL
REMARK 927      BINDING AFFINITY PREDICTED BY RF-SCORE:    0.00 PKD
ROOT
HETATM    1  C   UNL     1      -8.042  19.548  66.245  1.00  0.00    -0.334 C  
ENDROOT
BRANCH   1   2
HETATM    2  C   UNL     1      -6.980  20.017  67.181  1.00  0.00    -0.230 A  
HETATM    3  O   UNL     1      -7.289  20.019  68.512  1.00  0.00    -0.298 OA 
HETATM    4  C   UNL     1      -5.682  20.446  67.000  1.00  0.00    -0.206 A  
HETATM    5  C   UNL     1      -6.174  20.423  69.176  1.00  0.00    -0.310 A  
HETATM    6  C   UNL     1      -5.159  20.699  68.290  1.00  0.00    -0.274 A  
ENDBRANCH   1   2
BRANCH   1   7
HETATM    7  N   UNL     1      -7.899  18.179  65.763  1.00  0.00    -0.531 NA 
HETATM    8  H   UNL     1      -7.133  17.916  65.144  1.00  0.00     0.000 HD 
BRANCH   7   9
HETATM    9  C   UNL     1      -8.839  17.245  66.174  1.00  0.00    -0.160 A  
HETATM   10  C   UNL     1     -10.057  15.279  65.910  1.00  0.00    -0.334 A  
HETATM   11  N   UNL     1     -10.693  15.298  67.087  1.00  0.00    -0.310 NA 
HETATM   12  N   UNL     1      -9.163  16.171  65.424  1.00  0.00    -0.197 NA 
HETATM   13  C   UNL     1     -10.350  16.361  67.833  1.00  0.00    -0.286 A  
HETATM   14  C   UNL     1      -9.457  17.329  67.412  1.00  0.00    -0.245 A  
HETATM   15  N   UNL     1      -9.380  18.201  68.465  1.00  0.00    -0.305 NA 
HETATM   16  H   UNL     1      -8.808  19.044  68.506  1.00  0.00     0.000 HD 
HETATM   17  C   UNL     1     -10.206  17.739  69.451  1.00  0.00    -0.008 A  
HETATM   18  N   UNL     1     -10.813  16.628  69.095  1.00  0.00    -0.327 NA 
ENDBRANCH   7   9
ENDBRANCH   1   7
TORSDOF 3
ENDMDL
MODEL      180
REMARK 921   NORMALIZED FREE ENERGY PREDICTED BY IDOCK:   -3.27 KCAL/MOL
REMARK 922        TOTAL FREE ENERGY PREDICTED BY IDOCK:   -4.12 KCAL/MOL
REMARK 923 INTER-LIGAND FREE ENERGY PREDICTED BY IDOCK:   -3.53 KCAL/MOL
REMARK 924 INTRA-LIGAND FREE ENERGY PREDICTED BY IDOCK:   -0.59 KCAL/MOL
REMARK 927      BINDING AFFINITY PREDICTED BY RF-SCORE:    0.00 PKD
ROOT
HETATM    1  C   UNL     1      -9.700   4.766  68.874  1.00  0.00    -0.174 C  
ENDROOT
BRANCH   1   2
HETATM    2  C   UNL     1     -10.427   5.523  69.934  1.00  0.00    -0.316 A  
HETATM    3  O   UNL     1     -11.393   6.395  69.516  1.00  0.00    -0.390 OA 
HETATM    4  C   UNL     1     -10.360   5.521  71.311  1.00  0.00    -0.297 A  
HETATM    5  C   UNL     1     -11.956   6.925  70.633  1.00  0.00    -0.348 A  
HETATM    6  C   UNL     1     -11.356   6.420  71.762  1.00  0.00    -0.337 A  
ENDBRANCH   1   2
BRANCH   1   7
HETATM    7  N   UNL     1     -10.076   5.082  67.501  1.00  0.00    -0.170 NA 
HETATM    8  H   UNL     1     -10.918   4.689  67.082  1.00  0.00     0.000 HD 
BRANCH   7   9
HETATM    9  C   UNL     1      -9.251   5.934  66.782  1.00  0.00    -0.133 A  
HETATM   10  C   UNL     1      -7.390   6.385  65.458  1.00  0.00    -0.076 A  
HETATM   11  N   UNL     1      -7.635   7.681  65.233  1.00  0.00    -0.083 NA 
HETATM   12  N   UNL     1      -8.122   5.505  66.179  1.00  0.00    -0.105 NA 
HETATM   13  C   UNL     1      -8.769   8.093  65.823  1.00  0.00    -0.154 A  
HETATM   14  C   UNL     1      -9.572   7.269  66.589  1.00  0.00    -0.178 A  
HETATM   15  N   UNL     1     -10.614   8.069  66.972  1.00  0.00    -0.384 NA 
HETATM   16  H   UNL     1     -11.405   7.789  67.552  1.00  0.00     0.000 HD 
HETATM   17  C   UNL     1     -10.406   9.310  66.438  1.00  0.00    -0.168 A  
HETATM   18  N   UNL     1      -9.292   9.358  65.742  1.00  0.00    -0.221 NA 
ENDBRANCH   7   9
ENDBRANCH   1   7
TORSDOF 3
ENDMDL
MODEL      181
REMARK 921   NORMALIZED FREE ENERGY PREDICTED BY IDOCK:   -3.26 KCAL/MOL
REMARK 922        TOTAL FREE ENERGY PREDICTED BY IDOCK:   -4.11 KCAL/MOL
REMARK 923 INTER-LIGAND FREE ENERGY PREDICTED BY IDOCK:   -3.95 KCAL/MOL
REMARK 924 INTRA-LIGAND FREE ENERGY PREDICTED BY IDOCK:   -0.16 KCAL/MOL
REMARK 927      BINDING AFFINITY PREDICTED BY RF-SCORE:    0.00 PKD
ROOT
HETATM    1  C   UNL     1      -7.873  14.264  68.504  1.00  0.00    -0.143 C  
ENDROOT
BRANCH   1   2
HETATM    2  C   UNL     1      -8.938  15.307  68.517  1.00  0.00    -0.187 A  
HETATM    3  O   UNL     1      -9.436  15.696  67.305  1.00  0.00    -0.213 OA 
HETATM    4  C   UNL     1      -9.588  15.981  69.530  1.00  0.00    -0.200 A  
HETATM    5  C   UNL     1     -10.421  16.598  67.553  1.00  0.00    -0.317 A  
HETATM    6  C   UNL     1     -10.552  16.809  68.906  1.00  0.00    -0.350 A  
ENDBRANCH   1   2
BRANCH   1   7
HETATM    7  N   UNL     1      -8.281  12.937  68.948  1.00  0.00    -0.337 NA 
HETATM    8  H   UNL     1      -7.775  12.451  69.688  1.00  0.00     0.000 HD 
BRANCH   7   9
HETATM    9  C   UNL     1      -9.380  12.356  68.332  1.00  0.00    -0.158 A  
HETATM   10  C   UNL     1     -11.669  12.105  67.989  1.00  0.00    -0.344 A  
HETATM   11  N   UNL     1     -11.608  11.223  66.985  1.00  0.00    -0.480 NA 
HETATM   12  N   UNL     1     -10.648  12.681  68.664  1.00  0.00    -0.237 NA 
HETATM   13  C   UNL     1     -10.343  10.921  66.650  1.00  0.00    -0.239 A  
HETATM   14  C   UNL     1      -9.239  11.450  67.293  1.00  0.00    -0.165 A  
HETATM   15  N   UNL     1      -8.169  10.904  66.636  1.00  0.00    -0.140 NA 
HETATM   16  H   UNL     1      -7.185  11.074  66.844  1.00  0.00     0.000 HD 
HETATM   17  C   UNL     1      -8.655  10.090  65.651  1.00  0.00    -0.155 A  
HETATM   18  N   UNL     1      -9.970  10.074  65.639  1.00  0.00    -0.288 NA 
ENDBRANCH   7   9
ENDBRANCH   1   7
TORSDOF 3
ENDMDL
MODEL      182
REMARK 921   NORMALIZED FREE ENERGY PREDICTED BY IDOCK:   -3.26 KCAL/MOL
REMARK 922        TOTAL FREE ENERGY PREDICTED BY IDOCK:   -4.11 KCAL/MOL
REMARK 923 INTER-LIGAND FREE ENERGY PREDICTED BY IDOCK:   -3.75 KCAL/MOL
REMARK 924 INTRA-LIGAND FREE ENERGY PREDICTED BY IDOCK:   -0.36 KCAL/MOL
REMARK 927      BINDING AFFINITY PREDICTED BY RF-SCORE:    0.00 PKD
ROOT
HETATM    1  C   UNL     1     -11.914  13.647  67.995  1.00  0.00    -0.350 C  
ENDROOT
BRANCH   1   2
HETATM    2  C   UNL     1     -11.285  14.998  68.054  1.00  0.00    -0.316 A  
HETATM    3  O   UNL     1     -11.602  15.778  69.130  1.00  0.00    -0.351 OA 
HETATM    4  C   UNL     1     -10.388  15.660  67.242  1.00  0.00    -0.277 A  
HETATM    5  C   UNL     1     -10.883  16.925  69.012  1.00  0.00    -0.255 A  
HETATM    6  C   UNL     1     -10.122  16.902  67.866  1.00  0.00    -0.288 A  
ENDBRANCH   1   2
BRANCH   1   7
HETATM    7  N   UNL     1     -11.186  12.580  68.672  1.00  0.00    -0.258 NA 
HETATM    8  H   UNL     1     -11.267  12.446  69.680  1.00  0.00     0.000 HD 
BRANCH   7   9
HETATM    9  C   UNL     1     -10.379  11.755  67.903  1.00  0.00    -0.193 A  
HETATM   10  C   UNL     1     -10.039  10.121  66.280  1.00  0.00    -0.238 A  
HETATM   11  N   UNL     1      -8.702  10.149  66.270  1.00  0.00    -0.139 NA 
HETATM   12  N   UNL     1     -10.889  10.862  67.028  1.00  0.00    -0.272 NA 
HETATM   13  C   UNL     1      -8.206  11.053  67.130  1.00  0.00    -0.133 A  
HETATM   14  C   UNL     1      -8.997  11.843  67.944  1.00  0.00    -0.179 A  
HETATM   15  N   UNL     1      -8.105  12.622  68.632  1.00  0.00    -0.322 NA 
HETATM   16  H   UNL     1      -8.338  13.330  69.327  1.00  0.00     0.000 HD 
HETATM   17  C   UNL     1      -6.848  12.281  68.219  1.00  0.00    -0.075 A  
HETATM   18  N   UNL     1      -6.875  11.328  67.314  1.00  0.00    -0.099 NA 
ENDBRANCH   7   9
ENDBRANCH   1   7
TORSDOF 3
ENDMDL
MODEL      183
REMARK 921   NORMALIZED FREE ENERGY PREDICTED BY IDOCK:   -3.24 KCAL/MOL
REMARK 922        TOTAL FREE ENERGY PREDICTED BY IDOCK:   -4.08 KCAL/MOL
REMARK 923 INTER-LIGAND FREE ENERGY PREDICTED BY IDOCK:   -3.80 KCAL/MOL
REMARK 924 INTRA-LIGAND FREE ENERGY PREDICTED BY IDOCK:   -0.29 KCAL/MOL
REMARK 927      BINDING AFFINITY PREDICTED BY RF-SCORE:    0.00 PKD
ROOT
HETATM    1  C   UNL     1      -9.816   8.335  66.739  1.00  0.00    -0.263 C  
ENDROOT
BRANCH   1   2
HETATM    2  C   UNL     1      -8.737   7.457  66.202  1.00  0.00    -0.156 A  
HETATM    3  O   UNL     1      -9.123   6.252  65.684  1.00  0.00    -0.090 OA 
HETATM    4  C   UNL     1      -7.372   7.606  66.077  1.00  0.00    -0.077 A  
HETATM    5  C   UNL     1      -8.003   5.651  65.206  1.00  0.00    -0.114 A  
HETATM    6  C   UNL     1      -6.899   6.442  65.425  1.00  0.00    -0.048 A  
ENDBRANCH   1   2
BRANCH   1   7
HETATM    7  N   UNL     1     -10.622   7.761  67.811  1.00  0.00    -0.390 NA 
HETATM    8  H   UNL     1     -11.394   7.126  67.606  1.00  0.00     0.000 HD 
BRANCH   7   9
HETATM    9  C   UNL     1     -10.307   8.107  69.116  1.00  0.00    -0.220 A  
HETATM   10  C   UNL     1      -9.059   9.257  70.710  1.00  0.00    -0.244 A  
HETATM   11  N   UNL     1      -9.748   8.876  71.792  1.00  0.00    -0.304 NA 
HETATM   12  N   UNL     1      -9.279   8.930  69.415  1.00  0.00    -0.145 NA 
HETATM   13  C   UNL     1     -10.779   8.073  71.481  1.00  0.00    -0.227 A  
HETATM   14  C   UNL     1     -11.071   7.675  70.189  1.00  0.00    -0.218 A  
HETATM   15  N   UNL     1     -12.189   6.896  70.318  1.00  0.00    -0.624 NA 
HETATM   16  H   UNL     1     -12.688   6.431  69.561  1.00  0.00     0.000 HD 
HETATM   17  C   UNL     1     -12.519   6.855  71.645  1.00  0.00    -0.375 A  
HETATM   18  N   UNL     1     -11.678   7.554  72.375  1.00  0.00    -0.302 NA 
ENDBRANCH   7   9
ENDBRANCH   1   7
TORSDOF 3
ENDMDL
MODEL      184
REMARK 921   NORMALIZED FREE ENERGY PREDICTED BY IDOCK:   -3.20 KCAL/MOL
REMARK 922        TOTAL FREE ENERGY PREDICTED BY IDOCK:   -4.04 KCAL/MOL
REMARK 923 INTER-LIGAND FREE ENERGY PREDICTED BY IDOCK:   -3.85 KCAL/MOL
REMARK 924 INTRA-LIGAND FREE ENERGY PREDICTED BY IDOCK:   -0.19 KCAL/MOL
REMARK 927      BINDING AFFINITY PREDICTED BY RF-SCORE:    0.00 PKD
ROOT
HETATM    1  C   UNL     1      -8.909   7.638  73.190  1.00  0.00    -0.179 C  
ENDROOT
BRANCH   1   2
HETATM    2  C   UNL     1      -9.483   6.264  73.140  1.00  0.00    -0.138 A  
HETATM    3  O   UNL     1     -10.615   6.041  73.873  1.00  0.00    -0.268 OA 
HETATM    4  C   UNL     1      -9.129   5.115  72.463  1.00  0.00    -0.142 A  
HETATM    5  C   UNL     1     -10.991   4.757  73.639  1.00  0.00    -0.318 A  
HETATM    6  C   UNL     1     -10.109   4.145  72.779  1.00  0.00    -0.218 A  
ENDBRANCH   1   2
BRANCH   1   7
HETATM    7  N   UNL     1      -8.752   8.306  71.903  1.00  0.00    -0.154 NA 
HETATM    8  H   UNL     1      -7.859   8.297  71.411  1.00  0.00     0.000 HD 
BRANCH   7   9
HETATM    9  C   UNL     1      -9.856   8.954  71.370  1.00  0.00    -0.306 A  
HETATM   10  C   UNL     1     -12.083   9.632  71.419  1.00  0.00    -0.388 A  
HETATM   11  N   UNL     1     -12.074  10.372  70.304  1.00  0.00    -0.288 NA 
HETATM   12  N   UNL     1     -11.062   8.941  71.977  1.00  0.00    -0.371 NA 
HETATM   13  C   UNL     1     -10.865  10.393  69.719  1.00  0.00    -0.292 A  
HETATM   14  C   UNL     1      -9.770   9.707  70.209  1.00  0.00    -0.259 A  
HETATM   15  N   UNL     1      -8.758  10.014  69.339  1.00  0.00    -0.174 NA 
HETATM   16  H   UNL     1      -7.797   9.679  69.393  1.00  0.00     0.000 HD 
HETATM   17  C   UNL     1      -9.268  10.849  68.384  1.00  0.00    -0.168 A  
HETATM   18  N   UNL     1     -10.545  11.092  68.584  1.00  0.00    -0.183 NA 
ENDBRANCH   7   9
ENDBRANCH   1   7
TORSDOF 3
ENDMDL
MODEL      185
REMARK 921   NORMALIZED FREE ENERGY PREDICTED BY IDOCK:   -3.18 KCAL/MOL
REMARK 922        TOTAL FREE ENERGY PREDICTED BY IDOCK:   -4.02 KCAL/MOL
REMARK 923 INTER-LIGAND FREE ENERGY PREDICTED BY IDOCK:   -3.79 KCAL/MOL
REMARK 924 INTRA-LIGAND FREE ENERGY PREDICTED BY IDOCK:   -0.23 KCAL/MOL
REMARK 927      BINDING AFFINITY PREDICTED BY RF-SCORE:    0.00 PKD
ROOT
HETATM    1  C   UNL     1      -8.186  14.112  68.008  1.00  0.00    -0.152 C  
ENDROOT
BRANCH   1   2
HETATM    2  C   UNL     1      -8.825  15.434  68.262  1.00  0.00    -0.176 A  
HETATM    3  O   UNL     1      -8.291  16.512  67.613  1.00  0.00    -0.163 OA 
HETATM    4  C   UNL     1      -9.906  15.832  69.022  1.00  0.00    -0.240 A  
HETATM    5  C   UNL     1      -9.052  17.588  67.941  1.00  0.00    -0.261 A  
HETATM    6  C   UNL     1     -10.057  17.223  68.806  1.00  0.00    -0.337 A  
ENDBRANCH   1   2
BRANCH   1   7
HETATM    7  N   UNL     1      -9.035  12.946  68.230  1.00  0.00    -0.244 NA 
HETATM    8  H   UNL     1      -9.559  12.834  69.098  1.00  0.00     0.000 HD 
BRANCH   7   9
HETATM    9  C   UNL     1      -9.108  11.996  67.223  1.00  0.00    -0.178 A  
HETATM   10  C   UNL     1      -8.793   9.851  66.374  1.00  0.00    -0.142 A  
HETATM   11  N   UNL     1      -9.360  10.043  65.177  1.00  0.00    -0.224 NA 
HETATM   12  N   UNL     1      -8.649  10.736  67.386  1.00  0.00    -0.126 NA 
HETATM   13  C   UNL     1      -9.830  11.293  65.032  1.00  0.00    -0.261 A  
HETATM   14  C   UNL     1      -9.714  12.267  66.006  1.00  0.00    -0.242 A  
HETATM   15  N   UNL     1     -10.332  13.363  65.466  1.00  0.00    -0.289 NA 
HETATM   16  H   UNL     1     -10.437  14.273  65.913  1.00  0.00     0.000 HD 
HETATM   17  C   UNL     1     -10.783  13.017  64.223  1.00  0.00    -0.407 A  
HETATM   18  N   UNL     1     -10.487  11.771  63.928  1.00  0.00    -0.347 NA 
ENDBRANCH   7   9
ENDBRANCH   1   7
TORSDOF 3
ENDMDL
MODEL      186
REMARK 921   NORMALIZED FREE ENERGY PREDICTED BY IDOCK:   -3.16 KCAL/MOL
REMARK 922        TOTAL FREE ENERGY PREDICTED BY IDOCK:   -3.99 KCAL/MOL
REMARK 923 INTER-LIGAND FREE ENERGY PREDICTED BY IDOCK:   -3.68 KCAL/MOL
REMARK 924 INTRA-LIGAND FREE ENERGY PREDICTED BY IDOCK:   -0.31 KCAL/MOL
REMARK 927      BINDING AFFINITY PREDICTED BY RF-SCORE:    0.00 PKD
ROOT
HETATM    1  C   UNL     1      -9.913   9.092  71.108  1.00  0.00    -0.295 C  
ENDROOT
BRANCH   1   2
HETATM    2  C   UNL     1     -11.327   9.364  71.496  1.00  0.00    -0.394 A  
HETATM    3  O   UNL     1     -11.861  10.554  71.085  1.00  0.00    -0.346 OA 
HETATM    4  C   UNL     1     -12.275   8.638  72.186  1.00  0.00    -0.453 A  
HETATM    5  C   UNL     1     -13.156  10.567  71.493  1.00  0.00    -0.430 A  
HETATM    6  C   UNL     1     -13.459   9.412  72.176  1.00  0.00    -0.543 A  
ENDBRANCH   1   2
BRANCH   1   7
HETATM    7  N   UNL     1      -9.731   8.241  69.938  1.00  0.00    -0.178 NA 
HETATM    8  H   UNL     1      -9.772   8.627  68.995  1.00  0.00     0.000 HD 
BRANCH   7   9
HETATM    9  C   UNL     1      -9.502   6.889  70.148  1.00  0.00    -0.162 A  
HETATM   10  C   UNL     1     -10.150   4.653  70.137  1.00  0.00    -0.213 A  
HETATM   11  N   UNL     1      -8.974   4.120  70.489  1.00  0.00    -0.089 NA 
HETATM   12  N   UNL     1     -10.460   5.957  69.955  1.00  0.00    -0.242 NA 
HETATM   13  C   UNL     1      -8.024   5.054  70.660  1.00  0.00    -0.083 A  
HETATM   14  C   UNL     1      -8.253   6.409  70.509  1.00  0.00    -0.118 A  
HETATM   15  N   UNL     1      -7.036   6.989  70.749  1.00  0.00    -0.064 NA 
HETATM   16  H   UNL     1      -6.831   7.987  70.724  1.00  0.00     0.000 HD 
HETATM   17  C   UNL     1      -6.146   5.989  71.028  1.00  0.00    -0.038 A  
HETATM   18  N   UNL     1      -6.716   4.805  70.989  1.00  0.00    -0.030 NA 
ENDBRANCH   7   9
ENDBRANCH   1   7
TORSDOF 3
ENDMDL
MODEL      187
REMARK 921   NORMALIZED FREE ENERGY PREDICTED BY IDOCK:   -3.14 KCAL/MOL
REMARK 922        TOTAL FREE ENERGY PREDICTED BY IDOCK:   -3.97 KCAL/MOL
REMARK 923 INTER-LIGAND FREE ENERGY PREDICTED BY IDOCK:   -3.37 KCAL/MOL
REMARK 924 INTRA-LIGAND FREE ENERGY PREDICTED BY IDOCK:   -0.61 KCAL/MOL
REMARK 927      BINDING AFFINITY PREDICTED BY RF-SCORE:    0.00 PKD
ROOT
HETATM    1  C   UNL     1     -10.781  12.821  64.960  1.00  0.00    -0.296 C  
ENDROOT
BRANCH   1   2
HETATM    2  C   UNL     1     -10.016  11.541  64.977  1.00  0.00    -0.263 A  
HETATM    3  O   UNL     1      -8.656  11.634  64.875  1.00  0.00     0.364 OA 
HETATM    4  C   UNL     1     -10.387  10.219  65.107  1.00  0.00    -0.198 A  
HETATM    5  C   UNL     1      -8.165  10.371  64.969  1.00  0.00    -0.152 A  
HETATM    6  C   UNL     1      -9.190   9.465  65.110  1.00  0.00    -0.287 A  
ENDBRANCH   1   2
BRANCH   1   7
HETATM    7  N   UNL     1     -10.802  13.561  66.217  1.00  0.00    -0.288 NA 
HETATM    8  H   UNL     1     -11.387  13.260  66.995  1.00  0.00     0.000 HD 
BRANCH   7   9
HETATM    9  C   UNL     1     -10.001  14.689  66.318  1.00  0.00    -0.290 A  
HETATM   10  C   UNL     1      -9.635  16.985  66.204  1.00  0.00    -0.240 A  
HETATM   11  N   UNL     1      -8.367  16.990  66.631  1.00  0.00    -0.227 NA 
HETATM   12  N   UNL     1     -10.463  15.927  66.040  1.00  0.00    -0.331 NA 
HETATM   13  C   UNL     1      -7.925  15.756  66.923  1.00  0.00    -0.250 A  
HETATM   14  C   UNL     1      -8.694  14.617  66.773  1.00  0.00    -0.203 A  
HETATM   15  N   UNL     1      -7.881  13.599  67.195  1.00  0.00    -0.366 NA 
HETATM   16  H   UNL     1      -8.123  12.609  67.224  1.00  0.00     0.000 HD 
HETATM   17  C   UNL     1      -6.687  14.149  67.572  1.00  0.00    -0.105 A  
HETATM   18  N   UNL     1      -6.681  15.454  67.412  1.00  0.00    -0.233 NA 
ENDBRANCH   7   9
ENDBRANCH   1   7
TORSDOF 3
ENDMDL
MODEL      188
REMARK 921   NORMALIZED FREE ENERGY PREDICTED BY IDOCK:   -3.14 KCAL/MOL
REMARK 922        TOTAL FREE ENERGY PREDICTED BY IDOCK:   -3.97 KCAL/MOL
REMARK 923 INTER-LIGAND FREE ENERGY PREDICTED BY IDOCK:   -3.78 KCAL/MOL
REMARK 924 INTRA-LIGAND FREE ENERGY PREDICTED BY IDOCK:   -0.19 KCAL/MOL
REMARK 927      BINDING AFFINITY PREDICTED BY RF-SCORE:    0.00 PKD
ROOT
HETATM    1  C   UNL     1      -7.324  13.705  67.693  1.00  0.00    -0.176 C  
ENDROOT
BRANCH   1   2
HETATM    2  C   UNL     1      -6.688  12.365  67.541  1.00  0.00    -0.146 A  
HETATM    3  O   UNL     1      -7.365  11.299  68.064  1.00  0.00    -0.086 OA 
HETATM    4  C   UNL     1      -5.526  11.933  66.937  1.00  0.00    -0.096 A  
HETATM    5  C   UNL     1      -6.643  10.188  67.766  1.00  0.00    -0.067 A  
HETATM    6  C   UNL     1      -5.502  10.525  67.075  1.00  0.00    -0.042 A  
ENDBRANCH   1   2
BRANCH   1   7
HETATM    7  N   UNL     1      -8.304  14.059  66.673  1.00  0.00    -0.389 NA 
HETATM    8  H   UNL     1      -8.091  14.752  65.955  1.00  0.00     0.000 HD 
BRANCH   7   9
HETATM    9  C   UNL     1      -9.537  13.424  66.710  1.00  0.00    -0.262 A  
HETATM   10  C   UNL     1     -11.160  12.001  65.836  1.00  0.00    -0.324 A  
HETATM   11  N   UNL     1     -12.022  12.058  66.858  1.00  0.00    -0.609 NA 
HETATM   12  N   UNL     1      -9.964  12.622  65.711  1.00  0.00    -0.265 NA 
HETATM   13  C   UNL     1     -11.578  12.843  67.853  1.00  0.00    -0.345 A  
HETATM   14  C   UNL     1     -10.378  13.527  67.806  1.00  0.00    -0.241 A  
HETATM   15  N   UNL     1     -10.308  14.175  69.010  1.00  0.00    -0.369 NA 
HETATM   16  H   UNL     1      -9.549  14.779  69.324  1.00  0.00     0.000 HD 
HETATM   17  C   UNL     1     -11.437  13.867  69.716  1.00  0.00    -0.215 A  
HETATM   18  N   UNL     1     -12.230  13.066  69.039  1.00  0.00    -0.152 NA 
ENDBRANCH   7   9
ENDBRANCH   1   7
TORSDOF 3
ENDMDL
MODEL      189
REMARK 921   NORMALIZED FREE ENERGY PREDICTED BY IDOCK:   -3.13 KCAL/MOL
REMARK 922        TOTAL FREE ENERGY PREDICTED BY IDOCK:   -3.96 KCAL/MOL
REMARK 923 INTER-LIGAND FREE ENERGY PREDICTED BY IDOCK:   -3.73 KCAL/MOL
REMARK 924 INTRA-LIGAND FREE ENERGY PREDICTED BY IDOCK:   -0.23 KCAL/MOL
REMARK 927      BINDING AFFINITY PREDICTED BY RF-SCORE:    0.00 PKD
ROOT
HETATM    1  C   UNL     1     -10.123  12.564  66.094  1.00  0.00    -0.251 C  
ENDROOT
BRANCH   1   2
HETATM    2  C   UNL     1     -10.579  13.684  66.966  1.00  0.00    -0.274 A  
HETATM    3  O   UNL     1      -9.606  14.460  67.532  1.00  0.00    -0.209 OA 
HETATM    4  C   UNL     1     -11.824  14.155  67.327  1.00  0.00    -0.452 A  
HETATM    5  C   UNL     1     -10.239  15.439  68.230  1.00  0.00    -0.229 A  
HETATM    6  C   UNL     1     -11.603  15.295  68.136  1.00  0.00    -0.344 A  
ENDBRANCH   1   2
BRANCH   1   7
HETATM    7  N   UNL     1     -10.403  11.221  66.591  1.00  0.00    -0.229 NA 
HETATM    8  H   UNL     1     -11.289  11.003  67.046  1.00  0.00     0.000 HD 
BRANCH   7   9
HETATM    9  C   UNL     1      -9.426  10.252  66.424  1.00  0.00    -0.174 A  
HETATM   10  C   UNL     1      -7.238   9.564  66.022  1.00  0.00    -0.093 A  
HETATM   11  N   UNL     1      -7.425   8.250  66.188  1.00  0.00    -0.080 NA 
HETATM   12  N   UNL     1      -8.146  10.562  66.126  1.00  0.00    -0.140 NA 
HETATM   13  C   UNL     1      -8.697   7.954  66.503  1.00  0.00    -0.147 A  
HETATM   14  C   UNL     1      -9.694   8.905  66.617  1.00  0.00    -0.237 A  
HETATM   15  N   UNL     1     -10.808   8.190  66.965  1.00  0.00    -0.420 NA 
HETATM   16  H   UNL     1     -11.738   8.572  67.135  1.00  0.00     0.000 HD 
HETATM   17  C   UNL     1     -10.451   6.873  67.045  1.00  0.00    -0.304 A  
HETATM   18  N   UNL     1      -9.179   6.697  66.763  1.00  0.00    -0.144 NA 
ENDBRANCH   7   9
ENDBRANCH   1   7
TORSDOF 3
ENDMDL
MODEL      190
REMARK 921   NORMALIZED FREE ENERGY PREDICTED BY IDOCK:   -3.11 KCAL/MOL
REMARK 922        TOTAL FREE ENERGY PREDICTED BY IDOCK:   -3.93 KCAL/MOL
REMARK 923 INTER-LIGAND FREE ENERGY PREDICTED BY IDOCK:   -3.73 KCAL/MOL
REMARK 924 INTRA-LIGAND FREE ENERGY PREDICTED BY IDOCK:   -0.20 KCAL/MOL
REMARK 927      BINDING AFFINITY PREDICTED BY RF-SCORE:    0.00 PKD
ROOT
HETATM    1  C   UNL     1      -9.739   7.562  67.002  1.00  0.00    -0.198 C  
ENDROOT
BRANCH   1   2
HETATM    2  C   UNL     1     -10.154   8.967  66.730  1.00  0.00    -0.274 A  
HETATM    3  O   UNL     1     -10.888   9.593  67.698  1.00  0.00    -0.282 OA 
HETATM    4  C   UNL     1      -9.929   9.833  65.680  1.00  0.00    -0.352 A  
HETATM    5  C   UNL     1     -11.104  10.864  67.272  1.00  0.00    -0.283 A  
HETATM    6  C   UNL     1     -10.535  11.061  66.035  1.00  0.00    -0.304 A  
ENDBRANCH   1   2
BRANCH   1   7
HETATM    7  N   UNL     1     -10.413   6.539  66.210  1.00  0.00    -0.443 NA 
HETATM    8  H   UNL     1     -11.187   6.778  65.592  1.00  0.00     0.000 HD 
BRANCH   7   9
HETATM    9  C   UNL     1      -9.966   5.231  66.325  1.00  0.00    -0.192 A  
HETATM   10  C   UNL     1      -9.319   3.365  67.558  1.00  0.00    -0.204 A  
HETATM   11  N   UNL     1      -9.150   2.519  66.535  1.00  0.00    -0.127 NA 
HETATM   12  N   UNL     1      -9.710   4.660  67.522  1.00  0.00    -0.172 NA 
HETATM   13  C   UNL     1      -9.425   3.092  65.352  1.00  0.00    -0.091 A  
HETATM   14  C   UNL     1      -9.817   4.411  65.218  1.00  0.00    -0.199 A  
HETATM   15  N   UNL     1     -10.012   4.573  63.872  1.00  0.00    -0.369 NA 
HETATM   16  H   UNL     1     -10.309   5.430  63.407  1.00  0.00     0.000 HD 
HETATM   17  C   UNL     1      -9.737   3.379  63.264  1.00  0.00    -0.117 A  
HETATM   18  N   UNL     1      -9.372   2.464  64.135  1.00  0.00    -0.123 NA 
ENDBRANCH   7   9
ENDBRANCH   1   7
TORSDOF 3
ENDMDL
MODEL      191
REMARK 921   NORMALIZED FREE ENERGY PREDICTED BY IDOCK:   -3.07 KCAL/MOL
REMARK 922        TOTAL FREE ENERGY PREDICTED BY IDOCK:   -3.89 KCAL/MOL
REMARK 923 INTER-LIGAND FREE ENERGY PREDICTED BY IDOCK:   -3.66 KCAL/MOL
REMARK 924 INTRA-LIGAND FREE ENERGY PREDICTED BY IDOCK:   -0.23 KCAL/MOL
REMARK 927      BINDING AFFINITY PREDICTED BY RF-SCORE:    0.00 PKD
ROOT
HETATM    1  C   UNL     1      -9.778  12.967  67.168  1.00  0.00    -0.221 C  
ENDROOT
BRANCH   1   2
HETATM    2  C   UNL     1     -10.867  12.984  66.150  1.00  0.00    -0.279 A  
HETATM    3  O   UNL     1     -11.070  14.160  65.484  1.00  0.00    -0.297 OA 
HETATM    4  C   UNL     1     -11.742  12.025  65.685  1.00  0.00    -0.312 A  
HETATM    5  C   UNL     1     -12.056  13.936  64.577  1.00  0.00    -0.443 A  
HETATM    6  C   UNL     1     -12.504  12.638  64.662  1.00  0.00    -0.538 A  
ENDBRANCH   1   2
BRANCH   1   7
HETATM    7  N   UNL     1      -8.813  11.880  67.043  1.00  0.00    -0.183 NA 
HETATM    8  H   UNL     1      -8.702  11.374  66.165  1.00  0.00     0.000 HD 
BRANCH   7   9
HETATM    9  C   UNL     1      -8.052  11.558  68.156  1.00  0.00    -0.146 A  
HETATM   10  C   UNL     1      -6.323  11.948  69.666  1.00  0.00    -0.124 A  
HETATM   11  N   UNL     1      -6.572  10.930  70.498  1.00  0.00    -0.292 NA 
HETATM   12  N   UNL     1      -6.992  12.300  68.544  1.00  0.00    -0.085 NA 
HETATM   13  C   UNL     1      -7.639  10.211  70.113  1.00  0.00    -0.104 A  
HETATM   14  C   UNL     1      -8.374  10.487  68.975  1.00  0.00    -0.154 A  
HETATM   15  N   UNL     1      -9.364   9.541  68.971  1.00  0.00    -0.151 NA 
HETATM   16  H   UNL     1     -10.098   9.443  68.271  1.00  0.00     0.000 HD 
HETATM   17  C   UNL     1      -9.193   8.754  70.076  1.00  0.00    -0.168 A  
HETATM   18  N   UNL     1      -8.151   9.130  70.784  1.00  0.00    -0.165 NA 
ENDBRANCH   7   9
ENDBRANCH   1   7
TORSDOF 3
ENDMDL
MODEL      192
REMARK 921   NORMALIZED FREE ENERGY PREDICTED BY IDOCK:   -3.07 KCAL/MOL
REMARK 922        TOTAL FREE ENERGY PREDICTED BY IDOCK:   -3.89 KCAL/MOL
REMARK 923 INTER-LIGAND FREE ENERGY PREDICTED BY IDOCK:   -3.52 KCAL/MOL
REMARK 924 INTRA-LIGAND FREE ENERGY PREDICTED BY IDOCK:   -0.37 KCAL/MOL
REMARK 927      BINDING AFFINITY PREDICTED BY RF-SCORE:    0.00 PKD
ROOT
HETATM    1  C   UNL     1     -10.784   8.479  67.597  1.00  0.00    -0.119 C  
ENDROOT
BRANCH   1   2
HETATM    2  C   UNL     1      -9.431   7.854  67.598  1.00  0.00    -0.144 A  
HETATM    3  O   UNL     1      -9.138   7.019  68.639  1.00  0.00    -0.134 OA 
HETATM    4  C   UNL     1      -8.363   7.910  66.727  1.00  0.00    -0.120 A  
HETATM    5  C   UNL     1      -7.893   6.524  68.411  1.00  0.00    -0.106 A  
HETATM    6  C   UNL     1      -7.373   7.043  67.249  1.00  0.00    -0.091 A  
ENDBRANCH   1   2
BRANCH   1   7
HETATM    7  N   UNL     1     -10.996   9.531  68.583  1.00  0.00    -0.435 NA 
HETATM    8  H   UNL     1     -11.195   9.307  69.558  1.00  0.00     0.000 HD 
BRANCH   7   9
HETATM    9  C   UNL     1     -10.919  10.848  68.154  1.00  0.00    -0.249 A  
HETATM   10  C   UNL     1     -11.865  12.848  67.429  1.00  0.00    -0.360 A  
HETATM   11  N   UNL     1     -10.742  13.573  67.375  1.00  0.00    -0.261 NA 
HETATM   12  N   UNL     1     -12.013  11.554  67.795  1.00  0.00    -0.637 NA 
HETATM   13  C   UNL     1      -9.663  12.867  67.753  1.00  0.00    -0.214 A  
HETATM   14  C   UNL     1      -9.717  11.538  68.129  1.00  0.00    -0.192 A  
HETATM   15  N   UNL     1      -8.424  11.222  68.449  1.00  0.00    -0.148 NA 
HETATM   16  H   UNL     1      -8.090  10.315  68.772  1.00  0.00     0.000 HD 
HETATM   17  C   UNL     1      -7.662  12.341  68.258  1.00  0.00    -0.143 A  
HETATM   18  N   UNL     1      -8.384  13.353  67.830  1.00  0.00    -0.164 NA 
ENDBRANCH   7   9
ENDBRANCH   1   7
TORSDOF 3
ENDMDL
MODEL      193
REMARK 921   NORMALIZED FREE ENERGY PREDICTED BY IDOCK:   -3.02 KCAL/MOL
REMARK 922        TOTAL FREE ENERGY PREDICTED BY IDOCK:   -3.83 KCAL/MOL
REMARK 923 INTER-LIGAND FREE ENERGY PREDICTED BY IDOCK:   -3.64 KCAL/MOL
REMARK 924 INTRA-LIGAND FREE ENERGY PREDICTED BY IDOCK:   -0.19 KCAL/MOL
REMARK 927      BINDING AFFINITY PREDICTED BY RF-SCORE:    0.00 PKD
ROOT
HETATM    1  C   UNL     1     -10.040  13.384  65.824  1.00  0.00    -0.288 C  
ENDROOT
BRANCH   1   2
HETATM    2  C   UNL     1     -10.266  14.367  66.922  1.00  0.00    -0.265 A  
HETATM    3  O   UNL     1      -9.228  14.577  67.785  1.00  0.00    -0.186 OA 
HETATM    4  C   UNL     1     -11.332  15.173  67.263  1.00  0.00    -0.305 A  
HETATM    5  C   UNL     1      -9.629  15.538  68.658  1.00  0.00    -0.203 A  
HETATM    6  C   UNL     1     -10.915  15.937  68.380  1.00  0.00    -0.331 A  
ENDBRANCH   1   2
BRANCH   1   7
HETATM    7  N   UNL     1     -10.785  12.135  65.929  1.00  0.00    -0.257 NA 
HETATM    8  H   UNL     1     -11.394  11.821  65.174  1.00  0.00     0.000 HD 
BRANCH   7   9
HETATM    9  C   UNL     1     -10.641  11.389  67.089  1.00  0.00    -0.243 A  
HETATM   10  C   UNL     1     -11.484  10.219  68.917  1.00  0.00    -0.127 A  
HETATM   11  N   UNL     1     -10.319   9.777  69.404  1.00  0.00    -0.203 NA 
HETATM   12  N   UNL     1     -11.701  10.982  67.820  1.00  0.00    -0.600 NA 
HETATM   13  C   UNL     1      -9.274  10.172  68.659  1.00  0.00    -0.157 A  
HETATM   14  C   UNL     1      -9.399  10.963  67.532  1.00  0.00    -0.154 A  
HETATM   15  N   UNL     1      -8.116  11.107  67.074  1.00  0.00    -0.141 NA 
HETATM   16  H   UNL     1      -7.829  11.634  66.250  1.00  0.00     0.000 HD 
HETATM   17  C   UNL     1      -7.292  10.417  67.919  1.00  0.00    -0.086 A  
HETATM   18  N   UNL     1      -7.963   9.845  68.893  1.00  0.00    -0.091 NA 
ENDBRANCH   7   9
ENDBRANCH   1   7
TORSDOF 3
ENDMDL
MODEL      194
REMARK 921   NORMALIZED FREE ENERGY PREDICTED BY IDOCK:   -2.99 KCAL/MOL
REMARK 922        TOTAL FREE ENERGY PREDICTED BY IDOCK:   -3.80 KCAL/MOL
REMARK 923 INTER-LIGAND FREE ENERGY PREDICTED BY IDOCK:   -3.59 KCAL/MOL
REMARK 924 INTRA-LIGAND FREE ENERGY PREDICTED BY IDOCK:   -0.21 KCAL/MOL
REMARK 927      BINDING AFFINITY PREDICTED BY RF-SCORE:    0.00 PKD
ROOT
HETATM    1  C   UNL     1      -8.488  11.074  68.148  1.00  0.00    -0.135 C  
ENDROOT
BRANCH   1   2
HETATM    2  C   UNL     1      -9.086   9.766  67.758  1.00  0.00    -0.131 A  
HETATM    3  O   UNL     1      -8.245   8.848  67.192  1.00  0.00    -0.103 OA 
HETATM    4  C   UNL     1     -10.353   9.234  67.869  1.00  0.00    -0.279 A  
HETATM    5  C   UNL     1      -8.977   7.725  66.972  1.00  0.00    -0.129 A  
HETATM    6  C   UNL     1     -10.280   7.912  67.370  1.00  0.00    -0.320 A  
ENDBRANCH   1   2
BRANCH   1   7
HETATM    7  N   UNL     1      -9.199  12.259  67.681  1.00  0.00    -0.177 NA 
HETATM    8  H   UNL     1     -10.194  12.222  67.461  1.00  0.00     0.000 HD 
BRANCH   7   9
HETATM    9  C   UNL     1      -8.479  13.436  67.545  1.00  0.00    -0.192 A  
HETATM   10  C   UNL     1      -6.551  14.722  67.767  1.00  0.00    -0.170 A  
HETATM   11  N   UNL     1      -6.998  15.829  67.162  1.00  0.00    -0.201 NA 
HETATM   12  N   UNL     1      -7.204  13.555  67.973  1.00  0.00    -0.107 NA 
HETATM   13  C   UNL     1      -8.260  15.693  66.724  1.00  0.00    -0.265 A  
HETATM   14  C   UNL     1      -9.009  14.545  66.902  1.00  0.00    -0.246 A  
HETATM   15  N   UNL     1     -10.205  14.821  66.297  1.00  0.00    -0.286 NA 
HETATM   16  H   UNL     1     -11.006  14.193  66.234  1.00  0.00     0.000 HD 
HETATM   17  C   UNL     1     -10.134  16.089  65.792  1.00  0.00    -0.366 A  
HETATM   18  N   UNL     1      -8.969  16.647  66.040  1.00  0.00    -0.482 NA 
ENDBRANCH   7   9
ENDBRANCH   1   7
TORSDOF 3
ENDMDL
MODEL      195
REMARK 921   NORMALIZED FREE ENERGY PREDICTED BY IDOCK:   -2.96 KCAL/MOL
REMARK 922        TOTAL FREE ENERGY PREDICTED BY IDOCK:   -3.76 KCAL/MOL
REMARK 923 INTER-LIGAND FREE ENERGY PREDICTED BY IDOCK:   -3.46 KCAL/MOL
REMARK 924 INTRA-LIGAND FREE ENERGY PREDICTED BY IDOCK:   -0.31 KCAL/MOL
REMARK 927      BINDING AFFINITY PREDICTED BY RF-SCORE:    0.00 PKD
ROOT
HETATM    1  C   UNL     1      -8.866   7.004  71.356  1.00  0.00    -0.129 C  
ENDROOT
BRANCH   1   2
HETATM    2  C   UNL     1      -8.111   7.018  72.641  1.00  0.00    -0.107 A  
HETATM    3  O   UNL     1      -8.178   8.164  73.384  1.00  0.00    -0.181 OA 
HETATM    4  C   UNL     1      -7.343   6.079  73.297  1.00  0.00    -0.089 A  
HETATM    5  C   UNL     1      -7.474   7.938  74.523  1.00  0.00    -0.182 A  
HETATM    6  C   UNL     1      -6.940   6.671  74.517  1.00  0.00    -0.092 A  
ENDBRANCH   1   2
BRANCH   1   7
HETATM    7  N   UNL     1      -9.695   8.176  71.097  1.00  0.00    -0.159 NA 
HETATM    8  H   UNL     1      -9.285   9.044  70.752  1.00  0.00     0.000 HD 
BRANCH   7   9
HETATM    9  C   UNL     1     -11.057   8.073  71.335  1.00  0.00    -0.241 A  
HETATM   10  C   UNL     1     -12.979   6.878  71.882  1.00  0.00    -0.217 A  
HETATM   11  N   UNL     1     -13.832   7.908  71.915  1.00  0.00    -0.345 NA 
HETATM   12  N   UNL     1     -11.652   6.894  71.618  1.00  0.00    -0.272 NA 
HETATM   13  C   UNL     1     -13.226   9.078  71.650  1.00  0.00    -0.371 A  
HETATM   14  C   UNL     1     -11.880   9.188  71.356  1.00  0.00    -0.345 A  
HETATM   15  N   UNL     1     -11.680  10.531  71.177  1.00  0.00    -0.298 NA 
HETATM   16  H   UNL     1     -10.795  10.981  70.946  1.00  0.00     0.000 HD 
HETATM   17  C   UNL     1     -12.879  11.160  71.364  1.00  0.00    -0.439 A  
HETATM   18  N   UNL     1     -13.838  10.305  71.646  1.00  0.00     0.011 NA 
ENDBRANCH   7   9
ENDBRANCH   1   7
TORSDOF 3
ENDMDL
MODEL      196
REMARK 921   NORMALIZED FREE ENERGY PREDICTED BY IDOCK:   -2.94 KCAL/MOL
REMARK 922        TOTAL FREE ENERGY PREDICTED BY IDOCK:   -3.73 KCAL/MOL
REMARK 923 INTER-LIGAND FREE ENERGY PREDICTED BY IDOCK:   -3.21 KCAL/MOL
REMARK 924 INTRA-LIGAND FREE ENERGY PREDICTED BY IDOCK:   -0.52 KCAL/MOL
REMARK 927      BINDING AFFINITY PREDICTED BY RF-SCORE:    0.00 PKD
ROOT
HETATM    1  C   UNL     1      -7.733  12.002  67.135  1.00  0.00    -0.161 C  
ENDROOT
BRANCH   1   2
HETATM    2  C   UNL     1      -9.130  11.854  66.639  1.00  0.00    -0.203 A  
HETATM    3  O   UNL     1      -9.620  12.867  65.863  1.00  0.00    -0.224 OA 
HETATM    4  C   UNL     1     -10.080  10.862  66.768  1.00  0.00    -0.259 A  
HETATM    5  C   UNL     1     -10.871  12.502  65.479  1.00  0.00    -0.278 A  
HETATM    6  C   UNL     1     -11.201  11.278  66.011  1.00  0.00    -0.108 A  
ENDBRANCH   1   2
BRANCH   1   7
HETATM    7  N   UNL     1      -7.090  13.278  66.845  1.00  0.00    -0.326 NA 
HETATM    8  H   UNL     1      -6.537  13.408  65.998  1.00  0.00     0.000 HD 
BRANCH   7   9
HETATM    9  C   UNL     1      -7.256  14.310  67.756  1.00  0.00    -0.175 A  
HETATM   10  C   UNL     1      -6.754  15.421  69.740  1.00  0.00    -0.170 A  
HETATM   11  N   UNL     1      -7.541  16.487  69.557  1.00  0.00    -0.047 NA 
HETATM   12  N   UNL     1      -6.573  14.360  68.920  1.00  0.00    -0.088 NA 
HETATM   13  C   UNL     1      -8.201  16.436  68.388  1.00  0.00    -0.190 A  
HETATM   14  C   UNL     1      -8.089  15.387  67.496  1.00  0.00    -0.167 A  
HETATM   15  N   UNL     1      -8.897  15.742  66.449  1.00  0.00    -0.311 NA 
HETATM   16  H   UNL     1      -9.057  15.198  65.602  1.00  0.00     0.000 HD 
HETATM   17  C   UNL     1      -9.450  16.957  66.743  1.00  0.00    -0.255 A  
HETATM   18  N   UNL     1      -9.053  17.401  67.915  1.00  0.00    -0.250 NA 
ENDBRANCH   7   9
ENDBRANCH   1   7
TORSDOF 3
ENDMDL
MODEL      197
REMARK 921   NORMALIZED FREE ENERGY PREDICTED BY IDOCK:   -2.93 KCAL/MOL
REMARK 922        TOTAL FREE ENERGY PREDICTED BY IDOCK:   -3.73 KCAL/MOL
REMARK 923 INTER-LIGAND FREE ENERGY PREDICTED BY IDOCK:   -3.46 KCAL/MOL
REMARK 924 INTRA-LIGAND FREE ENERGY PREDICTED BY IDOCK:   -0.26 KCAL/MOL
REMARK 927      BINDING AFFINITY PREDICTED BY RF-SCORE:    0.00 PKD
ROOT
HETATM    1  C   UNL     1     -10.375   8.972  69.375  1.00  0.00    -0.213 C  
ENDROOT
BRANCH   1   2
HETATM    2  C   UNL     1     -11.431   9.204  70.402  1.00  0.00    -0.194 A  
HETATM    3  O   UNL     1     -11.923  10.475  70.506  1.00  0.00    -0.285 OA 
HETATM    4  C   UNL     1     -12.076   8.377  71.298  1.00  0.00    -0.315 A  
HETATM    5  C   UNL     1     -12.899  10.445  71.450  1.00  0.00    -0.452 A  
HETATM    6  C   UNL     1     -13.031   9.178  71.968  1.00  0.00    -0.496 A  
ENDBRANCH   1   2
BRANCH   1   7
HETATM    7  N   UNL     1     -10.698   9.421  68.025  1.00  0.00    -0.390 NA 
HETATM    8  H   UNL     1     -11.647   9.352  67.661  1.00  0.00     0.000 HD 
BRANCH   7   9
HETATM    9  C   UNL     1      -9.671   9.944  67.253  1.00  0.00    -0.171 A  
HETATM   10  C   UNL     1      -8.272  11.673  66.567  1.00  0.00    -0.101 A  
HETATM   11  N   UNL     1      -7.500  10.965  65.734  1.00  0.00    -0.067 NA 
HETATM   12  N   UNL     1      -9.312  11.244  67.318  1.00  0.00    -0.165 NA 
HETATM   13  C   UNL     1      -7.855   9.670  65.692  1.00  0.00    -0.107 A  
HETATM   14  C   UNL     1      -8.911   9.146  66.413  1.00  0.00    -0.149 A  
HETATM   15  N   UNL     1      -8.909   7.813  66.100  1.00  0.00    -0.157 NA 
HETATM   16  H   UNL     1      -9.558   7.112  66.455  1.00  0.00     0.000 HD 
HETATM   17  C   UNL     1      -7.881   7.592  65.226  1.00  0.00    -0.120 A  
HETATM   18  N   UNL     1      -7.227   8.700  64.954  1.00  0.00    -0.083 NA 
ENDBRANCH   7   9
ENDBRANCH   1   7
TORSDOF 3
ENDMDL
MODEL      198
REMARK 921   NORMALIZED FREE ENERGY PREDICTED BY IDOCK:   -2.91 KCAL/MOL
REMARK 922        TOTAL FREE ENERGY PREDICTED BY IDOCK:   -3.69 KCAL/MOL
REMARK 923 INTER-LIGAND FREE ENERGY PREDICTED BY IDOCK:   -3.37 KCAL/MOL
REMARK 924 INTRA-LIGAND FREE ENERGY PREDICTED BY IDOCK:   -0.33 KCAL/MOL
REMARK 927      BINDING AFFINITY PREDICTED BY RF-SCORE:    0.00 PKD
ROOT
HETATM    1  C   UNL     1      -9.716   7.087  66.830  1.00  0.00    -0.175 C  
ENDROOT
BRANCH   1   2
HETATM    2  C   UNL     1      -9.518   5.610  66.769  1.00  0.00    -0.141 A  
HETATM    3  O   UNL     1      -8.441   5.103  67.440  1.00  0.00    -0.107 OA 
HETATM    4  C   UNL     1     -10.229   4.585  66.180  1.00  0.00    -0.283 A  
HETATM    5  C   UNL     1      -8.487   3.753  67.299  1.00  0.00    -0.100 A  
HETATM    6  C   UNL     1      -9.567   3.385  66.531  1.00  0.00    -0.080 A  
ENDBRANCH   1   2
BRANCH   1   7
HETATM    7  N   UNL     1     -10.862   7.539  67.609  1.00  0.00    -0.497 NA 
HETATM    8  H   UNL     1     -11.678   7.949  67.155  1.00  0.00     0.000 HD 
BRANCH   7   9
HETATM    9  C   UNL     1     -10.807   7.396  68.988  1.00  0.00    -0.086 A  
HETATM   10  C   UNL     1     -11.365   6.334  70.983  1.00  0.00    -0.316 A  
HETATM   11  N   UNL     1     -10.597   7.064  71.800  1.00  0.00    -0.210 NA 
HETATM   12  N   UNL     1     -11.503   6.441  69.641  1.00  0.00    -0.420 NA 
HETATM   13  C   UNL     1      -9.896   7.999  71.137  1.00  0.00    -0.166 A  
HETATM   14  C   UNL     1      -9.983   8.190  69.771  1.00  0.00    -0.191 A  
HETATM   15  N   UNL     1      -9.105   9.207  69.513  1.00  0.00    -0.149 NA 
HETATM   16  H   UNL     1      -8.908   9.613  68.598  1.00  0.00     0.000 HD 
HETATM   17  C   UNL     1      -8.538   9.581  70.699  1.00  0.00    -0.124 A  
HETATM   18  N   UNL     1      -9.002   8.871  71.704  1.00  0.00    -0.324 NA 
ENDBRANCH   7   9
ENDBRANCH   1   7
TORSDOF 3
ENDMDL
MODEL      199
REMARK 921   NORMALIZED FREE ENERGY PREDICTED BY IDOCK:   -2.89 KCAL/MOL
REMARK 922        TOTAL FREE ENERGY PREDICTED BY IDOCK:   -3.68 KCAL/MOL
REMARK 923 INTER-LIGAND FREE ENERGY PREDICTED BY IDOCK:   -3.45 KCAL/MOL
REMARK 924 INTRA-LIGAND FREE ENERGY PREDICTED BY IDOCK:   -0.23 KCAL/MOL
REMARK 927      BINDING AFFINITY PREDICTED BY RF-SCORE:    0.00 PKD
ROOT
HETATM    1  C   UNL     1      -8.968   5.160  70.709  1.00  0.00    -0.134 C  
ENDROOT
BRANCH   1   2
HETATM    2  C   UNL     1      -8.381   4.250  69.684  1.00  0.00    -0.061 A  
HETATM    3  O   UNL     1      -9.077   3.108  69.402  1.00  0.00    -0.104 OA 
HETATM    4  C   UNL     1      -7.251   4.317  68.897  1.00  0.00    -0.055 A  
HETATM    5  C   UNL     1      -8.400   2.466  68.415  1.00  0.00    -0.058 A  
HETATM    6  C   UNL     1      -7.269   3.168  68.070  1.00  0.00    -0.050 A  
ENDBRANCH   1   2
BRANCH   1   7
HETATM    7  N   UNL     1     -10.266   5.735  70.374  1.00  0.00    -0.208 NA 
HETATM    8  H   UNL     1     -10.999   5.167  69.949  1.00  0.00     0.000 HD 
BRANCH   7   9
HETATM    9  C   UNL     1     -10.473   7.077  70.653  1.00  0.00    -0.210 A  
HETATM   10  C   UNL     1      -9.794   9.303  70.735  1.00  0.00    -0.283 A  
HETATM   11  N   UNL     1     -10.955   9.834  71.136  1.00  0.00    -0.352 NA 
HETATM   12  N   UNL     1      -9.506   8.005  70.484  1.00  0.00    -0.165 NA 
HETATM   13  C   UNL     1     -11.914   8.905  71.283  1.00  0.00    -0.307 A  
HETATM   14  C   UNL     1     -11.707   7.556  71.063  1.00  0.00    -0.292 A  
HETATM   15  N   UNL     1     -12.927   6.981  71.301  1.00  0.00    -0.429 NA 
HETATM   16  H   UNL     1     -13.147   5.988  71.233  1.00  0.00     0.000 HD 
HETATM   17  C   UNL     1     -13.797   7.977  71.646  1.00  0.00    -0.379 A  
HETATM   18  N   UNL     1     -13.211   9.154  71.651  1.00  0.00    -0.358 NA 
ENDBRANCH   7   9
ENDBRANCH   1   7
TORSDOF 3
ENDMDL
MODEL      200
REMARK 921   NORMALIZED FREE ENERGY PREDICTED BY IDOCK:   -2.81 KCAL/MOL
REMARK 922        TOTAL FREE ENERGY PREDICTED BY IDOCK:   -3.59 KCAL/MOL
REMARK 923 INTER-LIGAND FREE ENERGY PREDICTED BY IDOCK:   -3.31 KCAL/MOL
REMARK 924 INTRA-LIGAND FREE ENERGY PREDICTED BY IDOCK:   -0.28 KCAL/MOL
REMARK 927      BINDING AFFINITY PREDICTED BY RF-SCORE:    0.00 PKD
ROOT
HETATM    1  C   UNL     1      -9.746   9.532  70.161  1.00  0.00    -0.246 C  
ENDROOT
BRANCH   1   2
HETATM    2  C   UNL     1     -11.103   9.892  70.664  1.00  0.00    -0.340 A  
HETATM    3  O   UNL     1     -11.631   9.093  71.639  1.00  0.00    -0.330 OA 
HETATM    4  C   UNL     1     -11.978  10.917  70.372  1.00  0.00    -0.453 A  
HETATM    5  C   UNL     1     -12.830   9.630  71.984  1.00  0.00    -0.410 A  
HETATM    6  C   UNL     1     -13.090  10.752  71.233  1.00  0.00    -0.427 A  
ENDBRANCH   1   2
BRANCH   1   7
HETATM    7  N   UNL     1      -9.227   8.245  70.607  1.00  0.00    -0.149 NA 
HETATM    8  H   UNL     1      -9.073   8.054  71.597  1.00  0.00     0.000 HD 
BRANCH   7   9
HETATM    9  C   UNL     1      -8.949   7.288  69.643  1.00  0.00    -0.141 A  
HETATM   10  C   UNL     1      -8.604   6.602  67.445  1.00  0.00    -0.119 A  
HETATM   11  N   UNL     1      -8.280   5.329  67.699  1.00  0.00    -0.100 NA 
HETATM   12  N   UNL     1      -8.926   7.579  68.325  1.00  0.00    -0.131 NA 
HETATM   13  C   UNL     1      -8.289   5.056  69.014  1.00  0.00    -0.086 A  
HETATM   14  C   UNL     1      -8.618   5.985  69.982  1.00  0.00    -0.131 A  
HETATM   15  N   UNL     1      -8.481   5.308  71.164  1.00  0.00    -0.121 NA 
HETATM   16  H   UNL     1      -8.644   5.687  72.096  1.00  0.00     0.000 HD 
HETATM   17  C   UNL     1      -8.086   4.032  70.871  1.00  0.00    -0.067 A  
HETATM   18  N   UNL     1      -7.968   3.847  69.575  1.00  0.00    -0.055 NA 
ENDBRANCH   7   9
ENDBRANCH   1   7
TORSDOF 3
ENDMDL
MODEL      201
REMARK 921   NORMALIZED FREE ENERGY PREDICTED BY IDOCK:   -2.70 KCAL/MOL
REMARK 922        TOTAL FREE ENERGY PREDICTED BY IDOCK:   -3.45 KCAL/MOL
REMARK 923 INTER-LIGAND FREE ENERGY PREDICTED BY IDOCK:   -3.23 KCAL/MOL
REMARK 924 INTRA-LIGAND FREE ENERGY PREDICTED BY IDOCK:   -0.22 KCAL/MOL
REMARK 927      BINDING AFFINITY PREDICTED BY RF-SCORE:    0.00 PKD
ROOT
HETATM    1  C   UNL     1      -9.917   9.017  71.110  1.00  0.00    -0.295 C  
ENDROOT
BRANCH   1   2
HETATM    2  C   UNL     1     -11.318   9.398  71.446  1.00  0.00    -0.381 A  
HETATM    3  O   UNL     1     -12.043   8.500  72.179  1.00  0.00    -0.336 OA 
HETATM    4  C   UNL     1     -12.079  10.521  71.195  1.00  0.00    -0.473 A  
HETATM    5  C   UNL     1     -13.254   9.069  72.416  1.00  0.00    -0.447 A  
HETATM    6  C   UNL     1     -13.326  10.311  71.830  1.00  0.00    -0.487 A  
ENDBRANCH   1   2
BRANCH   1   7
HETATM    7  N   UNL     1      -9.686   8.610  69.728  1.00  0.00    -0.174 NA 
HETATM    8  H   UNL     1     -10.455   8.557  69.060  1.00  0.00     0.000 HD 
BRANCH   7   9
HETATM    9  C   UNL     1      -8.388   8.299  69.352  1.00  0.00    -0.122 A  
HETATM   10  C   UNL     1      -6.677   6.796  68.868  1.00  0.00    -0.053 A  
HETATM   11  N   UNL     1      -5.756   7.686  68.481  1.00  0.00    -0.027 NA 
HETATM   12  N   UNL     1      -7.943   7.026  69.286  1.00  0.00    -0.117 NA 
HETATM   13  C   UNL     1      -6.215   8.947  68.532  1.00  0.00    -0.053 A  
HETATM   14  C   UNL     1      -7.488   9.277  68.959  1.00  0.00    -0.073 A  
HETATM   15  N   UNL     1      -7.547  10.639  68.835  1.00  0.00    -0.104 NA 
HETATM   16  H   UNL     1      -8.347  11.229  69.061  1.00  0.00     0.000 HD 
HETATM   17  C   UNL     1      -6.341  11.066  68.352  1.00  0.00    -0.052 A  
HETATM   18  N   UNL     1      -5.510  10.064  68.165  1.00  0.00    -0.039 NA 
ENDBRANCH   7   9
ENDBRANCH   1   7
TORSDOF 3
ENDMDL
MODEL      202
REMARK 921   NORMALIZED FREE ENERGY PREDICTED BY IDOCK:   -2.68 KCAL/MOL
REMARK 922        TOTAL FREE ENERGY PREDICTED BY IDOCK:   -3.43 KCAL/MOL
REMARK 923 INTER-LIGAND FREE ENERGY PREDICTED BY IDOCK:   -3.21 KCAL/MOL
REMARK 924 INTRA-LIGAND FREE ENERGY PREDICTED BY IDOCK:   -0.22 KCAL/MOL
REMARK 927      BINDING AFFINITY PREDICTED BY RF-SCORE:    0.00 PKD
ROOT
HETATM    1  C   UNL     1      -9.743   5.898  67.538  1.00  0.00    -0.115 C  
ENDROOT
BRANCH   1   2
HETATM    2  C   UNL     1     -10.266   6.188  68.904  1.00  0.00    -0.188 A  
HETATM    3  O   UNL     1     -10.611   7.484  69.171  1.00  0.00    -0.219 OA 
HETATM    4  C   UNL     1     -10.521   5.399  70.006  1.00  0.00    -0.373 A  
HETATM    5  C   UNL     1     -11.109   7.508  70.434  1.00  0.00    -0.261 A  
HETATM    6  C   UNL     1     -11.074   6.251  70.991  1.00  0.00    -0.357 A  
ENDBRANCH   1   2
BRANCH   1   7
HETATM    7  N   UNL     1     -10.354   4.764  66.855  1.00  0.00    -0.193 NA 
HETATM    8  H   UNL     1     -11.344   4.550  66.972  1.00  0.00     0.000 HD 
BRANCH   7   9
HETATM    9  C   UNL     1      -9.546   3.985  66.041  1.00  0.00    -0.194 A  
HETATM   10  C   UNL     1      -7.750   2.550  65.670  1.00  0.00    -0.077 A  
HETATM   11  N   UNL     1      -7.967   2.317  64.370  1.00  0.00    -0.076 NA 
HETATM   12  N   UNL     1      -8.467   3.327  66.515  1.00  0.00    -0.103 NA 
HETATM   13  C   UNL     1      -9.053   2.962  63.913  1.00  0.00    -0.103 A  
HETATM   14  C   UNL     1      -9.836   3.787  64.700  1.00  0.00    -0.190 A  
HETATM   15  N   UNL     1     -10.829   4.214  63.861  1.00  0.00    -0.462 NA 
HETATM   16  H   UNL     1     -11.594   4.843  64.106  1.00  0.00     0.000 HD 
HETATM   17  C   UNL     1     -10.613   3.648  62.635  1.00  0.00    -0.202 A  
HETATM   18  N   UNL     1      -9.540   2.889  62.634  1.00  0.00    -0.092 NA 
ENDBRANCH   7   9
ENDBRANCH   1   7
TORSDOF 3
ENDMDL
MODEL      203
REMARK 921   NORMALIZED FREE ENERGY PREDICTED BY IDOCK:   -2.61 KCAL/MOL
REMARK 922        TOTAL FREE ENERGY PREDICTED BY IDOCK:   -3.35 KCAL/MOL
REMARK 923 INTER-LIGAND FREE ENERGY PREDICTED BY IDOCK:   -3.01 KCAL/MOL
REMARK 924 INTRA-LIGAND FREE ENERGY PREDICTED BY IDOCK:   -0.34 KCAL/MOL
REMARK 927      BINDING AFFINITY PREDICTED BY RF-SCORE:    0.00 PKD
ROOT
HETATM    1  C   UNL     1      -8.770  10.367  68.758  1.00  0.00    -0.146 C  
ENDROOT
BRANCH   1   2
HETATM    2  C   UNL     1     -10.088  11.017  68.509  1.00  0.00    -0.190 A  
HETATM    3  O   UNL     1     -10.739  11.528  69.596  1.00  0.00    -0.089 OA 
HETATM    4  C   UNL     1     -10.823  11.256  67.366  1.00  0.00    -0.311 A  
HETATM    5  C   UNL     1     -11.874  12.115  69.137  1.00  0.00    -0.305 A  
HETATM    6  C   UNL     1     -11.973  11.974  67.772  1.00  0.00    -0.177 A  
ENDBRANCH   1   2
BRANCH   1   7
HETATM    7  N   UNL     1      -8.723   9.446  69.888  1.00  0.00    -0.178 NA 
HETATM    8  H   UNL     1      -8.216   9.684  70.741  1.00  0.00     0.000 HD 
BRANCH   7   9
HETATM    9  C   UNL     1      -9.388   8.235  69.767  1.00  0.00    -0.158 A  
HETATM   10  C   UNL     1     -11.186   6.811  70.169  1.00  0.00    -0.335 A  
HETATM   11  N   UNL     1     -10.777   5.783  69.418  1.00  0.00    -0.316 NA 
HETATM   12  N   UNL     1     -10.574   8.002  70.369  1.00  0.00    -0.220 NA 
HETATM   13  C   UNL     1      -9.606   6.033  68.809  1.00  0.00    -0.129 A  
HETATM   14  C   UNL     1      -8.903   7.213  68.966  1.00  0.00    -0.131 A  
HETATM   15  N   UNL     1      -7.801   7.061  68.169  1.00  0.00    -0.116 NA 
HETATM   16  H   UNL     1      -7.055   7.744  68.038  1.00  0.00     0.000 HD 
HETATM   17  C   UNL     1      -7.878   5.830  67.579  1.00  0.00    -0.101 A  
HETATM   18  N   UNL     1      -8.958   5.180  67.953  1.00  0.00    -0.109 NA 
ENDBRANCH   7   9
ENDBRANCH   1   7
TORSDOF 3
ENDMDL
MODEL      204
REMARK 921   NORMALIZED FREE ENERGY PREDICTED BY IDOCK:   -2.59 KCAL/MOL
REMARK 922        TOTAL FREE ENERGY PREDICTED BY IDOCK:   -3.32 KCAL/MOL
REMARK 923 INTER-LIGAND FREE ENERGY PREDICTED BY IDOCK:   -3.01 KCAL/MOL
REMARK 924 INTRA-LIGAND FREE ENERGY PREDICTED BY IDOCK:   -0.31 KCAL/MOL
REMARK 927      BINDING AFFINITY PREDICTED BY RF-SCORE:    0.00 PKD
ROOT
HETATM    1  C   UNL     1      -9.790   5.192  68.045  1.00  0.00    -0.151 C  
ENDROOT
BRANCH   1   2
HETATM    2  C   UNL     1      -9.477   4.383  66.833  1.00  0.00    -0.178 A  
HETATM    3  O   UNL     1      -8.805   3.209  67.032  1.00  0.00    -0.119 OA 
HETATM    4  C   UNL     1      -9.751   4.545  65.491  1.00  0.00    -0.204 A  
HETATM    5  C   UNL     1      -8.679   2.615  65.817  1.00  0.00    -0.127 A  
HETATM    6  C   UNL     1      -9.243   3.397  64.836  1.00  0.00    -0.145 A  
ENDBRANCH   1   2
BRANCH   1   7
HETATM    7  N   UNL     1     -10.746   6.277  67.851  1.00  0.00    -0.274 NA 
HETATM    8  H   UNL     1     -11.749   6.098  67.836  1.00  0.00     0.000 HD 
BRANCH   7   9
HETATM    9  C   UNL     1     -10.246   7.560  67.689  1.00  0.00    -0.213 A  
HETATM   10  C   UNL     1      -9.380   9.298  66.404  1.00  0.00    -0.192 A  
HETATM   11  N   UNL     1      -9.321  10.226  67.366  1.00  0.00    -0.145 NA 
HETATM   12  N   UNL     1      -9.814   8.020  66.495  1.00  0.00    -0.236 NA 
HETATM   13  C   UNL     1      -9.770   9.764  68.545  1.00  0.00    -0.154 A  
HETATM   14  C   UNL     1     -10.219   8.470  68.734  1.00  0.00    -0.200 A  
HETATM   15  N   UNL     1     -10.596   8.430  70.050  1.00  0.00    -0.232 NA 
HETATM   16  H   UNL     1     -10.980   7.623  70.540  1.00  0.00     0.000 HD 
HETATM   17  C   UNL     1     -10.366   9.666  70.587  1.00  0.00    -0.297 A  
HETATM   18  N   UNL     1      -9.859  10.495  69.701  1.00  0.00    -0.144 NA 
ENDBRANCH   7   9
ENDBRANCH   1   7
TORSDOF 3
ENDMDL
MODEL      205
REMARK 921   NORMALIZED FREE ENERGY PREDICTED BY IDOCK:   -2.55 KCAL/MOL
REMARK 922        TOTAL FREE ENERGY PREDICTED BY IDOCK:   -3.28 KCAL/MOL
REMARK 923 INTER-LIGAND FREE ENERGY PREDICTED BY IDOCK:   -3.32 KCAL/MOL
REMARK 924 INTRA-LIGAND FREE ENERGY PREDICTED BY IDOCK:    0.04 KCAL/MOL
REMARK 927      BINDING AFFINITY PREDICTED BY RF-SCORE:    0.00 PKD
ROOT
HETATM    1  C   UNL     1      -8.942  11.695  67.677  1.00  0.00    -0.166 C  
ENDROOT
BRANCH   1   2
HETATM    2  C   UNL     1      -8.926  10.586  66.682  1.00  0.00    -0.141 A  
HETATM    3  O   UNL     1      -8.844  10.940  65.364  1.00  0.00    -0.193 OA 
HETATM    4  C   UNL     1      -8.947   9.211  66.798  1.00  0.00    -0.152 A  
HETATM    5  C   UNL     1      -8.787   9.787  64.648  1.00  0.00    -0.212 A  
HETATM    6  C   UNL     1      -8.848   8.696  65.483  1.00  0.00    -0.220 A  
ENDBRANCH   1   2
BRANCH   1   7
HETATM    7  N   UNL     1     -10.107  11.743  68.553  1.00  0.00    -0.210 NA 
HETATM    8  H   UNL     1     -10.402  10.921  69.080  1.00  0.00     0.000 HD 
BRANCH   7   9
HETATM    9  C   UNL     1     -10.800  12.940  68.646  1.00  0.00    -0.258 A  
HETATM   10  C   UNL     1     -11.920  14.597  69.839  1.00  0.00    -0.329 A  
HETATM   11  N   UNL     1     -12.129  15.443  68.824  1.00  0.00    -0.232 NA 
HETATM   12  N   UNL     1     -11.292  13.398  69.818  1.00  0.00    -0.145 NA 
HETATM   13  C   UNL     1     -11.620  14.986  67.668  1.00  0.00    -0.312 A  
HETATM   14  C   UNL     1     -10.976  13.768  67.549  1.00  0.00    -0.272 A  
HETATM   15  N   UNL     1     -10.605  13.707  66.233  1.00  0.00    -0.286 NA 
HETATM   16  H   UNL     1     -10.103  12.941  65.785  1.00  0.00     0.000 HD 
HETATM   17  C   UNL     1     -11.029  14.857  65.626  1.00  0.00    -0.344 A  
HETATM   18  N   UNL     1     -11.654  15.649  66.469  1.00  0.00     0.155 NA 
ENDBRANCH   7   9
ENDBRANCH   1   7
TORSDOF 3
ENDMDL
MODEL      206
REMARK 921   NORMALIZED FREE ENERGY PREDICTED BY IDOCK:   -2.54 KCAL/MOL
REMARK 922        TOTAL FREE ENERGY PREDICTED BY IDOCK:   -3.27 KCAL/MOL
REMARK 923 INTER-LIGAND FREE ENERGY PREDICTED BY IDOCK:   -3.01 KCAL/MOL
REMARK 924 INTRA-LIGAND FREE ENERGY PREDICTED BY IDOCK:   -0.26 KCAL/MOL
REMARK 927      BINDING AFFINITY PREDICTED BY RF-SCORE:    0.00 PKD
ROOT
HETATM    1  C   UNL     1      -9.746   9.532  70.161  1.00  0.00    -0.246 C  
ENDROOT
BRANCH   1   2
HETATM    2  C   UNL     1     -11.103   9.892  70.664  1.00  0.00    -0.340 A  
HETATM    3  O   UNL     1     -11.631   9.093  71.639  1.00  0.00    -0.330 OA 
HETATM    4  C   UNL     1     -11.978  10.917  70.372  1.00  0.00    -0.453 A  
HETATM    5  C   UNL     1     -12.830   9.630  71.984  1.00  0.00    -0.410 A  
HETATM    6  C   UNL     1     -13.090  10.752  71.233  1.00  0.00    -0.427 A  
ENDBRANCH   1   2
BRANCH   1   7
HETATM    7  N   UNL     1      -9.227   8.245  70.607  1.00  0.00    -0.149 NA 
HETATM    8  H   UNL     1      -9.839   7.434  70.699  1.00  0.00     0.000 HD 
BRANCH   7   9
HETATM    9  C   UNL     1      -7.875   8.158  70.904  1.00  0.00    -0.091 A  
HETATM   10  C   UNL     1      -5.788   9.090  71.346  1.00  0.00    -0.059 A  
HETATM   11  N   UNL     1      -5.132   7.954  71.609  1.00  0.00    -0.034 NA 
HETATM   12  N   UNL     1      -7.089   9.251  71.011  1.00  0.00    -0.201 NA 
HETATM   13  C   UNL     1      -5.927   6.876  71.517  1.00  0.00    -0.037 A  
HETATM   14  C   UNL     1      -7.263   6.942  71.168  1.00  0.00    -0.076 A  
HETATM   15  N   UNL     1      -7.692   5.643  71.214  1.00  0.00    -0.106 NA 
HETATM   16  H   UNL     1      -8.636   5.315  71.013  1.00  0.00     0.000 HD 
HETATM   17  C   UNL     1      -6.629   4.865  71.578  1.00  0.00    -0.035 A  
HETATM   18  N   UNL     1      -5.543   5.583  71.762  1.00  0.00    -0.016 NA 
ENDBRANCH   7   9
ENDBRANCH   1   7
TORSDOF 3
ENDMDL
MODEL      207
REMARK 921   NORMALIZED FREE ENERGY PREDICTED BY IDOCK:   -2.48 KCAL/MOL
REMARK 922        TOTAL FREE ENERGY PREDICTED BY IDOCK:   -3.20 KCAL/MOL
REMARK 923 INTER-LIGAND FREE ENERGY PREDICTED BY IDOCK:   -2.62 KCAL/MOL
REMARK 924 INTRA-LIGAND FREE ENERGY PREDICTED BY IDOCK:   -0.58 KCAL/MOL
REMARK 927      BINDING AFFINITY PREDICTED BY RF-SCORE:    0.00 PKD
ROOT
HETATM    1  C   UNL     1      -7.395   5.926  65.387  1.00  0.00    -0.076 C  
ENDROOT
BRANCH   1   2
HETATM    2  C   UNL     1      -8.041   4.757  66.050  1.00  0.00    -0.107 A  
HETATM    3  O   UNL     1      -9.078   5.025  66.899  1.00  0.00    -0.115 OA 
HETATM    4  C   UNL     1      -7.837   3.395  65.974  1.00  0.00    -0.082 A  
HETATM    5  C   UNL     1      -9.547   3.829  67.339  1.00  0.00    -0.161 A  
HETATM    6  C   UNL     1      -8.816   2.796  66.800  1.00  0.00    -0.154 A  
ENDBRANCH   1   2
BRANCH   1   7
HETATM    7  N   UNL     1      -8.257   6.713  64.513  1.00  0.00    -0.288 NA 
HETATM    8  H   UNL     1      -8.671   6.305  63.675  1.00  0.00     0.000 HD 
BRANCH   7   9
HETATM    9  C   UNL     1      -8.495   8.036  64.856  1.00  0.00    -0.048 A  
HETATM   10  C   UNL     1      -8.233  10.331  64.564  1.00  0.00    -0.158 A  
HETATM   11  N   UNL     1      -9.080  10.735  65.517  1.00  0.00    -0.193 NA 
HETATM   12  N   UNL     1      -7.918   9.066  64.201  1.00  0.00    -0.136 NA 
HETATM   13  C   UNL     1      -9.662   9.703  66.150  1.00  0.00    -0.252 A  
HETATM   14  C   UNL     1      -9.391   8.379  65.856  1.00  0.00    -0.136 A  
HETATM   15  N   UNL     1     -10.200   7.670  66.704  1.00  0.00    -0.448 NA 
HETATM   16  H   UNL     1     -10.264   6.655  66.763  1.00  0.00     0.000 HD 
HETATM   17  C   UNL     1     -10.906   8.568  67.455  1.00  0.00    -0.016 A  
HETATM   18  N   UNL     1     -10.597   9.809  67.147  1.00  0.00    -0.248 NA 
ENDBRANCH   7   9
ENDBRANCH   1   7
TORSDOF 3
ENDMDL
MODEL      208
REMARK 921   NORMALIZED FREE ENERGY PREDICTED BY IDOCK:   -2.48 KCAL/MOL
REMARK 922        TOTAL FREE ENERGY PREDICTED BY IDOCK:   -3.20 KCAL/MOL
REMARK 923 INTER-LIGAND FREE ENERGY PREDICTED BY IDOCK:   -2.87 KCAL/MOL
REMARK 924 INTRA-LIGAND FREE ENERGY PREDICTED BY IDOCK:   -0.33 KCAL/MOL
REMARK 927      BINDING AFFINITY PREDICTED BY RF-SCORE:    0.00 PKD
ROOT
HETATM    1  C   UNL     1      -9.459   6.496  68.401  1.00  0.00    -0.120 C  
ENDROOT
BRANCH   1   2
HETATM    2  C   UNL     1      -9.978   7.824  67.964  1.00  0.00    -0.175 A  
HETATM    3  O   UNL     1     -10.264   8.729  68.948  1.00  0.00    -0.197 OA 
HETATM    4  C   UNL     1     -10.220   8.384  66.727  1.00  0.00    -0.376 A  
HETATM    5  C   UNL     1     -10.661   9.871  68.331  1.00  0.00    -0.232 A  
HETATM    6  C   UNL     1     -10.653   9.710  66.965  1.00  0.00    -0.267 A  
ENDBRANCH   1   2
BRANCH   1   7
HETATM    7  N   UNL     1     -10.341   5.361  68.156  1.00  0.00    -0.168 NA 
HETATM    8  H   UNL     1     -11.138   5.173  68.764  1.00  0.00     0.000 HD 
BRANCH   7   9
HETATM    9  C   UNL     1     -10.061   4.545  67.071  1.00  0.00    -0.138 A  
HETATM   10  C   UNL     1     -10.186   3.985  64.814  1.00  0.00    -0.212 A  
HETATM   11  N   UNL     1      -9.390   2.911  64.847  1.00  0.00    -0.148 NA 
HETATM   12  N   UNL     1     -10.538   4.803  65.834  1.00  0.00    -0.301 NA 
HETATM   13  C   UNL     1      -8.907   2.675  66.078  1.00  0.00    -0.136 A  
HETATM   14  C   UNL     1      -9.222   3.447  67.181  1.00  0.00    -0.191 A  
HETATM   15  N   UNL     1      -8.514   2.881  68.206  1.00  0.00    -0.077 NA 
HETATM   16  H   UNL     1      -8.505   3.196  69.176  1.00  0.00     0.000 HD 
HETATM   17  C   UNL     1      -7.819   1.820  67.697  1.00  0.00    -0.059 A  
HETATM   18  N   UNL     1      -8.042   1.665  66.411  1.00  0.00    -0.073 NA 
ENDBRANCH   7   9
ENDBRANCH   1   7
TORSDOF 3
ENDMDL
MODEL      209
REMARK 921   NORMALIZED FREE ENERGY PREDICTED BY IDOCK:   -2.44 KCAL/MOL
REMARK 922        TOTAL FREE ENERGY PREDICTED BY IDOCK:   -3.15 KCAL/MOL
REMARK 923 INTER-LIGAND FREE ENERGY PREDICTED BY IDOCK:   -2.86 KCAL/MOL
REMARK 924 INTRA-LIGAND FREE ENERGY PREDICTED BY IDOCK:   -0.29 KCAL/MOL
REMARK 927      BINDING AFFINITY PREDICTED BY RF-SCORE:    0.00 PKD
ROOT
HETATM    1  C   UNL     1      -7.853   6.809  70.746  1.00  0.00    -0.101 C  
ENDROOT
BRANCH   1   2
HETATM    2  C   UNL     1      -9.046   6.178  71.380  1.00  0.00    -0.143 A  
HETATM    3  O   UNL     1     -10.158   6.961  71.518  1.00  0.00    -0.185 OA 
HETATM    4  C   UNL     1      -9.304   4.910  71.857  1.00  0.00    -0.180 A  
HETATM    5  C   UNL     1     -11.128   6.178  72.057  1.00  0.00    -0.274 A  
HETATM    6  C   UNL     1     -10.652   4.908  72.286  1.00  0.00    -0.251 A  
ENDBRANCH   1   2
BRANCH   1   7
HETATM    7  N   UNL     1      -7.609   6.446  69.355  1.00  0.00    -0.093 NA 
HETATM    8  H   UNL     1      -6.666   6.248  69.021  1.00  0.00     0.000 HD 
BRANCH   7   9
HETATM    9  C   UNL     1      -8.699   6.376  68.502  1.00  0.00    -0.121 A  
HETATM   10  C   UNL     1     -10.360   5.217  67.354  1.00  0.00    -0.149 A  
HETATM   11  N   UNL     1     -10.993   6.273  66.831  1.00  0.00    -0.365 NA 
HETATM   12  N   UNL     1      -9.271   5.203  68.157  1.00  0.00    -0.113 NA 
HETATM   13  C   UNL     1     -10.427   7.436  67.195  1.00  0.00    -0.333 A  
HETATM   14  C   UNL     1      -9.306   7.517  68.000  1.00  0.00    -0.139 A  
HETATM   15  N   UNL     1      -9.082   8.861  68.136  1.00  0.00    -0.140 NA 
HETATM   16  H   UNL     1      -8.330   9.293  68.671  1.00  0.00     0.000 HD 
HETATM   17  C   UNL     1     -10.049   9.519  67.428  1.00  0.00    -0.208 A  
HETATM   18  N   UNL     1     -10.875   8.682  66.840  1.00  0.00    -0.069 NA 
ENDBRANCH   7   9
ENDBRANCH   1   7
TORSDOF 3
ENDMDL
MODEL      210
REMARK 921   NORMALIZED FREE ENERGY PREDICTED BY IDOCK:   -2.42 KCAL/MOL
REMARK 922        TOTAL FREE ENERGY PREDICTED BY IDOCK:   -3.13 KCAL/MOL
REMARK 923 INTER-LIGAND FREE ENERGY PREDICTED BY IDOCK:   -2.83 KCAL/MOL
REMARK 924 INTRA-LIGAND FREE ENERGY PREDICTED BY IDOCK:   -0.30 KCAL/MOL
REMARK 927      BINDING AFFINITY PREDICTED BY RF-SCORE:    0.00 PKD
ROOT
HETATM    1  C   UNL     1      -8.021   7.012  70.733  1.00  0.00    -0.101 C  
ENDROOT
BRANCH   1   2
HETATM    2  C   UNL     1      -9.271   6.857  71.531  1.00  0.00    -0.151 A  
HETATM    3  O   UNL     1      -9.533   7.825  72.459  1.00  0.00    -0.152 OA 
HETATM    4  C   UNL     1     -10.287   5.925  71.525  1.00  0.00    -0.273 A  
HETATM    5  C   UNL     1     -10.731   7.519  73.022  1.00  0.00    -0.384 A  
HETATM    6  C   UNL     1     -11.235   6.359  72.482  1.00  0.00    -0.307 A  
ENDBRANCH   1   2
BRANCH   1   7
HETATM    7  N   UNL     1      -8.106   6.595  69.338  1.00  0.00    -0.118 NA 
HETATM    8  H   UNL     1      -7.739   5.693  69.035  1.00  0.00     0.000 HD 
BRANCH   7   9
HETATM    9  C   UNL     1      -8.702   7.463  68.436  1.00  0.00    -0.123 A  
HETATM   10  C   UNL     1     -10.462   8.148  67.075  1.00  0.00    -0.326 A  
HETATM   11  N   UNL     1      -9.939   9.310  66.669  1.00  0.00    -0.242 NA 
HETATM   12  N   UNL     1      -9.926   7.233  67.915  1.00  0.00    -0.151 NA 
HETATM   13  C   UNL     1      -8.729   9.538  67.207  1.00  0.00    -0.128 A  
HETATM   14  C   UNL     1      -8.099   8.654  68.064  1.00  0.00    -0.111 A  
HETATM   15  N   UNL     1      -6.921   9.274  68.386  1.00  0.00    -0.067 NA 
HETATM   16  H   UNL     1      -6.199   8.907  69.005  1.00  0.00     0.000 HD 
HETATM   17  C   UNL     1      -6.888  10.473  67.729  1.00  0.00    -0.073 A  
HETATM   18  N   UNL     1      -7.967  10.659  67.001  1.00  0.00    -0.118 NA 
ENDBRANCH   7   9
ENDBRANCH   1   7
TORSDOF 3
ENDMDL
MODEL      211
REMARK 921   NORMALIZED FREE ENERGY PREDICTED BY IDOCK:   -2.38 KCAL/MOL
REMARK 922        TOTAL FREE ENERGY PREDICTED BY IDOCK:   -3.08 KCAL/MOL
REMARK 923 INTER-LIGAND FREE ENERGY PREDICTED BY IDOCK:   -2.80 KCAL/MOL
REMARK 924 INTRA-LIGAND FREE ENERGY PREDICTED BY IDOCK:   -0.27 KCAL/MOL
REMARK 927      BINDING AFFINITY PREDICTED BY RF-SCORE:    0.00 PKD
ROOT
HETATM    1  C   UNL     1      -7.921   7.220  66.206  1.00  0.00    -0.110 C  
ENDROOT
BRANCH   1   2
HETATM    2  C   UNL     1      -8.713   6.036  65.767  1.00  0.00    -0.151 A  
HETATM    3  O   UNL     1      -9.880   5.793  66.436  1.00  0.00    -0.157 OA 
HETATM    4  C   UNL     1      -8.540   5.099  64.770  1.00  0.00    -0.148 A  
HETATM    5  C   UNL     1     -10.459   4.717  65.842  1.00  0.00    -0.274 A  
HETATM    6  C   UNL     1      -9.673   4.253  64.813  1.00  0.00    -0.170 A  
ENDBRANCH   1   2
BRANCH   1   7
HETATM    7  N   UNL     1      -8.577   8.513  66.052  1.00  0.00    -0.135 NA 
HETATM    8  H   UNL     1      -8.658   8.957  65.138  1.00  0.00     0.000 HD 
BRANCH   7   9
HETATM    9  C   UNL     1      -9.089   9.120  67.189  1.00  0.00    -0.126 A  
HETATM   10  C   UNL     1      -9.692   9.130  69.438  1.00  0.00    -0.170 A  
HETATM   11  N   UNL     1     -10.047  10.417  69.527  1.00  0.00    -0.233 NA 
HETATM   12  N   UNL     1      -9.226   8.460  68.359  1.00  0.00    -0.136 NA 
HETATM   13  C   UNL     1      -9.890  11.069  68.362  1.00  0.00    -0.182 A  
HETATM   14  C   UNL     1      -9.434  10.463  67.207  1.00  0.00    -0.154 A  
HETATM   15  N   UNL     1      -9.404  11.472  66.282  1.00  0.00    -0.208 NA 
HETATM   16  H   UNL     1      -9.114  11.387  65.308  1.00  0.00     0.000 HD 
HETATM   17  C   UNL     1      -9.832  12.615  66.898  1.00  0.00    -0.234 A  
HETATM   18  N   UNL     1     -10.140  12.401  68.159  1.00  0.00    -0.218 NA 
ENDBRANCH   7   9
ENDBRANCH   1   7
TORSDOF 3
ENDMDL
MODEL      212
REMARK 921   NORMALIZED FREE ENERGY PREDICTED BY IDOCK:   -2.37 KCAL/MOL
REMARK 922        TOTAL FREE ENERGY PREDICTED BY IDOCK:   -3.07 KCAL/MOL
REMARK 923 INTER-LIGAND FREE ENERGY PREDICTED BY IDOCK:   -2.79 KCAL/MOL
REMARK 924 INTRA-LIGAND FREE ENERGY PREDICTED BY IDOCK:   -0.27 KCAL/MOL
REMARK 927      BINDING AFFINITY PREDICTED BY RF-SCORE:    0.00 PKD
ROOT
HETATM    1  C   UNL     1      -9.338  13.846  69.046  1.00  0.00     0.188 C  
ENDROOT
BRANCH   1   2
HETATM    2  C   UNL     1      -9.958  15.127  69.490  1.00  0.00    -0.201 A  
HETATM    3  O   UNL     1     -10.942  15.042  70.435  1.00  0.00    -0.246 OA 
HETATM    4  C   UNL     1      -9.731  16.449  69.167  1.00  0.00    -0.260 A  
HETATM    5  C   UNL     1     -11.319  16.313  70.729  1.00  0.00    -0.299 A  
HETATM    6  C   UNL     1     -10.605  17.215  69.975  1.00  0.00     0.304 A  
ENDBRANCH   1   2
BRANCH   1   7
HETATM    7  N   UNL     1     -10.270  12.802  68.635  1.00  0.00    -0.368 NA 
HETATM    8  H   UNL     1     -10.947  12.412  69.291  1.00  0.00     0.000 HD 
BRANCH   7   9
HETATM    9  C   UNL     1     -10.207  12.356  67.323  1.00  0.00    -0.215 A  
HETATM   10  C   UNL     1     -10.446  12.643  65.025  1.00  0.00    -0.308 A  
HETATM   11  N   UNL     1      -9.972  11.452  64.642  1.00  0.00    -0.254 NA 
HETATM   12  N   UNL     1     -10.576  13.131  66.281  1.00  0.00    -0.280 NA 
HETATM   13  C   UNL     1      -9.591  10.697  65.686  1.00  0.00    -0.218 A  
HETATM   14  C   UNL     1      -9.700  11.107  67.001  1.00  0.00    -0.186 A  
HETATM   15  N   UNL     1      -9.187  10.065  67.726  1.00  0.00    -0.134 NA 
HETATM   16  H   UNL     1      -9.108  10.021  68.741  1.00  0.00     0.000 HD 
HETATM   17  C   UNL     1      -8.800   9.094  66.844  1.00  0.00    -0.123 A  
HETATM   18  N   UNL     1      -9.038   9.446  65.600  1.00  0.00    -0.192 NA 
ENDBRANCH   7   9
ENDBRANCH   1   7
TORSDOF 3
ENDMDL
MODEL      213
REMARK 921   NORMALIZED FREE ENERGY PREDICTED BY IDOCK:   -2.28 KCAL/MOL
REMARK 922        TOTAL FREE ENERGY PREDICTED BY IDOCK:   -2.96 KCAL/MOL
REMARK 923 INTER-LIGAND FREE ENERGY PREDICTED BY IDOCK:   -2.73 KCAL/MOL
REMARK 924 INTRA-LIGAND FREE ENERGY PREDICTED BY IDOCK:   -0.23 KCAL/MOL
REMARK 927      BINDING AFFINITY PREDICTED BY RF-SCORE:    0.00 PKD
ROOT
HETATM    1  C   UNL     1      -8.484   5.042  70.679  1.00  0.00    -0.106 C  
ENDROOT
BRANCH   1   2
HETATM    2  C   UNL     1      -8.810   3.793  69.932  1.00  0.00    -0.088 A  
HETATM    3  O   UNL     1      -8.794   2.627  70.644  1.00  0.00    -0.067 OA 
HETATM    4  C   UNL     1      -9.171   3.541  68.625  1.00  0.00    -0.225 A  
HETATM    5  C   UNL     1      -9.171   1.639  69.792  1.00  0.00    -0.098 A  
HETATM    6  C   UNL     1      -9.413   2.149  68.538  1.00  0.00    -0.214 A  
ENDBRANCH   1   2
BRANCH   1   7
HETATM    7  N   UNL     1      -9.402   6.157  70.478  1.00  0.00    -0.160 NA 
HETATM    8  H   UNL     1     -10.401   6.000  70.350  1.00  0.00     0.000 HD 
BRANCH   7   9
HETATM    9  C   UNL     1      -8.872   7.439  70.467  1.00  0.00    -0.148 A  
HETATM   10  C   UNL     1      -7.156   8.974  70.815  1.00  0.00    -0.092 A  
HETATM   11  N   UNL     1      -7.780  10.057  70.339  1.00  0.00    -0.244 NA 
HETATM   12  N   UNL     1      -7.620   7.705  70.897  1.00  0.00    -0.078 NA 
HETATM   13  C   UNL     1      -9.017   9.777  69.897  1.00  0.00    -0.229 A  
HETATM   14  C   UNL     1      -9.578   8.515  69.953  1.00  0.00    -0.171 A  
HETATM   15  N   UNL     1     -10.817   8.668  69.389  1.00  0.00    -0.391 NA 
HETATM   16  H   UNL     1     -11.514   7.935  69.263  1.00  0.00     0.000 HD 
HETATM   17  C   UNL     1     -10.950   9.979  69.026  1.00  0.00    -0.212 A  
HETATM   18  N   UNL     1      -9.878  10.678  69.326  1.00  0.00    -0.208 NA 
ENDBRANCH   7   9
ENDBRANCH   1   7
TORSDOF 3
ENDMDL
MODEL      214
REMARK 921   NORMALIZED FREE ENERGY PREDICTED BY IDOCK:   -2.28 KCAL/MOL
REMARK 922        TOTAL FREE ENERGY PREDICTED BY IDOCK:   -2.95 KCAL/MOL
REMARK 923 INTER-LIGAND FREE ENERGY PREDICTED BY IDOCK:   -2.65 KCAL/MOL
REMARK 924 INTRA-LIGAND FREE ENERGY PREDICTED BY IDOCK:   -0.30 KCAL/MOL
REMARK 927      BINDING AFFINITY PREDICTED BY RF-SCORE:    0.00 PKD
ROOT
HETATM    1  C   UNL     1      -6.504   8.557  67.268  1.00  0.00    -0.058 C  
ENDROOT
BRANCH   1   2
HETATM    2  C   UNL     1      -7.649   7.629  67.039  1.00  0.00    -0.103 A  
HETATM    3  O   UNL     1      -8.304   7.173  68.149  1.00  0.00    -0.122 OA 
HETATM    4  C   UNL     1      -8.244   7.124  65.902  1.00  0.00    -0.132 A  
HETATM    5  C   UNL     1      -9.331   6.400  67.711  1.00  0.00    -0.117 A  
HETATM    6  C   UNL     1      -9.337   6.337  66.338  1.00  0.00    -0.176 A  
ENDBRANCH   1   2
BRANCH   1   7
HETATM    7  N   UNL     1      -6.758   9.961  66.966  1.00  0.00    -0.074 NA 
HETATM    8  H   UNL     1      -6.040  10.545  66.538  1.00  0.00     0.000 HD 
BRANCH   7   9
HETATM    9  C   UNL     1      -8.006  10.476  67.279  1.00  0.00    -0.114 A  
HETATM   10  C   UNL     1      -9.643  11.168  68.783  1.00  0.00    -0.172 A  
HETATM   11  N   UNL     1     -10.529  11.628  67.892  1.00  0.00    -0.187 NA 
HETATM   12  N   UNL     1      -8.429  10.617  68.554  1.00  0.00    -0.128 NA 
HETATM   13  C   UNL     1     -10.090  11.500  66.629  1.00  0.00    -0.210 A  
HETATM   14  C   UNL     1      -8.872  10.937  66.299  1.00  0.00    -0.179 A  
HETATM   15  N   UNL     1      -8.816  11.023  64.934  1.00  0.00    -0.353 NA 
HETATM   16  H   UNL     1      -8.050  10.701  64.343  1.00  0.00     0.000 HD 
HETATM   17  C   UNL     1      -9.970  11.617  64.505  1.00  0.00    -0.253 A  
HETATM   18  N   UNL     1     -10.766  11.912  65.509  1.00  0.00    -0.275 NA 
ENDBRANCH   7   9
ENDBRANCH   1   7
TORSDOF 3
ENDMDL
MODEL      215
REMARK 921   NORMALIZED FREE ENERGY PREDICTED BY IDOCK:   -2.26 KCAL/MOL
REMARK 922        TOTAL FREE ENERGY PREDICTED BY IDOCK:   -2.94 KCAL/MOL
REMARK 923 INTER-LIGAND FREE ENERGY PREDICTED BY IDOCK:   -2.66 KCAL/MOL
REMARK 924 INTRA-LIGAND FREE ENERGY PREDICTED BY IDOCK:   -0.28 KCAL/MOL
REMARK 927      BINDING AFFINITY PREDICTED BY RF-SCORE:    0.00 PKD
ROOT
HETATM    1  C   UNL     1      -7.197   5.899  65.310  1.00  0.00    -0.073 C  
ENDROOT
BRANCH   1   2
HETATM    2  C   UNL     1      -8.161   5.112  66.131  1.00  0.00    -0.109 A  
HETATM    3  O   UNL     1      -8.174   3.759  65.939  1.00  0.00    -0.100 OA 
HETATM    4  C   UNL     1      -9.070   5.455  67.110  1.00  0.00    -0.111 A  
HETATM    5  C   UNL     1      -9.072   3.243  66.817  1.00  0.00    -0.169 A  
HETATM    6  C   UNL     1      -9.652   4.245  67.559  1.00  0.00    -0.217 A  
ENDBRANCH   1   2
BRANCH   1   7
HETATM    7  N   UNL     1      -7.790   6.830  64.358  1.00  0.00    -0.113 NA 
HETATM    8  H   UNL     1      -8.038   6.532  63.414  1.00  0.00     0.000 HD 
BRANCH   7   9
HETATM    9  C   UNL     1      -8.008   8.135  64.775  1.00  0.00    -0.147 A  
HETATM   10  C   UNL     1      -7.780   9.889  66.288  1.00  0.00    -0.105 A  
HETATM   11  N   UNL     1      -8.380  10.838  65.561  1.00  0.00    -0.158 NA 
HETATM   12  N   UNL     1      -7.569   8.592  65.968  1.00  0.00    -0.088 NA 
HETATM   13  C   UNL     1      -8.796  10.377  64.369  1.00  0.00    -0.206 A  
HETATM   14  C   UNL     1      -8.636   9.065  63.963  1.00  0.00    -0.140 A  
HETATM   15  N   UNL     1      -9.171   9.032  62.703  1.00  0.00    -0.513 NA 
HETATM   16  H   UNL     1      -9.224   8.216  62.095  1.00  0.00     0.000 HD 
HETATM   17  C   UNL     1      -9.621  10.289  62.407  1.00  0.00    -0.132 A  
HETATM   18  N   UNL     1      -9.414  11.125  63.401  1.00  0.00    -0.282 NA 
ENDBRANCH   7   9
ENDBRANCH   1   7
TORSDOF 3
ENDMDL
MODEL      216
REMARK 921   NORMALIZED FREE ENERGY PREDICTED BY IDOCK:   -2.23 KCAL/MOL
REMARK 922        TOTAL FREE ENERGY PREDICTED BY IDOCK:   -2.90 KCAL/MOL
REMARK 923 INTER-LIGAND FREE ENERGY PREDICTED BY IDOCK:   -2.71 KCAL/MOL
REMARK 924 INTRA-LIGAND FREE ENERGY PREDICTED BY IDOCK:   -0.19 KCAL/MOL
REMARK 927      BINDING AFFINITY PREDICTED BY RF-SCORE:    0.00 PKD
ROOT
HETATM    1  C   UNL     1      -7.293  12.364  68.926  1.00  0.00    -0.031 C  
ENDROOT
BRANCH   1   2
HETATM    2  C   UNL     1      -6.550  11.211  68.341  1.00  0.00    -0.058 A  
HETATM    3  O   UNL     1      -6.156  11.329  67.038  1.00  0.00    -0.080 OA 
HETATM    4  C   UNL     1      -6.124  10.003  68.853  1.00  0.00    -0.040 A  
HETATM    5  C   UNL     1      -5.456  10.205  66.734  1.00  0.00    -0.045 A  
HETATM    6  C   UNL     1      -5.410   9.358  67.816  1.00  0.00    -0.037 A  
ENDBRANCH   1   2
BRANCH   1   7
HETATM    7  N   UNL     1      -7.728  13.382  67.977  1.00  0.00    -0.131 NA 
HETATM    8  H   UNL     1      -7.436  13.351  67.000  1.00  0.00     0.000 HD 
BRANCH   7   9
HETATM    9  C   UNL     1      -8.551  14.396  68.445  1.00  0.00    -0.174 A  
HETATM   10  C   UNL     1      -9.022  16.625  68.927  1.00  0.00    -0.239 A  
HETATM   11  N   UNL     1     -10.292  16.464  69.314  1.00  0.00    -0.274 NA 
HETATM   12  N   UNL     1      -8.148  15.684  68.499  1.00  0.00    -0.141 NA 
HETATM   13  C   UNL     1     -10.688  15.182  69.239  1.00  0.00    -0.250 A  
HETATM   14  C   UNL     1      -9.861  14.154  68.828  1.00  0.00    -0.167 A  
HETATM   15  N   UNL     1     -10.654  13.039  68.878  1.00  0.00    -0.399 NA 
HETATM   16  H   UNL     1     -10.371  12.089  68.638  1.00  0.00     0.000 HD 
HETATM   17  C   UNL     1     -11.893  13.427  69.306  1.00  0.00    -0.334 A  
HETATM   18  N   UNL     1     -11.943  14.720  69.540  1.00  0.00    -0.308 NA 
ENDBRANCH   7   9
ENDBRANCH   1   7
TORSDOF 3
ENDMDL
MODEL      217
REMARK 921   NORMALIZED FREE ENERGY PREDICTED BY IDOCK:   -2.13 KCAL/MOL
REMARK 922        TOTAL FREE ENERGY PREDICTED BY IDOCK:   -2.78 KCAL/MOL
REMARK 923 INTER-LIGAND FREE ENERGY PREDICTED BY IDOCK:   -2.56 KCAL/MOL
REMARK 924 INTRA-LIGAND FREE ENERGY PREDICTED BY IDOCK:   -0.23 KCAL/MOL
REMARK 927      BINDING AFFINITY PREDICTED BY RF-SCORE:    0.00 PKD
ROOT
HETATM    1  C   UNL     1      -7.809   6.543  64.833  1.00  0.00    -0.114 C  
ENDROOT
BRANCH   1   2
HETATM    2  C   UNL     1      -8.557   5.254  64.770  1.00  0.00    -0.136 A  
HETATM    3  O   UNL     1      -8.762   4.602  65.954  1.00  0.00    -0.118 OA 
HETATM    4  C   UNL     1      -9.142   4.550  63.739  1.00  0.00    -0.113 A  
HETATM    5  C   UNL     1      -9.501   3.498  65.674  1.00  0.00    -0.142 A  
HETATM    6  C   UNL     1      -9.760   3.420  64.325  1.00  0.00    -0.166 A  
ENDBRANCH   1   2
BRANCH   1   7
HETATM    7  N   UNL     1      -8.543   7.722  64.388  1.00  0.00    -0.367 NA 
HETATM    8  H   UNL     1      -8.954   7.765  63.456  1.00  0.00     0.000 HD 
BRANCH   7   9
HETATM    9  C   UNL     1      -8.665   8.783  65.273  1.00  0.00    -0.182 A  
HETATM   10  C   UNL     1      -9.827  10.041  66.850  1.00  0.00    -0.197 A  
HETATM   11  N   UNL     1      -8.850  10.904  67.151  1.00  0.00    -0.135 NA 
HETATM   12  N   UNL     1      -9.797   9.012  65.972  1.00  0.00    -0.276 NA 
HETATM   13  C   UNL     1      -7.723  10.656  66.464  1.00  0.00    -0.137 A  
HETATM   14  C   UNL     1      -7.606   9.637  65.537  1.00  0.00    -0.109 A  
HETATM   15  N   UNL     1      -6.312   9.724  65.097  1.00  0.00    -0.087 NA 
HETATM   16  H   UNL     1      -5.872   9.121  64.403  1.00  0.00     0.000 HD 
HETATM   17  C   UNL     1      -5.717  10.764  65.756  1.00  0.00    -0.144 A  
HETATM   18  N   UNL     1      -6.549  11.353  66.586  1.00  0.00    -0.134 NA 
ENDBRANCH   7   9
ENDBRANCH   1   7
TORSDOF 3
ENDMDL
MODEL      218
REMARK 921   NORMALIZED FREE ENERGY PREDICTED BY IDOCK:    2.82 KCAL/MOL
REMARK 922        TOTAL FREE ENERGY PREDICTED BY IDOCK:    3.04 KCAL/MOL
REMARK 923 INTER-LIGAND FREE ENERGY PREDICTED BY IDOCK:    3.36 KCAL/MOL
REMARK 924 INTRA-LIGAND FREE ENERGY PREDICTED BY IDOCK:   -0.33 KCAL/MOL
REMARK 927      BINDING AFFINITY PREDICTED BY RF-SCORE:    0.00 PKD
ROOT
HETATM    1  C   UNL     1      -6.779  15.158  70.186  1.00  0.00    -0.072 C  
ENDROOT
BRANCH   1   2
HETATM    2  C   UNL     1      -8.211  14.888  69.871  1.00  0.00     0.282 A  
HETATM    3  O   UNL     1      -8.489  14.418  68.618  1.00  0.00    -0.162 OA 
HETATM    4  C   UNL     1      -9.375  14.982  70.606  1.00  0.00     1.391 A  
HETATM    5  C   UNL     1      -9.827  14.189  68.570  1.00  0.00    -0.230 A  
HETATM    6  C   UNL     1     -10.417  14.522  69.766  1.00  0.00     0.049 A  
ENDBRANCH   1   2
BRANCH   1   7
HETATM    7  N   UNL     1      -6.180  16.288  69.485  1.00  0.00    -0.176 NA 
HETATM    8  H   UNL     1      -5.673  16.156  68.611  1.00  0.00     0.000 HD 
BRANCH   7   9
HETATM    9  C   UNL     1      -6.323  17.549  70.046  1.00  0.00     0.081 A  
HETATM   10  C   UNL     1      -6.490  19.003  71.856  1.00  0.00     1.681 A  
HETATM   11  N   UNL     1      -6.514  20.150  71.169  1.00  0.00    -0.338 NA 
HETATM   12  N   UNL     1      -6.395  17.740  71.380  1.00  0.00     2.031 NA 
HETATM   13  C   UNL     1      -6.422  19.950  69.843  1.00  0.00    -0.337 A  
HETATM   14  C   UNL     1      -6.336  18.696  69.267  1.00  0.00    -0.265 A  
HETATM   15  N   UNL     1      -6.241  18.944  67.925  1.00  0.00    -0.198 NA 
HETATM   16  H   UNL     1      -6.160  18.244  67.188  1.00  0.00     0.000 HD 
HETATM   17  C   UNL     1      -6.272  20.299  67.748  1.00  0.00    -0.234 A  
HETATM   18  N   UNL     1      -6.389  20.936  68.892  1.00  0.00    -0.141 NA 
ENDBRANCH   7   9
ENDBRANCH   1   7
TORSDOF 3
ENDMDL
