MODEL        1
REMARK 921   NORMALIZED FREE ENERGY PREDICTED BY IDOCK:   -5.06 KCAL/MOL
REMARK 922        TOTAL FREE ENERGY PREDICTED BY IDOCK:   -6.06 KCAL/MOL
REMARK 923 INTER-LIGAND FREE ENERGY PREDICTED BY IDOCK:   -5.95 KCAL/MOL
REMARK 924 INTRA-LIGAND FREE ENERGY PREDICTED BY IDOCK:   -0.11 KCAL/MOL
REMARK 927      BINDING AFFINITY PREDICTED BY RF-SCORE:    0.00 PKD
ROOT
ATOM      1  N   GLN A   1     -11.500  16.367  63.847  1.00  0.00    -1.618 NA 
ATOM      2  H1  GLN A   1     -11.993  17.248  63.994  1.00  0.00     0.000 HD 
ATOM      3  H2  GLN A   1     -11.997  15.749  63.205  1.00  0.00     0.000 HD 
ATOM      4  CA  GLN A   1     -11.237  15.715  65.172  1.00  0.00    -0.282 C  
ATOM      5  O   GLN A   1     -10.295  17.906  65.411  1.00  0.00    -0.580 OA 
ATOM      6  C   GLN A   1     -10.444  16.713  66.043  1.00  0.00    -0.298 C  
ATOM      7  OXT GLN A   1     -10.022  16.499  67.168  1.00  0.00    -0.254 OA 
ENDROOT
BRANCH   4   8
ATOM      8  CB  GLN A   1     -10.498  14.393  64.952  1.00  0.00    -0.448 C  
BRANCH   8   9
ATOM      9  CG  GLN A   1     -11.410  13.166  64.975  1.00  0.00    -0.325 C  
BRANCH   9  10
ATOM     10  CD  GLN A   1     -12.112  12.962  63.650  1.00  0.00    -0.535 C  
ATOM     11  NE2 GLN A   1     -12.145  11.664  63.234  1.00  0.00    -0.914 N  
ATOM     12  OE1 GLN A   1     -12.617  13.859  62.985  1.00  0.00    -0.694 OA 
ATOM     13 1HE2 GLN A   1     -12.618  11.528  62.341  1.00  0.00     0.000 HD 
ATOM     14 2HE2 GLN A   1     -11.734  10.899  63.768  1.00  0.00     0.000 HD 
ENDBRANCH   9  10
ENDBRANCH   8   9
ENDBRANCH   4   8
TORSDOF 3
ENDMDL
MODEL        2
REMARK 921   NORMALIZED FREE ENERGY PREDICTED BY IDOCK:   -4.84 KCAL/MOL
REMARK 922        TOTAL FREE ENERGY PREDICTED BY IDOCK:   -5.80 KCAL/MOL
REMARK 923 INTER-LIGAND FREE ENERGY PREDICTED BY IDOCK:   -5.50 KCAL/MOL
REMARK 924 INTRA-LIGAND FREE ENERGY PREDICTED BY IDOCK:   -0.30 KCAL/MOL
REMARK 927      BINDING AFFINITY PREDICTED BY RF-SCORE:    0.00 PKD
ROOT
ATOM      1  N   GLN A   1     -12.341  14.791  63.979  1.00  0.00    -1.010 NA 
ATOM      2  H1  GLN A   1     -13.044  15.495  64.204  1.00  0.00     0.000 HD 
ATOM      3  H2  GLN A   1     -12.755  13.876  63.799  1.00  0.00     0.000 HD 
ATOM      4  CA  GLN A   1     -11.314  14.744  65.073  1.00  0.00    -0.391 C  
ATOM      5  O   GLN A   1     -11.351  17.049  64.416  1.00  0.00    -1.140 OA 
ATOM      6  C   GLN A   1     -10.722  16.161  65.228  1.00  0.00    -0.368 C  
ATOM      7  OXT GLN A   1      -9.828  16.480  65.996  1.00  0.00    -0.309 OA 
ENDROOT
BRANCH   4   8
ATOM      8  CB  GLN A   1     -10.260  13.687  64.736  1.00  0.00    -0.363 C  
BRANCH   8   9
ATOM      9  CG  GLN A   1     -10.683  12.260  65.087  1.00  0.00    -0.330 C  
BRANCH   9  10
ATOM     10  CD  GLN A   1     -10.745  11.374  63.863  1.00  0.00    -0.397 C  
ATOM     11  NE2 GLN A   1     -11.832  11.597  63.071  1.00  0.00    -0.877 N  
ATOM     12  OE1 GLN A   1      -9.911  10.523  63.577  1.00  0.00    -0.317 OA 
ATOM     13 1HE2 GLN A   1     -11.874  10.999  62.246  1.00  0.00     0.000 HD 
ATOM     14 2HE2 GLN A   1     -12.540  12.299  63.285  1.00  0.00     0.000 HD 
ENDBRANCH   9  10
ENDBRANCH   8   9
ENDBRANCH   4   8
TORSDOF 3
ENDMDL
MODEL        3
REMARK 921   NORMALIZED FREE ENERGY PREDICTED BY IDOCK:   -4.82 KCAL/MOL
REMARK 922        TOTAL FREE ENERGY PREDICTED BY IDOCK:   -5.77 KCAL/MOL
REMARK 923 INTER-LIGAND FREE ENERGY PREDICTED BY IDOCK:   -5.63 KCAL/MOL
REMARK 924 INTRA-LIGAND FREE ENERGY PREDICTED BY IDOCK:   -0.14 KCAL/MOL
REMARK 927      BINDING AFFINITY PREDICTED BY RF-SCORE:    0.00 PKD
ROOT
ATOM      1  N   GLN A   1      -9.982  15.028  66.605  1.00  0.00    -0.249 NA 
ATOM      2  H1  GLN A   1      -9.117  15.512  66.365  1.00  0.00     0.000 HD 
ATOM      3  H2  GLN A   1      -9.810  14.125  67.046  1.00  0.00     0.000 HD 
ATOM      4  CA  GLN A   1     -10.842  14.906  65.381  1.00  0.00    -0.369 C  
ATOM      5  O   GLN A   1     -10.379  17.254  65.528  1.00  0.00    -0.614 OA 
ATOM      6  C   GLN A   1     -11.078  16.327  64.824  1.00  0.00    -0.281 C  
ATOM      7  OXT GLN A   1     -11.770  16.607  63.858  1.00  0.00    -1.153 OA 
ENDROOT
BRANCH   4   8
ATOM      8  CB  GLN A   1     -12.140  14.180  65.740  1.00  0.00    -0.433 C  
BRANCH   8   9
ATOM      9  CG  GLN A   1     -12.235  12.767  65.162  1.00  0.00    -0.530 C  
BRANCH   9  10
ATOM     10  CD  GLN A   1     -12.141  12.768  63.653  1.00  0.00    -0.543 C  
ATOM     11  NE2 GLN A   1     -11.443  11.715  63.139  1.00  0.00    -0.841 N  
ATOM     12  OE1 GLN A   1     -12.636  13.621  62.925  1.00  0.00    -0.621 OA 
ATOM     13 1HE2 GLN A   1     -11.380  11.716  62.122  1.00  0.00     0.000 HD 
ATOM     14 2HE2 GLN A   1     -11.022  10.992  63.722  1.00  0.00     0.000 HD 
ENDBRANCH   9  10
ENDBRANCH   8   9
ENDBRANCH   4   8
TORSDOF 3
ENDMDL
MODEL        4
REMARK 921   NORMALIZED FREE ENERGY PREDICTED BY IDOCK:   -4.77 KCAL/MOL
REMARK 922        TOTAL FREE ENERGY PREDICTED BY IDOCK:   -5.71 KCAL/MOL
REMARK 923 INTER-LIGAND FREE ENERGY PREDICTED BY IDOCK:   -5.37 KCAL/MOL
REMARK 924 INTRA-LIGAND FREE ENERGY PREDICTED BY IDOCK:   -0.35 KCAL/MOL
REMARK 927      BINDING AFFINITY PREDICTED BY RF-SCORE:    0.00 PKD
ROOT
ATOM      1  N   GLN A   1     -12.289  13.999  63.233  1.00  0.00    -1.145 NA 
ATOM      2  H1  GLN A   1     -12.934  13.364  62.762  1.00  0.00     0.000 HD 
ATOM      3  H2  GLN A   1     -11.796  14.606  62.578  1.00  0.00     0.000 HD 
ATOM      4  CA  GLN A   1     -11.346  13.205  64.090  1.00  0.00    -0.398 C  
ATOM      5  O   GLN A   1     -13.518  12.503  64.822  1.00  0.00    -0.645 OA 
ATOM      6  C   GLN A   1     -12.191  12.363  65.070  1.00  0.00    -0.399 C  
ATOM      7  OXT GLN A   1     -11.751  11.631  65.943  1.00  0.00    -0.348 OA 
ENDROOT
BRANCH   4   8
ATOM      8  CB  GLN A   1     -10.378  14.156  64.797  1.00  0.00    -0.387 C  
BRANCH   8   9
ATOM      9  CG  GLN A   1     -11.065  15.152  65.732  1.00  0.00    -0.330 C  
BRANCH   9  10
ATOM     10  CD  GLN A   1     -11.004  16.564  65.192  1.00  0.00    -0.191 C  
ATOM     11  NE2 GLN A   1     -10.398  17.452  66.031  1.00  0.00    -0.349 N  
ATOM     12  OE1 GLN A   1     -11.448  16.914  64.105  1.00  0.00    -1.174 OA 
ATOM     13 1HE2 GLN A   1     -10.357  18.404  65.667  1.00  0.00     0.000 HD 
ATOM     14 2HE2 GLN A   1     -10.020  17.188  66.940  1.00  0.00     0.000 HD 
ENDBRANCH   9  10
ENDBRANCH   8   9
ENDBRANCH   4   8
TORSDOF 3
ENDMDL
MODEL        5
REMARK 921   NORMALIZED FREE ENERGY PREDICTED BY IDOCK:   -4.73 KCAL/MOL
REMARK 922        TOTAL FREE ENERGY PREDICTED BY IDOCK:   -5.67 KCAL/MOL
REMARK 923 INTER-LIGAND FREE ENERGY PREDICTED BY IDOCK:   -5.40 KCAL/MOL
REMARK 924 INTRA-LIGAND FREE ENERGY PREDICTED BY IDOCK:   -0.27 KCAL/MOL
REMARK 927      BINDING AFFINITY PREDICTED BY RF-SCORE:    0.00 PKD
ROOT
ATOM      1  N   GLN A   1     -11.650  16.424  63.839  1.00  0.00    -1.602 NA 
ATOM      2  H1  GLN A   1     -11.679  16.064  62.885  1.00  0.00     0.000 HD 
ATOM      3  H2  GLN A   1     -11.255  17.364  63.885  1.00  0.00     0.000 HD 
ATOM      4  CA  GLN A   1     -10.913  15.455  64.717  1.00  0.00    -0.393 C  
ATOM      5  O   GLN A   1     -12.625  14.122  63.698  1.00  0.00    -0.831 OA 
ATOM      6  C   GLN A   1     -11.619  14.086  64.609  1.00  0.00    -0.392 C  
ATOM      7  OXT GLN A   1     -11.312  13.077  65.223  1.00  0.00    -0.289 OA 
ENDROOT
BRANCH   4   8
ATOM      8  CB  GLN A   1     -10.869  15.995  66.148  1.00  0.00    -0.179 C  
BRANCH   8   9
ATOM      9  CG  GLN A   1      -9.837  17.105  66.356  1.00  0.00    -0.312 C  
BRANCH   9  10
ATOM     10  CD  GLN A   1     -10.471  18.478  66.317  1.00  0.00    -0.406 C  
ATOM     11  NE2 GLN A   1     -10.585  19.072  67.538  1.00  0.00    -0.454 N  
ATOM     12  OE1 GLN A   1     -10.859  19.036  65.297  1.00  0.00    -0.540 OA 
ATOM     13 1HE2 GLN A   1     -11.013  19.997  67.512  1.00  0.00     0.000 HD 
ATOM     14 2HE2 GLN A   1     -10.270  18.630  68.402  1.00  0.00     0.000 HD 
ENDBRANCH   9  10
ENDBRANCH   8   9
ENDBRANCH   4   8
TORSDOF 3
ENDMDL
MODEL        6
REMARK 921   NORMALIZED FREE ENERGY PREDICTED BY IDOCK:   -4.67 KCAL/MOL
REMARK 922        TOTAL FREE ENERGY PREDICTED BY IDOCK:   -5.60 KCAL/MOL
REMARK 923 INTER-LIGAND FREE ENERGY PREDICTED BY IDOCK:   -5.47 KCAL/MOL
REMARK 924 INTRA-LIGAND FREE ENERGY PREDICTED BY IDOCK:   -0.13 KCAL/MOL
REMARK 927      BINDING AFFINITY PREDICTED BY RF-SCORE:    0.00 PKD
ROOT
ATOM      1  N   GLN A   1     -11.570  16.021  63.842  1.00  0.00    -1.314 NA 
ATOM      2  H1  GLN A   1     -12.162  16.847  63.937  1.00  0.00     0.000 HD 
ATOM      3  H2  GLN A   1     -11.997  15.305  63.254  1.00  0.00     0.000 HD 
ATOM      4  CA  GLN A   1     -11.218  15.500  65.205  1.00  0.00    -0.318 C  
ATOM      5  O   GLN A   1     -10.539  17.798  65.274  1.00  0.00    -0.651 OA 
ATOM      6  C   GLN A   1     -10.540  16.644  65.989  1.00  0.00    -0.233 C  
ATOM      7  OXT GLN A   1     -10.085  16.561  67.119  1.00  0.00    -0.261 OA 
ENDROOT
BRANCH   4   8
ATOM      8  CB  GLN A   1     -10.331  14.262  65.064  1.00  0.00    -0.448 C  
BRANCH   8   9
ATOM      9  CG  GLN A   1     -10.882  13.217  64.093  1.00  0.00    -0.407 C  
BRANCH   9  10
ATOM     10  CD  GLN A   1     -12.109  12.526  64.645  1.00  0.00    -0.428 C  
ATOM     11  NE2 GLN A   1     -13.032  12.194  63.698  1.00  0.00    -0.790 N  
ATOM     12  OE1 GLN A   1     -12.290  12.272  65.829  1.00  0.00    -0.622 OA 
ATOM     13 1HE2 GLN A   1     -13.859  11.729  64.071  1.00  0.00     0.000 HD 
ATOM     14 2HE2 GLN A   1     -12.906  12.394  62.706  1.00  0.00     0.000 HD 
ENDBRANCH   9  10
ENDBRANCH   8   9
ENDBRANCH   4   8
TORSDOF 3
ENDMDL
MODEL        7
REMARK 921   NORMALIZED FREE ENERGY PREDICTED BY IDOCK:   -4.63 KCAL/MOL
REMARK 922        TOTAL FREE ENERGY PREDICTED BY IDOCK:   -5.56 KCAL/MOL
REMARK 923 INTER-LIGAND FREE ENERGY PREDICTED BY IDOCK:   -5.24 KCAL/MOL
REMARK 924 INTRA-LIGAND FREE ENERGY PREDICTED BY IDOCK:   -0.31 KCAL/MOL
REMARK 927      BINDING AFFINITY PREDICTED BY RF-SCORE:    0.00 PKD
ROOT
ATOM      1  N   GLN A   1     -12.507  14.193  63.305  1.00  0.00    -1.098 NA 
ATOM      2  H1  GLN A   1     -13.253  14.882  63.405  1.00  0.00     0.000 HD 
ATOM      3  H2  GLN A   1     -12.866  13.263  63.087  1.00  0.00     0.000 HD 
ATOM      4  CA  GLN A   1     -11.655  14.196  64.541  1.00  0.00    -0.389 C  
ATOM      5  O   GLN A   1     -11.649  16.486  63.830  1.00  0.00    -1.175 OA 
ATOM      6  C   GLN A   1     -11.128  15.633  64.749  1.00  0.00    -0.412 C  
ATOM      7  OXT GLN A   1     -10.368  15.991  65.635  1.00  0.00    -0.352 OA 
ENDROOT
BRANCH   4   8
ATOM      8  CB  GLN A   1     -10.537  13.163  64.391  1.00  0.00    -0.441 C  
BRANCH   8   9
ATOM      9  CG  GLN A   1     -10.628  12.008  65.389  1.00  0.00    -0.319 C  
BRANCH   9  10
ATOM     10  CD  GLN A   1     -10.968  12.491  66.781  1.00  0.00    -0.265 C  
ATOM     11  NE2 GLN A   1     -10.015  13.292  67.338  1.00  0.00    -0.230 N  
ATOM     12  OE1 GLN A   1     -11.996  12.209  67.384  1.00  0.00    -0.563 OA 
ATOM     13 1HE2 GLN A   1     -10.245  13.618  68.277  1.00  0.00     0.000 HD 
ATOM     14 2HE2 GLN A   1      -9.151  13.543  66.858  1.00  0.00     0.000 HD 
ENDBRANCH   9  10
ENDBRANCH   8   9
ENDBRANCH   4   8
TORSDOF 3
ENDMDL
MODEL        8
REMARK 921   NORMALIZED FREE ENERGY PREDICTED BY IDOCK:   -4.63 KCAL/MOL
REMARK 922        TOTAL FREE ENERGY PREDICTED BY IDOCK:   -5.55 KCAL/MOL
REMARK 923 INTER-LIGAND FREE ENERGY PREDICTED BY IDOCK:   -5.19 KCAL/MOL
REMARK 924 INTRA-LIGAND FREE ENERGY PREDICTED BY IDOCK:   -0.36 KCAL/MOL
REMARK 927      BINDING AFFINITY PREDICTED BY RF-SCORE:    0.00 PKD
ROOT
ATOM      1  N   GLN A   1     -10.224  14.071  64.365  1.00  0.00    -0.711 NA 
ATOM      2  H1  GLN A   1     -10.331  14.701  63.570  1.00  0.00     0.000 HD 
ATOM      3  H2  GLN A   1      -9.262  14.034  64.702  1.00  0.00     0.000 HD 
ATOM      4  CA  GLN A   1     -10.749  12.713  64.000  1.00  0.00    -0.425 C  
ATOM      5  O   GLN A   1     -12.580  14.186  63.525  1.00  0.00    -0.834 OA 
ATOM      6  C   GLN A   1     -12.218  12.878  63.552  1.00  0.00    -0.512 C  
ATOM      7  OXT GLN A   1     -12.969  11.973  63.226  1.00  0.00    -0.736 OA 
ENDROOT
BRANCH   4   8
ATOM      8  CB  GLN A   1     -10.589  11.767  65.192  1.00  0.00    -0.332 C  
BRANCH   8   9
ATOM      9  CG  GLN A   1     -10.389  12.487  66.527  1.00  0.00    -0.254 C  
BRANCH   9  10
ATOM     10  CD  GLN A   1     -11.689  12.639  67.285  1.00  0.00    -0.370 C  
ATOM     11  NE2 GLN A   1     -12.336  13.815  67.047  1.00  0.00    -0.441 N  
ATOM     12  OE1 GLN A   1     -12.150  11.802  68.052  1.00  0.00    -0.572 OA 
ATOM     13 1HE2 GLN A   1     -13.212  13.918  67.558  1.00  0.00     0.000 HD 
ATOM     14 2HE2 GLN A   1     -11.975  14.529  66.413  1.00  0.00     0.000 HD 
ENDBRANCH   9  10
ENDBRANCH   8   9
ENDBRANCH   4   8
TORSDOF 3
ENDMDL
MODEL        9
REMARK 921   NORMALIZED FREE ENERGY PREDICTED BY IDOCK:   -4.59 KCAL/MOL
REMARK 922        TOTAL FREE ENERGY PREDICTED BY IDOCK:   -5.50 KCAL/MOL
REMARK 923 INTER-LIGAND FREE ENERGY PREDICTED BY IDOCK:   -5.10 KCAL/MOL
REMARK 924 INTRA-LIGAND FREE ENERGY PREDICTED BY IDOCK:   -0.40 KCAL/MOL
REMARK 927      BINDING AFFINITY PREDICTED BY RF-SCORE:    0.00 PKD
ROOT
ATOM      1  N   GLN A   1     -12.520  13.830  63.007  1.00  0.00    -1.000 NA 
ATOM      2  H1  GLN A   1     -13.519  13.964  63.165  1.00  0.00     0.000 HD 
ATOM      3  H2  GLN A   1     -12.292  13.748  62.016  1.00  0.00     0.000 HD 
ATOM      4  CA  GLN A   1     -12.045  12.645  63.797  1.00  0.00    -0.522 C  
ATOM      5  O   GLN A   1     -13.102  14.042  65.433  1.00  0.00    -0.763 OA 
ATOM      6  C   GLN A   1     -12.396  12.893  65.280  1.00  0.00    -0.490 C  
ATOM      7  OXT GLN A   1     -12.117  12.154  66.211  1.00  0.00    -0.626 OA 
ENDROOT
BRANCH   4   8
ATOM      8  CB  GLN A   1     -10.547  12.442  63.562  1.00  0.00    -0.451 C  
BRANCH   8   9
ATOM      9  CG  GLN A   1     -10.136  10.975  63.436  1.00  0.00    -0.424 C  
BRANCH   9  10
ATOM     10  CD  GLN A   1      -9.443  10.475  64.684  1.00  0.00    -0.263 C  
ATOM     11  NE2 GLN A   1      -9.063  11.465  65.541  1.00  0.00    -0.340 N  
ATOM     12  OE1 GLN A   1      -9.225   9.296  64.934  1.00  0.00    -0.225 OA 
ATOM     13 1HE2 GLN A   1      -8.595  11.127  66.382  1.00  0.00     0.000 HD 
ATOM     14 2HE2 GLN A   1      -9.232  12.454  65.357  1.00  0.00     0.000 HD 
ENDBRANCH   9  10
ENDBRANCH   8   9
ENDBRANCH   4   8
TORSDOF 3
ENDMDL
MODEL       10
REMARK 921   NORMALIZED FREE ENERGY PREDICTED BY IDOCK:   -4.50 KCAL/MOL
REMARK 922        TOTAL FREE ENERGY PREDICTED BY IDOCK:   -5.40 KCAL/MOL
REMARK 923 INTER-LIGAND FREE ENERGY PREDICTED BY IDOCK:   -5.06 KCAL/MOL
REMARK 924 INTRA-LIGAND FREE ENERGY PREDICTED BY IDOCK:   -0.34 KCAL/MOL
REMARK 927      BINDING AFFINITY PREDICTED BY RF-SCORE:    0.00 PKD
ROOT
ATOM      1  N   GLN A   1     -10.369  12.729  67.283  1.00  0.00    -0.231 NA 
ATOM      2  H1  GLN A   1     -10.242  11.723  67.399  1.00  0.00     0.000 HD 
ATOM      3  H2  GLN A   1     -10.207  13.241  68.150  1.00  0.00     0.000 HD 
ATOM      4  CA  GLN A   1     -11.731  12.997  66.713  1.00  0.00    -0.382 C  
ATOM      5  O   GLN A   1     -10.753  11.450  65.165  1.00  0.00    -0.289 OA 
ATOM      6  C   GLN A   1     -11.852  12.216  65.387  1.00  0.00    -0.295 C  
ATOM      7  OXT GLN A   1     -12.812  12.237  64.632  1.00  0.00    -0.665 OA 
ENDROOT
BRANCH   4   8
ATOM      8  CB  GLN A   1     -11.923  14.505  66.539  1.00  0.00    -0.358 C  
BRANCH   8   9
ATOM      9  CG  GLN A   1     -10.868  15.162  65.649  1.00  0.00    -0.367 C  
BRANCH   9  10
ATOM     10  CD  GLN A   1     -11.489  15.866  64.463  1.00  0.00    -0.283 C  
ATOM     11  NE2 GLN A   1     -12.355  15.091  63.750  1.00  0.00    -1.058 N  
ATOM     12  OE1 GLN A   1     -11.260  17.026  64.144  1.00  0.00    -1.130 OA 
ATOM     13 1HE2 GLN A   1     -12.773  15.566  62.950  1.00  0.00     0.000 HD 
ATOM     14 2HE2 GLN A   1     -12.564  14.123  63.994  1.00  0.00     0.000 HD 
ENDBRANCH   9  10
ENDBRANCH   8   9
ENDBRANCH   4   8
TORSDOF 3
ENDMDL
MODEL       11
REMARK 921   NORMALIZED FREE ENERGY PREDICTED BY IDOCK:   -4.45 KCAL/MOL
REMARK 922        TOTAL FREE ENERGY PREDICTED BY IDOCK:   -5.34 KCAL/MOL
REMARK 923 INTER-LIGAND FREE ENERGY PREDICTED BY IDOCK:   -5.00 KCAL/MOL
REMARK 924 INTRA-LIGAND FREE ENERGY PREDICTED BY IDOCK:   -0.35 KCAL/MOL
REMARK 927      BINDING AFFINITY PREDICTED BY RF-SCORE:    0.00 PKD
ROOT
ATOM      1  N   GLN A   1     -12.700  12.701  65.324  1.00  0.00    -0.656 NA 
ATOM      2  H1  GLN A   1     -13.223  11.855  65.554  1.00  0.00     0.000 HD 
ATOM      3  H2  GLN A   1     -13.040  13.145  64.471  1.00  0.00     0.000 HD 
ATOM      4  CA  GLN A   1     -11.237  12.377  65.250  1.00  0.00    -0.318 C  
ATOM      5  O   GLN A   1     -11.891  11.595  67.420  1.00  0.00    -0.603 OA 
ATOM      6  C   GLN A   1     -10.820  11.756  66.601  1.00  0.00    -0.276 C  
ATOM      7  OXT GLN A   1      -9.689  11.414  66.909  1.00  0.00    -0.189 OA 
ENDROOT
BRANCH   4   8
ATOM      8  CB  GLN A   1     -10.451  13.644  64.906  1.00  0.00    -0.426 C  
BRANCH   8   9
ATOM      9  CG  GLN A   1     -11.010  14.911  65.556  1.00  0.00    -0.355 C  
BRANCH   9  10
ATOM     10  CD  GLN A   1     -11.448  15.927  64.524  1.00  0.00    -0.283 C  
ATOM     11  NE2 GLN A   1     -12.324  15.439  63.601  1.00  0.00    -0.787 N  
ATOM     12  OE1 GLN A   1     -11.069  17.092  64.490  1.00  0.00    -1.105 OA 
ATOM     13 1HE2 GLN A   1     -12.618  16.124  62.905  1.00  0.00     0.000 HD 
ATOM     14 2HE2 GLN A   1     -12.655  14.474  63.606  1.00  0.00     0.000 HD 
ENDBRANCH   9  10
ENDBRANCH   8   9
ENDBRANCH   4   8
TORSDOF 3
ENDMDL
MODEL       12
REMARK 921   NORMALIZED FREE ENERGY PREDICTED BY IDOCK:   -4.43 KCAL/MOL
REMARK 922        TOTAL FREE ENERGY PREDICTED BY IDOCK:   -5.32 KCAL/MOL
REMARK 923 INTER-LIGAND FREE ENERGY PREDICTED BY IDOCK:   -5.09 KCAL/MOL
REMARK 924 INTRA-LIGAND FREE ENERGY PREDICTED BY IDOCK:   -0.23 KCAL/MOL
REMARK 927      BINDING AFFINITY PREDICTED BY RF-SCORE:    0.00 PKD
ROOT
ATOM      1  N   GLN A   1     -12.881  12.605  65.153  1.00  0.00    -0.743 NA 
ATOM      2  H1  GLN A   1     -13.666  12.523  64.506  1.00  0.00     0.000 HD 
ATOM      3  H2  GLN A   1     -13.016  12.048  65.996  1.00  0.00     0.000 HD 
ATOM      4  CA  GLN A   1     -12.639  14.053  65.463  1.00  0.00    -0.516 C  
ATOM      5  O   GLN A   1     -12.568  13.957  63.068  1.00  0.00    -0.694 OA 
ATOM      6  C   GLN A   1     -12.401  14.791  64.127  1.00  0.00    -0.231 C  
ATOM      7  OXT GLN A   1     -12.130  15.975  64.005  1.00  0.00    -0.810 OA 
ENDROOT
BRANCH   4   8
ATOM      8  CB  GLN A   1     -11.463  14.177  66.433  1.00  0.00    -0.362 C  
BRANCH   8   9
ATOM      9  CG  GLN A   1     -11.839  13.921  67.893  1.00  0.00    -0.413 C  
BRANCH   9  10
ATOM     10  CD  GLN A   1     -11.411  12.545  68.352  1.00  0.00    -0.312 C  
ATOM     11  NE2 GLN A   1     -10.189  12.515  68.954  1.00  0.00    -0.425 N  
ATOM     12  OE1 GLN A   1     -12.078  11.526  68.211  1.00  0.00    -0.580 OA 
ATOM     13 1HE2 GLN A   1      -9.901  11.587  69.263  1.00  0.00     0.000 HD 
ATOM     14 2HE2 GLN A   1      -9.614  13.348  69.084  1.00  0.00     0.000 HD 
ENDBRANCH   9  10
ENDBRANCH   8   9
ENDBRANCH   4   8
TORSDOF 3
ENDMDL
MODEL       13
REMARK 921   NORMALIZED FREE ENERGY PREDICTED BY IDOCK:   -4.34 KCAL/MOL
REMARK 922        TOTAL FREE ENERGY PREDICTED BY IDOCK:   -5.21 KCAL/MOL
REMARK 923 INTER-LIGAND FREE ENERGY PREDICTED BY IDOCK:   -4.96 KCAL/MOL
REMARK 924 INTRA-LIGAND FREE ENERGY PREDICTED BY IDOCK:   -0.25 KCAL/MOL
REMARK 927      BINDING AFFINITY PREDICTED BY RF-SCORE:    0.00 PKD
ROOT
ATOM      1  N   GLN A   1     -12.501  14.431  63.585  1.00  0.00    -1.086 NA 
ATOM      2  H1  GLN A   1     -12.770  14.166  62.638  1.00  0.00     0.000 HD 
ATOM      3  H2  GLN A   1     -12.330  15.433  63.672  1.00  0.00     0.000 HD 
ATOM      4  CA  GLN A   1     -11.317  13.615  64.014  1.00  0.00    -0.219 C  
ATOM      5  O   GLN A   1     -12.935  11.977  63.349  1.00  0.00    -0.772 OA 
ATOM      6  C   GLN A   1     -11.699  12.124  63.889  1.00  0.00    -0.458 C  
ATOM      7  OXT GLN A   1     -10.989  11.179  64.196  1.00  0.00    -0.358 OA 
ENDROOT
BRANCH   4   8
ATOM      8  CB  GLN A   1     -10.912  14.012  65.435  1.00  0.00    -0.321 C  
BRANCH   8   9
ATOM      9  CG  GLN A   1     -12.090  14.123  66.404  1.00  0.00    -0.475 C  
BRANCH   9  10
ATOM     10  CD  GLN A   1     -11.962  13.157  67.560  1.00  0.00    -0.317 C  
ATOM     11  NE2 GLN A   1     -11.881  13.760  68.780  1.00  0.00    -0.346 N  
ATOM     12  OE1 GLN A   1     -11.931  11.937  67.448  1.00  0.00    -0.603 OA 
ATOM     13 1HE2 GLN A   1     -11.794  13.108  69.560  1.00  0.00     0.000 HD 
ATOM     14 2HE2 GLN A   1     -11.905  14.772  68.902  1.00  0.00     0.000 HD 
ENDBRANCH   9  10
ENDBRANCH   8   9
ENDBRANCH   4   8
TORSDOF 3
ENDMDL
MODEL       14
REMARK 921   NORMALIZED FREE ENERGY PREDICTED BY IDOCK:   -4.33 KCAL/MOL
REMARK 922        TOTAL FREE ENERGY PREDICTED BY IDOCK:   -5.20 KCAL/MOL
REMARK 923 INTER-LIGAND FREE ENERGY PREDICTED BY IDOCK:   -4.89 KCAL/MOL
REMARK 924 INTRA-LIGAND FREE ENERGY PREDICTED BY IDOCK:   -0.31 KCAL/MOL
REMARK 927      BINDING AFFINITY PREDICTED BY RF-SCORE:    0.00 PKD
ROOT
ATOM      1  N   GLN A   1     -10.424  15.700  66.271  1.00  0.00    -0.297 NA 
ATOM      2  H1  GLN A   1      -9.737  16.049  65.602  1.00  0.00     0.000 HD 
ATOM      3  H2  GLN A   1      -9.994  15.394  67.143  1.00  0.00     0.000 HD 
ATOM      4  CA  GLN A   1     -11.239  14.615  65.629  1.00  0.00    -0.342 C  
ATOM      5  O   GLN A   1     -11.458  16.467  64.123  1.00  0.00    -1.059 OA 
ATOM      6  C   GLN A   1     -11.880  15.197  64.351  1.00  0.00    -0.305 C  
ATOM      7  OXT GLN A   1     -12.643  14.605  63.604  1.00  0.00    -0.773 OA 
ENDROOT
BRANCH   4   8
ATOM      8  CB  GLN A   1     -12.270  14.092  66.632  1.00  0.00    -0.450 C  
BRANCH   8   9
ATOM      9  CG  GLN A   1     -11.652  13.397  67.846  1.00  0.00    -0.374 C  
BRANCH   9  10
ATOM     10  CD  GLN A   1     -12.007  14.099  69.138  1.00  0.00    -0.349 C  
ATOM     11  NE2 GLN A   1     -12.264  15.430  68.993  1.00  0.00    -0.610 N  
ATOM     12  OE1 GLN A   1     -12.067  13.553  70.233  1.00  0.00    -0.335 OA 
ATOM     13 1HE2 GLN A   1     -12.503  15.903  69.864  1.00  0.00     0.000 HD 
ATOM     14 2HE2 GLN A   1     -12.221  15.910  68.094  1.00  0.00     0.000 HD 
ENDBRANCH   9  10
ENDBRANCH   8   9
ENDBRANCH   4   8
TORSDOF 3
ENDMDL
MODEL       15
REMARK 921   NORMALIZED FREE ENERGY PREDICTED BY IDOCK:   -4.31 KCAL/MOL
REMARK 922        TOTAL FREE ENERGY PREDICTED BY IDOCK:   -5.18 KCAL/MOL
REMARK 923 INTER-LIGAND FREE ENERGY PREDICTED BY IDOCK:   -4.87 KCAL/MOL
REMARK 924 INTRA-LIGAND FREE ENERGY PREDICTED BY IDOCK:   -0.31 KCAL/MOL
REMARK 927      BINDING AFFINITY PREDICTED BY RF-SCORE:    0.00 PKD
ROOT
ATOM      1  N   GLN A   1     -10.379  17.273  65.482  1.00  0.00    -0.642 NA 
ATOM      2  H1  GLN A   1     -10.136  18.195  65.848  1.00  0.00     0.000 HD 
ATOM      3  H2  GLN A   1     -11.387  17.148  65.389  1.00  0.00     0.000 HD 
ATOM      4  CA  GLN A   1      -9.754  16.214  66.342  1.00  0.00    -0.286 C  
ATOM      5  O   GLN A   1      -7.908  17.609  65.712  1.00  0.00    -0.548 OA 
ATOM      6  C   GLN A   1      -8.231  16.470  66.376  1.00  0.00    -0.329 C  
ATOM      7  OXT GLN A   1      -7.405  15.775  66.946  1.00  0.00    -0.210 OA 
ENDROOT
BRANCH   4   8
ATOM      8  CB  GLN A   1     -10.117  14.833  65.795  1.00  0.00    -0.364 C  
BRANCH   8   9
ATOM      9  CG  GLN A   1     -11.582  14.450  66.011  1.00  0.00    -0.364 C  
BRANCH   9  10
ATOM     10  CD  GLN A   1     -12.274  14.112  64.710  1.00  0.00    -0.440 C  
ATOM     11  NE2 GLN A   1     -12.361  15.158  63.840  1.00  0.00    -1.038 N  
ATOM     12  OE1 GLN A   1     -12.728  13.009  64.429  1.00  0.00    -0.652 OA 
ATOM     13 1HE2 GLN A   1     -12.828  14.930  62.963  1.00  0.00     0.000 HD 
ATOM     14 2HE2 GLN A   1     -11.992  16.086  64.048  1.00  0.00     0.000 HD 
ENDBRANCH   9  10
ENDBRANCH   8   9
ENDBRANCH   4   8
TORSDOF 3
ENDMDL
MODEL       16
REMARK 921   NORMALIZED FREE ENERGY PREDICTED BY IDOCK:   -4.31 KCAL/MOL
REMARK 922        TOTAL FREE ENERGY PREDICTED BY IDOCK:   -5.17 KCAL/MOL
REMARK 923 INTER-LIGAND FREE ENERGY PREDICTED BY IDOCK:   -4.92 KCAL/MOL
REMARK 924 INTRA-LIGAND FREE ENERGY PREDICTED BY IDOCK:   -0.25 KCAL/MOL
REMARK 927      BINDING AFFINITY PREDICTED BY RF-SCORE:    0.00 PKD
ROOT
ATOM      1  N   GLN A   1     -12.696  12.854  65.399  1.00  0.00    -0.621 NA 
ATOM      2  H1  GLN A   1     -13.556  12.789  64.854  1.00  0.00     0.000 HD 
ATOM      3  H2  GLN A   1     -12.759  12.345  66.281  1.00  0.00     0.000 HD 
ATOM      4  CA  GLN A   1     -12.340  14.298  65.601  1.00  0.00    -0.405 C  
ATOM      5  O   GLN A   1     -12.563  14.086  63.224  1.00  0.00    -0.801 OA 
ATOM      6  C   GLN A   1     -12.225  14.956  64.209  1.00  0.00    -0.344 C  
ATOM      7  OXT GLN A   1     -11.907  16.115  63.994  1.00  0.00    -0.876 OA 
ENDROOT
BRANCH   4   8
ATOM      8  CB  GLN A   1     -11.051  14.395  66.419  1.00  0.00    -0.326 C  
BRANCH   8   9
ATOM      9  CG  GLN A   1     -11.245  15.010  67.806  1.00  0.00    -0.327 C  
BRANCH   9  10
ATOM     10  CD  GLN A   1     -11.975  14.072  68.741  1.00  0.00    -0.347 C  
ATOM     11  NE2 GLN A   1     -12.657  14.702  69.739  1.00  0.00    -0.561 N  
ATOM     12  OE1 GLN A   1     -11.974  12.851  68.641  1.00  0.00    -0.313 OA 
ATOM     13 1HE2 GLN A   1     -13.148  14.069  70.369  1.00  0.00     0.000 HD 
ATOM     14 2HE2 GLN A   1     -12.675  15.716  69.844  1.00  0.00     0.000 HD 
ENDBRANCH   9  10
ENDBRANCH   8   9
ENDBRANCH   4   8
TORSDOF 3
ENDMDL
MODEL       17
REMARK 921   NORMALIZED FREE ENERGY PREDICTED BY IDOCK:   -4.24 KCAL/MOL
REMARK 922        TOTAL FREE ENERGY PREDICTED BY IDOCK:   -5.10 KCAL/MOL
REMARK 923 INTER-LIGAND FREE ENERGY PREDICTED BY IDOCK:   -4.94 KCAL/MOL
REMARK 924 INTRA-LIGAND FREE ENERGY PREDICTED BY IDOCK:   -0.16 KCAL/MOL
REMARK 927      BINDING AFFINITY PREDICTED BY RF-SCORE:    0.00 PKD
ROOT
ATOM      1  N   GLN A   1     -12.002  11.979  66.960  1.00  0.00    -0.606 NA 
ATOM      2  H1  GLN A   1     -11.320  11.656  67.648  1.00  0.00     0.000 HD 
ATOM      3  H2  GLN A   1     -12.005  11.402  66.119  1.00  0.00     0.000 HD 
ATOM      4  CA  GLN A   1     -11.754  13.427  66.654  1.00  0.00    -0.385 C  
ATOM      5  O   GLN A   1     -11.982  13.374  69.040  1.00  0.00    -0.319 OA 
ATOM      6  C   GLN A   1     -11.817  14.210  67.983  1.00  0.00    -0.365 C  
ATOM      7  OXT GLN A   1     -11.704  15.420  68.103  1.00  0.00    -0.351 OA 
ENDROOT
BRANCH   4   8
ATOM      8  CB  GLN A   1     -12.775  13.912  65.623  1.00  0.00    -0.534 C  
BRANCH   8   9
ATOM      9  CG  GLN A   1     -12.199  14.079  64.216  1.00  0.00    -0.453 C  
BRANCH   9  10
ATOM     10  CD  GLN A   1     -12.041  12.750  63.511  1.00  0.00    -0.559 C  
ATOM     11  NE2 GLN A   1     -10.751  12.438  63.199  1.00  0.00    -0.628 N  
ATOM     12  OE1 GLN A   1     -12.965  11.997  63.230  1.00  0.00    -0.736 OA 
ATOM     13 1HE2 GLN A   1     -10.645  11.543  62.723  1.00  0.00     0.000 HD 
ATOM     14 2HE2 GLN A   1      -9.963  13.046  63.421  1.00  0.00     0.000 HD 
ENDBRANCH   9  10
ENDBRANCH   8   9
ENDBRANCH   4   8
TORSDOF 3
ENDMDL
MODEL       18
REMARK 921   NORMALIZED FREE ENERGY PREDICTED BY IDOCK:   -4.24 KCAL/MOL
REMARK 922        TOTAL FREE ENERGY PREDICTED BY IDOCK:   -5.09 KCAL/MOL
REMARK 923 INTER-LIGAND FREE ENERGY PREDICTED BY IDOCK:   -4.95 KCAL/MOL
REMARK 924 INTRA-LIGAND FREE ENERGY PREDICTED BY IDOCK:   -0.15 KCAL/MOL
REMARK 927      BINDING AFFINITY PREDICTED BY RF-SCORE:    0.00 PKD
ROOT
ATOM      1  N   GLN A   1      -9.456  13.419  66.173  1.00  0.00    -0.458 NA 
ATOM      2  H1  GLN A   1      -9.512  14.071  66.956  1.00  0.00     0.000 HD 
ATOM      3  H2  GLN A   1      -9.291  13.895  65.285  1.00  0.00     0.000 HD 
ATOM      4  CA  GLN A   1     -10.694  12.571  66.139  1.00  0.00    -0.261 C  
ATOM      5  O   GLN A   1      -9.852  12.275  68.364  1.00  0.00    -0.213 OA 
ATOM      6  C   GLN A   1     -10.821  11.864  67.507  1.00  0.00    -0.238 C  
ATOM      7  OXT GLN A   1     -11.688  11.063  67.816  1.00  0.00    -0.573 OA 
ENDROOT
BRANCH   4   8
ATOM      8  CB  GLN A   1     -10.610  11.593  64.965  1.00  0.00    -0.342 C  
BRANCH   8   9
ATOM      9  CG  GLN A   1     -10.763  12.259  63.597  1.00  0.00    -0.513 C  
BRANCH   9  10
ATOM     10  CD  GLN A   1     -12.181  12.725  63.353  1.00  0.00    -0.504 C  
ATOM     11  NE2 GLN A   1     -12.308  14.077  63.230  1.00  0.00    -1.145 N  
ATOM     12  OE1 GLN A   1     -13.152  11.983  63.267  1.00  0.00    -0.701 OA 
ATOM     13 1HE2 GLN A   1     -13.264  14.391  63.066  1.00  0.00     0.000 HD 
ATOM     14 2HE2 GLN A   1     -11.516  14.717  63.297  1.00  0.00     0.000 HD 
ENDBRANCH   9  10
ENDBRANCH   8   9
ENDBRANCH   4   8
TORSDOF 3
ENDMDL
MODEL       19
REMARK 921   NORMALIZED FREE ENERGY PREDICTED BY IDOCK:   -4.20 KCAL/MOL
REMARK 922        TOTAL FREE ENERGY PREDICTED BY IDOCK:   -5.05 KCAL/MOL
REMARK 923 INTER-LIGAND FREE ENERGY PREDICTED BY IDOCK:   -4.67 KCAL/MOL
REMARK 924 INTRA-LIGAND FREE ENERGY PREDICTED BY IDOCK:   -0.38 KCAL/MOL
REMARK 927      BINDING AFFINITY PREDICTED BY RF-SCORE:    0.00 PKD
ROOT
ATOM      1  N   GLN A   1     -10.038  13.561  64.101  1.00  0.00    -0.761 NA 
ATOM      2  H1  GLN A   1     -10.432  13.162  63.248  1.00  0.00     0.000 HD 
ATOM      3  H2  GLN A   1      -9.087  13.234  64.276  1.00  0.00     0.000 HD 
ATOM      4  CA  GLN A   1     -10.956  13.280  65.254  1.00  0.00    -0.291 C  
ATOM      5  O   GLN A   1     -12.367  14.356  63.642  1.00  0.00    -0.722 OA 
ATOM      6  C   GLN A   1     -12.346  13.855  64.904  1.00  0.00    -0.420 C  
ATOM      7  OXT GLN A   1     -13.325  13.845  65.633  1.00  0.00    -0.620 OA 
ENDROOT
BRANCH   4   8
ATOM      8  CB  GLN A   1     -10.366  13.878  66.533  1.00  0.00    -0.286 C  
BRANCH   8   9
ATOM      9  CG  GLN A   1     -10.545  15.392  66.645  1.00  0.00    -0.306 C  
BRANCH   9  10
ATOM     10  CD  GLN A   1     -11.166  15.789  67.966  1.00  0.00    -0.338 C  
ATOM     11  NE2 GLN A   1     -12.165  14.959  68.381  1.00  0.00    -0.592 N  
ATOM     12  OE1 GLN A   1     -10.828  16.761  68.631  1.00  0.00    -0.336 OA 
ATOM     13 1HE2 GLN A   1     -12.584  15.227  69.272  1.00  0.00     0.000 HD 
ATOM     14 2HE2 GLN A   1     -12.466  14.143  67.848  1.00  0.00     0.000 HD 
ENDBRANCH   9  10
ENDBRANCH   8   9
ENDBRANCH   4   8
TORSDOF 3
ENDMDL
MODEL       20
REMARK 921   NORMALIZED FREE ENERGY PREDICTED BY IDOCK:   -4.20 KCAL/MOL
REMARK 922        TOTAL FREE ENERGY PREDICTED BY IDOCK:   -5.05 KCAL/MOL
REMARK 923 INTER-LIGAND FREE ENERGY PREDICTED BY IDOCK:   -4.79 KCAL/MOL
REMARK 924 INTRA-LIGAND FREE ENERGY PREDICTED BY IDOCK:   -0.26 KCAL/MOL
REMARK 927      BINDING AFFINITY PREDICTED BY RF-SCORE:    0.00 PKD
ROOT
ATOM      1  N   GLN A   1     -10.352  11.391  66.352  1.00  0.00    -0.234 NA 
ATOM      2  H1  GLN A   1     -10.284  10.612  67.008  1.00  0.00     0.000 HD 
ATOM      3  H2  GLN A   1      -9.570  11.414  65.697  1.00  0.00     0.000 HD 
ATOM      4  CA  GLN A   1     -10.490  12.676  67.115  1.00  0.00    -0.235 C  
ATOM      5  O   GLN A   1     -12.266  11.307  67.965  1.00  0.00    -0.621 OA 
ATOM      6  C   GLN A   1     -11.724  12.550  68.035  1.00  0.00    -0.355 C  
ATOM      7  OXT GLN A   1     -12.159  13.425  68.767  1.00  0.00    -0.337 OA 
ENDROOT
BRANCH   4   8
ATOM      8  CB  GLN A   1     -10.592  13.844  66.132  1.00  0.00    -0.291 C  
BRANCH   8   9
ATOM      9  CG  GLN A   1     -10.643  13.412  64.666  1.00  0.00    -0.431 C  
BRANCH   9  10
ATOM     10  CD  GLN A   1     -12.064  13.321  64.155  1.00  0.00    -0.432 C  
ATOM     11  NE2 GLN A   1     -12.333  14.156  63.112  1.00  0.00    -1.046 N  
ATOM     12  OE1 GLN A   1     -12.921  12.575  64.612  1.00  0.00    -0.803 OA 
ATOM     13 1HE2 GLN A   1     -13.291  14.095  62.768  1.00  0.00     0.000 HD 
ATOM     14 2HE2 GLN A   1     -11.638  14.787  62.711  1.00  0.00     0.000 HD 
ENDBRANCH   9  10
ENDBRANCH   8   9
ENDBRANCH   4   8
TORSDOF 3
ENDMDL
MODEL       21
REMARK 921   NORMALIZED FREE ENERGY PREDICTED BY IDOCK:   -4.17 KCAL/MOL
REMARK 922        TOTAL FREE ENERGY PREDICTED BY IDOCK:   -5.02 KCAL/MOL
REMARK 923 INTER-LIGAND FREE ENERGY PREDICTED BY IDOCK:   -4.77 KCAL/MOL
REMARK 924 INTRA-LIGAND FREE ENERGY PREDICTED BY IDOCK:   -0.25 KCAL/MOL
REMARK 927      BINDING AFFINITY PREDICTED BY RF-SCORE:    0.00 PKD
ROOT
ATOM      1  N   GLN A   1     -12.357  14.362  63.382  1.00  0.00    -1.088 NA 
ATOM      2  H1  GLN A   1     -12.487  13.606  62.710  1.00  0.00     0.000 HD 
ATOM      3  H2  GLN A   1     -11.939  15.189  62.957  1.00  0.00     0.000 HD 
ATOM      4  CA  GLN A   1     -11.560  13.860  64.551  1.00  0.00    -0.393 C  
ATOM      5  O   GLN A   1     -13.393  12.322  64.400  1.00  0.00    -0.786 OA 
ATOM      6  C   GLN A   1     -12.303  12.644  65.144  1.00  0.00    -0.484 C  
ATOM      7  OXT GLN A   1     -11.962  12.012  66.132  1.00  0.00    -0.581 OA 
ENDROOT
BRANCH   4   8
ATOM      8  CB  GLN A   1     -11.365  14.994  65.560  1.00  0.00    -0.312 C  
BRANCH   8   9
ATOM      9  CG  GLN A   1      -9.904  15.237  65.938  1.00  0.00    -0.385 C  
BRANCH   9  10
ATOM     10  CD  GLN A   1      -9.397  14.207  66.922  1.00  0.00    -0.264 C  
ATOM     11  NE2 GLN A   1      -8.450  13.370  66.412  1.00  0.00    -0.265 N  
ATOM     12  OE1 GLN A   1      -9.781  14.104  68.081  1.00  0.00    -0.212 OA 
ATOM     13 1HE2 GLN A   1      -8.109  12.675  67.075  1.00  0.00     0.000 HD 
ATOM     14 2HE2 GLN A   1      -8.112  13.434  65.451  1.00  0.00     0.000 HD 
ENDBRANCH   9  10
ENDBRANCH   8   9
ENDBRANCH   4   8
TORSDOF 3
ENDMDL
MODEL       22
REMARK 921   NORMALIZED FREE ENERGY PREDICTED BY IDOCK:   -4.16 KCAL/MOL
REMARK 922        TOTAL FREE ENERGY PREDICTED BY IDOCK:   -5.01 KCAL/MOL
REMARK 923 INTER-LIGAND FREE ENERGY PREDICTED BY IDOCK:   -4.81 KCAL/MOL
REMARK 924 INTRA-LIGAND FREE ENERGY PREDICTED BY IDOCK:   -0.20 KCAL/MOL
REMARK 927      BINDING AFFINITY PREDICTED BY RF-SCORE:    0.00 PKD
ROOT
ATOM      1  N   GLN A   1     -10.157  12.909  63.879  1.00  0.00    -0.705 NA 
ATOM      2  H1  GLN A   1     -10.650  12.232  63.297  1.00  0.00     0.000 HD 
ATOM      3  H2  GLN A   1      -9.200  12.621  64.081  1.00  0.00     0.000 HD 
ATOM      4  CA  GLN A   1     -10.948  13.163  65.129  1.00  0.00    -0.298 C  
ATOM      5  O   GLN A   1     -12.507  13.600  63.361  1.00  0.00    -0.784 OA 
ATOM      6  C   GLN A   1     -12.357  13.637  64.710  1.00  0.00    -0.390 C  
ATOM      7  OXT GLN A   1     -13.250  13.975  65.471  1.00  0.00    -0.710 OA 
ENDROOT
BRANCH   4   8
ATOM      8  CB  GLN A   1     -10.209  14.179  66.002  1.00  0.00    -0.318 C  
BRANCH   8   9
ATOM      9  CG  GLN A   1      -9.747  15.423  65.243  1.00  0.00    -0.145 C  
BRANCH   9  10
ATOM     10  CD  GLN A   1     -10.710  16.577  65.413  1.00  0.00    -0.259 C  
ATOM     11  NE2 GLN A   1     -10.765  17.072  66.682  1.00  0.00    -0.167 N  
ATOM     12  OE1 GLN A   1     -11.395  17.049  64.514  1.00  0.00    -1.035 OA 
ATOM     13 1HE2 GLN A   1     -11.414  17.849  66.797  1.00  0.00     0.000 HD 
ATOM     14 2HE2 GLN A   1     -10.205  16.697  67.449  1.00  0.00     0.000 HD 
ENDBRANCH   9  10
ENDBRANCH   8   9
ENDBRANCH   4   8
TORSDOF 3
ENDMDL
MODEL       23
REMARK 921   NORMALIZED FREE ENERGY PREDICTED BY IDOCK:   -4.15 KCAL/MOL
REMARK 922        TOTAL FREE ENERGY PREDICTED BY IDOCK:   -4.99 KCAL/MOL
REMARK 923 INTER-LIGAND FREE ENERGY PREDICTED BY IDOCK:   -4.86 KCAL/MOL
REMARK 924 INTRA-LIGAND FREE ENERGY PREDICTED BY IDOCK:   -0.13 KCAL/MOL
REMARK 927      BINDING AFFINITY PREDICTED BY RF-SCORE:    0.00 PKD
ROOT
ATOM      1  N   GLN A   1     -10.173  13.750  64.224  1.00  0.00    -0.737 NA 
ATOM      2  H1  GLN A   1     -10.275  14.095  63.269  1.00  0.00     0.000 HD 
ATOM      3  H2  GLN A   1      -9.195  13.651  64.497  1.00  0.00     0.000 HD 
ATOM      4  CA  GLN A   1     -10.937  12.467  64.375  1.00  0.00    -0.340 C  
ATOM      5  O   GLN A   1     -12.566  14.012  63.534  1.00  0.00    -0.842 OA 
ATOM      6  C   GLN A   1     -12.406  12.742  63.984  1.00  0.00    -0.411 C  
ATOM      7  OXT GLN A   1     -13.319  11.932  64.031  1.00  0.00    -0.646 OA 
ENDROOT
BRANCH   4   8
ATOM      8  CB  GLN A   1     -10.785  11.949  65.807  1.00  0.00    -0.327 C  
BRANCH   8   9
ATOM      9  CG  GLN A   1     -11.781  12.561  66.793  1.00  0.00    -0.453 C  
BRANCH   9  10
ATOM     10  CD  GLN A   1     -11.207  13.773  67.492  1.00  0.00    -0.294 C  
ATOM     11  NE2 GLN A   1     -12.149  14.616  68.003  1.00  0.00    -0.582 N  
ATOM     12  OE1 GLN A   1     -10.011  14.009  67.609  1.00  0.00    -0.231 OA 
ATOM     13 1HE2 GLN A   1     -11.762  15.434  68.475  1.00  0.00     0.000 HD 
ATOM     14 2HE2 GLN A   1     -13.151  14.445  67.921  1.00  0.00     0.000 HD 
ENDBRANCH   9  10
ENDBRANCH   8   9
ENDBRANCH   4   8
TORSDOF 3
ENDMDL
MODEL       24
REMARK 921   NORMALIZED FREE ENERGY PREDICTED BY IDOCK:   -4.11 KCAL/MOL
REMARK 922        TOTAL FREE ENERGY PREDICTED BY IDOCK:   -4.94 KCAL/MOL
REMARK 923 INTER-LIGAND FREE ENERGY PREDICTED BY IDOCK:   -4.76 KCAL/MOL
REMARK 924 INTRA-LIGAND FREE ENERGY PREDICTED BY IDOCK:   -0.18 KCAL/MOL
REMARK 927      BINDING AFFINITY PREDICTED BY RF-SCORE:    0.00 PKD
ROOT
ATOM      1  N   GLN A   1     -14.065   9.058  73.179  1.00  0.00    -1.223 NA 
ATOM      2  H1  GLN A   1     -13.921   9.865  73.785  1.00  0.00     0.000 HD 
ATOM      3  H2  GLN A   1     -14.391   8.240  73.695  1.00  0.00     0.000 HD 
ATOM      4  CA  GLN A   1     -12.807   8.779  72.410  1.00  0.00    -0.371 C  
ATOM      5  O   GLN A   1     -13.275  11.081  71.932  1.00  0.00    -0.473 OA 
ATOM      6  C   GLN A   1     -12.432  10.059  71.633  1.00  0.00    -0.418 C  
ATOM      7  OXT GLN A   1     -11.488  10.178  70.868  1.00  0.00    -0.327 OA 
ENDROOT
BRANCH   4   8
ATOM      8  CB  GLN A   1     -13.023   7.567  71.501  1.00  0.00    -0.400 C  
BRANCH   8   9
ATOM      9  CG  GLN A   1     -11.960   6.479  71.661  1.00  0.00    -0.387 C  
BRANCH   9  10
ATOM     10  CD  GLN A   1     -11.125   6.320  70.410  1.00  0.00    -0.352 C  
ATOM     11  NE2 GLN A   1     -11.768   6.683  69.264  1.00  0.00    -0.628 N  
ATOM     12  OE1 GLN A   1      -9.972   5.905  70.391  1.00  0.00    -0.178 OA 
ATOM     13 1HE2 GLN A   1     -11.204   6.575  68.421  1.00  0.00     0.000 HD 
ATOM     14 2HE2 GLN A   1     -12.726   7.031  69.251  1.00  0.00     0.000 HD 
ENDBRANCH   9  10
ENDBRANCH   8   9
ENDBRANCH   4   8
TORSDOF 3
ENDMDL
MODEL       25
REMARK 921   NORMALIZED FREE ENERGY PREDICTED BY IDOCK:   -4.10 KCAL/MOL
REMARK 922        TOTAL FREE ENERGY PREDICTED BY IDOCK:   -4.94 KCAL/MOL
REMARK 923 INTER-LIGAND FREE ENERGY PREDICTED BY IDOCK:   -4.70 KCAL/MOL
REMARK 924 INTRA-LIGAND FREE ENERGY PREDICTED BY IDOCK:   -0.23 KCAL/MOL
REMARK 927      BINDING AFFINITY PREDICTED BY RF-SCORE:    0.00 PKD
ROOT
ATOM      1  N   GLN A   1     -12.382  14.283  67.053  1.00  0.00    -0.580 NA 
ATOM      2  H1  GLN A   1     -12.402  15.067  67.706  1.00  0.00     0.000 HD 
ATOM      3  H2  GLN A   1     -13.076  13.572  67.283  1.00  0.00     0.000 HD 
ATOM      4  CA  GLN A   1     -10.992  13.720  66.990  1.00  0.00    -0.290 C  
ATOM      5  O   GLN A   1     -10.694  16.049  66.504  1.00  0.00    -0.306 OA 
ATOM      6  C   GLN A   1     -10.036  14.865  66.590  1.00  0.00    -0.258 C  
ATOM      7  OXT GLN A   1      -8.834  14.755  66.402  1.00  0.00    -0.233 OA 
ENDROOT
BRANCH   4   8
ATOM      8  CB  GLN A   1     -10.963  12.545  66.011  1.00  0.00    -0.318 C  
BRANCH   8   9
ATOM      9  CG  GLN A   1     -10.775  12.963  64.552  1.00  0.00    -0.392 C  
BRANCH   9  10
ATOM     10  CD  GLN A   1     -12.098  13.121  63.836  1.00  0.00    -0.470 C  
ATOM     11  NE2 GLN A   1     -12.467  14.418  63.633  1.00  0.00    -1.086 N  
ATOM     12  OE1 GLN A   1     -12.802  12.192  63.460  1.00  0.00    -0.768 OA 
ATOM     13 1HE2 GLN A   1     -13.359  14.525  63.151  1.00  0.00     0.000 HD 
ATOM     14 2HE2 GLN A   1     -11.900  15.210  63.935  1.00  0.00     0.000 HD 
ENDBRANCH   9  10
ENDBRANCH   8   9
ENDBRANCH   4   8
TORSDOF 3
ENDMDL
MODEL       26
REMARK 921   NORMALIZED FREE ENERGY PREDICTED BY IDOCK:   -4.08 KCAL/MOL
REMARK 922        TOTAL FREE ENERGY PREDICTED BY IDOCK:   -4.91 KCAL/MOL
REMARK 923 INTER-LIGAND FREE ENERGY PREDICTED BY IDOCK:   -4.67 KCAL/MOL
REMARK 924 INTRA-LIGAND FREE ENERGY PREDICTED BY IDOCK:   -0.24 KCAL/MOL
REMARK 927      BINDING AFFINITY PREDICTED BY RF-SCORE:    0.00 PKD
ROOT
ATOM      1  N   GLN A   1      -9.784  14.264  65.943  1.00  0.00    -0.451 NA 
ATOM      2  H1  GLN A   1      -8.956  14.858  65.882  1.00  0.00     0.000 HD 
ATOM      3  H2  GLN A   1      -9.545  13.284  66.095  1.00  0.00     0.000 HD 
ATOM      4  CA  GLN A   1     -10.629  14.457  64.718  1.00  0.00    -0.393 C  
ATOM      5  O   GLN A   1     -10.344  16.677  65.578  1.00  0.00    -0.533 OA 
ATOM      6  C   GLN A   1     -10.970  15.960  64.610  1.00  0.00    -0.305 C  
ATOM      7  OXT GLN A   1     -11.678  16.469  63.756  1.00  0.00    -1.086 OA 
ENDROOT
BRANCH   4   8
ATOM      8  CB  GLN A   1     -11.869  13.566  64.808  1.00  0.00    -0.412 C  
BRANCH   8   9
ATOM      9  CG  GLN A   1     -11.951  12.510  63.705  1.00  0.00    -0.598 C  
BRANCH   9  10
ATOM     10  CD  GLN A   1     -10.910  11.428  63.884  1.00  0.00    -0.393 C  
ATOM     11  NE2 GLN A   1     -10.672  11.096  65.185  1.00  0.00    -0.248 N  
ATOM     12  OE1 GLN A   1     -10.314  10.877  62.966  1.00  0.00    -0.249 OA 
ATOM     13 1HE2 GLN A   1      -9.970  10.366  65.305  1.00  0.00     0.000 HD 
ATOM     14 2HE2 GLN A   1     -11.154  11.538  65.967  1.00  0.00     0.000 HD 
ENDBRANCH   9  10
ENDBRANCH   8   9
ENDBRANCH   4   8
TORSDOF 3
ENDMDL
MODEL       27
REMARK 921   NORMALIZED FREE ENERGY PREDICTED BY IDOCK:   -4.08 KCAL/MOL
REMARK 922        TOTAL FREE ENERGY PREDICTED BY IDOCK:   -4.91 KCAL/MOL
REMARK 923 INTER-LIGAND FREE ENERGY PREDICTED BY IDOCK:   -4.74 KCAL/MOL
REMARK 924 INTRA-LIGAND FREE ENERGY PREDICTED BY IDOCK:   -0.17 KCAL/MOL
REMARK 927      BINDING AFFINITY PREDICTED BY RF-SCORE:    0.00 PKD
ROOT
ATOM      1  N   GLN A   1     -12.245  14.525  64.016  1.00  0.00    -0.927 NA 
ATOM      2  H1  GLN A   1     -12.601  14.394  63.068  1.00  0.00     0.000 HD 
ATOM      3  H2  GLN A   1     -12.012  15.499  64.209  1.00  0.00     0.000 HD 
ATOM      4  CA  GLN A   1     -11.080  13.607  64.242  1.00  0.00    -0.315 C  
ATOM      5  O   GLN A   1     -12.835  12.143  63.518  1.00  0.00    -0.768 OA 
ATOM      6  C   GLN A   1     -11.554  12.163  63.968  1.00  0.00    -0.423 C  
ATOM      7  OXT GLN A   1     -10.877  11.155  64.097  1.00  0.00    -0.370 OA 
ENDROOT
BRANCH   4   8
ATOM      8  CB  GLN A   1     -10.545  13.803  65.662  1.00  0.00    -0.302 C  
BRANCH   8   9
ATOM      9  CG  GLN A   1     -11.612  13.653  66.748  1.00  0.00    -0.393 C  
BRANCH   9  10
ATOM     10  CD  GLN A   1     -11.541  14.770  67.765  1.00  0.00    -0.357 C  
ATOM     11  NE2 GLN A   1     -12.355  14.591  68.844  1.00  0.00    -0.582 N  
ATOM     12  OE1 GLN A   1     -10.827  15.761  67.662  1.00  0.00    -0.302 OA 
ATOM     13 1HE2 GLN A   1     -12.307  15.344  69.529  1.00  0.00     0.000 HD 
ATOM     14 2HE2 GLN A   1     -12.958  13.776  68.955  1.00  0.00     0.000 HD 
ENDBRANCH   9  10
ENDBRANCH   8   9
ENDBRANCH   4   8
TORSDOF 3
ENDMDL
MODEL       28
REMARK 921   NORMALIZED FREE ENERGY PREDICTED BY IDOCK:   -4.05 KCAL/MOL
REMARK 922        TOTAL FREE ENERGY PREDICTED BY IDOCK:   -4.87 KCAL/MOL
REMARK 923 INTER-LIGAND FREE ENERGY PREDICTED BY IDOCK:   -4.70 KCAL/MOL
REMARK 924 INTRA-LIGAND FREE ENERGY PREDICTED BY IDOCK:   -0.18 KCAL/MOL
REMARK 927      BINDING AFFINITY PREDICTED BY RF-SCORE:    0.00 PKD
ROOT
ATOM      1  N   GLN A   1     -11.127  15.066  66.419  1.00  0.00    -0.337 NA 
ATOM      2  H1  GLN A   1     -11.667  15.765  66.930  1.00  0.00     0.000 HD 
ATOM      3  H2  GLN A   1     -11.083  15.266  65.420  1.00  0.00     0.000 HD 
ATOM      4  CA  GLN A   1     -11.686  13.701  66.700  1.00  0.00    -0.388 C  
ATOM      5  O   GLN A   1     -11.242  14.602  68.877  1.00  0.00    -0.242 OA 
ATOM      6  C   GLN A   1     -11.663  13.485  68.229  1.00  0.00    -0.359 C  
ATOM      7  OXT GLN A   1     -12.005  12.467  68.809  1.00  0.00    -0.302 OA 
ENDROOT
BRANCH   4   8
ATOM      8  CB  GLN A   1     -10.877  12.652  65.935  1.00  0.00    -0.300 C  
BRANCH   8   9
ATOM      9  CG  GLN A   1     -10.747  12.945  64.439  1.00  0.00    -0.407 C  
BRANCH   9  10
ATOM     10  CD  GLN A   1     -12.098  13.084  63.773  1.00  0.00    -0.502 C  
ATOM     11  NE2 GLN A   1     -12.455  14.373  63.507  1.00  0.00    -1.090 N  
ATOM     12  OE1 GLN A   1     -12.832  12.147  63.485  1.00  0.00    -0.768 OA 
ATOM     13 1HE2 GLN A   1     -13.366  14.467  63.059  1.00  0.00     0.000 HD 
ATOM     14 2HE2 GLN A   1     -11.864  15.172  63.737  1.00  0.00     0.000 HD 
ENDBRANCH   9  10
ENDBRANCH   8   9
ENDBRANCH   4   8
TORSDOF 3
ENDMDL
MODEL       29
REMARK 921   NORMALIZED FREE ENERGY PREDICTED BY IDOCK:   -4.05 KCAL/MOL
REMARK 922        TOTAL FREE ENERGY PREDICTED BY IDOCK:   -4.87 KCAL/MOL
REMARK 923 INTER-LIGAND FREE ENERGY PREDICTED BY IDOCK:   -4.74 KCAL/MOL
REMARK 924 INTRA-LIGAND FREE ENERGY PREDICTED BY IDOCK:   -0.13 KCAL/MOL
REMARK 927      BINDING AFFINITY PREDICTED BY RF-SCORE:    0.00 PKD
ROOT
ATOM      1  N   GLN A   1      -9.826  15.947  65.804  1.00  0.00    -0.340 NA 
ATOM      2  H1  GLN A   1      -9.312  16.164  64.949  1.00  0.00     0.000 HD 
ATOM      3  H2  GLN A   1      -9.206  15.685  66.571  1.00  0.00     0.000 HD 
ATOM      4  CA  GLN A   1     -10.850  14.888  65.516  1.00  0.00    -0.356 C  
ATOM      5  O   GLN A   1     -11.325  16.602  63.908  1.00  0.00    -1.104 OA 
ATOM      6  C   GLN A   1     -11.758  15.405  64.379  1.00  0.00    -0.258 C  
ATOM      7  OXT GLN A   1     -12.727  14.819  63.920  1.00  0.00    -0.794 OA 
ENDROOT
BRANCH   4   8
ATOM      8  CB  GLN A   1     -11.620  14.563  66.798  1.00  0.00    -0.388 C  
BRANCH   8   9
ATOM      9  CG  GLN A   1     -12.019  13.091  66.920  1.00  0.00    -0.415 C  
BRANCH   9  10
ATOM     10  CD  GLN A   1     -11.500  12.472  68.198  1.00  0.00    -0.319 C  
ATOM     11  NE2 GLN A   1     -10.402  13.096  68.711  1.00  0.00    -0.393 N  
ATOM     12  OE1 GLN A   1     -11.996  11.498  68.751  1.00  0.00    -0.372 OA 
ATOM     13 1HE2 GLN A   1     -10.052  12.678  69.573  1.00  0.00     0.000 HD 
ATOM     14 2HE2 GLN A   1      -9.969  13.908  68.272  1.00  0.00     0.000 HD 
ENDBRANCH   9  10
ENDBRANCH   8   9
ENDBRANCH   4   8
TORSDOF 3
ENDMDL
MODEL       30
REMARK 921   NORMALIZED FREE ENERGY PREDICTED BY IDOCK:   -3.96 KCAL/MOL
REMARK 922        TOTAL FREE ENERGY PREDICTED BY IDOCK:   -4.76 KCAL/MOL
REMARK 923 INTER-LIGAND FREE ENERGY PREDICTED BY IDOCK:   -4.65 KCAL/MOL
REMARK 924 INTRA-LIGAND FREE ENERGY PREDICTED BY IDOCK:   -0.12 KCAL/MOL
REMARK 927      BINDING AFFINITY PREDICTED BY RF-SCORE:    0.00 PKD
ROOT
ATOM      1  N   GLN A   1     -11.671  13.017  69.787  1.00  0.00    -0.429 NA 
ATOM      2  H1  GLN A   1     -12.118  12.687  68.931  1.00  0.00     0.000 HD 
ATOM      3  H2  GLN A   1     -11.913  12.444  70.595  1.00  0.00     0.000 HD 
ATOM      4  CA  GLN A   1     -12.004  14.465  69.999  1.00  0.00    -0.334 C  
ATOM      5  O   GLN A   1     -11.083  14.403  67.786  1.00  0.00    -0.271 OA 
ATOM      6  C   GLN A   1     -11.554  15.243  68.743  1.00  0.00    -0.362 C  
ATOM      7  OXT GLN A   1     -11.632  16.451  68.588  1.00  0.00    -0.311 OA 
ENDROOT
BRANCH   4   8
ATOM      8  CB  GLN A   1     -11.333  14.960  71.282  1.00  0.00    -0.256 C  
BRANCH   8   9
ATOM      9  CG  GLN A   1     -12.125  16.047  72.010  1.00  0.00    -0.606 C  
BRANCH   9  10
ATOM     10  CD  GLN A   1     -12.809  15.512  73.248  1.00  0.00    -0.517 C  
ATOM     11  NE2 GLN A   1     -12.710  16.329  74.335  1.00  0.00    -0.946 N  
ATOM     12  OE1 GLN A   1     -13.409  14.445  73.305  1.00  0.00    -0.616 OA 
ATOM     13 1HE2 GLN A   1     -13.171  15.967  75.169  1.00  0.00     0.000 HD 
ATOM     14 2HE2 GLN A   1     -12.218  17.222  74.314  1.00  0.00     0.000 HD 
ENDBRANCH   9  10
ENDBRANCH   8   9
ENDBRANCH   4   8
TORSDOF 3
ENDMDL
MODEL       31
REMARK 921   NORMALIZED FREE ENERGY PREDICTED BY IDOCK:   -3.96 KCAL/MOL
REMARK 922        TOTAL FREE ENERGY PREDICTED BY IDOCK:   -4.76 KCAL/MOL
REMARK 923 INTER-LIGAND FREE ENERGY PREDICTED BY IDOCK:   -4.67 KCAL/MOL
REMARK 924 INTRA-LIGAND FREE ENERGY PREDICTED BY IDOCK:   -0.09 KCAL/MOL
REMARK 927      BINDING AFFINITY PREDICTED BY RF-SCORE:    0.00 PKD
ROOT
ATOM      1  N   GLN A   1     -11.936  12.615  68.726  1.00  0.00    -0.289 NA 
ATOM      2  H1  GLN A   1     -11.576  12.536  69.678  1.00  0.00     0.000 HD 
ATOM      3  H2  GLN A   1     -11.661  11.825  68.143  1.00  0.00     0.000 HD 
ATOM      4  CA  GLN A   1     -11.512  13.929  68.139  1.00  0.00    -0.312 C  
ATOM      5  O   GLN A   1     -12.607  14.538  70.182  1.00  0.00    -0.341 OA 
ATOM      6  C   GLN A   1     -12.018  15.050  69.072  1.00  0.00    -0.264 C  
ATOM      7  OXT GLN A   1     -11.889  16.249  68.879  1.00  0.00    -0.284 OA 
ENDROOT
BRANCH   4   8
ATOM      8  CB  GLN A   1     -12.051  14.047  66.712  1.00  0.00    -0.480 C  
BRANCH   8   9
ATOM      9  CG  GLN A   1     -11.014  14.534  65.699  1.00  0.00    -0.323 C  
BRANCH   9  10
ATOM     10  CD  GLN A   1     -11.652  15.306  64.566  1.00  0.00    -0.312 C  
ATOM     11  NE2 GLN A   1     -12.529  14.574  63.821  1.00  0.00    -1.065 N  
ATOM     12  OE1 GLN A   1     -11.425  16.482  64.311  1.00  0.00    -1.000 OA 
ATOM     13 1HE2 GLN A   1     -12.958  15.095  63.057  1.00  0.00     0.000 HD 
ATOM     14 2HE2 GLN A   1     -12.736  13.594  64.011  1.00  0.00     0.000 HD 
ENDBRANCH   9  10
ENDBRANCH   8   9
ENDBRANCH   4   8
TORSDOF 3
ENDMDL
MODEL       32
REMARK 921   NORMALIZED FREE ENERGY PREDICTED BY IDOCK:   -3.95 KCAL/MOL
REMARK 922        TOTAL FREE ENERGY PREDICTED BY IDOCK:   -4.76 KCAL/MOL
REMARK 923 INTER-LIGAND FREE ENERGY PREDICTED BY IDOCK:   -4.70 KCAL/MOL
REMARK 924 INTRA-LIGAND FREE ENERGY PREDICTED BY IDOCK:   -0.06 KCAL/MOL
REMARK 927      BINDING AFFINITY PREDICTED BY RF-SCORE:    0.00 PKD
ROOT
ATOM      1  N   GLN A   1     -12.029  16.348  71.903  1.00  0.00    -0.658 NA 
ATOM      2  H1  GLN A   1     -12.472  16.906  72.634  1.00  0.00     0.000 HD 
ATOM      3  H2  GLN A   1     -11.677  16.924  71.138  1.00  0.00     0.000 HD 
ATOM      4  CA  GLN A   1     -12.988  15.297  71.428  1.00  0.00    -0.431 C  
ATOM      5  O   GLN A   1     -12.892  14.959  73.800  1.00  0.00    -0.491 OA 
ATOM      6  C   GLN A   1     -13.418  14.459  72.652  1.00  0.00    -0.509 C  
ATOM      7  OXT GLN A   1     -14.159  13.489  72.627  1.00  0.00    -0.762 OA 
ENDROOT
BRANCH   4   8
ATOM      8  CB  GLN A   1     -12.325  14.460  70.332  1.00  0.00    -0.406 C  
BRANCH   8   9
ATOM      9  CG  GLN A   1     -11.883  15.275  69.117  1.00  0.00    -0.345 C  
BRANCH   9  10
ATOM     10  CD  GLN A   1     -11.474  14.388  67.961  1.00  0.00    -0.310 C  
ATOM     11  NE2 GLN A   1     -12.346  14.405  66.914  1.00  0.00    -0.547 N  
ATOM     12  OE1 GLN A   1     -10.459  13.703  67.935  1.00  0.00    -0.238 OA 
ATOM     13 1HE2 GLN A   1     -12.071  13.807  66.135  1.00  0.00     0.000 HD 
ATOM     14 2HE2 GLN A   1     -13.198  14.966  66.909  1.00  0.00     0.000 HD 
ENDBRANCH   9  10
ENDBRANCH   8   9
ENDBRANCH   4   8
TORSDOF 3
ENDMDL
MODEL       33
REMARK 921   NORMALIZED FREE ENERGY PREDICTED BY IDOCK:   -3.95 KCAL/MOL
REMARK 922        TOTAL FREE ENERGY PREDICTED BY IDOCK:   -4.76 KCAL/MOL
REMARK 923 INTER-LIGAND FREE ENERGY PREDICTED BY IDOCK:   -4.48 KCAL/MOL
REMARK 924 INTRA-LIGAND FREE ENERGY PREDICTED BY IDOCK:   -0.28 KCAL/MOL
REMARK 927      BINDING AFFINITY PREDICTED BY RF-SCORE:    0.00 PKD
ROOT
ATOM      1  N   GLN A   1      -9.656  17.923  66.189  1.00  0.00    -0.501 NA 
ATOM      2  H1  GLN A   1      -9.495  18.324  65.264  1.00  0.00     0.000 HD 
ATOM      3  H2  GLN A   1      -9.015  18.296  66.889  1.00  0.00     0.000 HD 
ATOM      4  CA  GLN A   1      -9.590  16.426  66.101  1.00  0.00    -0.325 C  
ATOM      5  O   GLN A   1     -11.224  17.028  64.454  1.00  0.00    -1.167 OA 
ATOM      6  C   GLN A   1     -10.627  15.966  65.054  1.00  0.00    -0.346 C  
ATOM      7  OXT GLN A   1     -10.876  14.808  64.758  1.00  0.00    -0.399 OA 
ENDROOT
BRANCH   4   8
ATOM      8  CB  GLN A   1      -9.831  15.823  67.487  1.00  0.00    -0.229 C  
BRANCH   8   9
ATOM      9  CG  GLN A   1     -11.122  16.303  68.151  1.00  0.00    -0.329 C  
BRANCH   9  10
ATOM     10  CD  GLN A   1     -11.903  15.158  68.757  1.00  0.00    -0.303 C  
ATOM     11  NE2 GLN A   1     -12.305  14.221  67.852  1.00  0.00    -0.570 N  
ATOM     12  OE1 GLN A   1     -12.169  15.049  69.948  1.00  0.00    -0.313 OA 
ATOM     13 1HE2 GLN A   1     -12.832  13.449  68.260  1.00  0.00     0.000 HD 
ATOM     14 2HE2 GLN A   1     -12.097  14.286  66.855  1.00  0.00     0.000 HD 
ENDBRANCH   9  10
ENDBRANCH   8   9
ENDBRANCH   4   8
TORSDOF 3
ENDMDL
MODEL       34
REMARK 921   NORMALIZED FREE ENERGY PREDICTED BY IDOCK:   -3.93 KCAL/MOL
REMARK 922        TOTAL FREE ENERGY PREDICTED BY IDOCK:   -4.73 KCAL/MOL
REMARK 923 INTER-LIGAND FREE ENERGY PREDICTED BY IDOCK:   -4.64 KCAL/MOL
REMARK 924 INTRA-LIGAND FREE ENERGY PREDICTED BY IDOCK:   -0.09 KCAL/MOL
REMARK 927      BINDING AFFINITY PREDICTED BY RF-SCORE:    0.00 PKD
ROOT
ATOM      1  N   GLN A   1     -11.171  12.216  69.359  1.00  0.00    -0.412 NA 
ATOM      2  H1  GLN A   1     -10.594  12.327  70.193  1.00  0.00     0.000 HD 
ATOM      3  H2  GLN A   1     -10.822  11.482  68.743  1.00  0.00     0.000 HD 
ATOM      4  CA  GLN A   1     -11.290  13.537  68.656  1.00  0.00    -0.288 C  
ATOM      5  O   GLN A   1     -12.012  14.008  70.892  1.00  0.00    -0.324 OA 
ATOM      6  C   GLN A   1     -11.868  14.558  69.659  1.00  0.00    -0.318 C  
ATOM      7  OXT GLN A   1     -12.139  15.723  69.414  1.00  0.00    -0.354 OA 
ENDROOT
BRANCH   4   8
ATOM      8  CB  GLN A   1     -12.155  13.371  67.404  1.00  0.00    -0.338 C  
BRANCH   8   9
ATOM      9  CG  GLN A   1     -11.651  14.164  66.198  1.00  0.00    -0.377 C  
BRANCH   9  10
ATOM     10  CD  GLN A   1     -12.377  13.779  64.928  1.00  0.00    -0.405 C  
ATOM     11  NE2 GLN A   1     -12.394  14.759  63.980  1.00  0.00    -1.010 N  
ATOM     12  OE1 GLN A   1     -12.913  12.695  64.734  1.00  0.00    -0.816 OA 
ATOM     13 1HE2 GLN A   1     -12.884  14.499  63.124  1.00  0.00     0.000 HD 
ATOM     14 2HE2 GLN A   1     -11.956  15.670  64.115  1.00  0.00     0.000 HD 
ENDBRANCH   9  10
ENDBRANCH   8   9
ENDBRANCH   4   8
TORSDOF 3
ENDMDL
MODEL       35
REMARK 921   NORMALIZED FREE ENERGY PREDICTED BY IDOCK:   -3.92 KCAL/MOL
REMARK 922        TOTAL FREE ENERGY PREDICTED BY IDOCK:   -4.71 KCAL/MOL
REMARK 923 INTER-LIGAND FREE ENERGY PREDICTED BY IDOCK:   -4.54 KCAL/MOL
REMARK 924 INTRA-LIGAND FREE ENERGY PREDICTED BY IDOCK:   -0.17 KCAL/MOL
REMARK 927      BINDING AFFINITY PREDICTED BY RF-SCORE:    0.00 PKD
ROOT
ATOM      1  N   GLN A   1     -12.065  11.042  68.249  1.00  0.00    -0.788 NA 
ATOM      2  H1  GLN A   1     -11.663  10.182  68.622  1.00  0.00     0.000 HD 
ATOM      3  H2  GLN A   1     -13.059  10.946  68.042  1.00  0.00     0.000 HD 
ATOM      4  CA  GLN A   1     -11.277  11.484  67.051  1.00  0.00    -0.300 C  
ATOM      5  O   GLN A   1      -9.626  11.256  68.775  1.00  0.00    -0.192 OA 
ATOM      6  C   GLN A   1      -9.803  11.643  67.486  1.00  0.00    -0.188 C  
ATOM      7  OXT GLN A   1      -8.889  12.031  66.776  1.00  0.00    -0.191 OA 
ENDROOT
BRANCH   4   8
ATOM      8  CB  GLN A   1     -11.879  12.774  66.491  1.00  0.00    -0.471 C  
BRANCH   8   9
ATOM      9  CG  GLN A   1     -12.501  12.612  65.104  1.00  0.00    -0.531 C  
BRANCH   9  10
ATOM     10  CD  GLN A   1     -11.688  13.312  64.037  1.00  0.00    -0.430 C  
ATOM     11  NE2 GLN A   1     -12.418  14.141  63.238  1.00  0.00    -1.098 N  
ATOM     12  OE1 GLN A   1     -10.482  13.172  63.877  1.00  0.00    -0.351 OA 
ATOM     13 1HE2 GLN A   1     -11.870  14.612  62.519  1.00  0.00     0.000 HD 
ATOM     14 2HE2 GLN A   1     -13.423  14.276  63.349  1.00  0.00     0.000 HD 
ENDBRANCH   9  10
ENDBRANCH   8   9
ENDBRANCH   4   8
TORSDOF 3
ENDMDL
MODEL       36
REMARK 921   NORMALIZED FREE ENERGY PREDICTED BY IDOCK:   -3.89 KCAL/MOL
REMARK 922        TOTAL FREE ENERGY PREDICTED BY IDOCK:   -4.69 KCAL/MOL
REMARK 923 INTER-LIGAND FREE ENERGY PREDICTED BY IDOCK:   -4.55 KCAL/MOL
REMARK 924 INTRA-LIGAND FREE ENERGY PREDICTED BY IDOCK:   -0.14 KCAL/MOL
REMARK 927      BINDING AFFINITY PREDICTED BY RF-SCORE:    0.00 PKD
ROOT
ATOM      1  N   GLN A   1     -10.046  13.422  64.152  1.00  0.00    -0.779 NA 
ATOM      2  H1  GLN A   1     -10.336  14.290  63.700  1.00  0.00     0.000 HD 
ATOM      3  H2  GLN A   1      -9.035  13.291  64.123  1.00  0.00     0.000 HD 
ATOM      4  CA  GLN A   1     -10.785  12.269  63.539  1.00  0.00    -0.451 C  
ATOM      5  O   GLN A   1     -12.524  13.772  64.219  1.00  0.00    -0.629 OA 
ATOM      6  C   GLN A   1     -12.298  12.548  63.679  1.00  0.00    -0.522 C  
ATOM      7  OXT GLN A   1     -13.195  11.798  63.328  1.00  0.00    -0.555 OA 
ENDROOT
BRANCH   4   8
ATOM      8  CB  GLN A   1     -10.351  10.967  64.215  1.00  0.00    -0.430 C  
BRANCH   8   9
ATOM      9  CG  GLN A   1     -10.530  10.973  65.734  1.00  0.00    -0.290 C  
BRANCH   9  10
ATOM     10  CD  GLN A   1     -10.069   9.675  66.361  1.00  0.00    -0.247 C  
ATOM     11  NE2 GLN A   1      -9.494   8.808  65.480  1.00  0.00    -0.452 N  
ATOM     12  OE1 GLN A   1     -10.187   9.395  67.547  1.00  0.00    -0.200 OA 
ATOM     13 1HE2 GLN A   1      -9.184   7.933  65.903  1.00  0.00     0.000 HD 
ATOM     14 2HE2 GLN A   1      -9.383   9.016  64.488  1.00  0.00     0.000 HD 
ENDBRANCH   9  10
ENDBRANCH   8   9
ENDBRANCH   4   8
TORSDOF 3
ENDMDL
MODEL       37
REMARK 921   NORMALIZED FREE ENERGY PREDICTED BY IDOCK:   -3.89 KCAL/MOL
REMARK 922        TOTAL FREE ENERGY PREDICTED BY IDOCK:   -4.68 KCAL/MOL
REMARK 923 INTER-LIGAND FREE ENERGY PREDICTED BY IDOCK:   -4.60 KCAL/MOL
REMARK 924 INTRA-LIGAND FREE ENERGY PREDICTED BY IDOCK:   -0.08 KCAL/MOL
REMARK 927      BINDING AFFINITY PREDICTED BY RF-SCORE:    0.00 PKD
ROOT
ATOM      1  N   GLN A   1     -12.376  12.385  65.432  1.00  0.00    -0.614 NA 
ATOM      2  H1  GLN A   1     -13.212  12.133  64.904  1.00  0.00     0.000 HD 
ATOM      3  H2  GLN A   1     -12.316  11.887  66.321  1.00  0.00     0.000 HD 
ATOM      4  CA  GLN A   1     -12.329  13.875  65.613  1.00  0.00    -0.482 C  
ATOM      5  O   GLN A   1     -12.542  13.588  63.242  1.00  0.00    -0.773 OA 
ATOM      6  C   GLN A   1     -12.378  14.523  64.212  1.00  0.00    -0.369 C  
ATOM      7  OXT GLN A   1     -12.315  15.720  63.979  1.00  0.00    -0.696 OA 
ENDROOT
BRANCH   4   8
ATOM      8  CB  GLN A   1     -11.076  14.253  66.405  1.00  0.00    -0.325 C  
BRANCH   8   9
ATOM      9  CG  GLN A   1     -11.146  13.876  67.885  1.00  0.00    -0.278 C  
BRANCH   9  10
ATOM     10  CD  GLN A   1     -10.959  15.079  68.782  1.00  0.00    -0.255 C  
ATOM     11  NE2 GLN A   1     -10.251  14.819  69.918  1.00  0.00    -0.450 N  
ATOM     12  OE1 GLN A   1     -11.390  16.200  68.542  1.00  0.00    -0.359 OA 
ATOM     13 1HE2 GLN A   1     -10.126  15.631  70.523  1.00  0.00     0.000 HD 
ATOM     14 2HE2 GLN A   1      -9.881  13.896  70.143  1.00  0.00     0.000 HD 
ENDBRANCH   9  10
ENDBRANCH   8   9
ENDBRANCH   4   8
TORSDOF 3
ENDMDL
MODEL       38
REMARK 921   NORMALIZED FREE ENERGY PREDICTED BY IDOCK:   -3.89 KCAL/MOL
REMARK 922        TOTAL FREE ENERGY PREDICTED BY IDOCK:   -4.68 KCAL/MOL
REMARK 923 INTER-LIGAND FREE ENERGY PREDICTED BY IDOCK:   -4.36 KCAL/MOL
REMARK 924 INTRA-LIGAND FREE ENERGY PREDICTED BY IDOCK:   -0.32 KCAL/MOL
REMARK 927      BINDING AFFINITY PREDICTED BY RF-SCORE:    0.00 PKD
ROOT
ATOM      1  N   GLN A   1     -13.839   8.905  73.187  1.00  0.00    -1.176 NA 
ATOM      2  H1  GLN A   1     -13.729   8.106  73.811  1.00  0.00     0.000 HD 
ATOM      3  H2  GLN A   1     -14.773   9.312  73.241  1.00  0.00     0.000 HD 
ATOM      4  CA  GLN A   1     -13.477   8.500  71.788  1.00  0.00    -0.371 C  
ATOM      5  O   GLN A   1     -11.551   7.894  73.080  1.00  0.00    -0.351 OA 
ATOM      6  C   GLN A   1     -12.036   7.945  71.813  1.00  0.00    -0.303 C  
ATOM      7  OXT GLN A   1     -11.403   7.563  70.842  1.00  0.00    -0.268 OA 
ENDROOT
BRANCH   4   8
ATOM      8  CB  GLN A   1     -13.641   9.699  70.851  1.00  0.00    -0.070 C  
BRANCH   8   9
ATOM      9  CG  GLN A   1     -12.540  10.750  70.998  1.00  0.00    -0.520 C  
BRANCH   9  10
ATOM     10  CD  GLN A   1     -11.717  10.883  69.736  1.00  0.00    -0.338 C  
ATOM     11  NE2 GLN A   1     -10.421  10.481  69.874  1.00  0.00    -0.418 N  
ATOM     12  OE1 GLN A   1     -12.142  11.308  68.669  1.00  0.00    -0.543 OA 
ATOM     13 1HE2 GLN A   1      -9.866  10.571  69.023  1.00  0.00     0.000 HD 
ATOM     14 2HE2 GLN A   1     -10.041  10.123  70.750  1.00  0.00     0.000 HD 
ENDBRANCH   9  10
ENDBRANCH   8   9
ENDBRANCH   4   8
TORSDOF 3
ENDMDL
MODEL       39
REMARK 921   NORMALIZED FREE ENERGY PREDICTED BY IDOCK:   -3.87 KCAL/MOL
REMARK 922        TOTAL FREE ENERGY PREDICTED BY IDOCK:   -4.66 KCAL/MOL
REMARK 923 INTER-LIGAND FREE ENERGY PREDICTED BY IDOCK:   -4.44 KCAL/MOL
REMARK 924 INTRA-LIGAND FREE ENERGY PREDICTED BY IDOCK:   -0.22 KCAL/MOL
REMARK 927      BINDING AFFINITY PREDICTED BY RF-SCORE:    0.00 PKD
ROOT
ATOM      1  N   GLN A   1     -13.256  12.468  64.802  1.00  0.00    -0.740 NA 
ATOM      2  H1  GLN A   1     -14.006  12.795  64.193  1.00  0.00     0.000 HD 
ATOM      3  H2  GLN A   1     -13.575  11.762  65.465  1.00  0.00     0.000 HD 
ATOM      4  CA  GLN A   1     -12.622  13.644  65.487  1.00  0.00    -0.496 C  
ATOM      5  O   GLN A   1     -12.493  14.197  63.158  1.00  0.00    -0.678 OA 
ATOM      6  C   GLN A   1     -12.135  14.622  64.396  1.00  0.00    -0.462 C  
ATOM      7  OXT GLN A   1     -11.533  15.666  64.593  1.00  0.00    -0.403 OA 
ENDROOT
BRANCH   4   8
ATOM      8  CB  GLN A   1     -11.496  13.156  66.401  1.00  0.00    -0.374 C  
BRANCH   8   9
ATOM      9  CG  GLN A   1     -11.037  11.728  66.103  1.00  0.00    -0.358 C  
BRANCH   9  10
ATOM     10  CD  GLN A   1      -9.670  11.699  65.457  1.00  0.00    -0.232 C  
ATOM     11  NE2 GLN A   1      -9.657  12.143  64.168  1.00  0.00    -0.523 N  
ATOM     12  OE1 GLN A   1      -8.646  11.318  66.010  1.00  0.00    -0.175 OA 
ATOM     13 1HE2 GLN A   1      -8.735  12.123  63.732  1.00  0.00     0.000 HD 
ATOM     14 2HE2 GLN A   1     -10.494  12.466  63.683  1.00  0.00     0.000 HD 
ENDBRANCH   9  10
ENDBRANCH   8   9
ENDBRANCH   4   8
TORSDOF 3
ENDMDL
MODEL       40
REMARK 921   NORMALIZED FREE ENERGY PREDICTED BY IDOCK:   -3.85 KCAL/MOL
REMARK 922        TOTAL FREE ENERGY PREDICTED BY IDOCK:   -4.64 KCAL/MOL
REMARK 923 INTER-LIGAND FREE ENERGY PREDICTED BY IDOCK:   -4.48 KCAL/MOL
REMARK 924 INTRA-LIGAND FREE ENERGY PREDICTED BY IDOCK:   -0.16 KCAL/MOL
REMARK 927      BINDING AFFINITY PREDICTED BY RF-SCORE:    0.00 PKD
ROOT
ATOM      1  N   GLN A   1     -11.725  13.460  65.990  1.00  0.00    -0.346 NA 
ATOM      2  H1  GLN A   1     -12.742  13.419  65.925  1.00  0.00     0.000 HD 
ATOM      3  H2  GLN A   1     -11.375  13.038  66.850  1.00  0.00     0.000 HD 
ATOM      4  CA  GLN A   1     -11.273  14.883  65.832  1.00  0.00    -0.328 C  
ATOM      5  O   GLN A   1     -12.608  14.483  63.881  1.00  0.00    -0.827 OA 
ATOM      6  C   GLN A   1     -11.815  15.405  64.483  1.00  0.00    -0.256 C  
ATOM      7  OXT GLN A   1     -11.603  16.511  64.011  1.00  0.00    -1.154 OA 
ENDROOT
BRANCH   4   8
ATOM      8  CB  GLN A   1      -9.747  14.946  65.929  1.00  0.00    -0.366 C  
BRANCH   8   9
ATOM      9  CG  GLN A   1      -9.238  15.594  67.217  1.00  0.00    -0.214 C  
BRANCH   9  10
ATOM     10  CD  GLN A   1      -8.703  16.987  66.974  1.00  0.00    -0.221 C  
ATOM     11  NE2 GLN A   1      -8.186  17.585  68.085  1.00  0.00    -0.242 N  
ATOM     12  OE1 GLN A   1      -8.718  17.559  65.891  1.00  0.00    -0.525 OA 
ATOM     13 1HE2 GLN A   1      -7.826  18.524  67.921  1.00  0.00     0.000 HD 
ATOM     14 2HE2 GLN A   1      -8.161  17.132  68.999  1.00  0.00     0.000 HD 
ENDBRANCH   9  10
ENDBRANCH   8   9
ENDBRANCH   4   8
TORSDOF 3
ENDMDL
MODEL       41
REMARK 921   NORMALIZED FREE ENERGY PREDICTED BY IDOCK:   -3.85 KCAL/MOL
REMARK 922        TOTAL FREE ENERGY PREDICTED BY IDOCK:   -4.64 KCAL/MOL
REMARK 923 INTER-LIGAND FREE ENERGY PREDICTED BY IDOCK:   -4.47 KCAL/MOL
REMARK 924 INTRA-LIGAND FREE ENERGY PREDICTED BY IDOCK:   -0.17 KCAL/MOL
REMARK 927      BINDING AFFINITY PREDICTED BY RF-SCORE:    0.00 PKD
ROOT
ATOM      1  N   GLN A   1     -11.242  11.477  63.345  1.00  0.00    -0.758 NA 
ATOM      2  H1  GLN A   1     -12.004  11.402  62.671  1.00  0.00     0.000 HD 
ATOM      3  H2  GLN A   1     -10.715  10.608  63.430  1.00  0.00     0.000 HD 
ATOM      4  CA  GLN A   1     -11.786  11.942  64.664  1.00  0.00    -0.232 C  
ATOM      5  O   GLN A   1     -12.545  13.602  63.110  1.00  0.00    -0.792 OA 
ATOM      6  C   GLN A   1     -12.519  13.281  64.429  1.00  0.00    -0.290 C  
ATOM      7  OXT GLN A   1     -13.046  13.965  65.291  1.00  0.00    -0.777 OA 
ENDROOT
BRANCH   4   8
ATOM      8  CB  GLN A   1     -10.643  12.055  65.675  1.00  0.00    -0.303 C  
BRANCH   8   9
ATOM      9  CG  GLN A   1     -10.812  11.152  66.899  1.00  0.00    -0.333 C  
BRANCH   9  10
ATOM     10  CD  GLN A   1     -11.233  11.936  68.122  1.00  0.00    -0.258 C  
ATOM     11  NE2 GLN A   1     -10.677  11.490  69.285  1.00  0.00    -0.389 N  
ATOM     12  OE1 GLN A   1     -12.002  12.890  68.108  1.00  0.00    -0.336 OA 
ATOM     13 1HE2 GLN A   1     -10.961  12.018  70.109  1.00  0.00     0.000 HD 
ATOM     14 2HE2 GLN A   1     -10.034  10.699  69.325  1.00  0.00     0.000 HD 
ENDBRANCH   9  10
ENDBRANCH   8   9
ENDBRANCH   4   8
TORSDOF 3
ENDMDL
MODEL       42
REMARK 921   NORMALIZED FREE ENERGY PREDICTED BY IDOCK:   -3.82 KCAL/MOL
REMARK 922        TOTAL FREE ENERGY PREDICTED BY IDOCK:   -4.60 KCAL/MOL
REMARK 923 INTER-LIGAND FREE ENERGY PREDICTED BY IDOCK:   -4.45 KCAL/MOL
REMARK 924 INTRA-LIGAND FREE ENERGY PREDICTED BY IDOCK:   -0.14 KCAL/MOL
REMARK 927      BINDING AFFINITY PREDICTED BY RF-SCORE:    0.00 PKD
ROOT
ATOM      1  N   GLN A   1     -11.789  10.358  68.241  1.00  0.00    -0.760 NA 
ATOM      2  H1  GLN A   1     -12.097  10.690  67.327  1.00  0.00     0.000 HD 
ATOM      3  H2  GLN A   1     -12.094   9.403  68.428  1.00  0.00     0.000 HD 
ATOM      4  CA  GLN A   1     -12.248  11.317  69.300  1.00  0.00    -0.222 C  
ATOM      5  O   GLN A   1     -11.045  12.699  67.754  1.00  0.00    -0.226 OA 
ATOM      6  C   GLN A   1     -11.695  12.715  68.946  1.00  0.00    -0.325 C  
ATOM      7  OXT GLN A   1     -11.837  13.727  69.614  1.00  0.00    -0.293 OA 
ENDROOT
BRANCH   4   8
ATOM      8  CB  GLN A   1     -11.787  10.820  70.672  1.00  0.00    -0.460 C  
BRANCH   8   9
ATOM      9  CG  GLN A   1     -12.933  10.573  71.654  1.00  0.00    -0.581 C  
BRANCH   9  10
ATOM     10  CD  GLN A   1     -13.119   9.099  71.943  1.00  0.00    -0.411 C  
ATOM     11  NE2 GLN A   1     -13.997   8.838  72.952  1.00  0.00    -0.862 N  
ATOM     12  OE1 GLN A   1     -12.549   8.196  71.343  1.00  0.00    -0.310 OA 
ATOM     13 1HE2 GLN A   1     -14.122   7.845  73.146  1.00  0.00     0.000 HD 
ATOM     14 2HE2 GLN A   1     -14.485   9.571  73.467  1.00  0.00     0.000 HD 
ENDBRANCH   9  10
ENDBRANCH   8   9
ENDBRANCH   4   8
TORSDOF 3
ENDMDL
MODEL       43
REMARK 921   NORMALIZED FREE ENERGY PREDICTED BY IDOCK:   -3.80 KCAL/MOL
REMARK 922        TOTAL FREE ENERGY PREDICTED BY IDOCK:   -4.58 KCAL/MOL
REMARK 923 INTER-LIGAND FREE ENERGY PREDICTED BY IDOCK:   -4.23 KCAL/MOL
REMARK 924 INTRA-LIGAND FREE ENERGY PREDICTED BY IDOCK:   -0.35 KCAL/MOL
REMARK 927      BINDING AFFINITY PREDICTED BY RF-SCORE:    0.00 PKD
ROOT
ATOM      1  N   GLN A   1     -12.016  12.033  66.800  1.00  0.00    -0.610 NA 
ATOM      2  H1  GLN A   1     -12.544  12.902  66.882  1.00  0.00     0.000 HD 
ATOM      3  H2  GLN A   1     -11.509  11.808  67.657  1.00  0.00     0.000 HD 
ATOM      4  CA  GLN A   1     -11.108  12.111  65.608  1.00  0.00    -0.316 C  
ATOM      5  O   GLN A   1     -13.277  12.603  64.714  1.00  0.00    -0.846 OA 
ATOM      6  C   GLN A   1     -11.979  12.407  64.368  1.00  0.00    -0.407 C  
ATOM      7  OXT GLN A   1     -11.575  12.494  63.219  1.00  0.00    -0.468 OA 
ENDROOT
BRANCH   4   8
ATOM      8  CB  GLN A   1     -10.314  10.808  65.486  1.00  0.00    -0.308 C  
BRANCH   8   9
ATOM      9  CG  GLN A   1      -9.024  10.947  64.677  1.00  0.00    -0.147 C  
BRANCH   9  10
ATOM     10  CD  GLN A   1      -8.961   9.948  63.542  1.00  0.00    -0.252 C  
ATOM     11  NE2 GLN A   1      -9.690  10.307  62.447  1.00  0.00    -0.700 N  
ATOM     12  OE1 GLN A   1      -8.323   8.903  63.569  1.00  0.00    -0.178 OA 
ATOM     13 1HE2 GLN A   1      -9.648   9.633  61.682  1.00  0.00     0.000 HD 
ATOM     14 2HE2 GLN A   1     -10.230  11.171  62.398  1.00  0.00     0.000 HD 
ENDBRANCH   9  10
ENDBRANCH   8   9
ENDBRANCH   4   8
TORSDOF 3
ENDMDL
MODEL       44
REMARK 921   NORMALIZED FREE ENERGY PREDICTED BY IDOCK:   -3.80 KCAL/MOL
REMARK 922        TOTAL FREE ENERGY PREDICTED BY IDOCK:   -4.58 KCAL/MOL
REMARK 923 INTER-LIGAND FREE ENERGY PREDICTED BY IDOCK:   -4.49 KCAL/MOL
REMARK 924 INTRA-LIGAND FREE ENERGY PREDICTED BY IDOCK:   -0.08 KCAL/MOL
REMARK 927      BINDING AFFINITY PREDICTED BY RF-SCORE:    0.00 PKD
ROOT
ATOM      1  N   GLN A   1      -7.969  14.911  66.803  1.00  0.00    -0.331 NA 
ATOM      2  H1  GLN A   1      -7.257  15.572  67.113  1.00  0.00     0.000 HD 
ATOM      3  H2  GLN A   1      -7.620  14.276  66.085  1.00  0.00     0.000 HD 
ATOM      4  CA  GLN A   1      -9.187  15.663  66.351  1.00  0.00    -0.311 C  
ATOM      5  O   GLN A   1      -8.801  16.474  68.574  1.00  0.00    -0.209 OA 
ATOM      6  C   GLN A   1      -9.657  16.552  67.523  1.00  0.00    -0.231 C  
ATOM      7  OXT GLN A   1     -10.646  17.267  67.522  1.00  0.00    -0.354 OA 
ENDROOT
BRANCH   4   8
ATOM      8  CB  GLN A   1     -10.255  14.672  65.885  1.00  0.00    -0.344 C  
BRANCH   8   9
ATOM      9  CG  GLN A   1     -11.102  15.182  64.718  1.00  0.00    -0.395 C  
BRANCH   9  10
ATOM     10  CD  GLN A   1     -12.313  14.309  64.478  1.00  0.00    -0.410 C  
ATOM     11  NE2 GLN A   1     -12.402  13.820  63.208  1.00  0.00    -1.124 N  
ATOM     12  OE1 GLN A   1     -13.159  14.045  65.324  1.00  0.00    -0.782 OA 
ATOM     13 1HE2 GLN A   1     -13.219  13.232  63.047  1.00  0.00     0.000 HD 
ATOM     14 2HE2 GLN A   1     -11.712  14.024  62.485  1.00  0.00     0.000 HD 
ENDBRANCH   9  10
ENDBRANCH   8   9
ENDBRANCH   4   8
TORSDOF 3
ENDMDL
MODEL       45
REMARK 921   NORMALIZED FREE ENERGY PREDICTED BY IDOCK:   -3.78 KCAL/MOL
REMARK 922        TOTAL FREE ENERGY PREDICTED BY IDOCK:   -4.56 KCAL/MOL
REMARK 923 INTER-LIGAND FREE ENERGY PREDICTED BY IDOCK:   -4.20 KCAL/MOL
REMARK 924 INTRA-LIGAND FREE ENERGY PREDICTED BY IDOCK:   -0.36 KCAL/MOL
REMARK 927      BINDING AFFINITY PREDICTED BY RF-SCORE:    0.00 PKD
ROOT
ATOM      1  N   GLN A   1     -10.147  17.811  68.344  1.00  0.00    -0.355 NA 
ATOM      2  H1  GLN A   1     -10.638  16.927  68.483  1.00  0.00     0.000 HD 
ATOM      3  H2  GLN A   1     -10.156  18.393  69.182  1.00  0.00     0.000 HD 
ATOM      4  CA  GLN A   1     -10.724  18.520  67.154  1.00  0.00    -0.351 C  
ATOM      5  O   GLN A   1     -10.131  16.358  66.305  1.00  0.00    -0.296 OA 
ATOM      6  C   GLN A   1     -10.617  17.571  65.940  1.00  0.00    -0.203 C  
ATOM      7  OXT GLN A   1     -10.951  17.838  64.796  1.00  0.00    -0.855 OA 
ENDROOT
BRANCH   4   8
ATOM      8  CB  GLN A   1      -9.989  19.845  66.945  1.00  0.00    -0.563 C  
BRANCH   8   9
ATOM      9  CG  GLN A   1      -8.543  19.680  66.475  1.00  0.00    -0.387 C  
BRANCH   9  10
ATOM     10  CD  GLN A   1      -7.566  20.360  67.408  1.00  0.00    -0.326 C  
ATOM     11  NE2 GLN A   1      -7.453  19.758  68.627  1.00  0.00    -0.319 N  
ATOM     12  OE1 GLN A   1      -6.917  21.361  67.129  1.00  0.00    -0.547 OA 
ATOM     13 1HE2 GLN A   1      -6.794  20.217  69.256  1.00  0.00     0.000 HD 
ATOM     14 2HE2 GLN A   1      -7.980  18.924  68.885  1.00  0.00     0.000 HD 
ENDBRANCH   9  10
ENDBRANCH   8   9
ENDBRANCH   4   8
TORSDOF 3
ENDMDL
MODEL       46
REMARK 921   NORMALIZED FREE ENERGY PREDICTED BY IDOCK:   -3.78 KCAL/MOL
REMARK 922        TOTAL FREE ENERGY PREDICTED BY IDOCK:   -4.55 KCAL/MOL
REMARK 923 INTER-LIGAND FREE ENERGY PREDICTED BY IDOCK:   -4.48 KCAL/MOL
REMARK 924 INTRA-LIGAND FREE ENERGY PREDICTED BY IDOCK:   -0.07 KCAL/MOL
REMARK 927      BINDING AFFINITY PREDICTED BY RF-SCORE:    0.00 PKD
ROOT
ATOM      1  N   GLN A   1     -11.669  14.347  69.150  1.00  0.00    -0.297 NA 
ATOM      2  H1  GLN A   1     -12.340  14.150  69.893  1.00  0.00     0.000 HD 
ATOM      3  H2  GLN A   1     -11.660  15.333  68.888  1.00  0.00     0.000 HD 
ATOM      4  CA  GLN A   1     -11.947  13.452  67.977  1.00  0.00    -0.322 C  
ATOM      5  O   GLN A   1     -11.703  11.933  69.816  1.00  0.00    -0.308 OA 
ATOM      6  C   GLN A   1     -11.890  11.991  68.473  1.00  0.00    -0.311 C  
ATOM      7  OXT GLN A   1     -12.026  10.997  67.776  1.00  0.00    -0.609 OA 
ENDROOT
BRANCH   4   8
ATOM      8  CB  GLN A   1     -10.942  13.746  66.862  1.00  0.00    -0.296 C  
BRANCH   8   9
ATOM      9  CG  GLN A   1     -11.283  14.989  66.038  1.00  0.00    -0.310 C  
BRANCH   9  10
ATOM     10  CD  GLN A   1     -12.104  14.647  64.815  1.00  0.00    -0.421 C  
ATOM     11  NE2 GLN A   1     -12.158  15.644  63.886  1.00  0.00    -0.964 N  
ATOM     12  OE1 GLN A   1     -12.682  13.581  64.641  1.00  0.00    -0.641 OA 
ATOM     13 1HE2 GLN A   1     -12.712  15.413  63.062  1.00  0.00     0.000 HD 
ATOM     14 2HE2 GLN A   1     -11.686  16.540  64.006  1.00  0.00     0.000 HD 
ENDBRANCH   9  10
ENDBRANCH   8   9
ENDBRANCH   4   8
TORSDOF 3
ENDMDL
MODEL       47
REMARK 921   NORMALIZED FREE ENERGY PREDICTED BY IDOCK:   -3.75 KCAL/MOL
REMARK 922        TOTAL FREE ENERGY PREDICTED BY IDOCK:   -4.52 KCAL/MOL
REMARK 923 INTER-LIGAND FREE ENERGY PREDICTED BY IDOCK:   -4.42 KCAL/MOL
REMARK 924 INTRA-LIGAND FREE ENERGY PREDICTED BY IDOCK:   -0.10 KCAL/MOL
REMARK 927      BINDING AFFINITY PREDICTED BY RF-SCORE:    0.00 PKD
ROOT
ATOM      1  N   GLN A   1     -12.200  11.687  63.049  1.00  0.00    -0.951 NA 
ATOM      2  H1  GLN A   1     -13.183  11.916  62.903  1.00  0.00     0.000 HD 
ATOM      3  H2  GLN A   1     -12.027  10.682  63.009  1.00  0.00     0.000 HD 
ATOM      4  CA  GLN A   1     -11.733  12.291  64.341  1.00  0.00    -0.365 C  
ATOM      5  O   GLN A   1     -12.648  14.149  63.133  1.00  0.00    -0.686 OA 
ATOM      6  C   GLN A   1     -11.997  13.811  64.276  1.00  0.00    -0.443 C  
ATOM      7  OXT GLN A   1     -11.701  14.623  65.138  1.00  0.00    -0.357 OA 
ENDROOT
BRANCH   4   8
ATOM      8  CB  GLN A   1     -10.258  11.948  64.561  1.00  0.00    -0.320 C  
BRANCH   8   9
ATOM      9  CG  GLN A   1      -9.951  10.454  64.453  1.00  0.00    -0.388 C  
BRANCH   9  10
ATOM     10  CD  GLN A   1      -9.115  10.137  63.233  1.00  0.00    -0.271 C  
ATOM     11  NE2 GLN A   1      -8.646   8.858  63.198  1.00  0.00    -0.374 N  
ATOM     12  OE1 GLN A   1      -8.863  10.933  62.336  1.00  0.00    -0.266 OA 
ATOM     13 1HE2 GLN A   1      -8.083   8.645  62.376  1.00  0.00     0.000 HD 
ATOM     14 2HE2 GLN A   1      -8.842   8.175  63.931  1.00  0.00     0.000 HD 
ENDBRANCH   9  10
ENDBRANCH   8   9
ENDBRANCH   4   8
TORSDOF 3
ENDMDL
MODEL       48
REMARK 921   NORMALIZED FREE ENERGY PREDICTED BY IDOCK:   -3.71 KCAL/MOL
REMARK 922        TOTAL FREE ENERGY PREDICTED BY IDOCK:   -4.47 KCAL/MOL
REMARK 923 INTER-LIGAND FREE ENERGY PREDICTED BY IDOCK:   -4.32 KCAL/MOL
REMARK 924 INTRA-LIGAND FREE ENERGY PREDICTED BY IDOCK:   -0.15 KCAL/MOL
REMARK 927      BINDING AFFINITY PREDICTED BY RF-SCORE:    0.00 PKD
ROOT
ATOM      1  N   GLN A   1     -10.041  14.120  64.360  1.00  0.00    -0.663 NA 
ATOM      2  H1  GLN A   1     -10.287  14.812  63.652  1.00  0.00     0.000 HD 
ATOM      3  H2  GLN A   1      -9.032  14.032  64.479  1.00  0.00     0.000 HD 
ATOM      4  CA  GLN A   1     -10.688  12.809  64.022  1.00  0.00    -0.426 C  
ATOM      5  O   GLN A   1     -12.515  14.362  64.056  1.00  0.00    -0.748 OA 
ATOM      6  C   GLN A   1     -12.210  13.046  63.913  1.00  0.00    -0.437 C  
ATOM      7  OXT GLN A   1     -13.051  12.188  63.693  1.00  0.00    -0.787 OA 
ENDROOT
BRANCH   4   8
ATOM      8  CB  GLN A   1     -10.319  11.770  65.083  1.00  0.00    -0.323 C  
BRANCH   8   9
ATOM      9  CG  GLN A   1     -10.738  12.161  66.501  1.00  0.00    -0.290 C  
BRANCH   9  10
ATOM     10  CD  GLN A   1      -9.681  11.798  67.520  1.00  0.00    -0.180 C  
ATOM     11  NE2 GLN A   1      -9.448  12.770  68.448  1.00  0.00    -0.327 N  
ATOM     12  OE1 GLN A   1      -9.070  10.737  67.542  1.00  0.00    -0.139 OA 
ATOM     13 1HE2 GLN A   1      -8.736  12.526  69.135  1.00  0.00     0.000 HD 
ATOM     14 2HE2 GLN A   1      -9.943  13.662  68.453  1.00  0.00     0.000 HD 
ENDBRANCH   9  10
ENDBRANCH   8   9
ENDBRANCH   4   8
TORSDOF 3
ENDMDL
MODEL       49
REMARK 921   NORMALIZED FREE ENERGY PREDICTED BY IDOCK:   -3.70 KCAL/MOL
REMARK 922        TOTAL FREE ENERGY PREDICTED BY IDOCK:   -4.46 KCAL/MOL
REMARK 923 INTER-LIGAND FREE ENERGY PREDICTED BY IDOCK:   -4.40 KCAL/MOL
REMARK 924 INTRA-LIGAND FREE ENERGY PREDICTED BY IDOCK:   -0.07 KCAL/MOL
REMARK 927      BINDING AFFINITY PREDICTED BY RF-SCORE:    0.00 PKD
ROOT
ATOM      1  N   GLN A   1     -11.711  12.179  70.372  1.00  0.00    -0.532 NA 
ATOM      2  H1  GLN A   1     -11.762  13.012  69.784  1.00  0.00     0.000 HD 
ATOM      3  H2  GLN A   1     -11.471  11.344  69.839  1.00  0.00     0.000 HD 
ATOM      4  CA  GLN A   1     -13.000  12.021  71.125  1.00  0.00    -0.158 C  
ATOM      5  O   GLN A   1     -12.291  14.247  71.660  1.00  0.00    -0.343 OA 
ATOM      6  C   GLN A   1     -13.242  13.316  71.929  1.00  0.00    -0.431 C  
ATOM      7  OXT GLN A   1     -14.175  13.519  72.689  1.00  0.00    -0.751 OA 
ENDROOT
BRANCH   4   8
ATOM      8  CB  GLN A   1     -12.925  10.773  72.007  1.00  0.00    -0.444 C  
BRANCH   8   9
ATOM      9  CG  GLN A   1     -12.158   9.613  71.369  1.00  0.00    -0.472 C  
BRANCH   9  10
ATOM     10  CD  GLN A   1     -12.614   8.274  71.905  1.00  0.00    -0.344 C  
ATOM     11  NE2 GLN A   1     -11.979   7.888  73.048  1.00  0.00    -0.563 N  
ATOM     12  OE1 GLN A   1     -13.474   7.573  71.386  1.00  0.00    -0.359 OA 
ATOM     13 1HE2 GLN A   1     -12.286   6.986  73.409  1.00  0.00     0.000 HD 
ATOM     14 2HE2 GLN A   1     -11.260   8.453  73.501  1.00  0.00     0.000 HD 
ENDBRANCH   9  10
ENDBRANCH   8   9
ENDBRANCH   4   8
TORSDOF 3
ENDMDL
MODEL       50
REMARK 921   NORMALIZED FREE ENERGY PREDICTED BY IDOCK:   -3.69 KCAL/MOL
REMARK 922        TOTAL FREE ENERGY PREDICTED BY IDOCK:   -4.44 KCAL/MOL
REMARK 923 INTER-LIGAND FREE ENERGY PREDICTED BY IDOCK:   -4.32 KCAL/MOL
REMARK 924 INTRA-LIGAND FREE ENERGY PREDICTED BY IDOCK:   -0.12 KCAL/MOL
REMARK 927      BINDING AFFINITY PREDICTED BY RF-SCORE:    0.00 PKD
ROOT
ATOM      1  N   GLN A   1      -8.789  11.136  64.954  1.00  0.00    -0.374 NA 
ATOM      2  H1  GLN A   1      -7.910  10.687  65.209  1.00  0.00     0.000 HD 
ATOM      3  H2  GLN A   1      -8.657  12.100  64.647  1.00  0.00     0.000 HD 
ATOM      4  CA  GLN A   1      -9.753  11.034  66.100  1.00  0.00    -0.217 C  
ATOM      5  O   GLN A   1      -9.088   8.766  65.702  1.00  0.00    -0.203 OA 
ATOM      6  C   GLN A   1      -9.916   9.539  66.449  1.00  0.00    -0.269 C  
ATOM      7  OXT GLN A   1     -10.659   9.085  67.305  1.00  0.00    -0.276 OA 
ENDROOT
BRANCH   4   8
ATOM      8  CB  GLN A   1     -11.073  11.707  65.717  1.00  0.00    -0.313 C  
BRANCH   8   9
ATOM      9  CG  GLN A   1     -10.904  12.916  64.796  1.00  0.00    -0.350 C  
BRANCH   9  10
ATOM     10  CD  GLN A   1     -12.008  12.998  63.765  1.00  0.00    -0.518 C  
ATOM     11  NE2 GLN A   1     -12.300  11.807  63.170  1.00  0.00    -0.959 N  
ATOM     12  OE1 GLN A   1     -12.607  14.024  63.467  1.00  0.00    -0.842 OA 
ATOM     13 1HE2 GLN A   1     -13.044  11.862  62.475  1.00  0.00     0.000 HD 
ATOM     14 2HE2 GLN A   1     -11.818  10.938  63.400  1.00  0.00     0.000 HD 
ENDBRANCH   9  10
ENDBRANCH   8   9
ENDBRANCH   4   8
TORSDOF 3
ENDMDL
MODEL       51
REMARK 921   NORMALIZED FREE ENERGY PREDICTED BY IDOCK:   -3.68 KCAL/MOL
REMARK 922        TOTAL FREE ENERGY PREDICTED BY IDOCK:   -4.44 KCAL/MOL
REMARK 923 INTER-LIGAND FREE ENERGY PREDICTED BY IDOCK:   -4.12 KCAL/MOL
REMARK 924 INTRA-LIGAND FREE ENERGY PREDICTED BY IDOCK:   -0.32 KCAL/MOL
REMARK 927      BINDING AFFINITY PREDICTED BY RF-SCORE:    0.00 PKD
ROOT
ATOM      1  N   GLN A   1     -11.959  10.065  69.732  1.00  0.00    -0.475 NA 
ATOM      2  H1  GLN A   1     -12.121  10.724  68.970  1.00  0.00     0.000 HD 
ATOM      3  H2  GLN A   1     -11.964   9.097  69.412  1.00  0.00     0.000 HD 
ATOM      4  CA  GLN A   1     -12.962  10.307  70.823  1.00  0.00    -0.330 C  
ATOM      5  O   GLN A   1     -11.943  12.452  70.491  1.00  0.00    -0.330 OA 
ATOM      6  C   GLN A   1     -12.837  11.782  71.262  1.00  0.00    -0.308 C  
ATOM      7  OXT GLN A   1     -13.471  12.314  72.160  1.00  0.00    -0.509 OA 
ENDROOT
BRANCH   4   8
ATOM      8  CB  GLN A   1     -12.720   9.319  71.965  1.00  0.00    -0.479 C  
BRANCH   8   9
ATOM      9  CG  GLN A   1     -13.433   7.978  71.782  1.00  0.00    -0.378 C  
BRANCH   9  10
ATOM     10  CD  GLN A   1     -12.466   6.871  71.427  1.00  0.00    -0.367 C  
ATOM     11  NE2 GLN A   1     -11.973   6.949  70.159  1.00  0.00    -0.637 N  
ATOM     12  OE1 GLN A   1     -12.133   5.969  72.186  1.00  0.00    -0.304 OA 
ATOM     13 1HE2 GLN A   1     -11.322   6.202  69.920  1.00  0.00     0.000 HD 
ATOM     14 2HE2 GLN A   1     -12.233   7.689  69.507  1.00  0.00     0.000 HD 
ENDBRANCH   9  10
ENDBRANCH   8   9
ENDBRANCH   4   8
TORSDOF 3
ENDMDL
MODEL       52
REMARK 921   NORMALIZED FREE ENERGY PREDICTED BY IDOCK:   -3.68 KCAL/MOL
REMARK 922        TOTAL FREE ENERGY PREDICTED BY IDOCK:   -4.43 KCAL/MOL
REMARK 923 INTER-LIGAND FREE ENERGY PREDICTED BY IDOCK:   -4.37 KCAL/MOL
REMARK 924 INTRA-LIGAND FREE ENERGY PREDICTED BY IDOCK:   -0.07 KCAL/MOL
REMARK 927      BINDING AFFINITY PREDICTED BY RF-SCORE:    0.00 PKD
ROOT
ATOM      1  N   GLN A   1     -10.286  15.289  70.196  1.00  0.00    -0.491 NA 
ATOM      2  H1  GLN A   1     -10.045  16.218  70.544  1.00  0.00     0.000 HD 
ATOM      3  H2  GLN A   1      -9.683  14.997  69.427  1.00  0.00     0.000 HD 
ATOM      4  CA  GLN A   1     -11.739  15.258  69.822  1.00  0.00    -0.323 C  
ATOM      5  O   GLN A   1     -11.745  16.026  72.093  1.00  0.00    -0.455 OA 
ATOM      6  C   GLN A   1     -12.557  15.669  71.065  1.00  0.00    -0.459 C  
ATOM      7  OXT GLN A   1     -13.776  15.711  71.134  1.00  0.00    -0.591 OA 
ENDROOT
BRANCH   4   8
ATOM      8  CB  GLN A   1     -12.101  13.866  69.300  1.00  0.00    -0.383 C  
BRANCH   8   9
ATOM      9  CG  GLN A   1     -11.075  13.288  68.324  1.00  0.00    -0.294 C  
BRANCH   9  10
ATOM     10  CD  GLN A   1     -11.703  12.300  67.367  1.00  0.00    -0.335 C  
ATOM     11  NE2 GLN A   1     -12.096  12.848  66.182  1.00  0.00    -0.424 N  
ATOM     12  OE1 GLN A   1     -11.860  11.107  67.600  1.00  0.00    -0.612 OA 
ATOM     13 1HE2 GLN A   1     -12.519  12.182  65.537  1.00  0.00     0.000 HD 
ATOM     14 2HE2 GLN A   1     -11.977  13.837  65.961  1.00  0.00     0.000 HD 
ENDBRANCH   9  10
ENDBRANCH   8   9
ENDBRANCH   4   8
TORSDOF 3
ENDMDL
MODEL       53
REMARK 921   NORMALIZED FREE ENERGY PREDICTED BY IDOCK:   -3.67 KCAL/MOL
REMARK 922        TOTAL FREE ENERGY PREDICTED BY IDOCK:   -4.43 KCAL/MOL
REMARK 923 INTER-LIGAND FREE ENERGY PREDICTED BY IDOCK:   -4.36 KCAL/MOL
REMARK 924 INTRA-LIGAND FREE ENERGY PREDICTED BY IDOCK:   -0.07 KCAL/MOL
REMARK 927      BINDING AFFINITY PREDICTED BY RF-SCORE:    0.00 PKD
ROOT
ATOM      1  N   GLN A   1     -12.367  14.384  67.498  1.00  0.00    -0.600 NA 
ATOM      2  H1  GLN A   1     -12.331  15.212  66.904  1.00  0.00     0.000 HD 
ATOM      3  H2  GLN A   1     -12.038  14.574  68.445  1.00  0.00     0.000 HD 
ATOM      4  CA  GLN A   1     -11.607  13.267  66.846  1.00  0.00    -0.364 C  
ATOM      5  O   GLN A   1     -13.181  13.947  65.171  1.00  0.00    -0.768 OA 
ATOM      6  C   GLN A   1     -12.215  13.034  65.446  1.00  0.00    -0.471 C  
ATOM      7  OXT GLN A   1     -11.870  12.171  64.654  1.00  0.00    -0.359 OA 
ENDROOT
BRANCH   4   8
ATOM      8  CB  GLN A   1     -11.661  12.025  67.737  1.00  0.00    -0.400 C  
BRANCH   8   9
ATOM      9  CG  GLN A   1     -11.729  12.342  69.232  1.00  0.00    -0.388 C  
BRANCH   9  10
ATOM     10  CD  GLN A   1     -11.874  11.089  70.067  1.00  0.00    -0.355 C  
ATOM     11  NE2 GLN A   1     -12.778  11.199  71.081  1.00  0.00    -0.405 N  
ATOM     12  OE1 GLN A   1     -11.251  10.051  69.878  1.00  0.00    -0.250 OA 
ATOM     13 1HE2 GLN A   1     -12.875  10.355  71.644  1.00  0.00     0.000 HD 
ATOM     14 2HE2 GLN A   1     -13.310  12.051  71.261  1.00  0.00     0.000 HD 
ENDBRANCH   9  10
ENDBRANCH   8   9
ENDBRANCH   4   8
TORSDOF 3
ENDMDL
MODEL       54
REMARK 921   NORMALIZED FREE ENERGY PREDICTED BY IDOCK:   -3.65 KCAL/MOL
REMARK 922        TOTAL FREE ENERGY PREDICTED BY IDOCK:   -4.40 KCAL/MOL
REMARK 923 INTER-LIGAND FREE ENERGY PREDICTED BY IDOCK:   -4.31 KCAL/MOL
REMARK 924 INTRA-LIGAND FREE ENERGY PREDICTED BY IDOCK:   -0.09 KCAL/MOL
REMARK 927      BINDING AFFINITY PREDICTED BY RF-SCORE:    0.00 PKD
ROOT
ATOM      1  N   GLN A   1     -10.184  15.111  67.083  1.00  0.00    -0.244 NA 
ATOM      2  H1  GLN A   1     -10.933  14.420  67.042  1.00  0.00     0.000 HD 
ATOM      3  H2  GLN A   1      -9.870  15.284  68.038  1.00  0.00     0.000 HD 
ATOM      4  CA  GLN A   1     -10.626  16.370  66.395  1.00  0.00    -0.236 C  
ATOM      5  O   GLN A   1     -10.965  14.662  64.747  1.00  0.00    -0.392 OA 
ATOM      6  C   GLN A   1     -11.032  16.002  64.951  1.00  0.00    -0.384 C  
ATOM      7  OXT GLN A   1     -11.402  16.789  64.093  1.00  0.00    -1.194 OA 
ENDROOT
BRANCH   4   8
ATOM      8  CB  GLN A   1      -9.503  17.406  66.456  1.00  0.00    -0.288 C  
BRANCH   8   9
ATOM      9  CG  GLN A   1      -9.988  18.822  66.770  1.00  0.00    -0.394 C  
BRANCH   9  10
ATOM     10  CD  GLN A   1      -8.853  19.723  67.203  1.00  0.00    -0.323 C  
ATOM     11  NE2 GLN A   1      -8.427  20.584  66.234  1.00  0.00    -0.531 N  
ATOM     12  OE1 GLN A   1      -8.338  19.709  68.314  1.00  0.00    -0.325 OA 
ATOM     13 1HE2 GLN A   1      -7.661  21.190  66.526  1.00  0.00     0.000 HD 
ATOM     14 2HE2 GLN A   1      -8.838  20.617  65.301  1.00  0.00     0.000 HD 
ENDBRANCH   9  10
ENDBRANCH   8   9
ENDBRANCH   4   8
TORSDOF 3
ENDMDL
MODEL       55
REMARK 921   NORMALIZED FREE ENERGY PREDICTED BY IDOCK:   -3.63 KCAL/MOL
REMARK 922        TOTAL FREE ENERGY PREDICTED BY IDOCK:   -4.37 KCAL/MOL
REMARK 923 INTER-LIGAND FREE ENERGY PREDICTED BY IDOCK:   -4.18 KCAL/MOL
REMARK 924 INTRA-LIGAND FREE ENERGY PREDICTED BY IDOCK:   -0.19 KCAL/MOL
REMARK 927      BINDING AFFINITY PREDICTED BY RF-SCORE:    0.00 PKD
ROOT
ATOM      1  N   GLN A   1     -12.489   8.242  72.933  1.00  0.00    -0.650 NA 
ATOM      2  H1  GLN A   1     -13.172   7.526  73.183  1.00  0.00     0.000 HD 
ATOM      3  H2  GLN A   1     -12.732   9.156  73.313  1.00  0.00     0.000 HD 
ATOM      4  CA  GLN A   1     -12.324   8.273  71.441  1.00  0.00    -0.299 C  
ATOM      5  O   GLN A   1     -11.911   5.983  72.019  1.00  0.00    -0.294 OA 
ATOM      6  C   GLN A   1     -11.913   6.857  70.980  1.00  0.00    -0.374 C  
ATOM      7  OXT GLN A   1     -11.652   6.530  69.834  1.00  0.00    -0.409 OA 
ENDROOT
BRANCH   4   8
ATOM      8  CB  GLN A   1     -11.300   9.346  71.065  1.00  0.00    -0.407 C  
BRANCH   8   9
ATOM      9  CG  GLN A   1     -11.884  10.489  70.233  1.00  0.00    -0.418 C  
BRANCH   9  10
ATOM     10  CD  GLN A   1     -12.468  11.579  71.104  1.00  0.00    -0.337 C  
ATOM     11  NE2 GLN A   1     -12.098  12.839  70.739  1.00  0.00    -0.491 N  
ATOM     12  OE1 GLN A   1     -13.209  11.383  72.060  1.00  0.00    -0.503 OA 
ATOM     13 1HE2 GLN A   1     -12.491  13.573  71.327  1.00  0.00     0.000 HD 
ATOM     14 2HE2 GLN A   1     -11.483  13.030  69.948  1.00  0.00     0.000 HD 
ENDBRANCH   9  10
ENDBRANCH   8   9
ENDBRANCH   4   8
TORSDOF 3
ENDMDL
MODEL       56
REMARK 921   NORMALIZED FREE ENERGY PREDICTED BY IDOCK:   -3.62 KCAL/MOL
REMARK 922        TOTAL FREE ENERGY PREDICTED BY IDOCK:   -4.36 KCAL/MOL
REMARK 923 INTER-LIGAND FREE ENERGY PREDICTED BY IDOCK:   -4.25 KCAL/MOL
REMARK 924 INTRA-LIGAND FREE ENERGY PREDICTED BY IDOCK:   -0.11 KCAL/MOL
REMARK 927      BINDING AFFINITY PREDICTED BY RF-SCORE:    0.00 PKD
ROOT
ATOM      1  N   GLN A   1     -11.029   8.743  72.019  1.00  0.00    -0.362 NA 
ATOM      2  H1  GLN A   1     -10.568   7.852  72.202  1.00  0.00     0.000 HD 
ATOM      3  H2  GLN A   1     -10.590   9.516  72.519  1.00  0.00     0.000 HD 
ATOM      4  CA  GLN A   1     -12.492   8.622  72.334  1.00  0.00    -0.362 C  
ATOM      5  O   GLN A   1     -12.084   6.831  70.794  1.00  0.00    -0.387 OA 
ATOM      6  C   GLN A   1     -13.063   7.460  71.493  1.00  0.00    -0.374 C  
ATOM      7  OXT GLN A   1     -14.232   7.108  71.465  1.00  0.00    -0.400 OA 
ENDROOT
BRANCH   4   8
ATOM      8  CB  GLN A   1     -13.185   9.958  72.060  1.00  0.00    -0.555 C  
BRANCH   8   9
ATOM      9  CG  GLN A   1     -12.467  10.822  71.022  1.00  0.00    -0.522 C  
BRANCH   9  10
ATOM     10  CD  GLN A   1     -12.685  12.298  71.271  1.00  0.00    -0.251 C  
ATOM     11  NE2 GLN A   1     -11.971  13.112  70.441  1.00  0.00    -0.511 N  
ATOM     12  OE1 GLN A   1     -13.427  12.757  72.131  1.00  0.00    -0.530 OA 
ATOM     13 1HE2 GLN A   1     -12.118  14.107  70.610  1.00  0.00     0.000 HD 
ATOM     14 2HE2 GLN A   1     -11.347  12.756  69.717  1.00  0.00     0.000 HD 
ENDBRANCH   9  10
ENDBRANCH   8   9
ENDBRANCH   4   8
TORSDOF 3
ENDMDL
MODEL       57
REMARK 921   NORMALIZED FREE ENERGY PREDICTED BY IDOCK:   -3.62 KCAL/MOL
REMARK 922        TOTAL FREE ENERGY PREDICTED BY IDOCK:   -4.36 KCAL/MOL
REMARK 923 INTER-LIGAND FREE ENERGY PREDICTED BY IDOCK:   -4.07 KCAL/MOL
REMARK 924 INTRA-LIGAND FREE ENERGY PREDICTED BY IDOCK:   -0.29 KCAL/MOL
REMARK 927      BINDING AFFINITY PREDICTED BY RF-SCORE:    0.00 PKD
ROOT
ATOM      1  N   GLN A   1      -9.943  10.471  62.547  1.00  0.00    -0.755 NA 
ATOM      2  H1  GLN A   1      -9.177  10.299  61.895  1.00  0.00     0.000 HD 
ATOM      3  H2  GLN A   1     -10.523  11.260  62.262  1.00  0.00     0.000 HD 
ATOM      4  CA  GLN A   1      -9.390  10.644  63.932  1.00  0.00    -0.267 C  
ATOM      5  O   GLN A   1      -8.510   8.531  63.219  1.00  0.00    -0.150 OA 
ATOM      6  C   GLN A   1      -8.573   9.380  64.277  1.00  0.00    -0.196 C  
ATOM      7  OXT GLN A   1      -8.018   9.159  65.342  1.00  0.00    -0.100 OA 
ENDROOT
BRANCH   4   8
ATOM      8  CB  GLN A   1     -10.537  10.902  64.910  1.00  0.00    -0.304 C  
BRANCH   8   9
ATOM      9  CG  GLN A   1     -10.775  12.384  65.205  1.00  0.00    -0.327 C  
BRANCH   9  10
ATOM     10  CD  GLN A   1     -12.029  12.898  64.533  1.00  0.00    -0.395 C  
ATOM     11  NE2 GLN A   1     -11.880  13.153  63.202  1.00  0.00    -0.833 N  
ATOM     12  OE1 GLN A   1     -13.098  13.080  65.102  1.00  0.00    -0.740 OA 
ATOM     13 1HE2 GLN A   1     -12.726  13.499  62.750  1.00  0.00     0.000 HD 
ATOM     14 2HE2 GLN A   1     -11.002  13.009  62.704  1.00  0.00     0.000 HD 
ENDBRANCH   9  10
ENDBRANCH   8   9
ENDBRANCH   4   8
TORSDOF 3
ENDMDL
MODEL       58
REMARK 921   NORMALIZED FREE ENERGY PREDICTED BY IDOCK:   -3.59 KCAL/MOL
REMARK 922        TOTAL FREE ENERGY PREDICTED BY IDOCK:   -4.34 KCAL/MOL
REMARK 923 INTER-LIGAND FREE ENERGY PREDICTED BY IDOCK:   -4.22 KCAL/MOL
REMARK 924 INTRA-LIGAND FREE ENERGY PREDICTED BY IDOCK:   -0.11 KCAL/MOL
REMARK 927      BINDING AFFINITY PREDICTED BY RF-SCORE:    0.00 PKD
ROOT
ATOM      1  N   GLN A   1     -11.755  11.688  63.020  1.00  0.00    -0.851 NA 
ATOM      2  H1  GLN A   1     -11.066  11.543  62.281  1.00  0.00     0.000 HD 
ATOM      3  H2  GLN A   1     -12.534  12.270  62.713  1.00  0.00     0.000 HD 
ATOM      4  CA  GLN A   1     -11.074  12.247  64.235  1.00  0.00    -0.348 C  
ATOM      5  O   GLN A   1      -9.836  10.253  63.746  1.00  0.00    -0.299 OA 
ATOM      6  C   GLN A   1      -9.949  11.269  64.639  1.00  0.00    -0.281 C  
ATOM      7  OXT GLN A   1      -9.218  11.387  65.610  1.00  0.00    -0.215 OA 
ENDROOT
BRANCH   4   8
ATOM      8  CB  GLN A   1     -12.106  12.464  65.343  1.00  0.00    -0.428 C  
BRANCH   8   9
ATOM      9  CG  GLN A   1     -12.521  13.925  65.520  1.00  0.00    -0.541 C  
BRANCH   9  10
ATOM     10  CD  GLN A   1     -11.741  14.603  66.624  1.00  0.00    -0.333 C  
ATOM     11  NE2 GLN A   1     -12.223  14.358  67.876  1.00  0.00    -0.620 N  
ATOM     12  OE1 GLN A   1     -10.759  15.314  66.447  1.00  0.00    -0.309 OA 
ATOM     13 1HE2 GLN A   1     -11.696  14.815  68.620  1.00  0.00     0.000 HD 
ATOM     14 2HE2 GLN A   1     -13.037  13.769  68.051  1.00  0.00     0.000 HD 
ENDBRANCH   9  10
ENDBRANCH   8   9
ENDBRANCH   4   8
TORSDOF 3
ENDMDL
MODEL       59
REMARK 921   NORMALIZED FREE ENERGY PREDICTED BY IDOCK:   -3.59 KCAL/MOL
REMARK 922        TOTAL FREE ENERGY PREDICTED BY IDOCK:   -4.33 KCAL/MOL
REMARK 923 INTER-LIGAND FREE ENERGY PREDICTED BY IDOCK:   -3.96 KCAL/MOL
REMARK 924 INTRA-LIGAND FREE ENERGY PREDICTED BY IDOCK:   -0.37 KCAL/MOL
REMARK 927      BINDING AFFINITY PREDICTED BY RF-SCORE:    0.00 PKD
ROOT
ATOM      1  N   GLN A   1     -11.979   8.645  70.571  1.00  0.00    -0.483 NA 
ATOM      2  H1  GLN A   1     -11.871   8.192  71.478  1.00  0.00     0.000 HD 
ATOM      3  H2  GLN A   1     -11.300   8.309  69.888  1.00  0.00     0.000 HD 
ATOM      4  CA  GLN A   1     -11.917  10.134  70.746  1.00  0.00    -0.348 C  
ATOM      5  O   GLN A   1     -13.641   9.447  72.263  1.00  0.00    -0.447 OA 
ATOM      6  C   GLN A   1     -13.010  10.539  71.759  1.00  0.00    -0.476 C  
ATOM      7  OXT GLN A   1     -13.273  11.679  72.105  1.00  0.00    -0.504 OA 
ENDROOT
BRANCH   4   8
ATOM      8  CB  GLN A   1     -12.078  10.815  69.386  1.00  0.00    -0.315 C  
BRANCH   8   9
ATOM      9  CG  GLN A   1     -11.069  11.936  69.134  1.00  0.00    -0.285 C  
BRANCH   9  10
ATOM     10  CD  GLN A   1     -11.715  13.302  69.199  1.00  0.00    -0.329 C  
ATOM     11  NE2 GLN A   1     -12.064  13.692  70.458  1.00  0.00    -0.418 N  
ATOM     12  OE1 GLN A   1     -11.923  14.021  68.228  1.00  0.00    -0.357 OA 
ATOM     13 1HE2 GLN A   1     -12.500  14.612  70.501  1.00  0.00     0.000 HD 
ATOM     14 2HE2 GLN A   1     -11.902  13.114  71.283  1.00  0.00     0.000 HD 
ENDBRANCH   9  10
ENDBRANCH   8   9
ENDBRANCH   4   8
TORSDOF 3
ENDMDL
MODEL       60
REMARK 921   NORMALIZED FREE ENERGY PREDICTED BY IDOCK:   -3.57 KCAL/MOL
REMARK 922        TOTAL FREE ENERGY PREDICTED BY IDOCK:   -4.31 KCAL/MOL
REMARK 923 INTER-LIGAND FREE ENERGY PREDICTED BY IDOCK:   -3.92 KCAL/MOL
REMARK 924 INTRA-LIGAND FREE ENERGY PREDICTED BY IDOCK:   -0.39 KCAL/MOL
REMARK 927      BINDING AFFINITY PREDICTED BY RF-SCORE:    0.00 PKD
ROOT
ATOM      1  N   GLN A   1      -9.502  16.626  65.617  1.00  0.00    -0.497 NA 
ATOM      2  H1  GLN A   1      -9.137  17.152  66.411  1.00  0.00     0.000 HD 
ATOM      3  H2  GLN A   1     -10.002  17.220  64.956  1.00  0.00     0.000 HD 
ATOM      4  CA  GLN A   1     -10.351  15.493  66.116  1.00  0.00    -0.315 C  
ATOM      5  O   GLN A   1      -8.260  15.188  67.249  1.00  0.00    -0.177 OA 
ATOM      6  C   GLN A   1      -9.486  14.635  67.065  1.00  0.00    -0.241 C  
ATOM      7  OXT GLN A   1      -9.843  13.607  67.619  1.00  0.00    -0.219 OA 
ENDROOT
BRANCH   4   8
ATOM      8  CB  GLN A   1     -10.898  14.703  64.925  1.00  0.00    -0.436 C  
BRANCH   8   9
ATOM      9  CG  GLN A   1     -12.304  14.144  65.151  1.00  0.00    -0.460 C  
BRANCH   9  10
ATOM     10  CD  GLN A   1     -12.377  12.665  64.844  1.00  0.00    -0.498 C  
ATOM     11  NE2 GLN A   1     -11.337  11.942  65.348  1.00  0.00    -0.308 N  
ATOM     12  OE1 GLN A   1     -13.275  12.130  64.205  1.00  0.00    -0.768 OA 
ATOM     13 1HE2 GLN A   1     -11.387  10.945  65.141  1.00  0.00     0.000 HD 
ATOM     14 2HE2 GLN A   1     -10.577  12.361  65.884  1.00  0.00     0.000 HD 
ENDBRANCH   9  10
ENDBRANCH   8   9
ENDBRANCH   4   8
TORSDOF 3
ENDMDL
MODEL       61
REMARK 921   NORMALIZED FREE ENERGY PREDICTED BY IDOCK:   -3.56 KCAL/MOL
REMARK 922        TOTAL FREE ENERGY PREDICTED BY IDOCK:   -4.29 KCAL/MOL
REMARK 923 INTER-LIGAND FREE ENERGY PREDICTED BY IDOCK:   -4.22 KCAL/MOL
REMARK 924 INTRA-LIGAND FREE ENERGY PREDICTED BY IDOCK:   -0.07 KCAL/MOL
REMARK 927      BINDING AFFINITY PREDICTED BY RF-SCORE:    0.00 PKD
ROOT
ATOM      1  N   GLN A   1     -13.383  14.712  70.335  1.00  0.00    -0.518 NA 
ATOM      2  H1  GLN A   1     -14.045  14.087  70.797  1.00  0.00     0.000 HD 
ATOM      3  H2  GLN A   1     -12.993  14.303  69.487  1.00  0.00     0.000 HD 
ATOM      4  CA  GLN A   1     -12.318  15.120  71.311  1.00  0.00    -0.336 C  
ATOM      5  O   GLN A   1     -14.365  15.698  72.417  1.00  0.00    -0.546 OA 
ATOM      6  C   GLN A   1     -13.014  15.766  72.529  1.00  0.00    -0.470 C  
ATOM      7  OXT GLN A   1     -12.449  16.252  73.496  1.00  0.00    -0.494 OA 
ENDROOT
BRANCH   4   8
ATOM      8  CB  GLN A   1     -11.326  16.058  70.620  1.00  0.00    -0.424 C  
BRANCH   8   9
ATOM      9  CG  GLN A   1     -11.333  15.946  69.095  1.00  0.00    -0.366 C  
BRANCH   9  10
ATOM     10  CD  GLN A   1     -10.599  17.097  68.443  1.00  0.00    -0.371 C  
ATOM     11  NE2 GLN A   1     -10.492  16.990  67.088  1.00  0.00    -0.313 N  
ATOM     12  OE1 GLN A   1     -10.131  18.055  69.046  1.00  0.00    -0.377 OA 
ATOM     13 1HE2 GLN A   1      -9.997  17.766  66.649  1.00  0.00     0.000 HD 
ATOM     14 2HE2 GLN A   1     -10.873  16.204  66.561  1.00  0.00     0.000 HD 
ENDBRANCH   9  10
ENDBRANCH   8   9
ENDBRANCH   4   8
TORSDOF 3
ENDMDL
MODEL       62
REMARK 921   NORMALIZED FREE ENERGY PREDICTED BY IDOCK:   -3.52 KCAL/MOL
REMARK 922        TOTAL FREE ENERGY PREDICTED BY IDOCK:   -4.25 KCAL/MOL
REMARK 923 INTER-LIGAND FREE ENERGY PREDICTED BY IDOCK:   -4.13 KCAL/MOL
REMARK 924 INTRA-LIGAND FREE ENERGY PREDICTED BY IDOCK:   -0.12 KCAL/MOL
REMARK 927      BINDING AFFINITY PREDICTED BY RF-SCORE:    0.00 PKD
ROOT
ATOM      1  N   GLN A   1     -11.714  11.953  66.720  1.00  0.00    -0.590 NA 
ATOM      2  H1  GLN A   1     -12.127  11.041  66.524  1.00  0.00     0.000 HD 
ATOM      3  H2  GLN A   1     -11.789  12.208  67.704  1.00  0.00     0.000 HD 
ATOM      4  CA  GLN A   1     -12.329  12.984  65.819  1.00  0.00    -0.416 C  
ATOM      5  O   GLN A   1     -11.533  11.301  64.309  1.00  0.00    -0.195 OA 
ATOM      6  C   GLN A   1     -12.118  12.525  64.360  1.00  0.00    -0.424 C  
ATOM      7  OXT GLN A   1     -12.453  13.145  63.363  1.00  0.00    -0.730 OA 
ENDROOT
BRANCH   4   8
ATOM      8  CB  GLN A   1     -11.710  14.352  66.112  1.00  0.00    -0.384 C  
BRANCH   8   9
ATOM      9  CG  GLN A   1     -10.231  14.452  65.737  1.00  0.00    -0.355 C  
BRANCH   9  10
ATOM     10  CD  GLN A   1      -9.602  15.723  66.263  1.00  0.00    -0.313 C  
ATOM     11  NE2 GLN A   1      -9.219  15.653  67.569  1.00  0.00    -0.199 N  
ATOM     12  OE1 GLN A   1      -9.435  16.742  65.603  1.00  0.00    -0.523 OA 
ATOM     13 1HE2 GLN A   1      -8.795  16.510  67.924  1.00  0.00     0.000 HD 
ATOM     14 2HE2 GLN A   1      -9.346  14.818  68.141  1.00  0.00     0.000 HD 
ENDBRANCH   9  10
ENDBRANCH   8   9
ENDBRANCH   4   8
TORSDOF 3
ENDMDL
MODEL       63
REMARK 921   NORMALIZED FREE ENERGY PREDICTED BY IDOCK:   -3.47 KCAL/MOL
REMARK 922        TOTAL FREE ENERGY PREDICTED BY IDOCK:   -4.19 KCAL/MOL
REMARK 923 INTER-LIGAND FREE ENERGY PREDICTED BY IDOCK:   -4.04 KCAL/MOL
REMARK 924 INTRA-LIGAND FREE ENERGY PREDICTED BY IDOCK:   -0.15 KCAL/MOL
REMARK 927      BINDING AFFINITY PREDICTED BY RF-SCORE:    0.00 PKD
ROOT
ATOM      1  N   GLN A   1     -13.221  10.414  69.986  1.00  0.00    -0.452 NA 
ATOM      2  H1  GLN A   1     -13.615  11.203  69.473  1.00  0.00     0.000 HD 
ATOM      3  H2  GLN A   1     -13.724  10.228  70.854  1.00  0.00     0.000 HD 
ATOM      4  CA  GLN A   1     -11.757  10.651  70.218  1.00  0.00    -0.344 C  
ATOM      5  O   GLN A   1     -12.009  10.884  67.846  1.00  0.00    -0.585 OA 
ATOM      6  C   GLN A   1     -11.089  10.872  68.844  1.00  0.00    -0.252 C  
ATOM      7  OXT GLN A   1      -9.897  11.051  68.652  1.00  0.00    -0.181 OA 
ENDROOT
BRANCH   4   8
ATOM      8  CB  GLN A   1     -11.165   9.469  70.989  1.00  0.00    -0.432 C  
BRANCH   8   9
ATOM      9  CG  GLN A   1     -12.146   8.817  71.965  1.00  0.00    -0.447 C  
BRANCH   9  10
ATOM     10  CD  GLN A   1     -12.725   7.535  71.410  1.00  0.00    -0.348 C  
ATOM     11  NE2 GLN A   1     -14.046   7.620  71.082  1.00  0.00    -0.661 N  
ATOM     12  OE1 GLN A   1     -12.095   6.496  71.254  1.00  0.00    -0.343 OA 
ATOM     13 1HE2 GLN A   1     -14.436   6.755  70.708  1.00  0.00     0.000 HD 
ATOM     14 2HE2 GLN A   1     -14.594   8.472  71.200  1.00  0.00     0.000 HD 
ENDBRANCH   9  10
ENDBRANCH   8   9
ENDBRANCH   4   8
TORSDOF 3
ENDMDL
MODEL       64
REMARK 921   NORMALIZED FREE ENERGY PREDICTED BY IDOCK:   -3.45 KCAL/MOL
REMARK 922        TOTAL FREE ENERGY PREDICTED BY IDOCK:   -4.17 KCAL/MOL
REMARK 923 INTER-LIGAND FREE ENERGY PREDICTED BY IDOCK:   -3.86 KCAL/MOL
REMARK 924 INTRA-LIGAND FREE ENERGY PREDICTED BY IDOCK:   -0.31 KCAL/MOL
REMARK 927      BINDING AFFINITY PREDICTED BY RF-SCORE:    0.00 PKD
ROOT
ATOM      1  N   GLN A   1     -11.893   6.718  71.126  1.00  0.00    -0.343 NA 
ATOM      2  H1  GLN A   1     -12.486   5.907  71.303  1.00  0.00     0.000 HD 
ATOM      3  H2  GLN A   1     -10.902   6.478  71.119  1.00  0.00     0.000 HD 
ATOM      4  CA  GLN A   1     -12.208   7.794  72.124  1.00  0.00    -0.285 C  
ATOM      5  O   GLN A   1     -14.332   7.282  71.138  1.00  0.00    -0.349 OA 
ATOM      6  C   GLN A   1     -13.715   8.113  72.017  1.00  0.00    -0.295 C  
ATOM      7  OXT GLN A   1     -14.309   8.970  72.652  1.00  0.00    -0.603 OA 
ENDROOT
BRANCH   4   8
ATOM      8  CB  GLN A   1     -11.319   9.011  71.859  1.00  0.00    -0.438 C  
BRANCH   8   9
ATOM      9  CG  GLN A   1     -11.218   9.391  70.381  1.00  0.00    -0.309 C  
BRANCH   9  10
ATOM     10  CD  GLN A   1     -12.066  10.599  70.052  1.00  0.00    -0.316 C  
ATOM     11  NE2 GLN A   1     -12.587  11.226  71.145  1.00  0.00    -0.403 N  
ATOM     12  OE1 GLN A   1     -12.286  11.007  68.918  1.00  0.00    -0.516 OA 
ATOM     13 1HE2 GLN A   1     -13.159  12.041  70.922  1.00  0.00     0.000 HD 
ATOM     14 2HE2 GLN A   1     -12.419  10.909  72.099  1.00  0.00     0.000 HD 
ENDBRANCH   9  10
ENDBRANCH   8   9
ENDBRANCH   4   8
TORSDOF 3
ENDMDL
MODEL       65
REMARK 921   NORMALIZED FREE ENERGY PREDICTED BY IDOCK:   -3.44 KCAL/MOL
REMARK 922        TOTAL FREE ENERGY PREDICTED BY IDOCK:   -4.16 KCAL/MOL
REMARK 923 INTER-LIGAND FREE ENERGY PREDICTED BY IDOCK:   -4.02 KCAL/MOL
REMARK 924 INTRA-LIGAND FREE ENERGY PREDICTED BY IDOCK:   -0.14 KCAL/MOL
REMARK 927      BINDING AFFINITY PREDICTED BY RF-SCORE:    0.00 PKD
ROOT
ATOM      1  N   GLN A   1     -11.490  13.773  67.081  1.00  0.00    -0.324 NA 
ATOM      2  H1  GLN A   1     -12.312  13.236  67.359  1.00  0.00     0.000 HD 
ATOM      3  H2  GLN A   1     -11.086  14.293  67.860  1.00  0.00     0.000 HD 
ATOM      4  CA  GLN A   1     -11.843  14.666  65.927  1.00  0.00    -0.272 C  
ATOM      5  O   GLN A   1     -12.494  12.481  65.186  1.00  0.00    -0.573 OA 
ATOM      6  C   GLN A   1     -12.397  13.776  64.793  1.00  0.00    -0.386 C  
ATOM      7  OXT GLN A   1     -12.743  14.165  63.688  1.00  0.00    -0.790 OA 
ENDROOT
BRANCH   4   8
ATOM      8  CB  GLN A   1     -10.611  15.471  65.510  1.00  0.00    -0.413 C  
BRANCH   8   9
ATOM      9  CG  GLN A   1      -9.705  15.860  66.679  1.00  0.00    -0.270 C  
BRANCH   9  10
ATOM     10  CD  GLN A   1     -10.242  17.056  67.433  1.00  0.00    -0.314 C  
ATOM     11  NE2 GLN A   1     -10.516  18.133  66.643  1.00  0.00    -0.360 N  
ATOM     12  OE1 GLN A   1     -10.428  17.090  68.644  1.00  0.00    -0.320 OA 
ATOM     13 1HE2 GLN A   1     -10.877  18.939  67.152  1.00  0.00     0.000 HD 
ATOM     14 2HE2 GLN A   1     -10.371  18.132  65.634  1.00  0.00     0.000 HD 
ENDBRANCH   9  10
ENDBRANCH   8   9
ENDBRANCH   4   8
TORSDOF 3
ENDMDL
MODEL       66
REMARK 921   NORMALIZED FREE ENERGY PREDICTED BY IDOCK:   -3.44 KCAL/MOL
REMARK 922        TOTAL FREE ENERGY PREDICTED BY IDOCK:   -4.16 KCAL/MOL
REMARK 923 INTER-LIGAND FREE ENERGY PREDICTED BY IDOCK:   -3.90 KCAL/MOL
REMARK 924 INTRA-LIGAND FREE ENERGY PREDICTED BY IDOCK:   -0.25 KCAL/MOL
REMARK 927      BINDING AFFINITY PREDICTED BY RF-SCORE:    0.00 PKD
ROOT
ATOM      1  N   GLN A   1     -11.318   8.643  69.942  1.00  0.00    -0.452 NA 
ATOM      2  H1  GLN A   1     -10.812   7.823  70.277  1.00  0.00     0.000 HD 
ATOM      3  H2  GLN A   1     -10.755   9.214  69.312  1.00  0.00     0.000 HD 
ATOM      4  CA  GLN A   1     -11.828   9.428  71.116  1.00  0.00    -0.338 C  
ATOM      5  O   GLN A   1     -12.684   7.219  71.485  1.00  0.00    -0.353 OA 
ATOM      6  C   GLN A   1     -12.701   8.486  71.973  1.00  0.00    -0.376 C  
ATOM      7  OXT GLN A   1     -13.312   8.803  72.981  1.00  0.00    -0.284 OA 
ENDROOT
BRANCH   4   8
ATOM      8  CB  GLN A   1     -12.587  10.658  70.615  1.00  0.00    -0.454 C  
BRANCH   8   9
ATOM      9  CG  GLN A   1     -11.678  11.776  70.102  1.00  0.00    -0.354 C  
BRANCH   9  10
ATOM     10  CD  GLN A   1     -11.854  12.010  68.618  1.00  0.00    -0.311 C  
ATOM     11  NE2 GLN A   1     -11.868  13.326  68.261  1.00  0.00    -0.351 N  
ATOM     12  OE1 GLN A   1     -11.976  11.121  67.784  1.00  0.00    -0.630 OA 
ATOM     13 1HE2 GLN A   1     -11.987  13.482  67.261  1.00  0.00     0.000 HD 
ATOM     14 2HE2 GLN A   1     -11.768  14.085  68.935  1.00  0.00     0.000 HD 
ENDBRANCH   9  10
ENDBRANCH   8   9
ENDBRANCH   4   8
TORSDOF 3
ENDMDL
MODEL       67
REMARK 921   NORMALIZED FREE ENERGY PREDICTED BY IDOCK:   -3.44 KCAL/MOL
REMARK 922        TOTAL FREE ENERGY PREDICTED BY IDOCK:   -4.15 KCAL/MOL
REMARK 923 INTER-LIGAND FREE ENERGY PREDICTED BY IDOCK:   -4.03 KCAL/MOL
REMARK 924 INTRA-LIGAND FREE ENERGY PREDICTED BY IDOCK:   -0.12 KCAL/MOL
REMARK 927      BINDING AFFINITY PREDICTED BY RF-SCORE:    0.00 PKD
ROOT
ATOM      1  N   GLN A   1      -8.016  18.256  65.877  1.00  0.00    -0.519 NA 
ATOM      2  H1  GLN A   1      -7.375  19.037  66.013  1.00  0.00     0.000 HD 
ATOM      3  H2  GLN A   1      -7.950  17.861  64.938  1.00  0.00     0.000 HD 
ATOM      4  CA  GLN A   1      -9.413  18.692  66.211  1.00  0.00    -0.260 C  
ATOM      5  O   GLN A   1      -8.154  19.236  68.177  1.00  0.00    -0.291 OA 
ATOM      6  C   GLN A   1      -9.409  19.224  67.660  1.00  0.00    -0.307 C  
ATOM      7  OXT GLN A   1     -10.386  19.623  68.275  1.00  0.00    -0.431 OA 
ENDROOT
BRANCH   4   8
ATOM      8  CB  GLN A   1     -10.375  17.520  66.006  1.00  0.00    -0.309 C  
BRANCH   8   9
ATOM      9  CG  GLN A   1      -9.678  16.165  65.880  1.00  0.00    -0.374 C  
BRANCH   9  10
ATOM     10  CD  GLN A   1     -10.441  15.220  64.979  1.00  0.00    -0.382 C  
ATOM     11  NE2 GLN A   1     -11.444  15.816  64.273  1.00  0.00    -0.757 N  
ATOM     12  OE1 GLN A   1     -10.207  14.023  64.867  1.00  0.00    -0.405 OA 
ATOM     13 1HE2 GLN A   1     -11.958  15.178  63.665  1.00  0.00     0.000 HD 
ATOM     14 2HE2 GLN A   1     -11.660  16.810  64.346  1.00  0.00     0.000 HD 
ENDBRANCH   9  10
ENDBRANCH   8   9
ENDBRANCH   4   8
TORSDOF 3
ENDMDL
MODEL       68
REMARK 921   NORMALIZED FREE ENERGY PREDICTED BY IDOCK:   -3.42 KCAL/MOL
REMARK 922        TOTAL FREE ENERGY PREDICTED BY IDOCK:   -4.13 KCAL/MOL
REMARK 923 INTER-LIGAND FREE ENERGY PREDICTED BY IDOCK:   -4.06 KCAL/MOL
REMARK 924 INTRA-LIGAND FREE ENERGY PREDICTED BY IDOCK:   -0.07 KCAL/MOL
REMARK 927      BINDING AFFINITY PREDICTED BY RF-SCORE:    0.00 PKD
ROOT
ATOM      1  N   GLN A   1     -10.470  19.575  68.723  1.00  0.00    -0.509 NA 
ATOM      2  H1  GLN A   1     -11.329  19.125  69.039  1.00  0.00     0.000 HD 
ATOM      3  H2  GLN A   1     -10.369  20.519  69.098  1.00  0.00     0.000 HD 
ATOM      4  CA  GLN A   1     -10.416  19.552  67.224  1.00  0.00    -0.470 C  
ATOM      5  O   GLN A   1     -10.737  17.254  67.824  1.00  0.00    -0.368 OA 
ATOM      6  C   GLN A   1     -10.530  18.081  66.768  1.00  0.00    -0.328 C  
ATOM      7  OXT GLN A   1     -10.478  17.687  65.614  1.00  0.00    -0.606 OA 
ENDROOT
BRANCH   4   8
ATOM      8  CB  GLN A   1      -9.128  20.229  66.750  1.00  0.00    -0.424 C  
BRANCH   8   9
ATOM      9  CG  GLN A   1      -7.900  19.318  66.798  1.00  0.00    -0.276 C  
BRANCH   9  10
ATOM     10  CD  GLN A   1      -6.968  19.567  65.634  1.00  0.00    -0.295 C  
ATOM     11  NE2 GLN A   1      -7.077  20.814  65.093  1.00  0.00    -0.527 N  
ATOM     12  OE1 GLN A   1      -6.173  18.747  65.191  1.00  0.00    -0.260 OA 
ATOM     13 1HE2 GLN A   1      -6.448  20.981  64.308  1.00  0.00     0.000 HD 
ATOM     14 2HE2 GLN A   1      -7.729  21.516  65.443  1.00  0.00     0.000 HD 
ENDBRANCH   9  10
ENDBRANCH   8   9
ENDBRANCH   4   8
TORSDOF 3
ENDMDL
MODEL       69
REMARK 921   NORMALIZED FREE ENERGY PREDICTED BY IDOCK:   -3.40 KCAL/MOL
REMARK 922        TOTAL FREE ENERGY PREDICTED BY IDOCK:   -4.11 KCAL/MOL
REMARK 923 INTER-LIGAND FREE ENERGY PREDICTED BY IDOCK:   -3.78 KCAL/MOL
REMARK 924 INTRA-LIGAND FREE ENERGY PREDICTED BY IDOCK:   -0.33 KCAL/MOL
REMARK 927      BINDING AFFINITY PREDICTED BY RF-SCORE:    0.00 PKD
ROOT
ATOM      1  N   GLN A   1     -12.679  14.317  66.478  1.00  0.00    -0.433 NA 
ATOM      2  H1  GLN A   1     -13.682  14.254  66.300  1.00  0.00     0.000 HD 
ATOM      3  H2  GLN A   1     -12.454  15.036  67.166  1.00  0.00     0.000 HD 
ATOM      4  CA  GLN A   1     -11.953  14.526  65.181  1.00  0.00    -0.369 C  
ATOM      5  O   GLN A   1     -13.259  12.552  64.799  1.00  0.00    -0.839 OA 
ATOM      6  C   GLN A   1     -12.327  13.363  64.236  1.00  0.00    -0.335 C  
ATOM      7  OXT GLN A   1     -11.885  13.190  63.111  1.00  0.00    -0.459 OA 
ENDROOT
BRANCH   4   8
ATOM      8  CB  GLN A   1     -10.450  14.621  65.448  1.00  0.00    -0.400 C  
BRANCH   8   9
ATOM      9  CG  GLN A   1      -9.999  13.874  66.704  1.00  0.00    -0.279 C  
BRANCH   9  10
ATOM     10  CD  GLN A   1      -9.941  12.379  66.481  1.00  0.00    -0.230 C  
ATOM     11  NE2 GLN A   1     -11.026  11.705  66.955  1.00  0.00    -0.273 N  
ATOM     12  OE1 GLN A   1      -9.018  11.794  65.927  1.00  0.00    -0.167 OA 
ATOM     13 1HE2 GLN A   1     -10.987  10.697  66.804  1.00  0.00     0.000 HD 
ATOM     14 2HE2 GLN A   1     -11.808  12.167  67.419  1.00  0.00     0.000 HD 
ENDBRANCH   9  10
ENDBRANCH   8   9
ENDBRANCH   4   8
TORSDOF 3
ENDMDL
MODEL       70
REMARK 921   NORMALIZED FREE ENERGY PREDICTED BY IDOCK:   -3.40 KCAL/MOL
REMARK 922        TOTAL FREE ENERGY PREDICTED BY IDOCK:   -4.11 KCAL/MOL
REMARK 923 INTER-LIGAND FREE ENERGY PREDICTED BY IDOCK:   -3.99 KCAL/MOL
REMARK 924 INTRA-LIGAND FREE ENERGY PREDICTED BY IDOCK:   -0.12 KCAL/MOL
REMARK 927      BINDING AFFINITY PREDICTED BY RF-SCORE:    0.00 PKD
ROOT
ATOM      1  N   GLN A   1      -9.963  12.688  66.384  1.00  0.00    -0.249 NA 
ATOM      2  H1  GLN A   1      -9.989  13.267  67.223  1.00  0.00     0.000 HD 
ATOM      3  H2  GLN A   1      -9.009  12.494  66.079  1.00  0.00     0.000 HD 
ATOM      4  CA  GLN A   1     -10.783  13.333  65.306  1.00  0.00    -0.311 C  
ATOM      5  O   GLN A   1     -12.294  13.170  67.160  1.00  0.00    -0.261 OA 
ATOM      6  C   GLN A   1     -12.212  13.537  65.855  1.00  0.00    -0.460 C  
ATOM      7  OXT GLN A   1     -13.155  13.997  65.231  1.00  0.00    -0.782 OA 
ENDROOT
BRANCH   4   8
ATOM      8  CB  GLN A   1     -10.743  12.464  64.047  1.00  0.00    -0.441 C  
BRANCH   8   9
ATOM      9  CG  GLN A   1     -10.362  11.007  64.315  1.00  0.00    -0.430 C  
BRANCH   9  10
ATOM     10  CD  GLN A   1      -9.373  10.487  63.296  1.00  0.00    -0.314 C  
ATOM     11  NE2 GLN A   1      -9.018   9.184  63.482  1.00  0.00    -0.422 N  
ATOM     12  OE1 GLN A   1      -8.912  11.148  62.373  1.00  0.00    -0.319 OA 
ATOM     13 1HE2 GLN A   1      -8.351   8.834  62.795  1.00  0.00     0.000 HD 
ATOM     14 2HE2 GLN A   1      -9.386   8.611  64.241  1.00  0.00     0.000 HD 
ENDBRANCH   9  10
ENDBRANCH   8   9
ENDBRANCH   4   8
TORSDOF 3
ENDMDL
MODEL       71
REMARK 921   NORMALIZED FREE ENERGY PREDICTED BY IDOCK:   -3.40 KCAL/MOL
REMARK 922        TOTAL FREE ENERGY PREDICTED BY IDOCK:   -4.11 KCAL/MOL
REMARK 923 INTER-LIGAND FREE ENERGY PREDICTED BY IDOCK:   -4.12 KCAL/MOL
REMARK 924 INTRA-LIGAND FREE ENERGY PREDICTED BY IDOCK:    0.01 KCAL/MOL
REMARK 927      BINDING AFFINITY PREDICTED BY RF-SCORE:    0.00 PKD
ROOT
ATOM      1  N   GLN A   1     -12.133  12.283  66.871  1.00  0.00    -0.553 NA 
ATOM      2  H1  GLN A   1     -12.150  12.162  65.858  1.00  0.00     0.000 HD 
ATOM      3  H2  GLN A   1     -12.994  11.961  67.313  1.00  0.00     0.000 HD 
ATOM      4  CA  GLN A   1     -11.831  13.717  67.197  1.00  0.00    -0.406 C  
ATOM      5  O   GLN A   1     -10.026  13.059  65.763  1.00  0.00    -0.279 OA 
ATOM      6  C   GLN A   1     -10.492  14.084  66.521  1.00  0.00    -0.281 C  
ATOM      7  OXT GLN A   1      -9.920  15.159  66.611  1.00  0.00    -0.239 OA 
ENDROOT
BRANCH   4   8
ATOM      8  CB  GLN A   1     -11.806  13.900  68.715  1.00  0.00    -0.396 C  
BRANCH   8   9
ATOM      9  CG  GLN A   1     -11.960  15.354  69.163  1.00  0.00    -0.324 C  
BRANCH   9  10
ATOM     10  CD  GLN A   1     -12.461  15.455  70.587  1.00  0.00    -0.428 C  
ATOM     11  NE2 GLN A   1     -13.814  15.343  70.709  1.00  0.00    -0.860 N  
ATOM     12  OE1 GLN A   1     -11.744  15.621  71.567  1.00  0.00    -0.350 OA 
ATOM     13 1HE2 GLN A   1     -14.151  15.411  71.668  1.00  0.00     0.000 HD 
ATOM     14 2HE2 GLN A   1     -14.433  15.204  69.910  1.00  0.00     0.000 HD 
ENDBRANCH   9  10
ENDBRANCH   8   9
ENDBRANCH   4   8
TORSDOF 3
ENDMDL
MODEL       72
REMARK 921   NORMALIZED FREE ENERGY PREDICTED BY IDOCK:   -3.40 KCAL/MOL
REMARK 922        TOTAL FREE ENERGY PREDICTED BY IDOCK:   -4.11 KCAL/MOL
REMARK 923 INTER-LIGAND FREE ENERGY PREDICTED BY IDOCK:   -4.05 KCAL/MOL
REMARK 924 INTRA-LIGAND FREE ENERGY PREDICTED BY IDOCK:   -0.06 KCAL/MOL
REMARK 927      BINDING AFFINITY PREDICTED BY RF-SCORE:    0.00 PKD
ROOT
ATOM      1  N   GLN A   1     -11.293  16.060  68.925  1.00  0.00    -0.357 NA 
ATOM      2  H1  GLN A   1     -11.490  16.789  69.611  1.00  0.00     0.000 HD 
ATOM      3  H2  GLN A   1     -11.374  16.398  67.967  1.00  0.00     0.000 HD 
ATOM      4  CA  GLN A   1     -12.180  14.877  69.186  1.00  0.00    -0.159 C  
ATOM      5  O   GLN A   1     -11.091  15.255  71.288  1.00  0.00    -0.344 OA 
ATOM      6  C   GLN A   1     -11.944  14.420  70.642  1.00  0.00    -0.323 C  
ATOM      7  OXT GLN A   1     -12.467  13.456  71.179  1.00  0.00    -0.362 OA 
ENDROOT
BRANCH   4   8
ATOM      8  CB  GLN A   1     -11.885  13.783  68.159  1.00  0.00    -0.411 C  
BRANCH   8   9
ATOM      9  CG  GLN A   1     -12.205  14.187  66.719  1.00  0.00    -0.429 C  
BRANCH   9  10
ATOM     10  CD  GLN A   1     -12.273  12.988  65.799  1.00  0.00    -0.453 C  
ATOM     11  NE2 GLN A   1     -12.753  13.270  64.554  1.00  0.00    -0.671 N  
ATOM     12  OE1 GLN A   1     -11.935  11.853  66.110  1.00  0.00    -0.537 OA 
ATOM     13 1HE2 GLN A   1     -12.799  12.462  63.935  1.00  0.00     0.000 HD 
ATOM     14 2HE2 GLN A   1     -13.040  14.207  64.269  1.00  0.00     0.000 HD 
ENDBRANCH   9  10
ENDBRANCH   8   9
ENDBRANCH   4   8
TORSDOF 3
ENDMDL
MODEL       73
REMARK 921   NORMALIZED FREE ENERGY PREDICTED BY IDOCK:   -3.39 KCAL/MOL
REMARK 922        TOTAL FREE ENERGY PREDICTED BY IDOCK:   -4.10 KCAL/MOL
REMARK 923 INTER-LIGAND FREE ENERGY PREDICTED BY IDOCK:   -3.96 KCAL/MOL
REMARK 924 INTRA-LIGAND FREE ENERGY PREDICTED BY IDOCK:   -0.15 KCAL/MOL
REMARK 927      BINDING AFFINITY PREDICTED BY RF-SCORE:    0.00 PKD
ROOT
ATOM      1  N   GLN A   1     -11.807   6.674  69.368  1.00  0.00    -0.602 NA 
ATOM      2  H1  GLN A   1     -11.008   6.699  68.733  1.00  0.00     0.000 HD 
ATOM      3  H2  GLN A   1     -12.455   7.444  69.204  1.00  0.00     0.000 HD 
ATOM      4  CA  GLN A   1     -11.316   6.638  70.786  1.00  0.00    -0.336 C  
ATOM      5  O   GLN A   1     -10.205   4.786  69.745  1.00  0.00    -0.246 OA 
ATOM      6  C   GLN A   1     -10.386   5.414  70.935  1.00  0.00    -0.242 C  
ATOM      7  OXT GLN A   1      -9.844   5.053  71.967  1.00  0.00    -0.162 OA 
ENDROOT
BRANCH   4   8
ATOM      8  CB  GLN A   1     -12.513   6.600  71.738  1.00  0.00    -0.360 C  
BRANCH   8   9
ATOM      9  CG  GLN A   1     -13.716   7.408  71.249  1.00  0.00    -0.347 C  
BRANCH   9  10
ATOM     10  CD  GLN A   1     -13.661   8.843  71.723  1.00  0.00    -0.412 C  
ATOM     11  NE2 GLN A   1     -13.815   8.989  73.070  1.00  0.00    -0.901 N  
ATOM     12  OE1 GLN A   1     -13.494   9.812  70.992  1.00  0.00    -0.347 OA 
ATOM     13 1HE2 GLN A   1     -13.778   9.956  73.389  1.00  0.00     0.000 HD 
ATOM     14 2HE2 GLN A   1     -13.954   8.200  73.701  1.00  0.00     0.000 HD 
ENDBRANCH   9  10
ENDBRANCH   8   9
ENDBRANCH   4   8
TORSDOF 3
ENDMDL
MODEL       74
REMARK 921   NORMALIZED FREE ENERGY PREDICTED BY IDOCK:   -3.38 KCAL/MOL
REMARK 922        TOTAL FREE ENERGY PREDICTED BY IDOCK:   -4.09 KCAL/MOL
REMARK 923 INTER-LIGAND FREE ENERGY PREDICTED BY IDOCK:   -3.83 KCAL/MOL
REMARK 924 INTRA-LIGAND FREE ENERGY PREDICTED BY IDOCK:   -0.26 KCAL/MOL
REMARK 927      BINDING AFFINITY PREDICTED BY RF-SCORE:    0.00 PKD
ROOT
ATOM      1  N   GLN A   1     -13.244  13.977  65.767  1.00  0.00    -0.646 NA 
ATOM      2  H1  GLN A   1     -13.952  13.382  66.198  1.00  0.00     0.000 HD 
ATOM      3  H2  GLN A   1     -13.645  14.629  65.093  1.00  0.00     0.000 HD 
ATOM      4  CA  GLN A   1     -12.173  13.119  65.159  1.00  0.00    -0.450 C  
ATOM      5  O   GLN A   1     -12.285  12.375  67.435  1.00  0.00    -0.459 OA 
ATOM      6  C   GLN A   1     -11.605  12.211  66.271  1.00  0.00    -0.360 C  
ATOM      7  OXT GLN A   1     -10.688  11.415  66.142  1.00  0.00    -0.262 OA 
ENDROOT
BRANCH   4   8
ATOM      8  CB  GLN A   1     -11.111  14.011  64.513  1.00  0.00    -0.360 C  
BRANCH   8   9
ATOM      9  CG  GLN A   1     -11.174  15.471  64.966  1.00  0.00    -0.364 C  
BRANCH   9  10
ATOM     10  CD  GLN A   1     -10.429  15.691  66.264  1.00  0.00    -0.306 C  
ATOM     11  NE2 GLN A   1      -9.195  16.250  66.108  1.00  0.00    -0.322 N  
ATOM     12  OE1 GLN A   1     -10.864  15.405  67.373  1.00  0.00    -0.298 OA 
ATOM     13 1HE2 GLN A   1      -8.693  16.397  66.983  1.00  0.00     0.000 HD 
ATOM     14 2HE2 GLN A   1      -8.809  16.498  65.197  1.00  0.00     0.000 HD 
ENDBRANCH   9  10
ENDBRANCH   8   9
ENDBRANCH   4   8
TORSDOF 3
ENDMDL
MODEL       75
REMARK 921   NORMALIZED FREE ENERGY PREDICTED BY IDOCK:   -3.37 KCAL/MOL
REMARK 922        TOTAL FREE ENERGY PREDICTED BY IDOCK:   -4.07 KCAL/MOL
REMARK 923 INTER-LIGAND FREE ENERGY PREDICTED BY IDOCK:   -3.83 KCAL/MOL
REMARK 924 INTRA-LIGAND FREE ENERGY PREDICTED BY IDOCK:   -0.25 KCAL/MOL
REMARK 927      BINDING AFFINITY PREDICTED BY RF-SCORE:    0.00 PKD
ROOT
ATOM      1  N   GLN A   1     -12.053   9.618  70.213  1.00  0.00    -0.470 NA 
ATOM      2  H1  GLN A   1     -11.586  10.412  69.773  1.00  0.00     0.000 HD 
ATOM      3  H2  GLN A   1     -13.064   9.740  70.256  1.00  0.00     0.000 HD 
ATOM      4  CA  GLN A   1     -11.453   9.374  71.567  1.00  0.00    -0.397 C  
ATOM      5  O   GLN A   1      -9.568   9.338  70.086  1.00  0.00    -0.188 OA 
ATOM      6  C   GLN A   1      -9.935   9.157  71.380  1.00  0.00    -0.303 C  
ATOM      7  OXT GLN A   1      -9.140   8.890  72.267  1.00  0.00    -0.381 OA 
ENDROOT
BRANCH   4   8
ATOM      8  CB  GLN A   1     -12.151   8.184  72.227  1.00  0.00    -0.419 C  
BRANCH   8   9
ATOM      9  CG  GLN A   1     -12.717   7.171  71.231  1.00  0.00    -0.412 C  
BRANCH   9  10
ATOM     10  CD  GLN A   1     -11.623   6.363  70.568  1.00  0.00    -0.358 C  
ATOM     11  NE2 GLN A   1     -11.548   6.536  69.217  1.00  0.00    -0.643 N  
ATOM     12  OE1 GLN A   1     -10.856   5.613  71.159  1.00  0.00    -0.257 OA 
ATOM     13 1HE2 GLN A   1     -10.811   5.991  68.770  1.00  0.00     0.000 HD 
ATOM     14 2HE2 GLN A   1     -12.173   7.154  68.701  1.00  0.00     0.000 HD 
ENDBRANCH   9  10
ENDBRANCH   8   9
ENDBRANCH   4   8
TORSDOF 3
ENDMDL
MODEL       76
REMARK 921   NORMALIZED FREE ENERGY PREDICTED BY IDOCK:   -3.36 KCAL/MOL
REMARK 922        TOTAL FREE ENERGY PREDICTED BY IDOCK:   -4.06 KCAL/MOL
REMARK 923 INTER-LIGAND FREE ENERGY PREDICTED BY IDOCK:   -3.86 KCAL/MOL
REMARK 924 INTRA-LIGAND FREE ENERGY PREDICTED BY IDOCK:   -0.20 KCAL/MOL
REMARK 927      BINDING AFFINITY PREDICTED BY RF-SCORE:    0.00 PKD
ROOT
ATOM      1  N   GLN A   1      -9.697   8.765  68.789  1.00  0.00    -0.162 NA 
ATOM      2  H1  GLN A   1      -9.780   8.584  67.788  1.00  0.00     0.000 HD 
ATOM      3  H2  GLN A   1      -9.435   7.930  69.312  1.00  0.00     0.000 HD 
ATOM      4  CA  GLN A   1     -10.974   9.373  69.293  1.00  0.00    -0.117 C  
ATOM      5  O   GLN A   1     -10.330  10.804  67.480  1.00  0.00    -0.187 OA 
ATOM      6  C   GLN A   1     -11.249  10.649  68.468  1.00  0.00    -0.282 C  
ATOM      7  OXT GLN A   1     -12.182  11.419  68.636  1.00  0.00    -0.532 OA 
ENDROOT
BRANCH   4   8
ATOM      8  CB  GLN A   1     -10.851   9.645  70.793  1.00  0.00    -0.400 C  
BRANCH   8   9
ATOM      9  CG  GLN A   1     -11.841   8.850  71.646  1.00  0.00    -0.415 C  
BRANCH   9  10
ATOM     10  CD  GLN A   1     -13.022   9.694  72.073  1.00  0.00    -0.428 C  
ATOM     11  NE2 GLN A   1     -13.928   9.030  72.846  1.00  0.00    -0.896 N  
ATOM     12  OE1 GLN A   1     -13.182  10.870  71.770  1.00  0.00    -0.444 OA 
ATOM     13 1HE2 GLN A   1     -14.723   9.600  73.133  1.00  0.00     0.000 HD 
ATOM     14 2HE2 GLN A   1     -13.819   8.052  73.113  1.00  0.00     0.000 HD 
ENDBRANCH   9  10
ENDBRANCH   8   9
ENDBRANCH   4   8
TORSDOF 3
ENDMDL
MODEL       77
REMARK 921   NORMALIZED FREE ENERGY PREDICTED BY IDOCK:   -3.36 KCAL/MOL
REMARK 922        TOTAL FREE ENERGY PREDICTED BY IDOCK:   -4.06 KCAL/MOL
REMARK 923 INTER-LIGAND FREE ENERGY PREDICTED BY IDOCK:   -3.75 KCAL/MOL
REMARK 924 INTRA-LIGAND FREE ENERGY PREDICTED BY IDOCK:   -0.31 KCAL/MOL
REMARK 927      BINDING AFFINITY PREDICTED BY RF-SCORE:    0.00 PKD
ROOT
ATOM      1  N   GLN A   1      -9.562   7.809  70.019  1.00  0.00    -0.161 NA 
ATOM      2  H1  GLN A   1      -9.340   6.882  69.655  1.00  0.00     0.000 HD 
ATOM      3  H2  GLN A   1      -8.730   8.387  70.138  1.00  0.00     0.000 HD 
ATOM      4  CA  GLN A   1     -10.344   7.671  71.293  1.00  0.00    -0.198 C  
ATOM      5  O   GLN A   1     -11.590   6.373  69.709  1.00  0.00    -0.431 OA 
ATOM      6  C   GLN A   1     -11.598   6.823  70.990  1.00  0.00    -0.339 C  
ATOM      7  OXT GLN A   1     -12.482   6.548  71.787  1.00  0.00    -0.345 OA 
ENDROOT
BRANCH   4   8
ATOM      8  CB  GLN A   1     -10.678   9.061  71.840  1.00  0.00    -0.401 C  
BRANCH   8   9
ATOM      9  CG  GLN A   1     -11.368   9.972  70.824  1.00  0.00    -0.439 C  
BRANCH   9  10
ATOM     10  CD  GLN A   1     -12.758  10.363  71.272  1.00  0.00    -0.432 C  
ATOM     11  NE2 GLN A   1     -13.690   9.381  71.111  1.00  0.00    -0.520 N  
ATOM     12  OE1 GLN A   1     -13.057  11.455  71.741  1.00  0.00    -0.480 OA 
ATOM     13 1HE2 GLN A   1     -14.627   9.645  71.413  1.00  0.00     0.000 HD 
ATOM     14 2HE2 GLN A   1     -13.468   8.464  70.724  1.00  0.00     0.000 HD 
ENDBRANCH   9  10
ENDBRANCH   8   9
ENDBRANCH   4   8
TORSDOF 3
ENDMDL
MODEL       78
REMARK 921   NORMALIZED FREE ENERGY PREDICTED BY IDOCK:   -3.35 KCAL/MOL
REMARK 922        TOTAL FREE ENERGY PREDICTED BY IDOCK:   -4.05 KCAL/MOL
REMARK 923 INTER-LIGAND FREE ENERGY PREDICTED BY IDOCK:   -3.93 KCAL/MOL
REMARK 924 INTRA-LIGAND FREE ENERGY PREDICTED BY IDOCK:   -0.11 KCAL/MOL
REMARK 927      BINDING AFFINITY PREDICTED BY RF-SCORE:    0.00 PKD
ROOT
ATOM      1  N   GLN A   1     -13.887  15.525  71.349  1.00  0.00    -0.558 NA 
ATOM      2  H1  GLN A   1     -14.877  15.280  71.365  1.00  0.00     0.000 HD 
ATOM      3  H2  GLN A   1     -13.709  16.379  70.821  1.00  0.00     0.000 HD 
ATOM      4  CA  GLN A   1     -13.093  14.362  70.831  1.00  0.00    -0.328 C  
ATOM      5  O   GLN A   1     -14.352  13.436  72.649  1.00  0.00    -0.709 OA 
ATOM      6  C   GLN A   1     -13.400  13.142  71.726  1.00  0.00    -0.389 C  
ATOM      7  OXT GLN A   1     -12.895  12.035  71.621  1.00  0.00    -0.363 OA 
ENDROOT
BRANCH   4   8
ATOM      8  CB  GLN A   1     -11.608  14.728  70.807  1.00  0.00    -0.318 C  
BRANCH   8   9
ATOM      9  CG  GLN A   1     -11.336  16.172  70.380  1.00  0.00    -0.377 C  
BRANCH   9  10
ATOM     10  CD  GLN A   1     -10.756  16.247  68.985  1.00  0.00    -0.300 C  
ATOM     11  NE2 GLN A   1      -9.437  16.589  68.951  1.00  0.00    -0.254 N  
ATOM     12  OE1 GLN A   1     -11.384  16.026  67.957  1.00  0.00    -0.340 OA 
ATOM     13 1HE2 GLN A   1      -9.046  16.640  68.011  1.00  0.00     0.000 HD 
ATOM     14 2HE2 GLN A   1      -8.890  16.778  69.792  1.00  0.00     0.000 HD 
ENDBRANCH   9  10
ENDBRANCH   8   9
ENDBRANCH   4   8
TORSDOF 3
ENDMDL
MODEL       79
REMARK 921   NORMALIZED FREE ENERGY PREDICTED BY IDOCK:   -3.34 KCAL/MOL
REMARK 922        TOTAL FREE ENERGY PREDICTED BY IDOCK:   -4.04 KCAL/MOL
REMARK 923 INTER-LIGAND FREE ENERGY PREDICTED BY IDOCK:   -3.93 KCAL/MOL
REMARK 924 INTRA-LIGAND FREE ENERGY PREDICTED BY IDOCK:   -0.11 KCAL/MOL
REMARK 927      BINDING AFFINITY PREDICTED BY RF-SCORE:    0.00 PKD
ROOT
ATOM      1  N   GLN A   1     -10.979  10.785  70.455  1.00  0.00    -0.445 NA 
ATOM      2  H1  GLN A   1     -11.639  11.328  69.899  1.00  0.00     0.000 HD 
ATOM      3  H2  GLN A   1     -10.122  10.577  69.943  1.00  0.00     0.000 HD 
ATOM      4  CA  GLN A   1     -11.654   9.543  70.959  1.00  0.00    -0.344 C  
ATOM      5  O   GLN A   1     -13.088  11.317  71.695  1.00  0.00    -0.451 OA 
ATOM      6  C   GLN A   1     -12.905   9.974  71.755  1.00  0.00    -0.446 C  
ATOM      7  OXT GLN A   1     -13.668   9.223  72.343  1.00  0.00    -0.465 OA 
ENDROOT
BRANCH   4   8
ATOM      8  CB  GLN A   1     -10.664   8.727  71.793  1.00  0.00    -0.413 C  
BRANCH   8   9
ATOM      9  CG  GLN A   1     -10.884   7.216  71.705  1.00  0.00    -0.253 C  
BRANCH   9  10
ATOM     10  CD  GLN A   1     -10.829   6.559  73.067  1.00  0.00    -0.261 C  
ATOM     11  NE2 GLN A   1     -11.508   5.379  73.141  1.00  0.00    -0.502 N  
ATOM     12  OE1 GLN A   1     -10.239   7.017  74.038  1.00  0.00    -0.349 OA 
ATOM     13 1HE2 GLN A   1     -11.471   4.937  74.059  1.00  0.00     0.000 HD 
ATOM     14 2HE2 GLN A   1     -12.007   4.975  72.348  1.00  0.00     0.000 HD 
ENDBRANCH   9  10
ENDBRANCH   8   9
ENDBRANCH   4   8
TORSDOF 3
ENDMDL
MODEL       80
REMARK 921   NORMALIZED FREE ENERGY PREDICTED BY IDOCK:   -3.34 KCAL/MOL
REMARK 922        TOTAL FREE ENERGY PREDICTED BY IDOCK:   -4.04 KCAL/MOL
REMARK 923 INTER-LIGAND FREE ENERGY PREDICTED BY IDOCK:   -3.79 KCAL/MOL
REMARK 924 INTRA-LIGAND FREE ENERGY PREDICTED BY IDOCK:   -0.25 KCAL/MOL
REMARK 927      BINDING AFFINITY PREDICTED BY RF-SCORE:    0.00 PKD
ROOT
ATOM      1  N   GLN A   1     -10.724  10.137  67.242  1.00  0.00    -0.266 NA 
ATOM      2  H1  GLN A   1     -11.298  10.346  68.060  1.00  0.00     0.000 HD 
ATOM      3  H2  GLN A   1     -10.148   9.306  67.376  1.00  0.00     0.000 HD 
ATOM      4  CA  GLN A   1      -9.906  11.343  66.885  1.00  0.00    -0.193 C  
ATOM      5  O   GLN A   1     -12.156  12.168  66.933  1.00  0.00    -0.600 OA 
ATOM      6  C   GLN A   1     -10.875  12.524  66.658  1.00  0.00    -0.246 C  
ATOM      7  OXT GLN A   1     -10.557  13.650  66.311  1.00  0.00    -0.283 OA 
ENDROOT
BRANCH   4   8
ATOM      8  CB  GLN A   1      -9.046  11.031  65.659  1.00  0.00    -0.223 C  
BRANCH   8   9
ATOM      9  CG  GLN A   1      -9.778  10.231  64.580  1.00  0.00    -0.395 C  
BRANCH   9  10
ATOM     10  CD  GLN A   1     -10.026  11.058  63.338  1.00  0.00    -0.380 C  
ATOM     11  NE2 GLN A   1     -11.331  11.409  63.156  1.00  0.00    -0.864 N  
ATOM     12  OE1 GLN A   1      -9.158  11.400  62.544  1.00  0.00    -0.335 OA 
ATOM     13 1HE2 GLN A   1     -11.498  11.966  62.318  1.00  0.00     0.000 HD 
ATOM     14 2HE2 GLN A   1     -12.074  11.139  63.801  1.00  0.00     0.000 HD 
ENDBRANCH   9  10
ENDBRANCH   8   9
ENDBRANCH   4   8
TORSDOF 3
ENDMDL
MODEL       81
REMARK 921   NORMALIZED FREE ENERGY PREDICTED BY IDOCK:   -3.32 KCAL/MOL
REMARK 922        TOTAL FREE ENERGY PREDICTED BY IDOCK:   -4.02 KCAL/MOL
REMARK 923 INTER-LIGAND FREE ENERGY PREDICTED BY IDOCK:   -3.84 KCAL/MOL
REMARK 924 INTRA-LIGAND FREE ENERGY PREDICTED BY IDOCK:   -0.18 KCAL/MOL
REMARK 927      BINDING AFFINITY PREDICTED BY RF-SCORE:    0.00 PKD
ROOT
ATOM      1  N   GLN A   1     -10.330  17.236  68.274  1.00  0.00    -0.340 NA 
ATOM      2  H1  GLN A   1     -10.416  17.972  68.975  1.00  0.00     0.000 HD 
ATOM      3  H2  GLN A   1     -10.133  16.326  68.691  1.00  0.00     0.000 HD 
ATOM      4  CA  GLN A   1      -9.297  17.631  67.259  1.00  0.00    -0.249 C  
ATOM      5  O   GLN A   1     -10.825  19.478  67.276  1.00  0.00    -0.493 OA 
ATOM      6  C   GLN A   1      -9.717  18.991  66.661  1.00  0.00    -0.341 C  
ATOM      7  OXT GLN A   1      -9.130  19.591  65.774  1.00  0.00    -0.378 OA 
ENDROOT
BRANCH   4   8
ATOM      8  CB  GLN A   1      -9.168  16.528  66.207  1.00  0.00    -0.345 C  
BRANCH   8   9
ATOM      9  CG  GLN A   1     -10.496  16.143  65.552  1.00  0.00    -0.407 C  
BRANCH   9  10
ATOM     10  CD  GLN A   1     -10.804  14.672  65.727  1.00  0.00    -0.323 C  
ATOM     11  NE2 GLN A   1      -9.980  13.845  65.024  1.00  0.00    -0.603 N  
ATOM     12  OE1 GLN A   1     -11.705  14.229  66.429  1.00  0.00    -0.362 OA 
ATOM     13 1HE2 GLN A   1     -10.188  12.854  65.142  1.00  0.00     0.000 HD 
ATOM     14 2HE2 GLN A   1      -9.222  14.187  64.433  1.00  0.00     0.000 HD 
ENDBRANCH   9  10
ENDBRANCH   8   9
ENDBRANCH   4   8
TORSDOF 3
ENDMDL
MODEL       82
REMARK 921   NORMALIZED FREE ENERGY PREDICTED BY IDOCK:   -3.32 KCAL/MOL
REMARK 922        TOTAL FREE ENERGY PREDICTED BY IDOCK:   -4.02 KCAL/MOL
REMARK 923 INTER-LIGAND FREE ENERGY PREDICTED BY IDOCK:   -3.92 KCAL/MOL
REMARK 924 INTRA-LIGAND FREE ENERGY PREDICTED BY IDOCK:   -0.09 KCAL/MOL
REMARK 927      BINDING AFFINITY PREDICTED BY RF-SCORE:    0.00 PKD
ROOT
ATOM      1  N   GLN A   1     -12.685   8.205  71.041  1.00  0.00    -0.508 NA 
ATOM      2  H1  GLN A   1     -12.549   7.199  71.146  1.00  0.00     0.000 HD 
ATOM      3  H2  GLN A   1     -13.288   8.433  70.250  1.00  0.00     0.000 HD 
ATOM      4  CA  GLN A   1     -11.349   8.883  70.951  1.00  0.00    -0.283 C  
ATOM      5  O   GLN A   1     -11.218   7.619  72.984  1.00  0.00    -0.384 OA 
ATOM      6  C   GLN A   1     -10.542   8.510  72.213  1.00  0.00    -0.338 C  
ATOM      7  OXT GLN A   1      -9.427   8.920  72.492  1.00  0.00    -0.287 OA 
ENDROOT
BRANCH   4   8
ATOM      8  CB  GLN A   1     -11.553  10.391  70.793  1.00  0.00    -0.450 C  
BRANCH   8   9
ATOM      9  CG  GLN A   1     -12.858  10.904  71.403  1.00  0.00    -0.554 C  
BRANCH   9  10
ATOM     10  CD  GLN A   1     -12.958  12.412  71.334  1.00  0.00    -0.250 C  
ATOM     11  NE2 GLN A   1     -13.779  12.957  72.276  1.00  0.00    -0.526 N  
ATOM     12  OE1 GLN A   1     -12.370  13.111  70.518  1.00  0.00    -0.344 OA 
ATOM     13 1HE2 GLN A   1     -13.846  13.973  72.229  1.00  0.00     0.000 HD 
ATOM     14 2HE2 GLN A   1     -14.280  12.398  72.967  1.00  0.00     0.000 HD 
ENDBRANCH   9  10
ENDBRANCH   8   9
ENDBRANCH   4   8
TORSDOF 3
ENDMDL
MODEL       83
REMARK 921   NORMALIZED FREE ENERGY PREDICTED BY IDOCK:   -3.32 KCAL/MOL
REMARK 922        TOTAL FREE ENERGY PREDICTED BY IDOCK:   -4.01 KCAL/MOL
REMARK 923 INTER-LIGAND FREE ENERGY PREDICTED BY IDOCK:   -3.73 KCAL/MOL
REMARK 924 INTRA-LIGAND FREE ENERGY PREDICTED BY IDOCK:   -0.28 KCAL/MOL
REMARK 927      BINDING AFFINITY PREDICTED BY RF-SCORE:    0.00 PKD
ROOT
ATOM      1  N   GLN A   1     -11.101  12.950  69.263  1.00  0.00    -0.424 NA 
ATOM      2  H1  GLN A   1     -11.775  12.266  69.607  1.00  0.00     0.000 HD 
ATOM      3  H2  GLN A   1     -10.874  13.655  69.965  1.00  0.00     0.000 HD 
ATOM      4  CA  GLN A   1     -11.614  13.561  67.992  1.00  0.00    -0.337 C  
ATOM      5  O   GLN A   1     -11.668  11.203  67.562  1.00  0.00    -0.574 OA 
ATOM      6  C   GLN A   1     -11.879  12.416  66.990  1.00  0.00    -0.297 C  
ATOM      7  OXT GLN A   1     -12.262  12.552  65.839  1.00  0.00    -0.593 OA 
ENDROOT
BRANCH   4   8
ATOM      8  CB  GLN A   1     -10.604  14.587  67.475  1.00  0.00    -0.262 C  
BRANCH   8   9
ATOM      9  CG  GLN A   1     -11.029  16.038  67.704  1.00  0.00    -0.284 C  
BRANCH   9  10
ATOM     10  CD  GLN A   1     -10.517  16.574  69.022  1.00  0.00    -0.303 C  
ATOM     11  NE2 GLN A   1      -9.920  17.797  68.930  1.00  0.00    -0.352 N  
ATOM     12  OE1 GLN A   1     -10.612  15.991  70.095  1.00  0.00    -0.306 OA 
ATOM     13 1HE2 GLN A   1      -9.574  18.158  69.818  1.00  0.00     0.000 HD 
ATOM     14 2HE2 GLN A   1      -9.828  18.305  68.050  1.00  0.00     0.000 HD 
ENDBRANCH   9  10
ENDBRANCH   8   9
ENDBRANCH   4   8
TORSDOF 3
ENDMDL
MODEL       84
REMARK 921   NORMALIZED FREE ENERGY PREDICTED BY IDOCK:   -3.31 KCAL/MOL
REMARK 922        TOTAL FREE ENERGY PREDICTED BY IDOCK:   -4.01 KCAL/MOL
REMARK 923 INTER-LIGAND FREE ENERGY PREDICTED BY IDOCK:   -3.66 KCAL/MOL
REMARK 924 INTRA-LIGAND FREE ENERGY PREDICTED BY IDOCK:   -0.34 KCAL/MOL
REMARK 927      BINDING AFFINITY PREDICTED BY RF-SCORE:    0.00 PKD
ROOT
ATOM      1  N   GLN A   1     -11.887   6.602  72.460  1.00  0.00    -0.493 NA 
ATOM      2  H1  GLN A   1     -12.699   6.265  72.977  1.00  0.00     0.000 HD 
ATOM      3  H2  GLN A   1     -11.023   6.149  72.759  1.00  0.00     0.000 HD 
ATOM      4  CA  GLN A   1     -11.810   8.097  72.569  1.00  0.00    -0.376 C  
ATOM      5  O   GLN A   1     -14.021   7.693  71.737  1.00  0.00    -0.371 OA 
ATOM      6  C   GLN A   1     -13.142   8.679  72.049  1.00  0.00    -0.381 C  
ATOM      7  OXT GLN A   1     -13.411   9.866  71.953  1.00  0.00    -0.407 OA 
ENDROOT
BRANCH   4   8
ATOM      8  CB  GLN A   1     -10.592   8.602  71.793  1.00  0.00    -0.395 C  
BRANCH   8   9
ATOM      9  CG  GLN A   1     -10.005   7.572  70.827  1.00  0.00    -0.182 C  
BRANCH   9  10
ATOM     10  CD  GLN A   1     -10.703   7.598  69.485  1.00  0.00    -0.209 C  
ATOM     11  NE2 GLN A   1     -11.573   6.566  69.292  1.00  0.00    -0.643 N  
ATOM     12  OE1 GLN A   1     -10.526   8.452  68.625  1.00  0.00    -0.208 OA 
ATOM     13 1HE2 GLN A   1     -12.042   6.584  68.387  1.00  0.00     0.000 HD 
ATOM     14 2HE2 GLN A   1     -11.739   5.842  69.991  1.00  0.00     0.000 HD 
ENDBRANCH   9  10
ENDBRANCH   8   9
ENDBRANCH   4   8
TORSDOF 3
ENDMDL
MODEL       85
REMARK 921   NORMALIZED FREE ENERGY PREDICTED BY IDOCK:   -3.31 KCAL/MOL
REMARK 922        TOTAL FREE ENERGY PREDICTED BY IDOCK:   -4.00 KCAL/MOL
REMARK 923 INTER-LIGAND FREE ENERGY PREDICTED BY IDOCK:   -3.61 KCAL/MOL
REMARK 924 INTRA-LIGAND FREE ENERGY PREDICTED BY IDOCK:   -0.39 KCAL/MOL
REMARK 927      BINDING AFFINITY PREDICTED BY RF-SCORE:    0.00 PKD
ROOT
ATOM      1  N   GLN A   1      -8.916   9.784  70.615  1.00  0.00    -0.359 NA 
ATOM      2  H1  GLN A   1      -8.049   9.453  71.039  1.00  0.00     0.000 HD 
ATOM      3  H2  GLN A   1      -9.002  10.800  70.653  1.00  0.00     0.000 HD 
ATOM      4  CA  GLN A   1     -10.082   9.092  71.258  1.00  0.00    -0.314 C  
ATOM      5  O   GLN A   1      -8.677   7.293  70.524  1.00  0.00    -0.145 OA 
ATOM      6  C   GLN A   1      -9.875   7.570  71.101  1.00  0.00    -0.173 C  
ATOM      7  OXT GLN A   1     -10.652   6.703  71.470  1.00  0.00    -0.218 OA 
ENDROOT
BRANCH   4   8
ATOM      8  CB  GLN A   1     -11.383   9.587  70.622  1.00  0.00    -0.364 C  
BRANCH   8   9
ATOM      9  CG  GLN A   1     -12.417  10.078  71.637  1.00  0.00    -0.513 C  
BRANCH   9  10
ATOM     10  CD  GLN A   1     -13.513   9.060  71.860  1.00  0.00    -0.425 C  
ATOM     11  NE2 GLN A   1     -13.484   8.013  70.987  1.00  0.00    -0.538 N  
ATOM     12  OE1 GLN A   1     -14.366   9.137  72.735  1.00  0.00    -0.563 OA 
ATOM     13 1HE2 GLN A   1     -14.224   7.327  71.137  1.00  0.00     0.000 HD 
ATOM     14 2HE2 GLN A   1     -12.785   7.924  70.249  1.00  0.00     0.000 HD 
ENDBRANCH   9  10
ENDBRANCH   8   9
ENDBRANCH   4   8
TORSDOF 3
ENDMDL
MODEL       86
REMARK 921   NORMALIZED FREE ENERGY PREDICTED BY IDOCK:   -3.31 KCAL/MOL
REMARK 922        TOTAL FREE ENERGY PREDICTED BY IDOCK:   -4.00 KCAL/MOL
REMARK 923 INTER-LIGAND FREE ENERGY PREDICTED BY IDOCK:   -3.67 KCAL/MOL
REMARK 924 INTRA-LIGAND FREE ENERGY PREDICTED BY IDOCK:   -0.33 KCAL/MOL
REMARK 927      BINDING AFFINITY PREDICTED BY RF-SCORE:    0.00 PKD
ROOT
ATOM      1  N   GLN A   1     -10.881   8.221  68.300  1.00  0.00    -0.448 NA 
ATOM      2  H1  GLN A   1     -10.924   7.271  67.932  1.00  0.00     0.000 HD 
ATOM      3  H2  GLN A   1     -10.523   8.885  67.613  1.00  0.00     0.000 HD 
ATOM      4  CA  GLN A   1     -10.079   8.230  69.568  1.00  0.00    -0.197 C  
ATOM      5  O   GLN A   1     -11.766   6.574  69.965  1.00  0.00    -0.416 OA 
ATOM      6  C   GLN A   1     -10.731   7.231  70.548  1.00  0.00    -0.232 C  
ATOM      7  OXT GLN A   1     -10.366   7.015  71.693  1.00  0.00    -0.199 OA 
ENDROOT
BRANCH   4   8
ATOM      8  CB  GLN A   1     -10.013   9.656  70.120  1.00  0.00    -0.309 C  
BRANCH   8   9
ATOM      9  CG  GLN A   1     -11.355  10.179  70.636  1.00  0.00    -0.433 C  
BRANCH   9  10
ATOM     10  CD  GLN A   1     -11.911  11.272  69.751  1.00  0.00    -0.364 C  
ATOM     11  NE2 GLN A   1     -11.919  12.505  70.331  1.00  0.00    -0.519 N  
ATOM     12  OE1 GLN A   1     -12.325  11.101  68.611  1.00  0.00    -0.549 OA 
ATOM     13 1HE2 GLN A   1     -12.294  13.242  69.734  1.00  0.00     0.000 HD 
ATOM     14 2HE2 GLN A   1     -11.580  12.676  71.278  1.00  0.00     0.000 HD 
ENDBRANCH   9  10
ENDBRANCH   8   9
ENDBRANCH   4   8
TORSDOF 3
ENDMDL
MODEL       87
REMARK 921   NORMALIZED FREE ENERGY PREDICTED BY IDOCK:   -3.31 KCAL/MOL
REMARK 922        TOTAL FREE ENERGY PREDICTED BY IDOCK:   -4.00 KCAL/MOL
REMARK 923 INTER-LIGAND FREE ENERGY PREDICTED BY IDOCK:   -3.91 KCAL/MOL
REMARK 924 INTRA-LIGAND FREE ENERGY PREDICTED BY IDOCK:   -0.09 KCAL/MOL
REMARK 927      BINDING AFFINITY PREDICTED BY RF-SCORE:    0.00 PKD
ROOT
ATOM      1  N   GLN A   1     -12.183  14.238  67.434  1.00  0.00    -0.604 NA 
ATOM      2  H1  GLN A   1     -12.184  15.114  66.911  1.00  0.00     0.000 HD 
ATOM      3  H2  GLN A   1     -11.755  14.338  68.354  1.00  0.00     0.000 HD 
ATOM      4  CA  GLN A   1     -11.521  13.168  66.615  1.00  0.00    -0.348 C  
ATOM      5  O   GLN A   1     -13.237  14.019  65.173  1.00  0.00    -0.768 OA 
ATOM      6  C   GLN A   1     -12.273  13.068  65.270  1.00  0.00    -0.466 C  
ATOM      7  OXT GLN A   1     -12.032  12.271  64.377  1.00  0.00    -0.378 OA 
ENDROOT
BRANCH   4   8
ATOM      8  CB  GLN A   1     -11.520  11.854  67.399  1.00  0.00    -0.393 C  
BRANCH   8   9
ATOM      9  CG  GLN A   1     -10.826  11.949  68.759  1.00  0.00    -0.270 C  
BRANCH   9  10
ATOM     10  CD  GLN A   1      -9.377  11.522  68.683  1.00  0.00    -0.137 C  
ATOM     11  NE2 GLN A   1      -9.066  10.468  69.490  1.00  0.00    -0.394 N  
ATOM     12  OE1 GLN A   1      -8.532  12.052  67.971  1.00  0.00    -0.152 OA 
ATOM     13 1HE2 GLN A   1      -8.089  10.181  69.438  1.00  0.00     0.000 HD 
ATOM     14 2HE2 GLN A   1      -9.749  10.009  70.091  1.00  0.00     0.000 HD 
ENDBRANCH   9  10
ENDBRANCH   8   9
ENDBRANCH   4   8
TORSDOF 3
ENDMDL
MODEL       88
REMARK 921   NORMALIZED FREE ENERGY PREDICTED BY IDOCK:   -3.29 KCAL/MOL
REMARK 922        TOTAL FREE ENERGY PREDICTED BY IDOCK:   -3.98 KCAL/MOL
REMARK 923 INTER-LIGAND FREE ENERGY PREDICTED BY IDOCK:   -3.76 KCAL/MOL
REMARK 924 INTRA-LIGAND FREE ENERGY PREDICTED BY IDOCK:   -0.22 KCAL/MOL
REMARK 927      BINDING AFFINITY PREDICTED BY RF-SCORE:    0.00 PKD
ROOT
ATOM      1  N   GLN A   1     -12.579   7.239  72.413  1.00  0.00    -0.505 NA 
ATOM      2  H1  GLN A   1     -13.482   7.162  72.882  1.00  0.00     0.000 HD 
ATOM      3  H2  GLN A   1     -11.865   6.656  72.852  1.00  0.00     0.000 HD 
ATOM      4  CA  GLN A   1     -12.171   8.682  72.347  1.00  0.00    -0.349 C  
ATOM      5  O   GLN A   1     -14.350   8.653  71.349  1.00  0.00    -0.386 OA 
ATOM      6  C   GLN A   1     -13.294   9.459  71.627  1.00  0.00    -0.404 C  
ATOM      7  OXT GLN A   1     -13.278  10.650  71.360  1.00  0.00    -0.375 OA 
ENDROOT
BRANCH   4   8
ATOM      8  CB  GLN A   1     -10.817   8.797  71.645  1.00  0.00    -0.399 C  
BRANCH   8   9
ATOM      9  CG  GLN A   1      -9.841   7.674  71.999  1.00  0.00    -0.211 C  
BRANCH   9  10
ATOM     10  CD  GLN A   1      -9.189   7.899  73.346  1.00  0.00    -0.286 C  
ATOM     11  NE2 GLN A   1      -9.766   7.202  74.365  1.00  0.00    -0.443 N  
ATOM     12  OE1 GLN A   1      -8.228   8.634  73.539  1.00  0.00    -0.404 OA 
ATOM     13 1HE2 GLN A   1      -9.326   7.354  75.272  1.00  0.00     0.000 HD 
ATOM     14 2HE2 GLN A   1     -10.566   6.583  74.231  1.00  0.00     0.000 HD 
ENDBRANCH   9  10
ENDBRANCH   8   9
ENDBRANCH   4   8
TORSDOF 3
ENDMDL
MODEL       89
REMARK 921   NORMALIZED FREE ENERGY PREDICTED BY IDOCK:   -3.27 KCAL/MOL
REMARK 922        TOTAL FREE ENERGY PREDICTED BY IDOCK:   -3.96 KCAL/MOL
REMARK 923 INTER-LIGAND FREE ENERGY PREDICTED BY IDOCK:   -3.81 KCAL/MOL
REMARK 924 INTRA-LIGAND FREE ENERGY PREDICTED BY IDOCK:   -0.15 KCAL/MOL
REMARK 927      BINDING AFFINITY PREDICTED BY RF-SCORE:    0.00 PKD
ROOT
ATOM      1  N   GLN A   1      -8.929  10.535  67.168  1.00  0.00    -0.140 NA 
ATOM      2  H1  GLN A   1      -7.953  10.695  67.416  1.00  0.00     0.000 HD 
ATOM      3  H2  GLN A   1      -9.073   9.621  66.738  1.00  0.00     0.000 HD 
ATOM      4  CA  GLN A   1      -9.413  11.654  66.293  1.00  0.00    -0.218 C  
ATOM      5  O   GLN A   1      -8.553  12.769  68.233  1.00  0.00    -0.177 OA 
ATOM      6  C   GLN A   1      -9.193  12.979  67.055  1.00  0.00    -0.232 C  
ATOM      7  OXT GLN A   1      -9.512  14.090  66.659  1.00  0.00    -0.270 OA 
ENDROOT
BRANCH   4   8
ATOM      8  CB  GLN A   1     -10.877  11.414  65.919  1.00  0.00    -0.292 C  
BRANCH   8   9
ATOM      9  CG  GLN A   1     -11.204  11.747  64.463  1.00  0.00    -0.368 C  
BRANCH   9  10
ATOM     10  CD  GLN A   1     -12.293  12.791  64.355  1.00  0.00    -0.424 C  
ATOM     11  NE2 GLN A   1     -12.253  13.518  63.202  1.00  0.00    -0.999 N  
ATOM     12  OE1 GLN A   1     -13.150  12.993  65.207  1.00  0.00    -0.689 OA 
ATOM     13 1HE2 GLN A   1     -12.988  14.221  63.130  1.00  0.00     0.000 HD 
ATOM     14 2HE2 GLN A   1     -11.552  13.370  62.477  1.00  0.00     0.000 HD 
ENDBRANCH   9  10
ENDBRANCH   8   9
ENDBRANCH   4   8
TORSDOF 3
ENDMDL
MODEL       90
REMARK 921   NORMALIZED FREE ENERGY PREDICTED BY IDOCK:   -3.27 KCAL/MOL
REMARK 922        TOTAL FREE ENERGY PREDICTED BY IDOCK:   -3.96 KCAL/MOL
REMARK 923 INTER-LIGAND FREE ENERGY PREDICTED BY IDOCK:   -3.71 KCAL/MOL
REMARK 924 INTRA-LIGAND FREE ENERGY PREDICTED BY IDOCK:   -0.24 KCAL/MOL
REMARK 927      BINDING AFFINITY PREDICTED BY RF-SCORE:    0.00 PKD
ROOT
ATOM      1  N   GLN A   1     -11.491  11.617  70.222  1.00  0.00    -0.501 NA 
ATOM      2  H1  GLN A   1     -12.365  12.109  70.035  1.00  0.00     0.000 HD 
ATOM      3  H2  GLN A   1     -10.827  11.704  69.452  1.00  0.00     0.000 HD 
ATOM      4  CA  GLN A   1     -11.785  10.185  70.559  1.00  0.00    -0.322 C  
ATOM      5  O   GLN A   1     -13.133  11.429  72.103  1.00  0.00    -0.462 OA 
ATOM      6  C   GLN A   1     -12.755  10.170  71.760  1.00  0.00    -0.434 C  
ATOM      7  OXT GLN A   1     -13.172   9.172  72.327  1.00  0.00    -0.408 OA 
ENDROOT
BRANCH   4   8
ATOM      8  CB  GLN A   1     -10.473   9.448  70.840  1.00  0.00    -0.381 C  
BRANCH   8   9
ATOM      9  CG  GLN A   1     -10.293   8.175  70.011  1.00  0.00    -0.215 C  
BRANCH   9  10
ATOM     10  CD  GLN A   1     -10.934   6.976  70.674  1.00  0.00    -0.260 C  
ATOM     11  NE2 GLN A   1     -11.875   6.355  69.908  1.00  0.00    -0.523 N  
ATOM     12  OE1 GLN A   1     -10.657   6.571  71.797  1.00  0.00    -0.210 OA 
ATOM     13 1HE2 GLN A   1     -12.307   5.548  70.355  1.00  0.00     0.000 HD 
ATOM     14 2HE2 GLN A   1     -12.124   6.672  68.970  1.00  0.00     0.000 HD 
ENDBRANCH   9  10
ENDBRANCH   8   9
ENDBRANCH   4   8
TORSDOF 3
ENDMDL
MODEL       91
REMARK 921   NORMALIZED FREE ENERGY PREDICTED BY IDOCK:   -3.25 KCAL/MOL
REMARK 922        TOTAL FREE ENERGY PREDICTED BY IDOCK:   -3.93 KCAL/MOL
REMARK 923 INTER-LIGAND FREE ENERGY PREDICTED BY IDOCK:   -3.80 KCAL/MOL
REMARK 924 INTRA-LIGAND FREE ENERGY PREDICTED BY IDOCK:   -0.13 KCAL/MOL
REMARK 927      BINDING AFFINITY PREDICTED BY RF-SCORE:    0.00 PKD
ROOT
ATOM      1  N   GLN A   1      -8.826  14.016  66.565  1.00  0.00    -0.466 NA 
ATOM      2  H1  GLN A   1      -8.284  14.129  67.422  1.00  0.00     0.000 HD 
ATOM      3  H2  GLN A   1      -9.482  14.783  66.419  1.00  0.00     0.000 HD 
ATOM      4  CA  GLN A   1      -9.510  12.680  66.579  1.00  0.00    -0.247 C  
ATOM      5  O   GLN A   1      -7.201  12.149  66.941  1.00  0.00    -0.107 OA 
ATOM      6  C   GLN A   1      -8.426  11.595  66.757  1.00  0.00    -0.177 C  
ATOM      7  OXT GLN A   1      -8.620  10.389  66.768  1.00  0.00    -0.123 OA 
ENDROOT
BRANCH   4   8
ATOM      8  CB  GLN A   1     -10.323  12.510  65.294  1.00  0.00    -0.310 C  
BRANCH   8   9
ATOM      9  CG  GLN A   1     -10.572  13.820  64.545  1.00  0.00    -0.405 C  
BRANCH   9  10
ATOM     10  CD  GLN A   1     -12.038  14.192  64.534  1.00  0.00    -0.468 C  
ATOM     11  NE2 GLN A   1     -12.470  14.711  63.349  1.00  0.00    -0.882 N  
ATOM     12  OE1 GLN A   1     -12.799  14.053  65.484  1.00  0.00    -0.615 OA 
ATOM     13 1HE2 GLN A   1     -13.458  14.962  63.342  1.00  0.00     0.000 HD 
ATOM     14 2HE2 GLN A   1     -11.858  14.837  62.543  1.00  0.00     0.000 HD 
ENDBRANCH   9  10
ENDBRANCH   8   9
ENDBRANCH   4   8
TORSDOF 3
ENDMDL
MODEL       92
REMARK 921   NORMALIZED FREE ENERGY PREDICTED BY IDOCK:   -3.22 KCAL/MOL
REMARK 922        TOTAL FREE ENERGY PREDICTED BY IDOCK:   -3.89 KCAL/MOL
REMARK 923 INTER-LIGAND FREE ENERGY PREDICTED BY IDOCK:   -3.71 KCAL/MOL
REMARK 924 INTRA-LIGAND FREE ENERGY PREDICTED BY IDOCK:   -0.19 KCAL/MOL
REMARK 927      BINDING AFFINITY PREDICTED BY RF-SCORE:    0.00 PKD
ROOT
ATOM      1  N   GLN A   1     -10.175  14.403  69.012  1.00  0.00    -0.335 NA 
ATOM      2  H1  GLN A   1      -9.759  14.670  69.904  1.00  0.00     0.000 HD 
ATOM      3  H2  GLN A   1      -9.878  13.475  68.709  1.00  0.00     0.000 HD 
ATOM      4  CA  GLN A   1      -9.875  15.457  67.986  1.00  0.00    -0.216 C  
ATOM      5  O   GLN A   1     -10.896  16.674  69.780  1.00  0.00    -0.333 OA 
ATOM      6  C   GLN A   1     -10.405  16.804  68.521  1.00  0.00    -0.316 C  
ATOM      7  OXT GLN A   1     -10.370  17.870  67.927  1.00  0.00    -0.353 OA 
ENDROOT
BRANCH   4   8
ATOM      8  CB  GLN A   1     -10.498  15.057  66.647  1.00  0.00    -0.284 C  
BRANCH   8   9
ATOM      9  CG  GLN A   1     -11.979  14.687  66.743  1.00  0.00    -0.297 C  
BRANCH   9  10
ATOM     10  CD  GLN A   1     -12.251  13.305  66.192  1.00  0.00    -0.405 C  
ATOM     11  NE2 GLN A   1     -12.577  13.290  64.868  1.00  0.00    -0.636 N  
ATOM     12  OE1 GLN A   1     -12.193  12.271  66.846  1.00  0.00    -0.530 OA 
ATOM     13 1HE2 GLN A   1     -12.761  12.358  64.497  1.00  0.00     0.000 HD 
ATOM     14 2HE2 GLN A   1     -12.632  14.135  64.300  1.00  0.00     0.000 HD 
ENDBRANCH   9  10
ENDBRANCH   8   9
ENDBRANCH   4   8
TORSDOF 3
ENDMDL
MODEL       93
REMARK 921   NORMALIZED FREE ENERGY PREDICTED BY IDOCK:   -3.18 KCAL/MOL
REMARK 922        TOTAL FREE ENERGY PREDICTED BY IDOCK:   -3.85 KCAL/MOL
REMARK 923 INTER-LIGAND FREE ENERGY PREDICTED BY IDOCK:   -3.47 KCAL/MOL
REMARK 924 INTRA-LIGAND FREE ENERGY PREDICTED BY IDOCK:   -0.39 KCAL/MOL
REMARK 927      BINDING AFFINITY PREDICTED BY RF-SCORE:    0.00 PKD
ROOT
ATOM      1  N   GLN A   1      -7.970  12.423  66.562  1.00  0.00    -0.383 NA 
ATOM      2  H1  GLN A   1      -7.541  12.247  67.471  1.00  0.00     0.000 HD 
ATOM      3  H2  GLN A   1      -7.453  13.114  66.018  1.00  0.00     0.000 HD 
ATOM      4  CA  GLN A   1      -9.406  12.813  66.754  1.00  0.00    -0.241 C  
ATOM      5  O   GLN A   1      -9.216  10.722  67.913  1.00  0.00    -0.146 OA 
ATOM      6  C   GLN A   1     -10.102  11.682  67.543  1.00  0.00    -0.191 C  
ATOM      7  OXT GLN A   1     -11.286  11.645  67.840  1.00  0.00    -0.254 OA 
ENDROOT
BRANCH   4   8
ATOM      8  CB  GLN A   1     -10.050  13.077  65.392  1.00  0.00    -0.265 C  
BRANCH   8   9
ATOM      9  CG  GLN A   1     -10.807  14.403  65.314  1.00  0.00    -0.370 C  
BRANCH   9  10
ATOM     10  CD  GLN A   1     -12.266  14.241  65.681  1.00  0.00    -0.400 C  
ATOM     11  NE2 GLN A   1     -12.531  14.439  67.004  1.00  0.00    -0.514 N  
ATOM     12  OE1 GLN A   1     -13.155  13.958  64.887  1.00  0.00    -0.704 OA 
ATOM     13 1HE2 GLN A   1     -13.514  14.329  67.250  1.00  0.00     0.000 HD 
ATOM     14 2HE2 GLN A   1     -11.810  14.675  67.685  1.00  0.00     0.000 HD 
ENDBRANCH   9  10
ENDBRANCH   8   9
ENDBRANCH   4   8
TORSDOF 3
ENDMDL
MODEL       94
REMARK 921   NORMALIZED FREE ENERGY PREDICTED BY IDOCK:   -3.14 KCAL/MOL
REMARK 922        TOTAL FREE ENERGY PREDICTED BY IDOCK:   -3.81 KCAL/MOL
REMARK 923 INTER-LIGAND FREE ENERGY PREDICTED BY IDOCK:   -3.74 KCAL/MOL
REMARK 924 INTRA-LIGAND FREE ENERGY PREDICTED BY IDOCK:   -0.07 KCAL/MOL
REMARK 927      BINDING AFFINITY PREDICTED BY RF-SCORE:    0.00 PKD
ROOT
ATOM      1  N   GLN A   1     -11.190  13.070  69.365  1.00  0.00    -0.436 NA 
ATOM      2  H1  GLN A   1     -12.067  12.704  69.736  1.00  0.00     0.000 HD 
ATOM      3  H2  GLN A   1     -10.773  13.769  69.980  1.00  0.00     0.000 HD 
ATOM      4  CA  GLN A   1     -11.415  13.597  67.978  1.00  0.00    -0.310 C  
ATOM      5  O   GLN A   1     -12.230  11.345  67.878  1.00  0.00    -0.592 OA 
ATOM      6  C   GLN A   1     -12.001  12.451  67.125  1.00  0.00    -0.177 C  
ATOM      7  OXT GLN A   1     -12.266  12.513  65.934  1.00  0.00    -0.593 OA 
ENDROOT
BRANCH   4   8
ATOM      8  CB  GLN A   1     -10.100  14.146  67.422  1.00  0.00    -0.240 C  
BRANCH   8   9
ATOM      9  CG  GLN A   1      -9.979  15.668  67.515  1.00  0.00    -0.231 C  
BRANCH   9  10
ATOM     10  CD  GLN A   1      -9.353  16.261  66.272  1.00  0.00    -0.326 C  
ATOM     11  NE2 GLN A   1      -8.003  16.429  66.356  1.00  0.00    -0.306 N  
ATOM     12  OE1 GLN A   1      -9.972  16.573  65.262  1.00  0.00    -0.531 OA 
ATOM     13 1HE2 GLN A   1      -7.581  16.828  65.519  1.00  0.00     0.000 HD 
ATOM     14 2HE2 GLN A   1      -7.463  16.177  67.185  1.00  0.00     0.000 HD 
ENDBRANCH   9  10
ENDBRANCH   8   9
ENDBRANCH   4   8
TORSDOF 3
ENDMDL
MODEL       95
REMARK 921   NORMALIZED FREE ENERGY PREDICTED BY IDOCK:   -3.14 KCAL/MOL
REMARK 922        TOTAL FREE ENERGY PREDICTED BY IDOCK:   -3.80 KCAL/MOL
REMARK 923 INTER-LIGAND FREE ENERGY PREDICTED BY IDOCK:   -3.89 KCAL/MOL
REMARK 924 INTRA-LIGAND FREE ENERGY PREDICTED BY IDOCK:    0.09 KCAL/MOL
REMARK 927      BINDING AFFINITY PREDICTED BY RF-SCORE:    0.00 PKD
ROOT
ATOM      1  N   GLN A   1      -9.336  10.062  64.870  1.00  0.00    -0.245 NA 
ATOM      2  H1  GLN A   1      -9.240   9.538  64.000  1.00  0.00     0.000 HD 
ATOM      3  H2  GLN A   1      -9.289   9.459  65.691  1.00  0.00     0.000 HD 
ATOM      4  CA  GLN A   1     -10.601  10.869  64.830  1.00  0.00    -0.246 C  
ATOM      5  O   GLN A   1      -9.438  11.523  62.839  1.00  0.00    -0.381 OA 
ATOM      6  C   GLN A   1     -10.546  11.775  63.581  1.00  0.00    -0.439 C  
ATOM      7  OXT GLN A   1     -11.390  12.596  63.259  1.00  0.00    -0.460 OA 
ENDROOT
BRANCH   4   8
ATOM      8  CB  GLN A   1     -10.746  11.655  66.135  1.00  0.00    -0.325 C  
BRANCH   8   9
ATOM      9  CG  GLN A   1     -10.704  13.172  65.948  1.00  0.00    -0.287 C  
BRANCH   9  10
ATOM     10  CD  GLN A   1     -11.969  13.836  66.445  1.00  0.00    -0.438 C  
ATOM     11  NE2 GLN A   1     -12.921  14.007  65.484  1.00  0.00    -0.692 N  
ATOM     12  OE1 GLN A   1     -12.156  14.199  67.600  1.00  0.00    -0.378 OA 
ATOM     13 1HE2 GLN A   1     -13.773  14.455  65.820  1.00  0.00     0.000 HD 
ATOM     14 2HE2 GLN A   1     -12.791  13.714  64.516  1.00  0.00     0.000 HD 
ENDBRANCH   9  10
ENDBRANCH   8   9
ENDBRANCH   4   8
TORSDOF 3
ENDMDL
MODEL       96
REMARK 921   NORMALIZED FREE ENERGY PREDICTED BY IDOCK:   -3.13 KCAL/MOL
REMARK 922        TOTAL FREE ENERGY PREDICTED BY IDOCK:   -3.79 KCAL/MOL
REMARK 923 INTER-LIGAND FREE ENERGY PREDICTED BY IDOCK:   -3.54 KCAL/MOL
REMARK 924 INTRA-LIGAND FREE ENERGY PREDICTED BY IDOCK:   -0.25 KCAL/MOL
REMARK 927      BINDING AFFINITY PREDICTED BY RF-SCORE:    0.00 PKD
ROOT
ATOM      1  N   GLN A   1     -10.770  16.472  69.516  1.00  0.00    -0.317 NA 
ATOM      2  H1  GLN A   1     -11.400  15.951  70.126  1.00  0.00     0.000 HD 
ATOM      3  H2  GLN A   1     -10.710  17.457  69.774  1.00  0.00     0.000 HD 
ATOM      4  CA  GLN A   1     -11.190  16.285  68.087  1.00  0.00    -0.298 C  
ATOM      5  O   GLN A   1     -10.928  14.048  68.908  1.00  0.00    -0.247 OA 
ATOM      6  C   GLN A   1     -11.202  14.770  67.791  1.00  0.00    -0.313 C  
ATOM      7  OXT GLN A   1     -11.455  14.257  66.712  1.00  0.00    -0.337 OA 
ENDROOT
BRANCH   4   8
ATOM      8  CB  GLN A   1     -10.245  17.067  67.172  1.00  0.00    -0.306 C  
BRANCH   8   9
ATOM      9  CG  GLN A   1     -10.504  18.574  67.162  1.00  0.00    -0.446 C  
BRANCH   9  10
ATOM     10  CD  GLN A   1      -9.570  19.312  68.096  1.00  0.00    -0.353 C  
ATOM     11  NE2 GLN A   1     -10.121  19.617  69.305  1.00  0.00    -0.616 N  
ATOM     12  OE1 GLN A   1      -8.416  19.623  67.824  1.00  0.00    -0.304 OA 
ATOM     13 1HE2 GLN A   1      -9.491  20.114  69.934  1.00  0.00     0.000 HD 
ATOM     14 2HE2 GLN A   1     -11.077  19.369  69.558  1.00  0.00     0.000 HD 
ENDBRANCH   9  10
ENDBRANCH   8   9
ENDBRANCH   4   8
TORSDOF 3
ENDMDL
MODEL       97
REMARK 921   NORMALIZED FREE ENERGY PREDICTED BY IDOCK:   -3.12 KCAL/MOL
REMARK 922        TOTAL FREE ENERGY PREDICTED BY IDOCK:   -3.78 KCAL/MOL
REMARK 923 INTER-LIGAND FREE ENERGY PREDICTED BY IDOCK:   -3.67 KCAL/MOL
REMARK 924 INTRA-LIGAND FREE ENERGY PREDICTED BY IDOCK:   -0.11 KCAL/MOL
REMARK 927      BINDING AFFINITY PREDICTED BY RF-SCORE:    0.00 PKD
ROOT
ATOM      1  N   GLN A   1     -12.226  10.784  68.869  1.00  0.00    -0.795 NA 
ATOM      2  H1  GLN A   1     -12.052  11.684  68.422  1.00  0.00     0.000 HD 
ATOM      3  H2  GLN A   1     -13.095  10.780  69.404  1.00  0.00     0.000 HD 
ATOM      4  CA  GLN A   1     -11.041  10.408  69.711  1.00  0.00    -0.295 C  
ATOM      5  O   GLN A   1     -10.102  10.817  67.543  1.00  0.00    -0.177 OA 
ATOM      6  C   GLN A   1      -9.795  10.399  68.798  1.00  0.00    -0.185 C  
ATOM      7  OXT GLN A   1      -8.664  10.094  69.141  1.00  0.00    -0.148 OA 
ENDROOT
BRANCH   4   8
ATOM      8  CB  GLN A   1     -11.301   9.058  70.383  1.00  0.00    -0.242 C  
BRANCH   8   9
ATOM      9  CG  GLN A   1     -11.691   9.169  71.857  1.00  0.00    -0.436 C  
BRANCH   9  10
ATOM     10  CD  GLN A   1     -13.061   9.787  72.032  1.00  0.00    -0.452 C  
ATOM     11  NE2 GLN A   1     -14.070   8.877  72.139  1.00  0.00    -0.441 N  
ATOM     12  OE1 GLN A   1     -13.281  10.991  72.078  1.00  0.00    -0.499 OA 
ATOM     13 1HE2 GLN A   1     -14.993   9.294  72.257  1.00  0.00     0.000 HD 
ATOM     14 2HE2 GLN A   1     -13.915   7.869  72.105  1.00  0.00     0.000 HD 
ENDBRANCH   9  10
ENDBRANCH   8   9
ENDBRANCH   4   8
TORSDOF 3
ENDMDL
MODEL       98
REMARK 921   NORMALIZED FREE ENERGY PREDICTED BY IDOCK:   -3.11 KCAL/MOL
REMARK 922        TOTAL FREE ENERGY PREDICTED BY IDOCK:   -3.77 KCAL/MOL
REMARK 923 INTER-LIGAND FREE ENERGY PREDICTED BY IDOCK:   -3.45 KCAL/MOL
REMARK 924 INTRA-LIGAND FREE ENERGY PREDICTED BY IDOCK:   -0.32 KCAL/MOL
REMARK 927      BINDING AFFINITY PREDICTED BY RF-SCORE:    0.00 PKD
ROOT
ATOM      1  N   GLN A   1     -11.921  10.510  68.423  1.00  0.00    -0.788 NA 
ATOM      2  H1  GLN A   1     -12.338  10.978  67.618  1.00  0.00     0.000 HD 
ATOM      3  H2  GLN A   1     -12.131   9.512  68.442  1.00  0.00     0.000 HD 
ATOM      4  CA  GLN A   1     -12.351  11.204  69.683  1.00  0.00    -0.218 C  
ATOM      5  O   GLN A   1     -11.411  12.961  68.350  1.00  0.00    -0.267 OA 
ATOM      6  C   GLN A   1     -11.945  12.689  69.569  1.00  0.00    -0.270 C  
ATOM      7  OXT GLN A   1     -12.102  13.539  70.431  1.00  0.00    -0.338 OA 
ENDROOT
BRANCH   4   8
ATOM      8  CB  GLN A   1     -11.726  10.502  70.890  1.00  0.00    -0.431 C  
BRANCH   8   9
ATOM      9  CG  GLN A   1     -10.961   9.227  70.534  1.00  0.00    -0.318 C  
BRANCH   9  10
ATOM     10  CD  GLN A   1      -9.469   9.395  70.715  1.00  0.00    -0.241 C  
ATOM     11  NE2 GLN A   1      -8.896  10.256  69.827  1.00  0.00    -0.380 N  
ATOM     12  OE1 GLN A   1      -8.803   8.826  71.572  1.00  0.00    -0.202 OA 
ATOM     13 1HE2 GLN A   1      -7.890  10.370  69.949  1.00  0.00     0.000 HD 
ATOM     14 2HE2 GLN A   1      -9.426  10.744  69.105  1.00  0.00     0.000 HD 
ENDBRANCH   9  10
ENDBRANCH   8   9
ENDBRANCH   4   8
TORSDOF 3
ENDMDL
MODEL       99
REMARK 921   NORMALIZED FREE ENERGY PREDICTED BY IDOCK:   -3.09 KCAL/MOL
REMARK 922        TOTAL FREE ENERGY PREDICTED BY IDOCK:   -3.74 KCAL/MOL
REMARK 923 INTER-LIGAND FREE ENERGY PREDICTED BY IDOCK:   -3.65 KCAL/MOL
REMARK 924 INTRA-LIGAND FREE ENERGY PREDICTED BY IDOCK:   -0.10 KCAL/MOL
REMARK 927      BINDING AFFINITY PREDICTED BY RF-SCORE:    0.00 PKD
ROOT
ATOM      1  N   GLN A   1     -10.831  14.256  64.942  1.00  0.00    -0.396 NA 
ATOM      2  H1  GLN A   1     -11.798  14.209  64.621  1.00  0.00     0.000 HD 
ATOM      3  H2  GLN A   1     -10.566  13.438  65.491  1.00  0.00     0.000 HD 
ATOM      4  CA  GLN A   1     -10.615  15.538  65.692  1.00  0.00    -0.373 C  
ATOM      5  O   GLN A   1     -11.502  16.248  63.581  1.00  0.00    -0.773 OA 
ATOM      6  C   GLN A   1     -11.000  16.705  64.756  1.00  0.00    -0.109 C  
ATOM      7  OXT GLN A   1     -10.907  17.892  65.024  1.00  0.00    -0.767 OA 
ENDROOT
BRANCH   4   8
ATOM      8  CB  GLN A   1      -9.165  15.609  66.173  1.00  0.00    -0.378 C  
BRANCH   8   9
ATOM      9  CG  GLN A   1      -8.638  14.289  66.740  1.00  0.00    -0.113 C  
BRANCH   9  10
ATOM     10  CD  GLN A   1      -9.369  13.887  68.002  1.00  0.00    -0.204 C  
ATOM     11  NE2 GLN A   1      -9.329  14.826  68.989  1.00  0.00    -0.315 N  
ATOM     12  OE1 GLN A   1      -9.955  12.822  68.157  1.00  0.00    -0.218 OA 
ATOM     13 1HE2 GLN A   1      -9.821  14.554  69.840  1.00  0.00     0.000 HD 
ATOM     14 2HE2 GLN A   1      -8.849  15.720  68.886  1.00  0.00     0.000 HD 
ENDBRANCH   9  10
ENDBRANCH   8   9
ENDBRANCH   4   8
TORSDOF 3
ENDMDL
MODEL      100
REMARK 921   NORMALIZED FREE ENERGY PREDICTED BY IDOCK:   -3.05 KCAL/MOL
REMARK 922        TOTAL FREE ENERGY PREDICTED BY IDOCK:   -3.70 KCAL/MOL
REMARK 923 INTER-LIGAND FREE ENERGY PREDICTED BY IDOCK:   -3.55 KCAL/MOL
REMARK 924 INTRA-LIGAND FREE ENERGY PREDICTED BY IDOCK:   -0.16 KCAL/MOL
REMARK 927      BINDING AFFINITY PREDICTED BY RF-SCORE:    0.00 PKD
ROOT
ATOM      1  N   GLN A   1      -8.186  15.398  68.091  1.00  0.00    -0.141 NA 
ATOM      2  H1  GLN A   1      -7.170  15.476  68.041  1.00  0.00     0.000 HD 
ATOM      3  H2  GLN A   1      -8.531  14.549  67.643  1.00  0.00     0.000 HD 
ATOM      4  CA  GLN A   1      -8.810  16.636  67.517  1.00  0.00    -0.196 C  
ATOM      5  O   GLN A   1      -7.313  17.470  69.194  1.00  0.00    -0.224 OA 
ATOM      6  C   GLN A   1      -8.257  17.850  68.295  1.00  0.00    -0.290 C  
ATOM      7  OXT GLN A   1      -8.582  19.014  68.123  1.00  0.00    -0.297 OA 
ENDROOT
BRANCH   4   8
ATOM      8  CB  GLN A   1     -10.334  16.520  67.592  1.00  0.00    -0.291 C  
BRANCH   8   9
ATOM      9  CG  GLN A   1     -10.905  15.364  66.770  1.00  0.00    -0.306 C  
BRANCH   9  10
ATOM     10  CD  GLN A   1     -10.676  15.560  65.288  1.00  0.00    -0.422 C  
ATOM     11  NE2 GLN A   1     -10.203  14.452  64.648  1.00  0.00    -0.594 N  
ATOM     12  OE1 GLN A   1     -10.886  16.604  64.684  1.00  0.00    -0.784 OA 
ATOM     13 1HE2 GLN A   1     -10.048  14.585  63.649  1.00  0.00     0.000 HD 
ATOM     14 2HE2 GLN A   1     -10.020  13.571  65.127  1.00  0.00     0.000 HD 
ENDBRANCH   9  10
ENDBRANCH   8   9
ENDBRANCH   4   8
TORSDOF 3
ENDMDL
MODEL      101
REMARK 921   NORMALIZED FREE ENERGY PREDICTED BY IDOCK:   -3.04 KCAL/MOL
REMARK 922        TOTAL FREE ENERGY PREDICTED BY IDOCK:   -3.69 KCAL/MOL
REMARK 923 INTER-LIGAND FREE ENERGY PREDICTED BY IDOCK:   -3.58 KCAL/MOL
REMARK 924 INTRA-LIGAND FREE ENERGY PREDICTED BY IDOCK:   -0.11 KCAL/MOL
REMARK 927      BINDING AFFINITY PREDICTED BY RF-SCORE:    0.00 PKD
ROOT
ATOM      1  N   GLN A   1      -8.845  13.618  66.378  1.00  0.00    -0.455 NA 
ATOM      2  H1  GLN A   1      -8.288  12.764  66.406  1.00  0.00     0.000 HD 
ATOM      3  H2  GLN A   1      -8.334  14.424  66.738  1.00  0.00     0.000 HD 
ATOM      4  CA  GLN A   1     -10.137  13.395  67.108  1.00  0.00    -0.240 C  
ATOM      5  O   GLN A   1     -10.076  11.626  65.491  1.00  0.00    -0.227 OA 
ATOM      6  C   GLN A   1     -10.848  12.189  66.456  1.00  0.00    -0.270 C  
ATOM      7  OXT GLN A   1     -11.945  11.754  66.769  1.00  0.00    -0.584 OA 
ENDROOT
BRANCH   4   8
ATOM      8  CB  GLN A   1     -10.973  14.676  67.068  1.00  0.00    -0.317 C  
BRANCH   8   9
ATOM      9  CG  GLN A   1     -11.736  14.955  68.363  1.00  0.00    -0.336 C  
BRANCH   9  10
ATOM     10  CD  GLN A   1     -11.270  16.231  69.028  1.00  0.00    -0.326 C  
ATOM     11  NE2 GLN A   1     -11.396  16.228  70.386  1.00  0.00    -0.459 N  
ATOM     12  OE1 GLN A   1     -10.815  17.200  68.433  1.00  0.00    -0.367 OA 
ATOM     13 1HE2 GLN A   1     -11.082  17.088  70.834  1.00  0.00     0.000 HD 
ATOM     14 2HE2 GLN A   1     -11.771  15.435  70.906  1.00  0.00     0.000 HD 
ENDBRANCH   9  10
ENDBRANCH   8   9
ENDBRANCH   4   8
TORSDOF 3
ENDMDL
MODEL      102
REMARK 921   NORMALIZED FREE ENERGY PREDICTED BY IDOCK:   -3.04 KCAL/MOL
REMARK 922        TOTAL FREE ENERGY PREDICTED BY IDOCK:   -3.68 KCAL/MOL
REMARK 923 INTER-LIGAND FREE ENERGY PREDICTED BY IDOCK:   -3.48 KCAL/MOL
REMARK 924 INTRA-LIGAND FREE ENERGY PREDICTED BY IDOCK:   -0.20 KCAL/MOL
REMARK 927      BINDING AFFINITY PREDICTED BY RF-SCORE:    0.00 PKD
ROOT
ATOM      1  N   GLN A   1      -8.289   7.552  72.358  1.00  0.00    -0.104 NA 
ATOM      2  H1  GLN A   1      -7.532   7.378  71.697  1.00  0.00     0.000 HD 
ATOM      3  H2  GLN A   1      -8.504   6.732  72.925  1.00  0.00     0.000 HD 
ATOM      4  CA  GLN A   1      -9.492   8.061  71.618  1.00  0.00    -0.164 C  
ATOM      5  O   GLN A   1      -7.736   9.555  70.961  1.00  0.00    -0.319 OA 
ATOM      6  C   GLN A   1      -9.068   9.323  70.836  1.00  0.00    -0.222 C  
ATOM      7  OXT GLN A   1      -9.805  10.021  70.158  1.00  0.00    -0.241 OA 
ENDROOT
BRANCH   4   8
ATOM      8  CB  GLN A   1     -10.627   8.323  72.609  1.00  0.00    -0.378 C  
BRANCH   8   9
ATOM      9  CG  GLN A   1     -12.016   7.998  72.056  1.00  0.00    -0.375 C  
BRANCH   9  10
ATOM     10  CD  GLN A   1     -12.964   9.169  72.193  1.00  0.00    -0.425 C  
ATOM     11  NE2 GLN A   1     -14.106   8.880  72.880  1.00  0.00    -0.845 N  
ATOM     12  OE1 GLN A   1     -12.758  10.288  71.741  1.00  0.00    -0.408 OA 
ATOM     13 1HE2 GLN A   1     -14.745   9.668  72.973  1.00  0.00     0.000 HD 
ATOM     14 2HE2 GLN A   1     -14.302   7.957  73.268  1.00  0.00     0.000 HD 
ENDBRANCH   9  10
ENDBRANCH   8   9
ENDBRANCH   4   8
TORSDOF 3
ENDMDL
MODEL      103
REMARK 921   NORMALIZED FREE ENERGY PREDICTED BY IDOCK:   -3.03 KCAL/MOL
REMARK 922        TOTAL FREE ENERGY PREDICTED BY IDOCK:   -3.68 KCAL/MOL
REMARK 923 INTER-LIGAND FREE ENERGY PREDICTED BY IDOCK:   -3.60 KCAL/MOL
REMARK 924 INTRA-LIGAND FREE ENERGY PREDICTED BY IDOCK:   -0.08 KCAL/MOL
REMARK 927      BINDING AFFINITY PREDICTED BY RF-SCORE:    0.00 PKD
ROOT
ATOM      1  N   GLN A   1      -9.607  17.428  67.517  1.00  0.00    -0.253 NA 
ATOM      2  H1  GLN A   1      -9.000  18.157  67.143  1.00  0.00     0.000 HD 
ATOM      3  H2  GLN A   1      -9.185  16.940  68.307  1.00  0.00     0.000 HD 
ATOM      4  CA  GLN A   1      -9.997  16.488  66.414  1.00  0.00    -0.303 C  
ATOM      5  O   GLN A   1     -10.627  18.646  65.582  1.00  0.00    -0.610 OA 
ATOM      6  C   GLN A   1     -10.666  17.319  65.297  1.00  0.00    -0.010 C  
ATOM      7  OXT GLN A   1     -11.144  16.872  64.267  1.00  0.00    -1.135 OA 
ENDROOT
BRANCH   4   8
ATOM      8  CB  GLN A   1     -10.908  15.394  66.974  1.00  0.00    -0.320 C  
BRANCH   8   9
ATOM      9  CG  GLN A   1     -10.829  14.073  66.206  1.00  0.00    -0.291 C  
BRANCH   9  10
ATOM     10  CD  GLN A   1     -10.048  13.025  66.968  1.00  0.00    -0.243 C  
ATOM     11  NE2 GLN A   1     -10.716  12.503  68.036  1.00  0.00    -0.214 N  
ATOM     12  OE1 GLN A   1      -8.917  12.654  66.680  1.00  0.00    -0.217 OA 
ATOM     13 1HE2 GLN A   1     -10.190  11.797  68.549  1.00  0.00     0.000 HD 
ATOM     14 2HE2 GLN A   1     -11.659  12.793  68.297  1.00  0.00     0.000 HD 
ENDBRANCH   9  10
ENDBRANCH   8   9
ENDBRANCH   4   8
TORSDOF 3
ENDMDL
MODEL      104
REMARK 921   NORMALIZED FREE ENERGY PREDICTED BY IDOCK:   -3.03 KCAL/MOL
REMARK 922        TOTAL FREE ENERGY PREDICTED BY IDOCK:   -3.67 KCAL/MOL
REMARK 923 INTER-LIGAND FREE ENERGY PREDICTED BY IDOCK:   -3.29 KCAL/MOL
REMARK 924 INTRA-LIGAND FREE ENERGY PREDICTED BY IDOCK:   -0.39 KCAL/MOL
REMARK 927      BINDING AFFINITY PREDICTED BY RF-SCORE:    0.00 PKD
ROOT
ATOM      1  N   GLN A   1     -11.308   6.928  68.651  1.00  0.00    -0.530 NA 
ATOM      2  H1  GLN A   1     -10.514   6.813  68.021  1.00  0.00     0.000 HD 
ATOM      3  H2  GLN A   1     -11.789   7.816  68.509  1.00  0.00     0.000 HD 
ATOM      4  CA  GLN A   1     -10.850   6.752  70.070  1.00  0.00    -0.266 C  
ATOM      5  O   GLN A   1     -10.116   4.750  68.975  1.00  0.00    -0.175 OA 
ATOM      6  C   GLN A   1     -10.183   5.365  70.184  1.00  0.00    -0.272 C  
ATOM      7  OXT GLN A   1      -9.734   4.872  71.207  1.00  0.00    -0.159 OA 
ENDROOT
BRANCH   4   8
ATOM      8  CB  GLN A   1     -12.041   6.924  71.015  1.00  0.00    -0.429 C  
BRANCH   8   9
ATOM      9  CG  GLN A   1     -11.797   7.938  72.134  1.00  0.00    -0.384 C  
BRANCH   9  10
ATOM     10  CD  GLN A   1     -10.702   7.486  73.075  1.00  0.00    -0.384 C  
ATOM     11  NE2 GLN A   1     -10.975   6.319  73.724  1.00  0.00    -0.412 N  
ATOM     12  OE1 GLN A   1      -9.652   8.089  73.261  1.00  0.00    -0.277 OA 
ATOM     13 1HE2 GLN A   1     -10.237   6.015  74.358  1.00  0.00     0.000 HD 
ATOM     14 2HE2 GLN A   1     -11.841   5.797  73.587  1.00  0.00     0.000 HD 
ENDBRANCH   9  10
ENDBRANCH   8   9
ENDBRANCH   4   8
TORSDOF 3
ENDMDL
MODEL      105
REMARK 921   NORMALIZED FREE ENERGY PREDICTED BY IDOCK:   -3.03 KCAL/MOL
REMARK 922        TOTAL FREE ENERGY PREDICTED BY IDOCK:   -3.67 KCAL/MOL
REMARK 923 INTER-LIGAND FREE ENERGY PREDICTED BY IDOCK:   -3.41 KCAL/MOL
REMARK 924 INTRA-LIGAND FREE ENERGY PREDICTED BY IDOCK:   -0.26 KCAL/MOL
REMARK 927      BINDING AFFINITY PREDICTED BY RF-SCORE:    0.00 PKD
ROOT
ATOM      1  N   GLN A   1      -7.334  17.200  68.945  1.00  0.00    -0.242 NA 
ATOM      2  H1  GLN A   1      -6.573  16.531  69.063  1.00  0.00     0.000 HD 
ATOM      3  H2  GLN A   1      -7.545  17.702  69.807  1.00  0.00     0.000 HD 
ATOM      4  CA  GLN A   1      -8.538  16.493  68.392  1.00  0.00    -0.213 C  
ATOM      5  O   GLN A   1      -6.792  15.960  66.837  1.00  0.00    -0.238 OA 
ATOM      6  C   GLN A   1      -8.121  15.811  67.071  1.00  0.00    -0.236 C  
ATOM      7  OXT GLN A   1      -8.861  15.183  66.330  1.00  0.00    -0.278 OA 
ENDROOT
BRANCH   4   8
ATOM      8  CB  GLN A   1      -9.680  17.495  68.215  1.00  0.00    -0.311 C  
BRANCH   8   9
ATOM      9  CG  GLN A   1      -9.258  18.797  67.533  1.00  0.00    -0.306 C  
BRANCH   9  10
ATOM     10  CD  GLN A   1      -9.962  18.992  66.208  1.00  0.00    -0.398 C  
ATOM     11  NE2 GLN A   1     -10.057  20.295  65.818  1.00  0.00    -0.555 N  
ATOM     12  OE1 GLN A   1     -10.417  18.086  65.521  1.00  0.00    -0.636 OA 
ATOM     13 1HE2 GLN A   1     -10.532  20.426  64.925  1.00  0.00     0.000 HD 
ATOM     14 2HE2 GLN A   1      -9.687  21.068  66.370  1.00  0.00     0.000 HD 
ENDBRANCH   9  10
ENDBRANCH   8   9
ENDBRANCH   4   8
TORSDOF 3
ENDMDL
MODEL      106
REMARK 921   NORMALIZED FREE ENERGY PREDICTED BY IDOCK:   -3.03 KCAL/MOL
REMARK 922        TOTAL FREE ENERGY PREDICTED BY IDOCK:   -3.67 KCAL/MOL
REMARK 923 INTER-LIGAND FREE ENERGY PREDICTED BY IDOCK:   -3.50 KCAL/MOL
REMARK 924 INTRA-LIGAND FREE ENERGY PREDICTED BY IDOCK:   -0.17 KCAL/MOL
REMARK 927      BINDING AFFINITY PREDICTED BY RF-SCORE:    0.00 PKD
ROOT
ATOM      1  N   GLN A   1     -10.439  16.645  65.547  1.00  0.00    -0.568 NA 
ATOM      2  H1  GLN A   1      -9.965  15.906  65.027  1.00  0.00     0.000 HD 
ATOM      3  H2  GLN A   1     -10.390  17.545  65.069  1.00  0.00     0.000 HD 
ATOM      4  CA  GLN A   1      -9.883  16.711  66.939  1.00  0.00    -0.263 C  
ATOM      5  O   GLN A   1     -10.553  14.422  66.694  1.00  0.00    -0.277 OA 
ATOM      6  C   GLN A   1     -10.050  15.317  67.582  1.00  0.00    -0.235 C  
ATOM      7  OXT GLN A   1      -9.746  15.020  68.727  1.00  0.00    -0.212 OA 
ENDROOT
BRANCH   4   8
ATOM      8  CB  GLN A   1     -10.594  17.819  67.719  1.00  0.00    -0.392 C  
BRANCH   8   9
ATOM      9  CG  GLN A   1     -10.663  19.152  66.972  1.00  0.00    -0.542 C  
BRANCH   9  10
ATOM     10  CD  GLN A   1      -9.342  19.887  67.010  1.00  0.00    -0.370 C  
ATOM     11  NE2 GLN A   1      -8.743  20.015  65.792  1.00  0.00    -0.416 N  
ATOM     12  OE1 GLN A   1      -8.826  20.341  68.025  1.00  0.00    -0.227 OA 
ATOM     13 1HE2 GLN A   1      -7.852  20.511  65.818  1.00  0.00     0.000 HD 
ATOM     14 2HE2 GLN A   1      -9.150  19.648  64.932  1.00  0.00     0.000 HD 
ENDBRANCH   9  10
ENDBRANCH   8   9
ENDBRANCH   4   8
TORSDOF 3
ENDMDL
MODEL      107
REMARK 921   NORMALIZED FREE ENERGY PREDICTED BY IDOCK:   -3.03 KCAL/MOL
REMARK 922        TOTAL FREE ENERGY PREDICTED BY IDOCK:   -3.67 KCAL/MOL
REMARK 923 INTER-LIGAND FREE ENERGY PREDICTED BY IDOCK:   -3.32 KCAL/MOL
REMARK 924 INTRA-LIGAND FREE ENERGY PREDICTED BY IDOCK:   -0.35 KCAL/MOL
REMARK 927      BINDING AFFINITY PREDICTED BY RF-SCORE:    0.00 PKD
ROOT
ATOM      1  N   GLN A   1     -10.094   7.588  71.441  1.00  0.00    -0.186 NA 
ATOM      2  H1  GLN A   1     -10.386   6.950  72.181  1.00  0.00     0.000 HD 
ATOM      3  H2  GLN A   1      -9.079   7.637  71.351  1.00  0.00     0.000 HD 
ATOM      4  CA  GLN A   1     -10.708   8.937  71.675  1.00  0.00    -0.347 C  
ATOM      5  O   GLN A   1     -12.583   7.443  71.675  1.00  0.00    -0.328 OA 
ATOM      6  C   GLN A   1     -12.240   8.755  71.746  1.00  0.00    -0.349 C  
ATOM      7  OXT GLN A   1     -13.058   9.651  71.884  1.00  0.00    -0.374 OA 
ENDROOT
BRANCH   4   8
ATOM      8  CB  GLN A   1     -10.270   9.896  70.565  1.00  0.00    -0.257 C  
BRANCH   8   9
ATOM      9  CG  GLN A   1     -11.058   9.733  69.264  1.00  0.00    -0.184 C  
BRANCH   9  10
ATOM     10  CD  GLN A   1     -11.731  11.022  68.848  1.00  0.00    -0.330 C  
ATOM     11  NE2 GLN A   1     -11.985  11.874  69.882  1.00  0.00    -0.329 N  
ATOM     12  OE1 GLN A   1     -12.035  11.308  67.696  1.00  0.00    -0.634 OA 
ATOM     13 1HE2 GLN A   1     -12.439  12.743  69.601  1.00  0.00     0.000 HD 
ATOM     14 2HE2 GLN A   1     -11.742  11.661  70.849  1.00  0.00     0.000 HD 
ENDBRANCH   9  10
ENDBRANCH   8   9
ENDBRANCH   4   8
TORSDOF 3
ENDMDL
MODEL      108
REMARK 921   NORMALIZED FREE ENERGY PREDICTED BY IDOCK:   -3.00 KCAL/MOL
REMARK 922        TOTAL FREE ENERGY PREDICTED BY IDOCK:   -3.64 KCAL/MOL
REMARK 923 INTER-LIGAND FREE ENERGY PREDICTED BY IDOCK:   -3.35 KCAL/MOL
REMARK 924 INTRA-LIGAND FREE ENERGY PREDICTED BY IDOCK:   -0.29 KCAL/MOL
REMARK 927      BINDING AFFINITY PREDICTED BY RF-SCORE:    0.00 PKD
ROOT
ATOM      1  N   GLN A   1     -12.142  11.051  68.130  1.00  0.00    -0.780 NA 
ATOM      2  H1  GLN A   1     -12.501  10.239  68.632  1.00  0.00     0.000 HD 
ATOM      3  H2  GLN A   1     -12.673  11.246  67.281  1.00  0.00     0.000 HD 
ATOM      4  CA  GLN A   1     -10.679  10.861  67.853  1.00  0.00    -0.231 C  
ATOM      5  O   GLN A   1     -10.862  10.558  70.224  1.00  0.00    -0.279 OA 
ATOM      6  C   GLN A   1      -9.969  10.622  69.203  1.00  0.00    -0.211 C  
ATOM      7  OXT GLN A   1      -8.768  10.471  69.359  1.00  0.00    -0.152 OA 
ENDROOT
BRANCH   4   8
ATOM      8  CB  GLN A   1     -10.140  12.079  67.101  1.00  0.00    -0.217 C  
BRANCH   8   9
ATOM      9  CG  GLN A   1     -10.853  12.349  65.775  1.00  0.00    -0.312 C  
BRANCH   9  10
ATOM     10  CD  GLN A   1     -11.378  13.766  65.696  1.00  0.00    -0.305 C  
ATOM     11  NE2 GLN A   1     -12.438  14.011  66.517  1.00  0.00    -0.512 N  
ATOM     12  OE1 GLN A   1     -10.916  14.639  64.971  1.00  0.00    -0.356 OA 
ATOM     13 1HE2 GLN A   1     -12.791  14.966  66.463  1.00  0.00     0.000 HD 
ATOM     14 2HE2 GLN A   1     -12.841  13.303  67.130  1.00  0.00     0.000 HD 
ENDBRANCH   9  10
ENDBRANCH   8   9
ENDBRANCH   4   8
TORSDOF 3
ENDMDL
MODEL      109
REMARK 921   NORMALIZED FREE ENERGY PREDICTED BY IDOCK:   -2.99 KCAL/MOL
REMARK 922        TOTAL FREE ENERGY PREDICTED BY IDOCK:   -3.63 KCAL/MOL
REMARK 923 INTER-LIGAND FREE ENERGY PREDICTED BY IDOCK:   -3.44 KCAL/MOL
REMARK 924 INTRA-LIGAND FREE ENERGY PREDICTED BY IDOCK:   -0.18 KCAL/MOL
REMARK 927      BINDING AFFINITY PREDICTED BY RF-SCORE:    0.00 PKD
ROOT
ATOM      1  N   GLN A   1     -11.875  13.197  70.435  1.00  0.00    -0.542 NA 
ATOM      2  H1  GLN A   1     -11.478  13.673  71.245  1.00  0.00     0.000 HD 
ATOM      3  H2  GLN A   1     -11.717  12.190  70.462  1.00  0.00     0.000 HD 
ATOM      4  CA  GLN A   1     -11.341  13.821  69.178  1.00  0.00    -0.281 C  
ATOM      5  O   GLN A   1     -12.260  15.671  70.395  1.00  0.00    -0.381 OA 
ATOM      6  C   GLN A   1     -11.675  15.328  69.219  1.00  0.00    -0.338 C  
ATOM      7  OXT GLN A   1     -11.427  16.136  68.338  1.00  0.00    -0.369 OA 
ENDROOT
BRANCH   4   8
ATOM      8  CB  GLN A   1     -11.936  13.108  67.962  1.00  0.00    -0.345 C  
BRANCH   8   9
ATOM      9  CG  GLN A   1     -10.914  12.296  67.164  1.00  0.00    -0.308 C  
BRANCH   9  10
ATOM     10  CD  GLN A   1     -10.418  11.096  67.939  1.00  0.00    -0.190 C  
ATOM     11  NE2 GLN A   1     -11.340  10.101  68.070  1.00  0.00    -0.523 N  
ATOM     12  OE1 GLN A   1      -9.296  10.993  68.419  1.00  0.00    -0.164 OA 
ATOM     13 1HE2 GLN A   1     -11.006   9.292  68.593  1.00  0.00     0.000 HD 
ATOM     14 2HE2 GLN A   1     -12.281  10.160  67.680  1.00  0.00     0.000 HD 
ENDBRANCH   9  10
ENDBRANCH   8   9
ENDBRANCH   4   8
TORSDOF 3
ENDMDL
MODEL      110
REMARK 921   NORMALIZED FREE ENERGY PREDICTED BY IDOCK:   -2.98 KCAL/MOL
REMARK 922        TOTAL FREE ENERGY PREDICTED BY IDOCK:   -3.62 KCAL/MOL
REMARK 923 INTER-LIGAND FREE ENERGY PREDICTED BY IDOCK:   -3.50 KCAL/MOL
REMARK 924 INTRA-LIGAND FREE ENERGY PREDICTED BY IDOCK:   -0.11 KCAL/MOL
REMARK 927      BINDING AFFINITY PREDICTED BY RF-SCORE:    0.00 PKD
ROOT
ATOM      1  N   GLN A   1      -9.570  12.710  64.714  1.00  0.00    -0.479 NA 
ATOM      2  H1  GLN A   1      -8.567  12.586  64.854  1.00  0.00     0.000 HD 
ATOM      3  H2  GLN A   1     -10.031  13.093  65.539  1.00  0.00     0.000 HD 
ATOM      4  CA  GLN A   1     -10.178  11.409  64.278  1.00  0.00    -0.315 C  
ATOM      5  O   GLN A   1      -8.413  11.779  62.698  1.00  0.00    -0.045 OA 
ATOM      6  C   GLN A   1      -9.441  10.946  63.002  1.00  0.00    -0.352 C  
ATOM      7  OXT GLN A   1      -9.704   9.948  62.351  1.00  0.00    -0.150 OA 
ENDROOT
BRANCH   4   8
ATOM      8  CB  GLN A   1     -11.682  11.594  64.067  1.00  0.00    -0.339 C  
BRANCH   8   9
ATOM      9  CG  GLN A   1     -12.363  12.406  65.170  1.00  0.00    -0.403 C  
BRANCH   9  10
ATOM     10  CD  GLN A   1     -12.692  13.810  64.715  1.00  0.00    -0.215 C  
ATOM     11  NE2 GLN A   1     -11.971  14.226  63.635  1.00  0.00    -0.830 N  
ATOM     12  OE1 GLN A   1     -13.525  14.536  65.244  1.00  0.00    -0.376 OA 
ATOM     13 1HE2 GLN A   1     -12.193  15.173  63.329  1.00  0.00     0.000 HD 
ATOM     14 2HE2 GLN A   1     -11.273  13.643  63.176  1.00  0.00     0.000 HD 
ENDBRANCH   9  10
ENDBRANCH   8   9
ENDBRANCH   4   8
TORSDOF 3
ENDMDL
MODEL      111
REMARK 921   NORMALIZED FREE ENERGY PREDICTED BY IDOCK:   -2.98 KCAL/MOL
REMARK 922        TOTAL FREE ENERGY PREDICTED BY IDOCK:   -3.61 KCAL/MOL
REMARK 923 INTER-LIGAND FREE ENERGY PREDICTED BY IDOCK:   -3.44 KCAL/MOL
REMARK 924 INTRA-LIGAND FREE ENERGY PREDICTED BY IDOCK:   -0.18 KCAL/MOL
REMARK 927      BINDING AFFINITY PREDICTED BY RF-SCORE:    0.00 PKD
ROOT
ATOM      1  N   GLN A   1     -11.524  11.415  67.372  1.00  0.00    -0.499 NA 
ATOM      2  H1  GLN A   1     -12.247  11.199  68.058  1.00  0.00     0.000 HD 
ATOM      3  H2  GLN A   1     -11.914  11.662  66.463  1.00  0.00     0.000 HD 
ATOM      4  CA  GLN A   1     -10.563  10.265  67.283  1.00  0.00    -0.267 C  
ATOM      5  O   GLN A   1     -10.589  10.814  69.616  1.00  0.00    -0.231 OA 
ATOM      6  C   GLN A   1      -9.998  10.008  68.697  1.00  0.00    -0.165 C  
ATOM      7  OXT GLN A   1      -9.156   9.173  68.986  1.00  0.00    -0.140 OA 
ENDROOT
BRANCH   4   8
ATOM      8  CB  GLN A   1      -9.477  10.588  66.254  1.00  0.00    -0.217 C  
BRANCH   8   9
ATOM      9  CG  GLN A   1      -9.922  10.384  64.805  1.00  0.00    -0.409 C  
BRANCH   9  10
ATOM     10  CD  GLN A   1     -10.578  11.624  64.238  1.00  0.00    -0.340 C  
ATOM     11  NE2 GLN A   1     -11.313  11.397  63.112  1.00  0.00    -0.864 N  
ATOM     12  OE1 GLN A   1     -10.480  12.746  64.720  1.00  0.00    -0.306 OA 
ATOM     13 1HE2 GLN A   1     -11.754  12.233  62.730  1.00  0.00     0.000 HD 
ATOM     14 2HE2 GLN A   1     -11.411  10.474  62.690  1.00  0.00     0.000 HD 
ENDBRANCH   9  10
ENDBRANCH   8   9
ENDBRANCH   4   8
TORSDOF 3
ENDMDL
MODEL      112
REMARK 921   NORMALIZED FREE ENERGY PREDICTED BY IDOCK:   -2.98 KCAL/MOL
REMARK 922        TOTAL FREE ENERGY PREDICTED BY IDOCK:   -3.61 KCAL/MOL
REMARK 923 INTER-LIGAND FREE ENERGY PREDICTED BY IDOCK:   -3.30 KCAL/MOL
REMARK 924 INTRA-LIGAND FREE ENERGY PREDICTED BY IDOCK:   -0.31 KCAL/MOL
REMARK 927      BINDING AFFINITY PREDICTED BY RF-SCORE:    0.00 PKD
ROOT
ATOM      1  N   GLN A   1     -11.038  15.079  70.832  1.00  0.00    -0.521 NA 
ATOM      2  H1  GLN A   1     -11.605  14.327  71.225  1.00  0.00     0.000 HD 
ATOM      3  H2  GLN A   1     -10.909  15.849  71.488  1.00  0.00     0.000 HD 
ATOM      4  CA  GLN A   1     -11.642  15.534  69.536  1.00  0.00    -0.350 C  
ATOM      5  O   GLN A   1     -11.362  13.171  69.242  1.00  0.00    -0.266 OA 
ATOM      6  C   GLN A   1     -11.748  14.306  68.605  1.00  0.00    -0.345 C  
ATOM      7  OXT GLN A   1     -12.153  14.318  67.454  1.00  0.00    -0.400 OA 
ENDROOT
BRANCH   4   8
ATOM      8  CB  GLN A   1     -10.792  16.661  68.946  1.00  0.00    -0.321 C  
BRANCH   8   9
ATOM      9  CG  GLN A   1      -9.573  16.169  68.164  1.00  0.00    -0.217 C  
BRANCH   9  10
ATOM     10  CD  GLN A   1      -8.319  16.184  69.009  1.00  0.00    -0.247 C  
ATOM     11  NE2 GLN A   1      -8.069  15.008  69.652  1.00  0.00    -0.410 N  
ATOM     12  OE1 GLN A   1      -7.571  17.147  69.128  1.00  0.00    -0.226 OA 
ATOM     13 1HE2 GLN A   1      -7.224  15.018  70.222  1.00  0.00     0.000 HD 
ATOM     14 2HE2 GLN A   1      -8.675  14.191  69.570  1.00  0.00     0.000 HD 
ENDBRANCH   9  10
ENDBRANCH   8   9
ENDBRANCH   4   8
TORSDOF 3
ENDMDL
MODEL      113
REMARK 921   NORMALIZED FREE ENERGY PREDICTED BY IDOCK:   -2.97 KCAL/MOL
REMARK 922        TOTAL FREE ENERGY PREDICTED BY IDOCK:   -3.60 KCAL/MOL
REMARK 923 INTER-LIGAND FREE ENERGY PREDICTED BY IDOCK:   -3.44 KCAL/MOL
REMARK 924 INTRA-LIGAND FREE ENERGY PREDICTED BY IDOCK:   -0.16 KCAL/MOL
REMARK 927      BINDING AFFINITY PREDICTED BY RF-SCORE:    0.00 PKD
ROOT
ATOM      1  N   GLN A   1      -8.704   8.665  72.529  1.00  0.00    -0.405 NA 
ATOM      2  H1  GLN A   1      -7.764   8.305  72.364  1.00  0.00     0.000 HD 
ATOM      3  H2  GLN A   1      -9.190   8.154  73.266  1.00  0.00     0.000 HD 
ATOM      4  CA  GLN A   1      -9.472   8.666  71.239  1.00  0.00    -0.224 C  
ATOM      5  O   GLN A   1      -7.487   9.910  70.729  1.00  0.00    -0.313 OA 
ATOM      6  C   GLN A   1      -8.675   9.502  70.214  1.00  0.00    -0.235 C  
ATOM      7  OXT GLN A   1      -9.026   9.751  69.072  1.00  0.00    -0.139 OA 
ENDROOT
BRANCH   4   8
ATOM      8  CB  GLN A   1     -10.882   9.206  71.486  1.00  0.00    -0.436 C  
BRANCH   8   9
ATOM      9  CG  GLN A   1     -11.744   8.300  72.366  1.00  0.00    -0.463 C  
BRANCH   9  10
ATOM     10  CD  GLN A   1     -11.978   6.950  71.724  1.00  0.00    -0.333 C  
ATOM     11  NE2 GLN A   1     -12.606   7.012  70.515  1.00  0.00    -0.593 N  
ATOM     12  OE1 GLN A   1     -11.648   5.878  72.217  1.00  0.00    -0.303 OA 
ATOM     13 1HE2 GLN A   1     -12.764   6.103  70.083  1.00  0.00     0.000 HD 
ATOM     14 2HE2 GLN A   1     -12.891   7.891  70.082  1.00  0.00     0.000 HD 
ENDBRANCH   9  10
ENDBRANCH   8   9
ENDBRANCH   4   8
TORSDOF 3
ENDMDL
MODEL      114
REMARK 921   NORMALIZED FREE ENERGY PREDICTED BY IDOCK:   -2.96 KCAL/MOL
REMARK 922        TOTAL FREE ENERGY PREDICTED BY IDOCK:   -3.59 KCAL/MOL
REMARK 923 INTER-LIGAND FREE ENERGY PREDICTED BY IDOCK:   -3.51 KCAL/MOL
REMARK 924 INTRA-LIGAND FREE ENERGY PREDICTED BY IDOCK:   -0.09 KCAL/MOL
REMARK 927      BINDING AFFINITY PREDICTED BY RF-SCORE:    0.00 PKD
ROOT
ATOM      1  N   GLN A   1     -12.159  12.561  66.830  1.00  0.00    -0.546 NA 
ATOM      2  H1  GLN A   1     -12.608  13.465  66.682  1.00  0.00     0.000 HD 
ATOM      3  H2  GLN A   1     -11.782  12.466  67.773  1.00  0.00     0.000 HD 
ATOM      4  CA  GLN A   1     -11.112  12.346  65.776  1.00  0.00    -0.315 C  
ATOM      5  O   GLN A   1     -13.101  12.815  64.524  1.00  0.00    -0.743 OA 
ATOM      6  C   GLN A   1     -11.796  12.464  64.397  1.00  0.00    -0.389 C  
ATOM      7  OXT GLN A   1     -11.252  12.302  63.316  1.00  0.00    -0.419 OA 
ENDROOT
BRANCH   4   8
ATOM      8  CB  GLN A   1     -10.438  10.990  65.997  1.00  0.00    -0.304 C  
BRANCH   8   9
ATOM      9  CG  GLN A   1      -9.366  11.005  67.088  1.00  0.00    -0.177 C  
BRANCH   9  10
ATOM     10  CD  GLN A   1      -7.973  11.104  66.508  1.00  0.00    -0.158 C  
ATOM     11  NE2 GLN A   1      -7.231  12.127  67.018  1.00  0.00    -0.312 N  
ATOM     12  OE1 GLN A   1      -7.519  10.349  65.656  1.00  0.00    -0.144 OA 
ATOM     13 1HE2 GLN A   1      -6.292  12.194  66.626  1.00  0.00     0.000 HD 
ATOM     14 2HE2 GLN A   1      -7.584  12.769  67.728  1.00  0.00     0.000 HD 
ENDBRANCH   9  10
ENDBRANCH   8   9
ENDBRANCH   4   8
TORSDOF 3
ENDMDL
MODEL      115
REMARK 921   NORMALIZED FREE ENERGY PREDICTED BY IDOCK:   -2.96 KCAL/MOL
REMARK 922        TOTAL FREE ENERGY PREDICTED BY IDOCK:   -3.59 KCAL/MOL
REMARK 923 INTER-LIGAND FREE ENERGY PREDICTED BY IDOCK:   -3.21 KCAL/MOL
REMARK 924 INTRA-LIGAND FREE ENERGY PREDICTED BY IDOCK:   -0.38 KCAL/MOL
REMARK 927      BINDING AFFINITY PREDICTED BY RF-SCORE:    0.00 PKD
ROOT
ATOM      1  N   GLN A   1     -10.291  13.877  69.358  1.00  0.00    -0.430 NA 
ATOM      2  H1  GLN A   1     -10.374  14.871  69.573  1.00  0.00     0.000 HD 
ATOM      3  H2  GLN A   1      -9.450  13.464  69.762  1.00  0.00     0.000 HD 
ATOM      4  CA  GLN A   1     -10.363  13.679  67.872  1.00  0.00    -0.249 C  
ATOM      5  O   GLN A   1     -12.353  14.913  68.387  1.00  0.00    -0.090 OA 
ATOM      6  C   GLN A   1     -11.689  14.296  67.376  1.00  0.00    -0.394 C  
ATOM      7  OXT GLN A   1     -12.096  14.278  66.225  1.00  0.00    -0.415 OA 
ENDROOT
BRANCH   4   8
ATOM      8  CB  GLN A   1     -10.239  12.188  67.550  1.00  0.00    -0.209 C  
BRANCH   8   9
ATOM      9  CG  GLN A   1      -9.230  11.879  66.443  1.00  0.00    -0.218 C  
BRANCH   9  10
ATOM     10  CD  GLN A   1      -9.909  11.648  65.111  1.00  0.00    -0.249 C  
ATOM     11  NE2 GLN A   1      -9.933  12.745  64.303  1.00  0.00    -0.613 N  
ATOM     12  OE1 GLN A   1     -10.403  10.584  64.758  1.00  0.00    -0.339 OA 
ATOM     13 1HE2 GLN A   1     -10.391  12.589  63.406  1.00  0.00     0.000 HD 
ATOM     14 2HE2 GLN A   1      -9.529  13.642  64.572  1.00  0.00     0.000 HD 
ENDBRANCH   9  10
ENDBRANCH   8   9
ENDBRANCH   4   8
TORSDOF 3
ENDMDL
MODEL      116
REMARK 921   NORMALIZED FREE ENERGY PREDICTED BY IDOCK:   -2.95 KCAL/MOL
REMARK 922        TOTAL FREE ENERGY PREDICTED BY IDOCK:   -3.58 KCAL/MOL
REMARK 923 INTER-LIGAND FREE ENERGY PREDICTED BY IDOCK:   -3.29 KCAL/MOL
REMARK 924 INTRA-LIGAND FREE ENERGY PREDICTED BY IDOCK:   -0.30 KCAL/MOL
REMARK 927      BINDING AFFINITY PREDICTED BY RF-SCORE:    0.00 PKD
ROOT
ATOM      1  N   GLN A   1      -9.437  14.243  68.855  1.00  0.00    -0.372 NA 
ATOM      2  H1  GLN A   1      -9.202  13.570  69.585  1.00  0.00     0.000 HD 
ATOM      3  H2  GLN A   1      -8.627  14.783  68.553  1.00  0.00     0.000 HD 
ATOM      4  CA  GLN A   1     -10.559  15.120  69.328  1.00  0.00    -0.253 C  
ATOM      5  O   GLN A   1     -11.409  12.896  69.608  1.00  0.00    -0.201 OA 
ATOM      6  C   GLN A   1     -11.744  14.207  69.713  1.00  0.00    -0.311 C  
ATOM      7  OXT GLN A   1     -12.839  14.586  70.098  1.00  0.00    -0.290 OA 
ENDROOT
BRANCH   4   8
ATOM      8  CB  GLN A   1     -10.913  16.129  68.233  1.00  0.00    -0.340 C  
BRANCH   8   9
ATOM      9  CG  GLN A   1     -11.527  15.494  66.985  1.00  0.00    -0.036 C  
BRANCH   9  10
ATOM     10  CD  GLN A   1     -10.631  15.649  65.776  1.00  0.00    -0.361 C  
ATOM     11  NE2 GLN A   1      -9.941  14.519  65.449  1.00  0.00    -0.477 N  
ATOM     12  OE1 GLN A   1     -10.513  16.680  65.125  1.00  0.00    -0.647 OA 
ATOM     13 1HE2 GLN A   1      -9.337  14.624  64.634  1.00  0.00     0.000 HD 
ATOM     14 2HE2 GLN A   1     -10.022  13.648  65.973  1.00  0.00     0.000 HD 
ENDBRANCH   9  10
ENDBRANCH   8   9
ENDBRANCH   4   8
TORSDOF 3
ENDMDL
MODEL      117
REMARK 921   NORMALIZED FREE ENERGY PREDICTED BY IDOCK:   -2.95 KCAL/MOL
REMARK 922        TOTAL FREE ENERGY PREDICTED BY IDOCK:   -3.58 KCAL/MOL
REMARK 923 INTER-LIGAND FREE ENERGY PREDICTED BY IDOCK:   -3.25 KCAL/MOL
REMARK 924 INTRA-LIGAND FREE ENERGY PREDICTED BY IDOCK:   -0.33 KCAL/MOL
REMARK 927      BINDING AFFINITY PREDICTED BY RF-SCORE:    0.00 PKD
ROOT
ATOM      1  N   GLN A   1     -12.613   7.486  70.690  1.00  0.00    -0.544 NA 
ATOM      2  H1  GLN A   1     -13.082   7.200  69.831  1.00  0.00     0.000 HD 
ATOM      3  H2  GLN A   1     -13.179   8.129  71.244  1.00  0.00     0.000 HD 
ATOM      4  CA  GLN A   1     -11.267   8.060  70.357  1.00  0.00    -0.229 C  
ATOM      5  O   GLN A   1     -11.246   5.899  69.318  1.00  0.00    -0.363 OA 
ATOM      6  C   GLN A   1     -10.480   6.993  69.565  1.00  0.00    -0.220 C  
ATOM      7  OXT GLN A   1      -9.331   7.104  69.169  1.00  0.00    -0.143 OA 
ENDROOT
BRANCH   4   8
ATOM      8  CB  GLN A   1     -10.563   8.490  71.645  1.00  0.00    -0.353 C  
BRANCH   8   9
ATOM      9  CG  GLN A   1     -11.265   8.016  72.919  1.00  0.00    -0.389 C  
BRANCH   9  10
ATOM     10  CD  GLN A   1     -10.758   6.665  73.372  1.00  0.00    -0.289 C  
ATOM     11  NE2 GLN A   1     -11.576   5.626  73.040  1.00  0.00    -0.525 N  
ATOM     12  OE1 GLN A   1      -9.712   6.483  73.983  1.00  0.00    -0.194 OA 
ATOM     13 1HE2 GLN A   1     -11.234   4.715  73.345  1.00  0.00     0.000 HD 
ATOM     14 2HE2 GLN A   1     -12.451   5.749  72.531  1.00  0.00     0.000 HD 
ENDBRANCH   9  10
ENDBRANCH   8   9
ENDBRANCH   4   8
TORSDOF 3
ENDMDL
MODEL      118
REMARK 921   NORMALIZED FREE ENERGY PREDICTED BY IDOCK:   -2.94 KCAL/MOL
REMARK 922        TOTAL FREE ENERGY PREDICTED BY IDOCK:   -3.57 KCAL/MOL
REMARK 923 INTER-LIGAND FREE ENERGY PREDICTED BY IDOCK:   -3.38 KCAL/MOL
REMARK 924 INTRA-LIGAND FREE ENERGY PREDICTED BY IDOCK:   -0.19 KCAL/MOL
REMARK 927      BINDING AFFINITY PREDICTED BY RF-SCORE:    0.00 PKD
ROOT
ATOM      1  N   GLN A   1     -10.864  13.544  69.124  1.00  0.00    -0.407 NA 
ATOM      2  H1  GLN A   1     -10.474  14.375  68.678  1.00  0.00     0.000 HD 
ATOM      3  H2  GLN A   1     -10.330  13.258  69.944  1.00  0.00     0.000 HD 
ATOM      4  CA  GLN A   1     -10.982  12.443  68.111  1.00  0.00    -0.228 C  
ATOM      5  O   GLN A   1     -12.166  14.272  67.113  1.00  0.00    -0.410 OA 
ATOM      6  C   GLN A   1     -11.845  12.964  66.942  1.00  0.00    -0.379 C  
ATOM      7  OXT GLN A   1     -12.181  12.318  65.962  1.00  0.00    -0.646 OA 
ENDROOT
BRANCH   4   8
ATOM      8  CB  GLN A   1     -11.567  11.196  68.778  1.00  0.00    -0.389 C  
BRANCH   8   9
ATOM      9  CG  GLN A   1     -10.810   9.909  68.450  1.00  0.00    -0.263 C  
BRANCH   9  10
ATOM     10  CD  GLN A   1      -9.381   9.955  68.942  1.00  0.00    -0.170 C  
ATOM     11  NE2 GLN A   1      -9.260   9.933  70.299  1.00  0.00    -0.375 N  
ATOM     12  OE1 GLN A   1      -8.396  10.007  68.215  1.00  0.00    -0.108 OA 
ATOM     13 1HE2 GLN A   1      -8.296   9.965  70.630  1.00  0.00     0.000 HD 
ATOM     14 2HE2 GLN A   1     -10.062   9.890  70.928  1.00  0.00     0.000 HD 
ENDBRANCH   9  10
ENDBRANCH   8   9
ENDBRANCH   4   8
TORSDOF 3
ENDMDL
MODEL      119
REMARK 921   NORMALIZED FREE ENERGY PREDICTED BY IDOCK:   -2.94 KCAL/MOL
REMARK 922        TOTAL FREE ENERGY PREDICTED BY IDOCK:   -3.56 KCAL/MOL
REMARK 923 INTER-LIGAND FREE ENERGY PREDICTED BY IDOCK:   -3.49 KCAL/MOL
REMARK 924 INTRA-LIGAND FREE ENERGY PREDICTED BY IDOCK:   -0.07 KCAL/MOL
REMARK 927      BINDING AFFINITY PREDICTED BY RF-SCORE:    0.00 PKD
ROOT
ATOM      1  N   GLN A   1     -10.027  14.840  69.270  1.00  0.00    -0.364 NA 
ATOM      2  H1  GLN A   1      -9.572  14.536  70.131  1.00  0.00     0.000 HD 
ATOM      3  H2  GLN A   1     -11.031  14.662  69.280  1.00  0.00     0.000 HD 
ATOM      4  CA  GLN A   1      -9.350  14.199  68.094  1.00  0.00    -0.206 C  
ATOM      5  O   GLN A   1      -7.561  15.276  69.273  1.00  0.00    -0.179 OA 
ATOM      6  C   GLN A   1      -7.852  14.571  68.150  1.00  0.00    -0.135 C  
ATOM      7  OXT GLN A   1      -7.009  14.256  67.325  1.00  0.00    -0.199 OA 
ENDROOT
BRANCH   4   8
ATOM      8  CB  GLN A   1     -10.032  14.655  66.802  1.00  0.00    -0.265 C  
BRANCH   8   9
ATOM      9  CG  GLN A   1     -11.533  14.368  66.764  1.00  0.00    -0.381 C  
BRANCH   9  10
ATOM     10  CD  GLN A   1     -12.040  14.207  65.348  1.00  0.00    -0.410 C  
ATOM     11  NE2 GLN A   1     -11.108  14.480  64.391  1.00  0.00    -0.621 N  
ATOM     12  OE1 GLN A   1     -13.178  13.864  65.051  1.00  0.00    -0.729 OA 
ATOM     13 1HE2 GLN A   1     -11.450  14.372  63.437  1.00  0.00     0.000 HD 
ATOM     14 2HE2 GLN A   1     -10.154  14.767  64.611  1.00  0.00     0.000 HD 
ENDBRANCH   9  10
ENDBRANCH   8   9
ENDBRANCH   4   8
TORSDOF 3
ENDMDL
MODEL      120
REMARK 921   NORMALIZED FREE ENERGY PREDICTED BY IDOCK:   -2.93 KCAL/MOL
REMARK 922        TOTAL FREE ENERGY PREDICTED BY IDOCK:   -3.56 KCAL/MOL
REMARK 923 INTER-LIGAND FREE ENERGY PREDICTED BY IDOCK:   -3.49 KCAL/MOL
REMARK 924 INTRA-LIGAND FREE ENERGY PREDICTED BY IDOCK:   -0.07 KCAL/MOL
REMARK 927      BINDING AFFINITY PREDICTED BY RF-SCORE:    0.00 PKD
ROOT
ATOM      1  N   GLN A   1     -11.400   6.966  67.387  1.00  0.00    -0.687 NA 
ATOM      2  H1  GLN A   1     -10.961   7.063  66.471  1.00  0.00     0.000 HD 
ATOM      3  H2  GLN A   1     -11.721   7.860  67.758  1.00  0.00     0.000 HD 
ATOM      4  CA  GLN A   1     -10.454   6.270  68.322  1.00  0.00    -0.228 C  
ATOM      5  O   GLN A   1     -10.612   4.782  66.449  1.00  0.00    -0.284 OA 
ATOM      6  C   GLN A   1     -10.072   4.915  67.687  1.00  0.00    -0.116 C  
ATOM      7  OXT GLN A   1      -9.352   4.069  68.194  1.00  0.00    -0.142 OA 
ENDROOT
BRANCH   4   8
ATOM      8  CB  GLN A   1     -11.111   6.124  69.696  1.00  0.00    -0.489 C  
BRANCH   8   9
ATOM      9  CG  GLN A   1     -11.106   7.411  70.521  1.00  0.00    -0.280 C  
BRANCH   9  10
ATOM     10  CD  GLN A   1     -12.120   7.366  71.642  1.00  0.00    -0.317 C  
ATOM     11  NE2 GLN A   1     -11.647   7.820  72.837  1.00  0.00    -0.603 N  
ATOM     12  OE1 GLN A   1     -13.271   6.963  71.523  1.00  0.00    -0.345 OA 
ATOM     13 1HE2 GLN A   1     -12.331   7.789  73.593  1.00  0.00     0.000 HD 
ATOM     14 2HE2 GLN A   1     -10.694   8.161  72.964  1.00  0.00     0.000 HD 
ENDBRANCH   9  10
ENDBRANCH   8   9
ENDBRANCH   4   8
TORSDOF 3
ENDMDL
MODEL      121
REMARK 921   NORMALIZED FREE ENERGY PREDICTED BY IDOCK:   -2.92 KCAL/MOL
REMARK 922        TOTAL FREE ENERGY PREDICTED BY IDOCK:   -3.55 KCAL/MOL
REMARK 923 INTER-LIGAND FREE ENERGY PREDICTED BY IDOCK:   -3.24 KCAL/MOL
REMARK 924 INTRA-LIGAND FREE ENERGY PREDICTED BY IDOCK:   -0.31 KCAL/MOL
REMARK 927      BINDING AFFINITY PREDICTED BY RF-SCORE:    0.00 PKD
ROOT
ATOM      1  N   GLN A   1      -9.524   7.259  70.583  1.00  0.00    -0.165 NA 
ATOM      2  H1  GLN A   1      -9.415   6.265  70.382  1.00  0.00     0.000 HD 
ATOM      3  H2  GLN A   1      -8.672   7.672  70.964  1.00  0.00     0.000 HD 
ATOM      4  CA  GLN A   1     -10.704   7.459  71.489  1.00  0.00    -0.222 C  
ATOM      5  O   GLN A   1     -11.600   6.224  69.639  1.00  0.00    -0.430 OA 
ATOM      6  C   GLN A   1     -11.941   6.842  70.799  1.00  0.00    -0.378 C  
ATOM      7  OXT GLN A   1     -13.082   6.862  71.232  1.00  0.00    -0.332 OA 
ENDROOT
BRANCH   4   8
ATOM      8  CB  GLN A   1     -10.868   8.949  71.791  1.00  0.00    -0.436 C  
BRANCH   8   9
ATOM      9  CG  GLN A   1     -11.549   9.734  70.669  1.00  0.00    -0.389 C  
BRANCH   9  10
ATOM     10  CD  GLN A   1     -10.560  10.571  69.887  1.00  0.00    -0.211 C  
ATOM     11  NE2 GLN A   1     -11.035  11.797  69.525  1.00  0.00    -0.454 N  
ATOM     12  OE1 GLN A   1      -9.427  10.212  69.589  1.00  0.00    -0.222 OA 
ATOM     13 1HE2 GLN A   1     -10.369  12.360  68.998  1.00  0.00     0.000 HD 
ATOM     14 2HE2 GLN A   1     -11.973  12.120  69.760  1.00  0.00     0.000 HD 
ENDBRANCH   9  10
ENDBRANCH   8   9
ENDBRANCH   4   8
TORSDOF 3
ENDMDL
MODEL      122
REMARK 921   NORMALIZED FREE ENERGY PREDICTED BY IDOCK:   -2.92 KCAL/MOL
REMARK 922        TOTAL FREE ENERGY PREDICTED BY IDOCK:   -3.55 KCAL/MOL
REMARK 923 INTER-LIGAND FREE ENERGY PREDICTED BY IDOCK:   -3.20 KCAL/MOL
REMARK 924 INTRA-LIGAND FREE ENERGY PREDICTED BY IDOCK:   -0.35 KCAL/MOL
REMARK 927      BINDING AFFINITY PREDICTED BY RF-SCORE:    0.00 PKD
ROOT
ATOM      1  N   GLN A   1      -9.073   6.621  71.498  1.00  0.00    -0.143 NA 
ATOM      2  H1  GLN A   1      -8.141   6.888  71.817  1.00  0.00     0.000 HD 
ATOM      3  H2  GLN A   1      -9.130   5.632  71.258  1.00  0.00     0.000 HD 
ATOM      4  CA  GLN A   1      -9.483   7.506  70.357  1.00  0.00    -0.161 C  
ATOM      5  O   GLN A   1      -8.910   9.046  72.102  1.00  0.00    -0.376 OA 
ATOM      6  C   GLN A   1      -9.406   8.970  70.841  1.00  0.00    -0.264 C  
ATOM      7  OXT GLN A   1      -9.712   9.954  70.186  1.00  0.00    -0.247 OA 
ENDROOT
BRANCH   4   8
ATOM      8  CB  GLN A   1     -10.880   7.106  69.878  1.00  0.00    -0.276 C  
BRANCH   8   9
ATOM      9  CG  GLN A   1     -11.707   6.374  70.936  1.00  0.00    -0.366 C  
BRANCH   9  10
ATOM     10  CD  GLN A   1     -12.605   7.320  71.703  1.00  0.00    -0.368 C  
ATOM     11  NE2 GLN A   1     -11.982   7.967  72.729  1.00  0.00    -0.615 N  
ATOM     12  OE1 GLN A   1     -13.788   7.513  71.452  1.00  0.00    -0.383 OA 
ATOM     13 1HE2 GLN A   1     -12.587   8.604  73.245  1.00  0.00     0.000 HD 
ATOM     14 2HE2 GLN A   1     -10.998   7.825  72.958  1.00  0.00     0.000 HD 
ENDBRANCH   9  10
ENDBRANCH   8   9
ENDBRANCH   4   8
TORSDOF 3
ENDMDL
MODEL      123
REMARK 921   NORMALIZED FREE ENERGY PREDICTED BY IDOCK:   -2.92 KCAL/MOL
REMARK 922        TOTAL FREE ENERGY PREDICTED BY IDOCK:   -3.54 KCAL/MOL
REMARK 923 INTER-LIGAND FREE ENERGY PREDICTED BY IDOCK:   -3.13 KCAL/MOL
REMARK 924 INTRA-LIGAND FREE ENERGY PREDICTED BY IDOCK:   -0.41 KCAL/MOL
REMARK 927      BINDING AFFINITY PREDICTED BY RF-SCORE:    0.00 PKD
ROOT
ATOM      1  N   GLN A   1      -8.940   6.373  74.317  1.00  0.00    -0.148 NA 
ATOM      2  H1  GLN A   1      -7.926   6.299  74.232  1.00  0.00     0.000 HD 
ATOM      3  H2  GLN A   1      -9.369   5.494  74.607  1.00  0.00     0.000 HD 
ATOM      4  CA  GLN A   1      -9.513   6.885  73.028  1.00  0.00    -0.145 C  
ATOM      5  O   GLN A   1      -7.863   8.522  73.617  1.00  0.00    -0.362 OA 
ATOM      6  C   GLN A   1      -8.833   8.235  72.710  1.00  0.00    -0.239 C  
ATOM      7  OXT GLN A   1      -9.088   8.954  71.758  1.00  0.00    -0.284 OA 
ENDROOT
BRANCH   4   8
ATOM      8  CB  GLN A   1     -11.034   6.996  73.155  1.00  0.00    -0.315 C  
BRANCH   8   9
ATOM      9  CG  GLN A   1     -11.800   6.166  72.124  1.00  0.00    -0.339 C  
BRANCH   9  10
ATOM     10  CD  GLN A   1     -11.810   6.827  70.763  1.00  0.00    -0.392 C  
ATOM     11  NE2 GLN A   1     -12.016   8.174  70.802  1.00  0.00    -0.471 N  
ATOM     12  OE1 GLN A   1     -11.649   6.236  69.702  1.00  0.00    -0.430 OA 
ATOM     13 1HE2 GLN A   1     -12.023   8.619  69.884  1.00  0.00     0.000 HD 
ATOM     14 2HE2 GLN A   1     -12.152   8.690  71.671  1.00  0.00     0.000 HD 
ENDBRANCH   9  10
ENDBRANCH   8   9
ENDBRANCH   4   8
TORSDOF 3
ENDMDL
MODEL      124
REMARK 921   NORMALIZED FREE ENERGY PREDICTED BY IDOCK:   -2.90 KCAL/MOL
REMARK 922        TOTAL FREE ENERGY PREDICTED BY IDOCK:   -3.52 KCAL/MOL
REMARK 923 INTER-LIGAND FREE ENERGY PREDICTED BY IDOCK:   -3.37 KCAL/MOL
REMARK 924 INTRA-LIGAND FREE ENERGY PREDICTED BY IDOCK:   -0.15 KCAL/MOL
REMARK 927      BINDING AFFINITY PREDICTED BY RF-SCORE:    0.00 PKD
ROOT
ATOM      1  N   GLN A   1      -8.433  17.320  68.259  1.00  0.00    -0.235 NA 
ATOM      2  H1  GLN A   1      -7.594  17.388  67.684  1.00  0.00     0.000 HD 
ATOM      3  H2  GLN A   1      -8.338  16.624  68.999  1.00  0.00     0.000 HD 
ATOM      4  CA  GLN A   1      -9.620  17.053  67.380  1.00  0.00    -0.246 C  
ATOM      5  O   GLN A   1      -8.638  19.027  66.439  1.00  0.00    -0.309 OA 
ATOM      6  C   GLN A   1      -9.697  18.184  66.331  1.00  0.00    -0.327 C  
ATOM      7  OXT GLN A   1     -10.564  18.310  65.482  1.00  0.00    -0.632 OA 
ENDROOT
BRANCH   4   8
ATOM      8  CB  GLN A   1     -10.880  16.950  68.242  1.00  0.00    -0.357 C  
BRANCH   8   9
ATOM      9  CG  GLN A   1     -10.779  15.909  69.358  1.00  0.00    -0.272 C  
BRANCH   9  10
ATOM     10  CD  GLN A   1     -10.856  14.497  68.820  1.00  0.00    -0.248 C  
ATOM     11  NE2 GLN A   1      -9.672  13.822  68.862  1.00  0.00    -0.415 N  
ATOM     12  OE1 GLN A   1     -11.873  13.975  68.379  1.00  0.00    -0.332 OA 
ATOM     13 1HE2 GLN A   1      -9.724  12.871  68.499  1.00  0.00     0.000 HD 
ATOM     14 2HE2 GLN A   1      -8.812  14.233  69.224  1.00  0.00     0.000 HD 
ENDBRANCH   9  10
ENDBRANCH   8   9
ENDBRANCH   4   8
TORSDOF 3
ENDMDL
MODEL      125
REMARK 921   NORMALIZED FREE ENERGY PREDICTED BY IDOCK:   -2.90 KCAL/MOL
REMARK 922        TOTAL FREE ENERGY PREDICTED BY IDOCK:   -3.52 KCAL/MOL
REMARK 923 INTER-LIGAND FREE ENERGY PREDICTED BY IDOCK:   -3.10 KCAL/MOL
REMARK 924 INTRA-LIGAND FREE ENERGY PREDICTED BY IDOCK:   -0.42 KCAL/MOL
REMARK 927      BINDING AFFINITY PREDICTED BY RF-SCORE:    0.00 PKD
ROOT
ATOM      1  N   GLN A   1     -10.170   6.837  72.334  1.00  0.00    -0.179 NA 
ATOM      2  H1  GLN A   1      -9.284   6.426  72.628  1.00  0.00     0.000 HD 
ATOM      3  H2  GLN A   1     -10.887   6.131  72.166  1.00  0.00     0.000 HD 
ATOM      4  CA  GLN A   1      -9.942   7.710  71.134  1.00  0.00    -0.177 C  
ATOM      5  O   GLN A   1      -8.396   8.552  72.762  1.00  0.00    -0.335 OA 
ATOM      6  C   GLN A   1      -8.880   8.766  71.511  1.00  0.00    -0.225 C  
ATOM      7  OXT GLN A   1      -8.483   9.666  70.788  1.00  0.00    -0.245 OA 
ENDROOT
BRANCH   4   8
ATOM      8  CB  GLN A   1     -11.270   8.327  70.692  1.00  0.00    -0.270 C  
BRANCH   8   9
ATOM      9  CG  GLN A   1     -11.899   9.250  71.738  1.00  0.00    -0.454 C  
BRANCH   9  10
ATOM     10  CD  GLN A   1     -12.205  10.618  71.169  1.00  0.00    -0.374 C  
ATOM     11  NE2 GLN A   1     -11.337  11.023  70.200  1.00  0.00    -0.426 N  
ATOM     12  OE1 GLN A   1     -13.141  11.325  71.524  1.00  0.00    -0.417 OA 
ATOM     13 1HE2 GLN A   1     -11.544  11.945  69.817  1.00  0.00     0.000 HD 
ATOM     14 2HE2 GLN A   1     -10.551  10.454  69.885  1.00  0.00     0.000 HD 
ENDBRANCH   9  10
ENDBRANCH   8   9
ENDBRANCH   4   8
TORSDOF 3
ENDMDL
MODEL      126
REMARK 921   NORMALIZED FREE ENERGY PREDICTED BY IDOCK:   -2.87 KCAL/MOL
REMARK 922        TOTAL FREE ENERGY PREDICTED BY IDOCK:   -3.48 KCAL/MOL
REMARK 923 INTER-LIGAND FREE ENERGY PREDICTED BY IDOCK:   -3.51 KCAL/MOL
REMARK 924 INTRA-LIGAND FREE ENERGY PREDICTED BY IDOCK:    0.02 KCAL/MOL
REMARK 927      BINDING AFFINITY PREDICTED BY RF-SCORE:    0.00 PKD
ROOT
ATOM      1  N   GLN A   1     -12.522  14.098  65.902  1.00  0.00    -0.478 NA 
ATOM      2  H1  GLN A   1     -12.246  14.666  65.101  1.00  0.00     0.000 HD 
ATOM      3  H2  GLN A   1     -13.179  14.585  66.513  1.00  0.00     0.000 HD 
ATOM      4  CA  GLN A   1     -11.296  13.641  66.637  1.00  0.00    -0.326 C  
ATOM      5  O   GLN A   1     -10.919  12.921  64.382  1.00  0.00    -0.329 OA 
ATOM      6  C   GLN A   1     -10.400  12.880  65.637  1.00  0.00    -0.282 C  
ATOM      7  OXT GLN A   1      -9.342  12.332  65.902  1.00  0.00    -0.199 OA 
ENDROOT
BRANCH   4   8
ATOM      8  CB  GLN A   1     -11.711  12.789  67.839  1.00  0.00    -0.408 C  
BRANCH   8   9
ATOM      9  CG  GLN A   1     -12.003  13.604  69.100  1.00  0.00    -0.394 C  
BRANCH   9  10
ATOM     10  CD  GLN A   1     -11.299  14.942  69.082  1.00  0.00    -0.292 C  
ATOM     11  NE2 GLN A   1     -10.060  14.925  69.652  1.00  0.00    -0.416 N  
ATOM     12  OE1 GLN A   1     -11.768  15.969  68.607  1.00  0.00    -0.382 OA 
ATOM     13 1HE2 GLN A   1      -9.586  15.827  69.640  1.00  0.00     0.000 HD 
ATOM     14 2HE2 GLN A   1      -9.646  14.084  70.054  1.00  0.00     0.000 HD 
ENDBRANCH   9  10
ENDBRANCH   8   9
ENDBRANCH   4   8
TORSDOF 3
ENDMDL
MODEL      127
REMARK 921   NORMALIZED FREE ENERGY PREDICTED BY IDOCK:   -2.84 KCAL/MOL
REMARK 922        TOTAL FREE ENERGY PREDICTED BY IDOCK:   -3.46 KCAL/MOL
REMARK 923 INTER-LIGAND FREE ENERGY PREDICTED BY IDOCK:   -3.38 KCAL/MOL
REMARK 924 INTRA-LIGAND FREE ENERGY PREDICTED BY IDOCK:   -0.08 KCAL/MOL
REMARK 927      BINDING AFFINITY PREDICTED BY RF-SCORE:    0.00 PKD
ROOT
ATOM      1  N   GLN A   1      -9.745  14.490  68.991  1.00  0.00    -0.360 NA 
ATOM      2  H1  GLN A   1      -9.607  13.531  69.310  1.00  0.00     0.000 HD 
ATOM      3  H2  GLN A   1      -8.863  14.990  68.879  1.00  0.00     0.000 HD 
ATOM      4  CA  GLN A   1     -10.683  15.197  69.925  1.00  0.00    -0.257 C  
ATOM      5  O   GLN A   1     -11.896  13.238  69.263  1.00  0.00    -0.302 OA 
ATOM      6  C   GLN A   1     -11.995  14.385  69.983  1.00  0.00    -0.334 C  
ATOM      7  OXT GLN A   1     -12.995  14.693  70.612  1.00  0.00    -0.352 OA 
ENDROOT
BRANCH   4   8
ATOM      8  CB  GLN A   1     -10.889  16.636  69.447  1.00  0.00    -0.295 C  
BRANCH   8   9
ATOM      9  CG  GLN A   1      -9.973  17.039  68.290  1.00  0.00    -0.285 C  
BRANCH   9  10
ATOM     10  CD  GLN A   1      -9.837  18.541  68.177  1.00  0.00    -0.346 C  
ATOM     11  NE2 GLN A   1     -10.698  19.110  67.286  1.00  0.00    -0.482 N  
ATOM     12  OE1 GLN A   1      -9.036  19.217  68.812  1.00  0.00    -0.365 OA 
ATOM     13 1HE2 GLN A   1     -10.605  20.123  67.210  1.00  0.00     0.000 HD 
ATOM     14 2HE2 GLN A   1     -11.374  18.571  66.746  1.00  0.00     0.000 HD 
ENDBRANCH   9  10
ENDBRANCH   8   9
ENDBRANCH   4   8
TORSDOF 3
ENDMDL
MODEL      128
REMARK 921   NORMALIZED FREE ENERGY PREDICTED BY IDOCK:   -2.83 KCAL/MOL
REMARK 922        TOTAL FREE ENERGY PREDICTED BY IDOCK:   -3.44 KCAL/MOL
REMARK 923 INTER-LIGAND FREE ENERGY PREDICTED BY IDOCK:   -3.25 KCAL/MOL
REMARK 924 INTRA-LIGAND FREE ENERGY PREDICTED BY IDOCK:   -0.19 KCAL/MOL
REMARK 927      BINDING AFFINITY PREDICTED BY RF-SCORE:    0.00 PKD
ROOT
ATOM      1  N   GLN A   1     -12.134  14.732  67.778  1.00  0.00    -0.559 NA 
ATOM      2  H1  GLN A   1     -12.913  15.357  67.986  1.00  0.00     0.000 HD 
ATOM      3  H2  GLN A   1     -12.063  14.521  66.783  1.00  0.00     0.000 HD 
ATOM      4  CA  GLN A   1     -12.254  13.490  68.613  1.00  0.00    -0.137 C  
ATOM      5  O   GLN A   1     -12.325  15.272  70.216  1.00  0.00    -0.334 OA 
ATOM      6  C   GLN A   1     -12.307  13.919  70.096  1.00  0.00    -0.334 C  
ATOM      7  OXT GLN A   1     -12.360  13.165  71.054  1.00  0.00    -0.358 OA 
ENDROOT
BRANCH   4   8
ATOM      8  CB  GLN A   1     -11.086  12.552  68.302  1.00  0.00    -0.294 C  
BRANCH   8   9
ATOM      9  CG  GLN A   1     -11.494  11.084  68.169  1.00  0.00    -0.374 C  
BRANCH   9  10
ATOM     10  CD  GLN A   1     -10.833  10.218  69.218  1.00  0.00    -0.238 C  
ATOM     11  NE2 GLN A   1     -11.701   9.680  70.121  1.00  0.00    -0.435 N  
ATOM     12  OE1 GLN A   1      -9.629   9.999  69.282  1.00  0.00    -0.191 OA 
ATOM     13 1HE2 GLN A   1     -11.255   9.096  70.828  1.00  0.00     0.000 HD 
ATOM     14 2HE2 GLN A   1     -12.707   9.845  70.091  1.00  0.00     0.000 HD 
ENDBRANCH   9  10
ENDBRANCH   8   9
ENDBRANCH   4   8
TORSDOF 3
ENDMDL
MODEL      129
REMARK 921   NORMALIZED FREE ENERGY PREDICTED BY IDOCK:   -2.83 KCAL/MOL
REMARK 922        TOTAL FREE ENERGY PREDICTED BY IDOCK:   -3.44 KCAL/MOL
REMARK 923 INTER-LIGAND FREE ENERGY PREDICTED BY IDOCK:   -3.03 KCAL/MOL
REMARK 924 INTRA-LIGAND FREE ENERGY PREDICTED BY IDOCK:   -0.41 KCAL/MOL
REMARK 927      BINDING AFFINITY PREDICTED BY RF-SCORE:    0.00 PKD
ROOT
ATOM      1  N   GLN A   1     -11.342   9.842  69.122  1.00  0.00    -0.442 NA 
ATOM      2  H1  GLN A   1     -11.814   8.954  68.950  1.00  0.00     0.000 HD 
ATOM      3  H2  GLN A   1     -11.810  10.395  69.841  1.00  0.00     0.000 HD 
ATOM      4  CA  GLN A   1     -11.206  10.593  67.830  1.00  0.00    -0.313 C  
ATOM      5  O   GLN A   1     -10.208   8.463  67.367  1.00  0.00    -0.215 OA 
ATOM      6  C   GLN A   1     -10.447   9.689  66.834  1.00  0.00    -0.212 C  
ATOM      7  OXT GLN A   1     -10.122   9.996  65.698  1.00  0.00    -0.282 OA 
ENDROOT
BRANCH   4   8
ATOM      8  CB  GLN A   1     -10.499  11.926  68.087  1.00  0.00    -0.225 C  
BRANCH   8   9
ATOM      9  CG  GLN A   1     -11.045  13.084  67.251  1.00  0.00    -0.303 C  
BRANCH   9  10
ATOM     10  CD  GLN A   1      -9.980  13.692  66.366  1.00  0.00    -0.296 C  
ATOM     11  NE2 GLN A   1      -9.567  12.876  65.354  1.00  0.00    -0.475 N  
ATOM     12  OE1 GLN A   1      -9.507  14.812  66.515  1.00  0.00    -0.262 OA 
ATOM     13 1HE2 GLN A   1      -8.849  13.286  64.758  1.00  0.00     0.000 HD 
ATOM     14 2HE2 GLN A   1      -9.944  11.940  65.207  1.00  0.00     0.000 HD 
ENDBRANCH   9  10
ENDBRANCH   8   9
ENDBRANCH   4   8
TORSDOF 3
ENDMDL
MODEL      130
REMARK 921   NORMALIZED FREE ENERGY PREDICTED BY IDOCK:   -2.81 KCAL/MOL
REMARK 922        TOTAL FREE ENERGY PREDICTED BY IDOCK:   -3.42 KCAL/MOL
REMARK 923 INTER-LIGAND FREE ENERGY PREDICTED BY IDOCK:   -3.02 KCAL/MOL
REMARK 924 INTRA-LIGAND FREE ENERGY PREDICTED BY IDOCK:   -0.39 KCAL/MOL
REMARK 927      BINDING AFFINITY PREDICTED BY RF-SCORE:    0.00 PKD
ROOT
ATOM      1  N   GLN A   1      -8.809  14.144  68.985  1.00  0.00    -0.379 NA 
ATOM      2  H1  GLN A   1      -7.945  13.734  68.627  1.00  0.00     0.000 HD 
ATOM      3  H2  GLN A   1      -9.633  13.612  68.705  1.00  0.00     0.000 HD 
ATOM      4  CA  GLN A   1      -8.891  15.582  68.563  1.00  0.00    -0.186 C  
ATOM      5  O   GLN A   1      -6.769  15.426  69.666  1.00  0.00    -0.162 OA 
ATOM      6  C   GLN A   1      -7.624  16.300  69.075  1.00  0.00    -0.219 C  
ATOM      7  OXT GLN A   1      -7.379  17.489  68.949  1.00  0.00    -0.257 OA 
ENDROOT
BRANCH   4   8
ATOM      8  CB  GLN A   1     -10.186  16.197  69.098  1.00  0.00    -0.255 C  
BRANCH   8   9
ATOM      9  CG  GLN A   1     -10.997  16.945  68.039  1.00  0.00    -0.271 C  
BRANCH   9  10
ATOM     10  CD  GLN A   1     -10.461  18.340  67.802  1.00  0.00    -0.410 C  
ATOM     11  NE2 GLN A   1     -10.167  19.023  68.944  1.00  0.00    -0.517 N  
ATOM     12  OE1 GLN A   1     -10.294  18.842  66.697  1.00  0.00    -0.366 OA 
ATOM     13 1HE2 GLN A   1      -9.806  19.963  68.784  1.00  0.00     0.000 HD 
ATOM     14 2HE2 GLN A   1     -10.296  18.629  69.876  1.00  0.00     0.000 HD 
ENDBRANCH   9  10
ENDBRANCH   8   9
ENDBRANCH   4   8
TORSDOF 3
ENDMDL
MODEL      131
REMARK 921   NORMALIZED FREE ENERGY PREDICTED BY IDOCK:   -2.81 KCAL/MOL
REMARK 922        TOTAL FREE ENERGY PREDICTED BY IDOCK:   -3.41 KCAL/MOL
REMARK 923 INTER-LIGAND FREE ENERGY PREDICTED BY IDOCK:   -3.32 KCAL/MOL
REMARK 924 INTRA-LIGAND FREE ENERGY PREDICTED BY IDOCK:   -0.10 KCAL/MOL
REMARK 927      BINDING AFFINITY PREDICTED BY RF-SCORE:    0.00 PKD
ROOT
ATOM      1  N   GLN A   1      -9.009  11.571  68.807  1.00  0.00    -0.353 NA 
ATOM      2  H1  GLN A   1      -8.881  10.569  68.664  1.00  0.00     0.000 HD 
ATOM      3  H2  GLN A   1      -8.689  11.875  69.726  1.00  0.00     0.000 HD 
ATOM      4  CA  GLN A   1     -10.445  11.930  68.560  1.00  0.00    -0.224 C  
ATOM      5  O   GLN A   1      -9.780  10.803  66.552  1.00  0.00    -0.186 OA 
ATOM      6  C   GLN A   1     -10.810  11.471  67.131  1.00  0.00    -0.268 C  
ATOM      7  OXT GLN A   1     -11.886  11.642  66.581  1.00  0.00    -0.533 OA 
ENDROOT
BRANCH   4   8
ATOM      8  CB  GLN A   1     -10.639  13.433  68.774  1.00  0.00    -0.230 C  
BRANCH   8   9
ATOM      9  CG  GLN A   1     -12.014  13.804  69.332  1.00  0.00    -0.397 C  
BRANCH   9  10
ATOM     10  CD  GLN A   1     -11.963  15.069  70.160  1.00  0.00    -0.320 C  
ATOM     11  NE2 GLN A   1     -10.729  15.645  70.217  1.00  0.00    -0.329 N  
ATOM     12  OE1 GLN A   1     -12.924  15.560  70.740  1.00  0.00    -0.475 OA 
ATOM     13 1HE2 GLN A   1     -10.695  16.498  70.775  1.00  0.00     0.000 HD 
ATOM     14 2HE2 GLN A   1      -9.913  15.258  69.743  1.00  0.00     0.000 HD 
ENDBRANCH   9  10
ENDBRANCH   8   9
ENDBRANCH   4   8
TORSDOF 3
ENDMDL
MODEL      132
REMARK 921   NORMALIZED FREE ENERGY PREDICTED BY IDOCK:   -2.79 KCAL/MOL
REMARK 922        TOTAL FREE ENERGY PREDICTED BY IDOCK:   -3.39 KCAL/MOL
REMARK 923 INTER-LIGAND FREE ENERGY PREDICTED BY IDOCK:   -3.32 KCAL/MOL
REMARK 924 INTRA-LIGAND FREE ENERGY PREDICTED BY IDOCK:   -0.07 KCAL/MOL
REMARK 927      BINDING AFFINITY PREDICTED BY RF-SCORE:    0.00 PKD
ROOT
ATOM      1  N   GLN A   1      -8.786  10.158  65.841  1.00  0.00    -0.141 NA 
ATOM      2  H1  GLN A   1      -8.881  10.849  65.096  1.00  0.00     0.000 HD 
ATOM      3  H2  GLN A   1      -8.294   9.320  65.530  1.00  0.00     0.000 HD 
ATOM      4  CA  GLN A   1     -10.140   9.843  66.407  1.00  0.00    -0.240 C  
ATOM      5  O   GLN A   1      -9.982  12.229  66.583  1.00  0.00    -0.209 OA 
ATOM      6  C   GLN A   1     -10.772  11.167  66.887  1.00  0.00    -0.274 C  
ATOM      7  OXT GLN A   1     -11.854  11.280  67.441  1.00  0.00    -0.590 OA 
ENDROOT
BRANCH   4   8
ATOM      8  CB  GLN A   1      -9.997   8.807  67.523  1.00  0.00    -0.254 C  
BRANCH   8   9
ATOM      9  CG  GLN A   1      -9.683   7.398  67.020  1.00  0.00    -0.248 C  
BRANCH   9  10
ATOM     10  CD  GLN A   1     -10.826   6.440  67.276  1.00  0.00    -0.385 C  
ATOM     11  NE2 GLN A   1     -11.263   5.787  66.162  1.00  0.00    -0.681 N  
ATOM     12  OE1 GLN A   1     -11.337   6.244  68.372  1.00  0.00    -0.298 OA 
ATOM     13 1HE2 GLN A   1     -12.033   5.142  66.335  1.00  0.00     0.000 HD 
ATOM     14 2HE2 GLN A   1     -10.855   5.931  65.238  1.00  0.00     0.000 HD 
ENDBRANCH   9  10
ENDBRANCH   8   9
ENDBRANCH   4   8
TORSDOF 3
ENDMDL
MODEL      133
REMARK 921   NORMALIZED FREE ENERGY PREDICTED BY IDOCK:   -2.79 KCAL/MOL
REMARK 922        TOTAL FREE ENERGY PREDICTED BY IDOCK:   -3.39 KCAL/MOL
REMARK 923 INTER-LIGAND FREE ENERGY PREDICTED BY IDOCK:   -3.20 KCAL/MOL
REMARK 924 INTRA-LIGAND FREE ENERGY PREDICTED BY IDOCK:   -0.19 KCAL/MOL
REMARK 927      BINDING AFFINITY PREDICTED BY RF-SCORE:    0.00 PKD
ROOT
ATOM      1  N   GLN A   1     -11.965  11.722  67.172  1.00  0.00    -0.595 NA 
ATOM      2  H1  GLN A   1     -11.938  10.707  67.269  1.00  0.00     0.000 HD 
ATOM      3  H2  GLN A   1     -12.775  12.037  66.639  1.00  0.00     0.000 HD 
ATOM      4  CA  GLN A   1     -10.673  12.202  66.578  1.00  0.00    -0.255 C  
ATOM      5  O   GLN A   1      -9.990  10.923  68.488  1.00  0.00    -0.168 OA 
ATOM      6  C   GLN A   1      -9.524  11.711  67.485  1.00  0.00    -0.171 C  
ATOM      7  OXT GLN A   1      -8.338  11.956  67.327  1.00  0.00    -0.154 OA 
ENDROOT
BRANCH   4   8
ATOM      8  CB  GLN A   1     -10.713  13.724  66.433  1.00  0.00    -0.281 C  
BRANCH   8   9
ATOM      9  CG  GLN A   1     -11.866  14.385  67.190  1.00  0.00    -0.437 C  
BRANCH   9  10
ATOM     10  CD  GLN A   1     -11.426  14.910  68.539  1.00  0.00    -0.315 C  
ATOM     11  NE2 GLN A   1     -12.456  15.218  69.377  1.00  0.00    -0.601 N  
ATOM     12  OE1 GLN A   1     -10.259  15.059  68.881  1.00  0.00    -0.221 OA 
ATOM     13 1HE2 GLN A   1     -12.159  15.572  70.286  1.00  0.00     0.000 HD 
ATOM     14 2HE2 GLN A   1     -13.436  15.104  69.118  1.00  0.00     0.000 HD 
ENDBRANCH   9  10
ENDBRANCH   8   9
ENDBRANCH   4   8
TORSDOF 3
ENDMDL
MODEL      134
REMARK 921   NORMALIZED FREE ENERGY PREDICTED BY IDOCK:   -2.78 KCAL/MOL
REMARK 922        TOTAL FREE ENERGY PREDICTED BY IDOCK:   -3.38 KCAL/MOL
REMARK 923 INTER-LIGAND FREE ENERGY PREDICTED BY IDOCK:   -3.21 KCAL/MOL
REMARK 924 INTRA-LIGAND FREE ENERGY PREDICTED BY IDOCK:   -0.17 KCAL/MOL
REMARK 927      BINDING AFFINITY PREDICTED BY RF-SCORE:    0.00 PKD
ROOT
ATOM      1  N   GLN A   1     -10.168  13.322  68.902  1.00  0.00    -0.429 NA 
ATOM      2  H1  GLN A   1     -10.723  12.560  68.514  1.00  0.00     0.000 HD 
ATOM      3  H2  GLN A   1     -10.390  13.502  69.882  1.00  0.00     0.000 HD 
ATOM      4  CA  GLN A   1     -10.335  14.546  68.050  1.00  0.00    -0.229 C  
ATOM      5  O   GLN A   1      -9.634  12.856  66.501  1.00  0.00    -0.250 OA 
ATOM      6  C   GLN A   1      -9.929  14.177  66.606  1.00  0.00    -0.277 C  
ATOM      7  OXT GLN A   1      -9.901  14.943  65.656  1.00  0.00    -0.328 OA 
ENDROOT
BRANCH   4   8
ATOM      8  CB  GLN A   1      -9.503  15.691  68.632  1.00  0.00    -0.204 C  
BRANCH   8   9
ATOM      9  CG  GLN A   1     -10.342  16.834  69.204  1.00  0.00    -0.326 C  
BRANCH   9  10
ATOM     10  CD  GLN A   1     -10.138  18.121  68.436  1.00  0.00    -0.388 C  
ATOM     11  NE2 GLN A   1     -10.527  18.056  67.131  1.00  0.00    -0.376 N  
ATOM     12  OE1 GLN A   1      -9.669  19.148  68.911  1.00  0.00    -0.403 OA 
ATOM     13 1HE2 GLN A   1     -10.389  18.924  66.614  1.00  0.00     0.000 HD 
ATOM     14 2HE2 GLN A   1     -10.921  17.214  66.710  1.00  0.00     0.000 HD 
ENDBRANCH   9  10
ENDBRANCH   8   9
ENDBRANCH   4   8
TORSDOF 3
ENDMDL
MODEL      135
REMARK 921   NORMALIZED FREE ENERGY PREDICTED BY IDOCK:   -2.78 KCAL/MOL
REMARK 922        TOTAL FREE ENERGY PREDICTED BY IDOCK:   -3.37 KCAL/MOL
REMARK 923 INTER-LIGAND FREE ENERGY PREDICTED BY IDOCK:   -3.01 KCAL/MOL
REMARK 924 INTRA-LIGAND FREE ENERGY PREDICTED BY IDOCK:   -0.36 KCAL/MOL
REMARK 927      BINDING AFFINITY PREDICTED BY RF-SCORE:    0.00 PKD
ROOT
ATOM      1  N   GLN A   1     -11.296   6.484  67.144  1.00  0.00    -0.771 NA 
ATOM      2  H1  GLN A   1     -11.038   7.123  66.391  1.00  0.00     0.000 HD 
ATOM      3  H2  GLN A   1     -12.301   6.320  67.185  1.00  0.00     0.000 HD 
ATOM      4  CA  GLN A   1     -10.752   7.000  68.444  1.00  0.00    -0.179 C  
ATOM      5  O   GLN A   1      -8.829   6.894  67.016  1.00  0.00    -0.116 OA 
ATOM      6  C   GLN A   1      -9.224   7.166  68.286  1.00  0.00    -0.132 C  
ATOM      7  OXT GLN A   1      -8.453   7.525  69.162  1.00  0.00    -0.133 OA 
ENDROOT
BRANCH   4   8
ATOM      8  CB  GLN A   1     -11.137   6.043  69.573  1.00  0.00    -0.468 C  
BRANCH   8   9
ATOM      9  CG  GLN A   1     -12.019   6.681  70.647  1.00  0.00    -0.404 C  
BRANCH   9  10
ATOM     10  CD  GLN A   1     -11.204   7.196  71.813  1.00  0.00    -0.246 C  
ATOM     11  NE2 GLN A   1      -9.931   6.710  71.857  1.00  0.00    -0.177 N  
ATOM     12  OE1 GLN A   1     -11.618   7.980  72.659  1.00  0.00    -0.388 OA 
ATOM     13 1HE2 GLN A   1      -9.382   7.057  72.643  1.00  0.00     0.000 HD 
ATOM     14 2HE2 GLN A   1      -9.562   6.057  71.166  1.00  0.00     0.000 HD 
ENDBRANCH   9  10
ENDBRANCH   8   9
ENDBRANCH   4   8
TORSDOF 3
ENDMDL
MODEL      136
REMARK 921   NORMALIZED FREE ENERGY PREDICTED BY IDOCK:   -2.76 KCAL/MOL
REMARK 922        TOTAL FREE ENERGY PREDICTED BY IDOCK:   -3.36 KCAL/MOL
REMARK 923 INTER-LIGAND FREE ENERGY PREDICTED BY IDOCK:   -3.01 KCAL/MOL
REMARK 924 INTRA-LIGAND FREE ENERGY PREDICTED BY IDOCK:   -0.35 KCAL/MOL
REMARK 927      BINDING AFFINITY PREDICTED BY RF-SCORE:    0.00 PKD
ROOT
ATOM      1  N   GLN A   1     -12.344  14.568  67.205  1.00  0.00    -0.545 NA 
ATOM      2  H1  GLN A   1     -12.921  15.197  66.647  1.00  0.00     0.000 HD 
ATOM      3  H2  GLN A   1     -12.752  14.379  68.120  1.00  0.00     0.000 HD 
ATOM      4  CA  GLN A   1     -10.953  15.124  67.307  1.00  0.00    -0.327 C  
ATOM      5  O   GLN A   1     -11.368  15.038  64.947  1.00  0.00    -0.389 OA 
ATOM      6  C   GLN A   1     -10.417  15.324  65.873  1.00  0.00    -0.331 C  
ATOM      7  OXT GLN A   1      -9.300  15.721  65.579  1.00  0.00    -0.310 OA 
ENDROOT
BRANCH   4   8
ATOM      8  CB  GLN A   1     -10.087  14.180  68.143  1.00  0.00    -0.239 C  
BRANCH   8   9
ATOM      9  CG  GLN A   1      -9.942  12.781  67.542  1.00  0.00    -0.210 C  
BRANCH   9  10
ATOM     10  CD  GLN A   1      -8.504  12.310  67.553  1.00  0.00    -0.172 C  
ATOM     11  NE2 GLN A   1      -7.611  13.243  67.115  1.00  0.00    -0.373 N  
ATOM     12  OE1 GLN A   1      -8.139  11.199  67.916  1.00  0.00    -0.113 OA 
ATOM     13 1HE2 GLN A   1      -6.643  12.925  67.122  1.00  0.00     0.000 HD 
ATOM     14 2HE2 GLN A   1      -7.888  14.175  66.808  1.00  0.00     0.000 HD 
ENDBRANCH   9  10
ENDBRANCH   8   9
ENDBRANCH   4   8
TORSDOF 3
ENDMDL
MODEL      137
REMARK 921   NORMALIZED FREE ENERGY PREDICTED BY IDOCK:   -2.76 KCAL/MOL
REMARK 922        TOTAL FREE ENERGY PREDICTED BY IDOCK:   -3.36 KCAL/MOL
REMARK 923 INTER-LIGAND FREE ENERGY PREDICTED BY IDOCK:   -3.42 KCAL/MOL
REMARK 924 INTRA-LIGAND FREE ENERGY PREDICTED BY IDOCK:    0.07 KCAL/MOL
REMARK 927      BINDING AFFINITY PREDICTED BY RF-SCORE:    0.00 PKD
ROOT
ATOM      1  N   GLN A   1     -12.353   6.875  70.410  1.00  0.00    -0.604 NA 
ATOM      2  H1  GLN A   1     -11.852   5.995  70.284  1.00  0.00     0.000 HD 
ATOM      3  H2  GLN A   1     -12.593   7.314  69.521  1.00  0.00     0.000 HD 
ATOM      4  CA  GLN A   1     -11.550   7.785  71.293  1.00  0.00    -0.277 C  
ATOM      5  O   GLN A   1     -11.761   5.772  72.579  1.00  0.00    -0.309 OA 
ATOM      6  C   GLN A   1     -11.285   7.043  72.621  1.00  0.00    -0.272 C  
ATOM      7  OXT GLN A   1     -10.697   7.501  73.588  1.00  0.00    -0.343 OA 
ENDROOT
BRANCH   4   8
ATOM      8  CB  GLN A   1     -12.301   9.104  71.484  1.00  0.00    -0.421 C  
BRANCH   8   9
ATOM      9  CG  GLN A   1     -11.612  10.304  70.832  1.00  0.00    -0.454 C  
BRANCH   9  10
ATOM     10  CD  GLN A   1     -10.497   9.878  69.903  1.00  0.00    -0.269 C  
ATOM     11  NE2 GLN A   1      -9.260  10.294  70.293  1.00  0.00    -0.256 N  
ATOM     12  OE1 GLN A   1     -10.656   9.217  68.883  1.00  0.00    -0.218 OA 
ATOM     13 1HE2 GLN A   1      -8.508  10.007  69.667  1.00  0.00     0.000 HD 
ATOM     14 2HE2 GLN A   1      -9.100  10.844  71.137  1.00  0.00     0.000 HD 
ENDBRANCH   9  10
ENDBRANCH   8   9
ENDBRANCH   4   8
TORSDOF 3
ENDMDL
MODEL      138
REMARK 921   NORMALIZED FREE ENERGY PREDICTED BY IDOCK:   -2.76 KCAL/MOL
REMARK 922        TOTAL FREE ENERGY PREDICTED BY IDOCK:   -3.35 KCAL/MOL
REMARK 923 INTER-LIGAND FREE ENERGY PREDICTED BY IDOCK:   -3.22 KCAL/MOL
REMARK 924 INTRA-LIGAND FREE ENERGY PREDICTED BY IDOCK:   -0.14 KCAL/MOL
REMARK 927      BINDING AFFINITY PREDICTED BY RF-SCORE:    0.00 PKD
ROOT
ATOM      1  N   GLN A   1     -11.728   8.136  70.405  1.00  0.00    -0.474 NA 
ATOM      2  H1  GLN A   1     -11.565   7.367  71.055  1.00  0.00     0.000 HD 
ATOM      3  H2  GLN A   1     -12.361   7.875  69.649  1.00  0.00     0.000 HD 
ATOM      4  CA  GLN A   1     -10.412   8.644  69.893  1.00  0.00    -0.218 C  
ATOM      5  O   GLN A   1     -10.184   8.755  72.277  1.00  0.00    -0.313 OA 
ATOM      6  C   GLN A   1      -9.555   9.053  71.111  1.00  0.00    -0.286 C  
ATOM      7  OXT GLN A   1      -8.441   9.550  71.063  1.00  0.00    -0.284 OA 
ENDROOT
BRANCH   4   8
ATOM      8  CB  GLN A   1     -10.656   9.797  68.917  1.00  0.00    -0.240 C  
BRANCH   8   9
ATOM      9  CG  GLN A   1     -11.750  10.766  69.370  1.00  0.00    -0.378 C  
BRANCH   9  10
ATOM     10  CD  GLN A   1     -11.300  12.207  69.276  1.00  0.00    -0.266 C  
ATOM     11  NE2 GLN A   1     -11.866  13.026  70.206  1.00  0.00    -0.532 N  
ATOM     12  OE1 GLN A   1     -10.502  12.634  68.451  1.00  0.00    -0.228 OA 
ATOM     13 1HE2 GLN A   1     -11.563  13.998  70.142  1.00  0.00     0.000 HD 
ATOM     14 2HE2 GLN A   1     -12.533  12.697  70.904  1.00  0.00     0.000 HD 
ENDBRANCH   9  10
ENDBRANCH   8   9
ENDBRANCH   4   8
TORSDOF 3
ENDMDL
MODEL      139
REMARK 921   NORMALIZED FREE ENERGY PREDICTED BY IDOCK:   -2.74 KCAL/MOL
REMARK 922        TOTAL FREE ENERGY PREDICTED BY IDOCK:   -3.33 KCAL/MOL
REMARK 923 INTER-LIGAND FREE ENERGY PREDICTED BY IDOCK:   -3.15 KCAL/MOL
REMARK 924 INTRA-LIGAND FREE ENERGY PREDICTED BY IDOCK:   -0.18 KCAL/MOL
REMARK 927      BINDING AFFINITY PREDICTED BY RF-SCORE:    0.00 PKD
ROOT
ATOM      1  N   GLN A   1     -12.113  11.990  66.128  1.00  0.00    -0.520 NA 
ATOM      2  H1  GLN A   1     -13.043  12.262  65.807  1.00  0.00     0.000 HD 
ATOM      3  H2  GLN A   1     -12.038  10.985  66.286  1.00  0.00     0.000 HD 
ATOM      4  CA  GLN A   1     -11.755  12.785  67.350  1.00  0.00    -0.366 C  
ATOM      5  O   GLN A   1     -12.320  14.453  65.723  1.00  0.00    -0.393 OA 
ATOM      6  C   GLN A   1     -11.855  14.282  66.988  1.00  0.00    -0.428 C  
ATOM      7  OXT GLN A   1     -11.591  15.214  67.731  1.00  0.00    -0.332 OA 
ENDROOT
BRANCH   4   8
ATOM      8  CB  GLN A   1     -10.362  12.377  67.833  1.00  0.00    -0.215 C  
BRANCH   8   9
ATOM      9  CG  GLN A   1      -9.257  12.625  66.805  1.00  0.00    -0.225 C  
BRANCH   9  10
ATOM     10  CD  GLN A   1      -8.613  11.335  66.347  1.00  0.00    -0.174 C  
ATOM     11  NE2 GLN A   1      -8.611  11.165  64.994  1.00  0.00    -0.382 N  
ATOM     12  OE1 GLN A   1      -8.128  10.495  67.096  1.00  0.00    -0.117 OA 
ATOM     13 1HE2 GLN A   1      -8.178  10.295  64.686  1.00  0.00     0.000 HD 
ATOM     14 2HE2 GLN A   1      -9.007  11.848  64.349  1.00  0.00     0.000 HD 
ENDBRANCH   9  10
ENDBRANCH   8   9
ENDBRANCH   4   8
TORSDOF 3
ENDMDL
MODEL      140
REMARK 921   NORMALIZED FREE ENERGY PREDICTED BY IDOCK:   -2.73 KCAL/MOL
REMARK 922        TOTAL FREE ENERGY PREDICTED BY IDOCK:   -3.32 KCAL/MOL
REMARK 923 INTER-LIGAND FREE ENERGY PREDICTED BY IDOCK:   -3.19 KCAL/MOL
REMARK 924 INTRA-LIGAND FREE ENERGY PREDICTED BY IDOCK:   -0.14 KCAL/MOL
REMARK 927      BINDING AFFINITY PREDICTED BY RF-SCORE:    0.00 PKD
ROOT
ATOM      1  N   GLN A   1      -8.686  14.908  69.549  1.00  0.00    -0.433 NA 
ATOM      2  H1  GLN A   1      -7.740  14.692  69.234  1.00  0.00     0.000 HD 
ATOM      3  H2  GLN A   1      -9.176  14.083  69.893  1.00  0.00     0.000 HD 
ATOM      4  CA  GLN A   1      -9.435  15.593  68.443  1.00  0.00    -0.196 C  
ATOM      5  O   GLN A   1      -7.457  16.921  68.707  1.00  0.00    -0.214 OA 
ATOM      6  C   GLN A   1      -8.633  16.847  68.033  1.00  0.00    -0.214 C  
ATOM      7  OXT GLN A   1      -8.971  17.665  67.191  1.00  0.00    -0.236 OA 
ENDROOT
BRANCH   4   8
ATOM      8  CB  GLN A   1     -10.854  15.918  68.915  1.00  0.00    -0.274 C  
BRANCH   8   9
ATOM      9  CG  GLN A   1     -11.649  14.691  69.366  1.00  0.00    -0.342 C  
BRANCH   9  10
ATOM     10  CD  GLN A   1     -12.344  14.927  70.689  1.00  0.00    -0.344 C  
ATOM     11  NE2 GLN A   1     -11.992  16.093  71.301  1.00  0.00    -0.601 N  
ATOM     12  OE1 GLN A   1     -13.156  14.161  71.194  1.00  0.00    -0.337 OA 
ATOM     13 1HE2 GLN A   1     -12.461  16.251  72.192  1.00  0.00     0.000 HD 
ATOM     14 2HE2 GLN A   1     -11.320  16.749  70.902  1.00  0.00     0.000 HD 
ENDBRANCH   9  10
ENDBRANCH   8   9
ENDBRANCH   4   8
TORSDOF 3
ENDMDL
MODEL      141
REMARK 921   NORMALIZED FREE ENERGY PREDICTED BY IDOCK:   -2.72 KCAL/MOL
REMARK 922        TOTAL FREE ENERGY PREDICTED BY IDOCK:   -3.31 KCAL/MOL
REMARK 923 INTER-LIGAND FREE ENERGY PREDICTED BY IDOCK:   -3.06 KCAL/MOL
REMARK 924 INTRA-LIGAND FREE ENERGY PREDICTED BY IDOCK:   -0.25 KCAL/MOL
REMARK 927      BINDING AFFINITY PREDICTED BY RF-SCORE:    0.00 PKD
ROOT
ATOM      1  N   GLN A   1     -10.126   4.880  71.306  1.00  0.00    -0.199 NA 
ATOM      2  H1  GLN A   1      -9.177   4.598  71.552  1.00  0.00     0.000 HD 
ATOM      3  H2  GLN A   1     -10.567   4.227  70.659  1.00  0.00     0.000 HD 
ATOM      4  CA  GLN A   1     -10.108   6.283  70.774  1.00  0.00    -0.189 C  
ATOM      5  O   GLN A   1      -9.023   6.461  72.904  1.00  0.00    -0.131 OA 
ATOM      6  C   GLN A   1      -9.466   7.189  71.847  1.00  0.00    -0.146 C  
ATOM      7  OXT GLN A   1      -9.329   8.399  71.768  1.00  0.00    -0.179 OA 
ENDROOT
BRANCH   4   8
ATOM      8  CB  GLN A   1     -11.531   6.707  70.405  1.00  0.00    -0.444 C  
BRANCH   8   9
ATOM      9  CG  GLN A   1     -12.474   6.806  71.605  1.00  0.00    -0.398 C  
BRANCH   9  10
ATOM     10  CD  GLN A   1     -13.146   8.159  71.683  1.00  0.00    -0.335 C  
ATOM     11  NE2 GLN A   1     -14.395   8.191  71.137  1.00  0.00    -0.674 N  
ATOM     12  OE1 GLN A   1     -12.644   9.157  72.185  1.00  0.00    -0.369 OA 
ATOM     13 1HE2 GLN A   1     -14.847   9.103  71.189  1.00  0.00     0.000 HD 
ATOM     14 2HE2 GLN A   1     -14.836   7.374  70.713  1.00  0.00     0.000 HD 
ENDBRANCH   9  10
ENDBRANCH   8   9
ENDBRANCH   4   8
TORSDOF 3
ENDMDL
MODEL      142
REMARK 921   NORMALIZED FREE ENERGY PREDICTED BY IDOCK:   -2.72 KCAL/MOL
REMARK 922        TOTAL FREE ENERGY PREDICTED BY IDOCK:   -3.31 KCAL/MOL
REMARK 923 INTER-LIGAND FREE ENERGY PREDICTED BY IDOCK:   -3.16 KCAL/MOL
REMARK 924 INTRA-LIGAND FREE ENERGY PREDICTED BY IDOCK:   -0.15 KCAL/MOL
REMARK 927      BINDING AFFINITY PREDICTED BY RF-SCORE:    0.00 PKD
ROOT
ATOM      1  N   GLN A   1      -9.267   8.613  71.750  1.00  0.00    -0.247 NA 
ATOM      2  H1  GLN A   1      -9.051   8.731  72.740  1.00  0.00     0.000 HD 
ATOM      3  H2  GLN A   1      -8.530   8.981  71.148  1.00  0.00     0.000 HD 
ATOM      4  CA  GLN A   1     -10.603   9.228  71.453  1.00  0.00    -0.347 C  
ATOM      5  O   GLN A   1     -11.056   7.708  73.250  1.00  0.00    -0.382 OA 
ATOM      6  C   GLN A   1     -11.645   8.569  72.381  1.00  0.00    -0.354 C  
ATOM      7  OXT GLN A   1     -12.845   8.798  72.381  1.00  0.00    -0.385 OA 
ENDROOT
BRANCH   4   8
ATOM      8  CB  GLN A   1     -10.926   9.051  69.968  1.00  0.00    -0.230 C  
BRANCH   8   9
ATOM      9  CG  GLN A   1      -9.956   8.125  69.232  1.00  0.00    -0.188 C  
BRANCH   9  10
ATOM     10  CD  GLN A   1     -10.610   6.816  68.848  1.00  0.00    -0.228 C  
ATOM     11  NE2 GLN A   1     -11.725   6.519  69.573  1.00  0.00    -0.645 N  
ATOM     12  OE1 GLN A   1     -10.201   6.066  67.969  1.00  0.00    -0.149 OA 
ATOM     13 1HE2 GLN A   1     -12.165   5.636  69.314  1.00  0.00     0.000 HD 
ATOM     14 2HE2 GLN A   1     -12.086   7.125  70.309  1.00  0.00     0.000 HD 
ENDBRANCH   9  10
ENDBRANCH   8   9
ENDBRANCH   4   8
TORSDOF 3
ENDMDL
MODEL      143
REMARK 921   NORMALIZED FREE ENERGY PREDICTED BY IDOCK:   -2.69 KCAL/MOL
REMARK 922        TOTAL FREE ENERGY PREDICTED BY IDOCK:   -3.28 KCAL/MOL
REMARK 923 INTER-LIGAND FREE ENERGY PREDICTED BY IDOCK:   -3.20 KCAL/MOL
REMARK 924 INTRA-LIGAND FREE ENERGY PREDICTED BY IDOCK:   -0.07 KCAL/MOL
REMARK 927      BINDING AFFINITY PREDICTED BY RF-SCORE:    0.00 PKD
ROOT
ATOM      1  N   GLN A   1      -9.278   5.282  69.768  1.00  0.00    -0.122 NA 
ATOM      2  H1  GLN A   1      -9.019   4.462  69.219  1.00  0.00     0.000 HD 
ATOM      3  H2  GLN A   1      -9.302   5.086  70.768  1.00  0.00     0.000 HD 
ATOM      4  CA  GLN A   1     -10.584   5.825  69.265  1.00  0.00    -0.306 C  
ATOM      5  O   GLN A   1      -9.204   5.740  67.307  1.00  0.00    -0.111 OA 
ATOM      6  C   GLN A   1     -10.423   6.130  67.760  1.00  0.00    -0.231 C  
ATOM      7  OXT GLN A   1     -11.275   6.625  67.039  1.00  0.00    -0.404 OA 
ENDROOT
BRANCH   4   8
ATOM      8  CB  GLN A   1     -10.974   7.055  70.087  1.00  0.00    -0.306 C  
BRANCH   8   9
ATOM      9  CG  GLN A   1     -12.055   6.780  71.134  1.00  0.00    -0.422 C  
BRANCH   9  10
ATOM     10  CD  GLN A   1     -11.959   7.730  72.306  1.00  0.00    -0.309 C  
ATOM     11  NE2 GLN A   1     -13.111   8.413  72.563  1.00  0.00    -0.600 N  
ATOM     12  OE1 GLN A   1     -10.954   7.896  72.987  1.00  0.00    -0.393 OA 
ATOM     13 1HE2 GLN A   1     -13.045   9.054  73.353  1.00  0.00     0.000 HD 
ATOM     14 2HE2 GLN A   1     -13.961   8.294  72.013  1.00  0.00     0.000 HD 
ENDBRANCH   9  10
ENDBRANCH   8   9
ENDBRANCH   4   8
TORSDOF 3
ENDMDL
MODEL      144
REMARK 921   NORMALIZED FREE ENERGY PREDICTED BY IDOCK:   -2.69 KCAL/MOL
REMARK 922        TOTAL FREE ENERGY PREDICTED BY IDOCK:   -3.27 KCAL/MOL
REMARK 923 INTER-LIGAND FREE ENERGY PREDICTED BY IDOCK:   -3.20 KCAL/MOL
REMARK 924 INTRA-LIGAND FREE ENERGY PREDICTED BY IDOCK:   -0.07 KCAL/MOL
REMARK 927      BINDING AFFINITY PREDICTED BY RF-SCORE:    0.00 PKD
ROOT
ATOM      1  N   GLN A   1     -12.173   7.232  72.342  1.00  0.00    -0.502 NA 
ATOM      2  H1  GLN A   1     -12.433   6.820  73.239  1.00  0.00     0.000 HD 
ATOM      3  H2  GLN A   1     -12.986   7.438  71.761  1.00  0.00     0.000 HD 
ATOM      4  CA  GLN A   1     -11.191   6.335  71.646  1.00  0.00    -0.285 C  
ATOM      5  O   GLN A   1     -10.194   6.727  73.790  1.00  0.00    -0.281 OA 
ATOM      6  C   GLN A   1      -9.986   6.130  72.589  1.00  0.00    -0.175 C  
ATOM      7  OXT GLN A   1      -8.979   5.490  72.329  1.00  0.00    -0.139 OA 
ENDROOT
BRANCH   4   8
ATOM      8  CB  GLN A   1     -10.801   6.952  70.301  1.00  0.00    -0.294 C  
BRANCH   8   9
ATOM      9  CG  GLN A   1     -11.400   6.229  69.094  1.00  0.00    -0.358 C  
BRANCH   9  10
ATOM     10  CD  GLN A   1     -10.774   6.686  67.796  1.00  0.00    -0.283 C  
ATOM     11  NE2 GLN A   1     -11.275   6.066  66.690  1.00  0.00    -0.742 N  
ATOM     12  OE1 GLN A   1      -9.895   7.535  67.708  1.00  0.00    -0.144 OA 
ATOM     13 1HE2 GLN A   1     -10.852   6.374  65.815  1.00  0.00     0.000 HD 
ATOM     14 2HE2 GLN A   1     -12.006   5.356  66.734  1.00  0.00     0.000 HD 
ENDBRANCH   9  10
ENDBRANCH   8   9
ENDBRANCH   4   8
TORSDOF 3
ENDMDL
MODEL      145
REMARK 921   NORMALIZED FREE ENERGY PREDICTED BY IDOCK:   -2.68 KCAL/MOL
REMARK 922        TOTAL FREE ENERGY PREDICTED BY IDOCK:   -3.26 KCAL/MOL
REMARK 923 INTER-LIGAND FREE ENERGY PREDICTED BY IDOCK:   -2.85 KCAL/MOL
REMARK 924 INTRA-LIGAND FREE ENERGY PREDICTED BY IDOCK:   -0.41 KCAL/MOL
REMARK 927      BINDING AFFINITY PREDICTED BY RF-SCORE:    0.00 PKD
ROOT
ATOM      1  N   GLN A   1     -12.986   6.733  72.031  1.00  0.00    -0.546 NA 
ATOM      2  H1  GLN A   1     -13.237   7.439  71.338  1.00  0.00     0.000 HD 
ATOM      3  H2  GLN A   1     -13.439   6.896  72.930  1.00  0.00     0.000 HD 
ATOM      4  CA  GLN A   1     -11.492   6.663  72.154  1.00  0.00    -0.287 C  
ATOM      5  O   GLN A   1     -11.893   6.349  69.811  1.00  0.00    -0.357 OA 
ATOM      6  C   GLN A   1     -10.914   6.367  70.752  1.00  0.00    -0.290 C  
ATOM      7  OXT GLN A   1      -9.734   6.201  70.489  1.00  0.00    -0.170 OA 
ENDROOT
BRANCH   4   8
ATOM      8  CB  GLN A   1     -11.114   5.605  73.193  1.00  0.00    -0.315 C  
BRANCH   8   9
ATOM      9  CG  GLN A   1     -10.278   6.150  74.352  1.00  0.00    -0.332 C  
BRANCH   9  10
ATOM     10  CD  GLN A   1      -9.031   6.853  73.864  1.00  0.00    -0.173 C  
ATOM     11  NE2 GLN A   1      -8.152   6.037  73.215  1.00  0.00    -0.114 N  
ATOM     12  OE1 GLN A   1      -8.798   8.046  74.021  1.00  0.00    -0.263 OA 
ATOM     13 1HE2 GLN A   1      -7.311   6.511  72.887  1.00  0.00     0.000 HD 
ATOM     14 2HE2 GLN A   1      -8.322   5.042  73.071  1.00  0.00     0.000 HD 
ENDBRANCH   9  10
ENDBRANCH   8   9
ENDBRANCH   4   8
TORSDOF 3
ENDMDL
MODEL      146
REMARK 921   NORMALIZED FREE ENERGY PREDICTED BY IDOCK:   -2.64 KCAL/MOL
REMARK 922        TOTAL FREE ENERGY PREDICTED BY IDOCK:   -3.22 KCAL/MOL
REMARK 923 INTER-LIGAND FREE ENERGY PREDICTED BY IDOCK:   -3.12 KCAL/MOL
REMARK 924 INTRA-LIGAND FREE ENERGY PREDICTED BY IDOCK:   -0.10 KCAL/MOL
REMARK 927      BINDING AFFINITY PREDICTED BY RF-SCORE:    0.00 PKD
ROOT
ATOM      1  N   GLN A   1      -9.180  10.169  64.534  1.00  0.00    -0.234 NA 
ATOM      2  H1  GLN A   1      -9.057   9.756  63.609  1.00  0.00     0.000 HD 
ATOM      3  H2  GLN A   1      -9.056   9.486  65.282  1.00  0.00     0.000 HD 
ATOM      4  CA  GLN A   1     -10.516  10.849  64.602  1.00  0.00    -0.314 C  
ATOM      5  O   GLN A   1      -9.469  11.828  62.681  1.00  0.00    -0.283 OA 
ATOM      6  C   GLN A   1     -10.577  11.889  63.462  1.00  0.00    -0.453 C  
ATOM      7  OXT GLN A   1     -11.503  12.655  63.246  1.00  0.00    -0.483 OA 
ENDROOT
BRANCH   4   8
ATOM      8  CB  GLN A   1     -10.702  11.469  65.989  1.00  0.00    -0.332 C  
BRANCH   8   9
ATOM      9  CG  GLN A   1      -9.387  11.806  66.694  1.00  0.00    -0.205 C  
BRANCH   9  10
ATOM     10  CD  GLN A   1      -9.551  12.945  67.676  1.00  0.00    -0.196 C  
ATOM     11  NE2 GLN A   1      -8.732  12.862  68.763  1.00  0.00    -0.377 N  
ATOM     12  OE1 GLN A   1     -10.337  13.874  67.539  1.00  0.00    -0.242 OA 
ATOM     13 1HE2 GLN A   1      -8.843  13.630  69.425  1.00  0.00     0.000 HD 
ATOM     14 2HE2 GLN A   1      -8.068  12.100  68.902  1.00  0.00     0.000 HD 
ENDBRANCH   9  10
ENDBRANCH   8   9
ENDBRANCH   4   8
TORSDOF 3
ENDMDL
MODEL      147
REMARK 921   NORMALIZED FREE ENERGY PREDICTED BY IDOCK:   -2.64 KCAL/MOL
REMARK 922        TOTAL FREE ENERGY PREDICTED BY IDOCK:   -3.21 KCAL/MOL
REMARK 923 INTER-LIGAND FREE ENERGY PREDICTED BY IDOCK:   -3.12 KCAL/MOL
REMARK 924 INTRA-LIGAND FREE ENERGY PREDICTED BY IDOCK:   -0.10 KCAL/MOL
REMARK 927      BINDING AFFINITY PREDICTED BY RF-SCORE:    0.00 PKD
ROOT
ATOM      1  N   GLN A   1     -11.391   6.584  66.848  1.00  0.00    -0.817 NA 
ATOM      2  H1  GLN A   1     -11.438   6.362  65.854  1.00  0.00     0.000 HD 
ATOM      3  H2  GLN A   1     -12.316   6.659  67.272  1.00  0.00     0.000 HD 
ATOM      4  CA  GLN A   1     -10.575   7.829  67.043  1.00  0.00    -0.326 C  
ATOM      5  O   GLN A   1      -9.131   6.385  65.788  1.00  0.00    -0.112 OA 
ATOM      6  C   GLN A   1      -9.187   7.590  66.410  1.00  0.00    -0.167 C  
ATOM      7  OXT GLN A   1      -8.254   8.377  66.422  1.00  0.00    -0.104 OA 
ENDROOT
BRANCH   4   8
ATOM      8  CB  GLN A   1     -10.504   8.163  68.535  1.00  0.00    -0.199 C  
BRANCH   8   9
ATOM      9  CG  GLN A   1     -10.623   9.658  68.837  1.00  0.00    -0.239 C  
BRANCH   9  10
ATOM     10  CD  GLN A   1     -11.362   9.913  70.133  1.00  0.00    -0.275 C  
ATOM     11  NE2 GLN A   1     -12.658  10.300  69.965  1.00  0.00    -0.547 N  
ATOM     12  OE1 GLN A   1     -10.872   9.792  71.249  1.00  0.00    -0.334 OA 
ATOM     13 1HE2 GLN A   1     -13.156  10.472  70.838  1.00  0.00     0.000 HD 
ATOM     14 2HE2 GLN A   1     -13.091  10.408  69.047  1.00  0.00     0.000 HD 
ENDBRANCH   9  10
ENDBRANCH   8   9
ENDBRANCH   4   8
TORSDOF 3
ENDMDL
MODEL      148
REMARK 921   NORMALIZED FREE ENERGY PREDICTED BY IDOCK:   -2.62 KCAL/MOL
REMARK 922        TOTAL FREE ENERGY PREDICTED BY IDOCK:   -3.19 KCAL/MOL
REMARK 923 INTER-LIGAND FREE ENERGY PREDICTED BY IDOCK:   -3.06 KCAL/MOL
REMARK 924 INTRA-LIGAND FREE ENERGY PREDICTED BY IDOCK:   -0.13 KCAL/MOL
REMARK 927      BINDING AFFINITY PREDICTED BY RF-SCORE:    0.00 PKD
ROOT
ATOM      1  N   GLN A   1      -9.872  10.300  67.819  1.00  0.00    -0.166 NA 
ATOM      2  H1  GLN A   1      -9.953  10.817  68.695  1.00  0.00     0.000 HD 
ATOM      3  H2  GLN A   1      -8.950   9.879  67.703  1.00  0.00     0.000 HD 
ATOM      4  CA  GLN A   1     -10.232  11.201  66.673  1.00  0.00    -0.232 C  
ATOM      5  O   GLN A   1     -12.130  11.336  68.132  1.00  0.00    -0.635 OA 
ATOM      6  C   GLN A   1     -11.656  11.743  66.926  1.00  0.00    -0.234 C  
ATOM      7  OXT GLN A   1     -12.284  12.472  66.175  1.00  0.00    -0.609 OA 
ENDROOT
BRANCH   4   8
ATOM      8  CB  GLN A   1     -10.110  10.427  65.359  1.00  0.00    -0.354 C  
BRANCH   8   9
ATOM      9  CG  GLN A   1      -8.987   9.389  65.357  1.00  0.00    -0.251 C  
BRANCH   9  10
ATOM     10  CD  GLN A   1      -7.719   9.933  64.739  1.00  0.00    -0.138 C  
ATOM     11  NE2 GLN A   1      -7.931  10.786  63.697  1.00  0.00    -0.361 N  
ATOM     12  OE1 GLN A   1      -6.586   9.655  65.115  1.00  0.00    -0.083 OA 
ATOM     13 1HE2 GLN A   1      -7.075  11.153  63.280  1.00  0.00     0.000 HD 
ATOM     14 2HE2 GLN A   1      -8.862  11.036  63.364  1.00  0.00     0.000 HD 
ENDBRANCH   9  10
ENDBRANCH   8   9
ENDBRANCH   4   8
TORSDOF 3
ENDMDL
MODEL      149
REMARK 921   NORMALIZED FREE ENERGY PREDICTED BY IDOCK:   -2.61 KCAL/MOL
REMARK 922        TOTAL FREE ENERGY PREDICTED BY IDOCK:   -3.18 KCAL/MOL
REMARK 923 INTER-LIGAND FREE ENERGY PREDICTED BY IDOCK:   -2.91 KCAL/MOL
REMARK 924 INTRA-LIGAND FREE ENERGY PREDICTED BY IDOCK:   -0.28 KCAL/MOL
REMARK 927      BINDING AFFINITY PREDICTED BY RF-SCORE:    0.00 PKD
ROOT
ATOM      1  N   GLN A   1      -8.039  19.175  68.734  1.00  0.00    -0.361 NA 
ATOM      2  H1  GLN A   1      -8.045  20.160  69.000  1.00  0.00     0.000 HD 
ATOM      3  H2  GLN A   1      -7.100  18.777  68.751  1.00  0.00     0.000 HD 
ATOM      4  CA  GLN A   1      -8.700  19.014  67.396  1.00  0.00    -0.278 C  
ATOM      5  O   GLN A   1     -10.335  20.174  68.711  1.00  0.00    -0.395 OA 
ATOM      6  C   GLN A   1     -10.123  19.604  67.497  1.00  0.00    -0.409 C  
ATOM      7  OXT GLN A   1     -10.959  19.604  66.607  1.00  0.00    -0.424 OA 
ENDROOT
BRANCH   4   8
ATOM      8  CB  GLN A   1      -8.691  17.537  66.998  1.00  0.00    -0.254 C  
BRANCH   8   9
ATOM      9  CG  GLN A   1      -7.288  16.963  66.793  1.00  0.00    -0.272 C  
BRANCH   9  10
ATOM     10  CD  GLN A   1      -6.943  15.930  67.843  1.00  0.00    -0.139 C  
ATOM     11  NE2 GLN A   1      -7.072  16.378  69.125  1.00  0.00    -0.215 N  
ATOM     12  OE1 GLN A   1      -6.579  14.786  67.601  1.00  0.00    -0.163 OA 
ATOM     13 1HE2 GLN A   1      -6.839  15.682  69.832  1.00  0.00     0.000 HD 
ATOM     14 2HE2 GLN A   1      -7.374  17.325  69.354  1.00  0.00     0.000 HD 
ENDBRANCH   9  10
ENDBRANCH   8   9
ENDBRANCH   4   8
TORSDOF 3
ENDMDL
MODEL      150
REMARK 921   NORMALIZED FREE ENERGY PREDICTED BY IDOCK:   -2.61 KCAL/MOL
REMARK 922        TOTAL FREE ENERGY PREDICTED BY IDOCK:   -3.18 KCAL/MOL
REMARK 923 INTER-LIGAND FREE ENERGY PREDICTED BY IDOCK:   -3.12 KCAL/MOL
REMARK 924 INTRA-LIGAND FREE ENERGY PREDICTED BY IDOCK:   -0.06 KCAL/MOL
REMARK 927      BINDING AFFINITY PREDICTED BY RF-SCORE:    0.00 PKD
ROOT
ATOM      1  N   GLN A   1      -9.127  10.004  66.874  1.00  0.00    -0.138 NA 
ATOM      2  H1  GLN A   1      -8.771   9.139  66.467  1.00  0.00     0.000 HD 
ATOM      3  H2  GLN A   1      -9.375   9.895  67.857  1.00  0.00     0.000 HD 
ATOM      4  CA  GLN A   1     -10.276  10.508  66.051  1.00  0.00    -0.245 C  
ATOM      5  O   GLN A   1      -8.499  10.249  64.462  1.00  0.00    -0.168 OA 
ATOM      6  C   GLN A   1      -9.779  10.681  64.599  1.00  0.00    -0.302 C  
ATOM      7  OXT GLN A   1     -10.438  11.115  63.668  1.00  0.00    -0.359 OA 
ENDROOT
BRANCH   4   8
ATOM      8  CB  GLN A   1     -10.810  11.806  66.660  1.00  0.00    -0.318 C  
BRANCH   8   9
ATOM      9  CG  GLN A   1     -11.413  11.629  68.054  1.00  0.00    -0.385 C  
BRANCH   9  10
ATOM     10  CD  GLN A   1     -11.783  12.955  68.680  1.00  0.00    -0.324 C  
ATOM     11  NE2 GLN A   1     -11.700  12.969  70.041  1.00  0.00    -0.509 N  
ATOM     12  OE1 GLN A   1     -12.129  13.949  68.053  1.00  0.00    -0.367 OA 
ATOM     13 1HE2 GLN A   1     -11.949  13.863  70.463  1.00  0.00     0.000 HD 
ATOM     14 2HE2 GLN A   1     -11.414  12.157  70.588  1.00  0.00     0.000 HD 
ENDBRANCH   9  10
ENDBRANCH   8   9
ENDBRANCH   4   8
TORSDOF 3
ENDMDL
MODEL      151
REMARK 921   NORMALIZED FREE ENERGY PREDICTED BY IDOCK:   -2.61 KCAL/MOL
REMARK 922        TOTAL FREE ENERGY PREDICTED BY IDOCK:   -3.18 KCAL/MOL
REMARK 923 INTER-LIGAND FREE ENERGY PREDICTED BY IDOCK:   -3.23 KCAL/MOL
REMARK 924 INTRA-LIGAND FREE ENERGY PREDICTED BY IDOCK:    0.05 KCAL/MOL
REMARK 927      BINDING AFFINITY PREDICTED BY RF-SCORE:    0.00 PKD
ROOT
ATOM      1  N   GLN A   1     -12.279  14.463  67.671  1.00  0.00    -0.623 NA 
ATOM      2  H1  GLN A   1     -13.209  14.869  67.777  1.00  0.00     0.000 HD 
ATOM      3  H2  GLN A   1     -12.141  14.048  66.750  1.00  0.00     0.000 HD 
ATOM      4  CA  GLN A   1     -12.035  13.478  68.778  1.00  0.00    -0.339 C  
ATOM      5  O   GLN A   1     -12.639  15.495  69.924  1.00  0.00    -0.300 OA 
ATOM      6  C   GLN A   1     -12.223  14.218  70.120  1.00  0.00    -0.345 C  
ATOM      7  OXT GLN A   1     -12.059  13.733  71.229  1.00  0.00    -0.294 OA 
ENDROOT
BRANCH   4   8
ATOM      8  CB  GLN A   1     -10.641  12.868  68.620  1.00  0.00    -0.256 C  
BRANCH   8   9
ATOM      9  CG  GLN A   1      -9.991  13.160  67.266  1.00  0.00    -0.230 C  
BRANCH   9  10
ATOM     10  CD  GLN A   1      -9.130  14.403  67.311  1.00  0.00    -0.214 C  
ATOM     11  NE2 GLN A   1      -8.796  14.891  66.083  1.00  0.00    -0.467 N  
ATOM     12  OE1 GLN A   1      -8.748  14.949  68.340  1.00  0.00    -0.159 OA 
ATOM     13 1HE2 GLN A   1      -8.215  15.729  66.113  1.00  0.00     0.000 HD 
ATOM     14 2HE2 GLN A   1      -9.100  14.457  65.211  1.00  0.00     0.000 HD 
ENDBRANCH   9  10
ENDBRANCH   8   9
ENDBRANCH   4   8
TORSDOF 3
ENDMDL
MODEL      152
REMARK 921   NORMALIZED FREE ENERGY PREDICTED BY IDOCK:   -2.61 KCAL/MOL
REMARK 922        TOTAL FREE ENERGY PREDICTED BY IDOCK:   -3.17 KCAL/MOL
REMARK 923 INTER-LIGAND FREE ENERGY PREDICTED BY IDOCK:   -3.04 KCAL/MOL
REMARK 924 INTRA-LIGAND FREE ENERGY PREDICTED BY IDOCK:   -0.13 KCAL/MOL
REMARK 927      BINDING AFFINITY PREDICTED BY RF-SCORE:    0.00 PKD
ROOT
ATOM      1  N   GLN A   1     -11.084  13.657  69.739  1.00  0.00    -0.465 NA 
ATOM      2  H1  GLN A   1     -11.973  13.407  70.173  1.00  0.00     0.000 HD 
ATOM      3  H2  GLN A   1     -10.722  14.546  70.083  1.00  0.00     0.000 HD 
ATOM      4  CA  GLN A   1     -11.237  13.646  68.246  1.00  0.00    -0.273 C  
ATOM      5  O   GLN A   1     -11.988  11.471  68.918  1.00  0.00    -0.333 OA 
ATOM      6  C   GLN A   1     -11.741  12.247  67.831  1.00  0.00    -0.347 C  
ATOM      7  OXT GLN A   1     -11.934  11.870  66.686  1.00  0.00    -0.601 OA 
ENDROOT
BRANCH   4   8
ATOM      8  CB  GLN A   1      -9.904  14.020  67.594  1.00  0.00    -0.233 C  
BRANCH   8   9
ATOM      9  CG  GLN A   1      -9.091  15.037  68.396  1.00  0.00    -0.184 C  
BRANCH   9  10
ATOM     10  CD  GLN A   1      -7.635  14.639  68.499  1.00  0.00    -0.120 C  
ATOM     11  NE2 GLN A   1      -7.343  13.884  69.596  1.00  0.00    -0.325 N  
ATOM     12  OE1 GLN A   1      -6.770  14.947  67.688  1.00  0.00    -0.162 OA 
ATOM     13 1HE2 GLN A   1      -6.361  13.616  69.665  1.00  0.00     0.000 HD 
ATOM     14 2HE2 GLN A   1      -8.043  13.613  70.286  1.00  0.00     0.000 HD 
ENDBRANCH   9  10
ENDBRANCH   8   9
ENDBRANCH   4   8
TORSDOF 3
ENDMDL
MODEL      153
REMARK 921   NORMALIZED FREE ENERGY PREDICTED BY IDOCK:   -2.58 KCAL/MOL
REMARK 922        TOTAL FREE ENERGY PREDICTED BY IDOCK:   -3.15 KCAL/MOL
REMARK 923 INTER-LIGAND FREE ENERGY PREDICTED BY IDOCK:   -2.96 KCAL/MOL
REMARK 924 INTRA-LIGAND FREE ENERGY PREDICTED BY IDOCK:   -0.18 KCAL/MOL
REMARK 927      BINDING AFFINITY PREDICTED BY RF-SCORE:    0.00 PKD
ROOT
ATOM      1  N   GLN A   1      -9.365   9.940  66.696  1.00  0.00    -0.153 NA 
ATOM      2  H1  GLN A   1      -9.415  10.589  65.911  1.00  0.00     0.000 HD 
ATOM      3  H2  GLN A   1      -8.959   9.043  66.431  1.00  0.00     0.000 HD 
ATOM      4  CA  GLN A   1     -10.729   9.788  67.305  1.00  0.00    -0.227 C  
ATOM      5  O   GLN A   1     -10.351  12.155  67.324  1.00  0.00    -0.210 OA 
ATOM      6  C   GLN A   1     -11.226  11.192  67.711  1.00  0.00    -0.294 C  
ATOM      7  OXT GLN A   1     -12.280  11.438  68.276  1.00  0.00    -0.588 OA 
ENDROOT
BRANCH   4   8
ATOM      8  CB  GLN A   1     -10.654   8.815  68.484  1.00  0.00    -0.171 C  
BRANCH   8   9
ATOM      9  CG  GLN A   1     -10.070   9.431  69.756  1.00  0.00    -0.229 C  
BRANCH   9  10
ATOM     10  CD  GLN A   1     -10.844   9.019  70.988  1.00  0.00    -0.276 C  
ATOM     11  NE2 GLN A   1     -12.175   8.822  70.768  1.00  0.00    -0.483 N  
ATOM     12  OE1 GLN A   1     -10.352   8.866  72.100  1.00  0.00    -0.333 OA 
ATOM     13 1HE2 GLN A   1     -12.696   8.545  71.599  1.00  0.00     0.000 HD 
ATOM     14 2HE2 GLN A   1     -12.609   8.942  69.853  1.00  0.00     0.000 HD 
ENDBRANCH   9  10
ENDBRANCH   8   9
ENDBRANCH   4   8
TORSDOF 3
ENDMDL
MODEL      154
REMARK 921   NORMALIZED FREE ENERGY PREDICTED BY IDOCK:   -2.57 KCAL/MOL
REMARK 922        TOTAL FREE ENERGY PREDICTED BY IDOCK:   -3.14 KCAL/MOL
REMARK 923 INTER-LIGAND FREE ENERGY PREDICTED BY IDOCK:   -3.06 KCAL/MOL
REMARK 924 INTRA-LIGAND FREE ENERGY PREDICTED BY IDOCK:   -0.08 KCAL/MOL
REMARK 927      BINDING AFFINITY PREDICTED BY RF-SCORE:    0.00 PKD
ROOT
ATOM      1  N   GLN A   1      -8.645   8.514  72.945  1.00  0.00    -0.387 NA 
ATOM      2  H1  GLN A   1      -7.643   8.551  73.132  1.00  0.00     0.000 HD 
ATOM      3  H2  GLN A   1      -9.105   9.407  73.123  1.00  0.00     0.000 HD 
ATOM      4  CA  GLN A   1      -9.259   7.394  73.734  1.00  0.00    -0.257 C  
ATOM      5  O   GLN A   1      -7.493   6.334  72.507  1.00  0.00    -0.091 OA 
ATOM      6  C   GLN A   1      -8.524   6.089  73.355  1.00  0.00    -0.116 C  
ATOM      7  OXT GLN A   1      -8.791   4.974  73.773  1.00  0.00    -0.115 OA 
ENDROOT
BRANCH   4   8
ATOM      8  CB  GLN A   1     -10.762   7.337  73.455  1.00  0.00    -0.415 C  
BRANCH   8   9
ATOM      9  CG  GLN A   1     -11.212   8.256  72.318  1.00  0.00    -0.443 C  
BRANCH   9  10
ATOM     10  CD  GLN A   1     -12.618   7.937  71.859  1.00  0.00    -0.319 C  
ATOM     11  NE2 GLN A   1     -13.593   8.516  72.616  1.00  0.00    -0.653 N  
ATOM     12  OE1 GLN A   1     -12.893   7.227  70.899  1.00  0.00    -0.259 OA 
ATOM     13 1HE2 GLN A   1     -14.540   8.300  72.307  1.00  0.00     0.000 HD 
ATOM     14 2HE2 GLN A   1     -13.392   9.111  73.419  1.00  0.00     0.000 HD 
ENDBRANCH   9  10
ENDBRANCH   8   9
ENDBRANCH   4   8
TORSDOF 3
ENDMDL
MODEL      155
REMARK 921   NORMALIZED FREE ENERGY PREDICTED BY IDOCK:   -2.54 KCAL/MOL
REMARK 922        TOTAL FREE ENERGY PREDICTED BY IDOCK:   -3.10 KCAL/MOL
REMARK 923 INTER-LIGAND FREE ENERGY PREDICTED BY IDOCK:   -2.98 KCAL/MOL
REMARK 924 INTRA-LIGAND FREE ENERGY PREDICTED BY IDOCK:   -0.12 KCAL/MOL
REMARK 927      BINDING AFFINITY PREDICTED BY RF-SCORE:    0.00 PKD
ROOT
ATOM      1  N   GLN A   1     -12.113  11.990  66.128  1.00  0.00    -0.520 NA 
ATOM      2  H1  GLN A   1     -13.043  12.262  65.807  1.00  0.00     0.000 HD 
ATOM      3  H2  GLN A   1     -12.038  10.985  66.286  1.00  0.00     0.000 HD 
ATOM      4  CA  GLN A   1     -11.755  12.785  67.350  1.00  0.00    -0.366 C  
ATOM      5  O   GLN A   1     -12.320  14.453  65.723  1.00  0.00    -0.393 OA 
ATOM      6  C   GLN A   1     -11.855  14.282  66.988  1.00  0.00    -0.428 C  
ATOM      7  OXT GLN A   1     -11.591  15.214  67.731  1.00  0.00    -0.332 OA 
ENDROOT
BRANCH   4   8
ATOM      8  CB  GLN A   1     -10.362  12.377  67.833  1.00  0.00    -0.215 C  
BRANCH   8   9
ATOM      9  CG  GLN A   1      -9.848  11.080  67.206  1.00  0.00    -0.204 C  
BRANCH   9  10
ATOM     10  CD  GLN A   1      -9.662   9.991  68.239  1.00  0.00    -0.141 C  
ATOM     11  NE2 GLN A   1     -10.316   8.831  67.947  1.00  0.00    -0.219 N  
ATOM     12  OE1 GLN A   1      -8.991  10.105  69.258  1.00  0.00    -0.162 OA 
ATOM     13 1HE2 GLN A   1     -10.191   8.097  68.644  1.00  0.00     0.000 HD 
ATOM     14 2HE2 GLN A   1     -10.880   8.709  67.106  1.00  0.00     0.000 HD 
ENDBRANCH   9  10
ENDBRANCH   8   9
ENDBRANCH   4   8
TORSDOF 3
ENDMDL
MODEL      156
REMARK 921   NORMALIZED FREE ENERGY PREDICTED BY IDOCK:   -2.51 KCAL/MOL
REMARK 922        TOTAL FREE ENERGY PREDICTED BY IDOCK:   -3.06 KCAL/MOL
REMARK 923 INTER-LIGAND FREE ENERGY PREDICTED BY IDOCK:   -2.92 KCAL/MOL
REMARK 924 INTRA-LIGAND FREE ENERGY PREDICTED BY IDOCK:   -0.14 KCAL/MOL
REMARK 927      BINDING AFFINITY PREDICTED BY RF-SCORE:    0.00 PKD
ROOT
ATOM      1  N   GLN A   1      -9.644  15.573  65.259  1.00  0.00    -0.295 NA 
ATOM      2  H1  GLN A   1      -9.911  15.012  64.450  1.00  0.00     0.000 HD 
ATOM      3  H2  GLN A   1      -8.770  16.076  65.108  1.00  0.00     0.000 HD 
ATOM      4  CA  GLN A   1      -9.593  14.700  66.478  1.00  0.00    -0.289 C  
ATOM      5  O   GLN A   1     -11.794  14.336  65.601  1.00  0.00    -0.354 OA 
ATOM      6  C   GLN A   1     -10.974  14.028  66.638  1.00  0.00    -0.300 C  
ATOM      7  OXT GLN A   1     -11.303  13.284  67.549  1.00  0.00    -0.270 OA 
ENDROOT
BRANCH   4   8
ATOM      8  CB  GLN A   1      -9.192  15.541  67.692  1.00  0.00    -0.190 C  
BRANCH   8   9
ATOM      9  CG  GLN A   1      -9.898  16.896  67.762  1.00  0.00    -0.252 C  
BRANCH   9  10
ATOM     10  CD  GLN A   1      -9.021  17.956  68.390  1.00  0.00    -0.282 C  
ATOM     11  NE2 GLN A   1      -9.687  19.095  68.733  1.00  0.00    -0.413 N  
ATOM     12  OE1 GLN A   1      -7.818  17.837  68.588  1.00  0.00    -0.278 OA 
ATOM     13 1HE2 GLN A   1      -9.095  19.810  69.157  1.00  0.00     0.000 HD 
ATOM     14 2HE2 GLN A   1     -10.688  19.221  68.581  1.00  0.00     0.000 HD 
ENDBRANCH   9  10
ENDBRANCH   8   9
ENDBRANCH   4   8
TORSDOF 3
ENDMDL
MODEL      157
REMARK 921   NORMALIZED FREE ENERGY PREDICTED BY IDOCK:   -2.49 KCAL/MOL
REMARK 922        TOTAL FREE ENERGY PREDICTED BY IDOCK:   -3.04 KCAL/MOL
REMARK 923 INTER-LIGAND FREE ENERGY PREDICTED BY IDOCK:   -2.87 KCAL/MOL
REMARK 924 INTRA-LIGAND FREE ENERGY PREDICTED BY IDOCK:   -0.18 KCAL/MOL
REMARK 927      BINDING AFFINITY PREDICTED BY RF-SCORE:    0.00 PKD
ROOT
ATOM      1  N   GLN A   1     -12.161   6.832  70.445  1.00  0.00    -0.589 NA 
ATOM      2  H1  GLN A   1     -12.366   6.313  71.299  1.00  0.00     0.000 HD 
ATOM      3  H2  GLN A   1     -12.252   6.253  69.610  1.00  0.00     0.000 HD 
ATOM      4  CA  GLN A   1     -10.802   7.459  70.556  1.00  0.00    -0.243 C  
ATOM      5  O   GLN A   1     -11.955   8.235  72.509  1.00  0.00    -0.387 OA 
ATOM      6  C   GLN A   1     -10.790   8.345  71.820  1.00  0.00    -0.284 C  
ATOM      7  OXT GLN A   1      -9.858   9.039  72.194  1.00  0.00    -0.273 OA 
ENDROOT
BRANCH   4   8
ATOM      8  CB  GLN A   1     -10.494   8.237  69.275  1.00  0.00    -0.218 C  
BRANCH   8   9
ATOM      9  CG  GLN A   1      -9.539   7.510  68.327  1.00  0.00    -0.157 C  
BRANCH   9  10
ATOM     10  CD  GLN A   1     -10.230   6.391  67.580  1.00  0.00    -0.169 C  
ATOM     11  NE2 GLN A   1     -10.598   6.717  66.309  1.00  0.00    -0.394 N  
ATOM     12  OE1 GLN A   1     -10.456   5.280  68.045  1.00  0.00    -0.153 OA 
ATOM     13 1HE2 GLN A   1     -11.065   5.962  65.806  1.00  0.00     0.000 HD 
ATOM     14 2HE2 GLN A   1     -10.422   7.633  65.897  1.00  0.00     0.000 HD 
ENDBRANCH   9  10
ENDBRANCH   8   9
ENDBRANCH   4   8
TORSDOF 3
ENDMDL
MODEL      158
REMARK 921   NORMALIZED FREE ENERGY PREDICTED BY IDOCK:   -2.49 KCAL/MOL
REMARK 922        TOTAL FREE ENERGY PREDICTED BY IDOCK:   -3.04 KCAL/MOL
REMARK 923 INTER-LIGAND FREE ENERGY PREDICTED BY IDOCK:   -2.91 KCAL/MOL
REMARK 924 INTRA-LIGAND FREE ENERGY PREDICTED BY IDOCK:   -0.13 KCAL/MOL
REMARK 927      BINDING AFFINITY PREDICTED BY RF-SCORE:    0.00 PKD
ROOT
ATOM      1  N   GLN A   1     -12.372  14.058  66.292  1.00  0.00    -0.465 NA 
ATOM      2  H1  GLN A   1     -13.002  14.734  66.726  1.00  0.00     0.000 HD 
ATOM      3  H2  GLN A   1     -12.855  13.206  66.009  1.00  0.00     0.000 HD 
ATOM      4  CA  GLN A   1     -11.225  13.779  67.219  1.00  0.00    -0.311 C  
ATOM      5  O   GLN A   1     -11.211  16.165  66.987  1.00  0.00    -0.103 OA 
ATOM      6  C   GLN A   1     -10.539  15.124  67.543  1.00  0.00    -0.269 C  
ATOM      7  OXT GLN A   1      -9.543  15.268  68.233  1.00  0.00    -0.200 OA 
ENDROOT
BRANCH   4   8
ATOM      8  CB  GLN A   1     -10.280  12.766  66.569  1.00  0.00    -0.261 C  
BRANCH   8   9
ATOM      9  CG  GLN A   1     -10.969  11.473  66.131  1.00  0.00    -0.320 C  
BRANCH   9  10
ATOM     10  CD  GLN A   1     -10.668  11.135  64.688  1.00  0.00    -0.280 C  
ATOM     11  NE2 GLN A   1      -9.718  10.170  64.530  1.00  0.00    -0.312 N  
ATOM     12  OE1 GLN A   1     -11.210  11.661  63.723  1.00  0.00    -0.388 OA 
ATOM     13 1HE2 GLN A   1      -9.516   9.943  63.557  1.00  0.00     0.000 HD 
ATOM     14 2HE2 GLN A   1      -9.252   9.717  65.316  1.00  0.00     0.000 HD 
ENDBRANCH   9  10
ENDBRANCH   8   9
ENDBRANCH   4   8
TORSDOF 3
ENDMDL
MODEL      159
REMARK 921   NORMALIZED FREE ENERGY PREDICTED BY IDOCK:   -2.48 KCAL/MOL
REMARK 922        TOTAL FREE ENERGY PREDICTED BY IDOCK:   -3.03 KCAL/MOL
REMARK 923 INTER-LIGAND FREE ENERGY PREDICTED BY IDOCK:   -2.62 KCAL/MOL
REMARK 924 INTRA-LIGAND FREE ENERGY PREDICTED BY IDOCK:   -0.41 KCAL/MOL
REMARK 927      BINDING AFFINITY PREDICTED BY RF-SCORE:    0.00 PKD
ROOT
ATOM      1  N   GLN A   1     -11.191   8.824  69.349  1.00  0.00    -0.432 NA 
ATOM      2  H1  GLN A   1     -12.130   9.220  69.388  1.00  0.00     0.000 HD 
ATOM      3  H2  GLN A   1     -10.970   8.443  68.429  1.00  0.00     0.000 HD 
ATOM      4  CA  GLN A   1     -11.032   7.805  70.439  1.00  0.00    -0.249 C  
ATOM      5  O   GLN A   1     -11.752   9.778  71.595  1.00  0.00    -0.385 OA 
ATOM      6  C   GLN A   1     -11.342   8.498  71.784  1.00  0.00    -0.307 C  
ATOM      7  OXT GLN A   1     -11.268   7.977  72.886  1.00  0.00    -0.401 OA 
ENDROOT
BRANCH   4   8
ATOM      8  CB  GLN A   1      -9.623   7.212  70.381  1.00  0.00    -0.169 C  
BRANCH   8   9
ATOM      9  CG  GLN A   1      -9.598   5.683  70.364  1.00  0.00    -0.217 C  
BRANCH   9  10
ATOM     10  CD  GLN A   1      -9.625   5.104  71.761  1.00  0.00    -0.152 C  
ATOM     11  NE2 GLN A   1      -8.986   5.870  72.691  1.00  0.00    -0.132 N  
ATOM     12  OE1 GLN A   1     -10.161   4.046  72.066  1.00  0.00    -0.176 OA 
ATOM     13 1HE2 GLN A   1      -9.004   5.479  73.632  1.00  0.00     0.000 HD 
ATOM     14 2HE2 GLN A   1      -8.532   6.754  72.464  1.00  0.00     0.000 HD 
ENDBRANCH   9  10
ENDBRANCH   8   9
ENDBRANCH   4   8
TORSDOF 3
ENDMDL
MODEL      160
REMARK 921   NORMALIZED FREE ENERGY PREDICTED BY IDOCK:   -2.48 KCAL/MOL
REMARK 922        TOTAL FREE ENERGY PREDICTED BY IDOCK:   -3.03 KCAL/MOL
REMARK 923 INTER-LIGAND FREE ENERGY PREDICTED BY IDOCK:   -2.91 KCAL/MOL
REMARK 924 INTRA-LIGAND FREE ENERGY PREDICTED BY IDOCK:   -0.11 KCAL/MOL
REMARK 927      BINDING AFFINITY PREDICTED BY RF-SCORE:    0.00 PKD
ROOT
ATOM      1  N   GLN A   1     -10.437  11.713  66.884  1.00  0.00    -0.220 NA 
ATOM      2  H1  GLN A   1     -11.122  12.460  66.761  1.00  0.00     0.000 HD 
ATOM      3  H2  GLN A   1     -10.133  11.318  65.994  1.00  0.00     0.000 HD 
ATOM      4  CA  GLN A   1     -10.998  10.670  67.806  1.00  0.00    -0.306 C  
ATOM      5  O   GLN A   1     -11.194  12.707  69.054  1.00  0.00    -0.256 OA 
ATOM      6  C   GLN A   1     -11.380  11.364  69.131  1.00  0.00    -0.288 C  
ATOM      7  OXT GLN A   1     -11.826  10.809  70.123  1.00  0.00    -0.282 OA 
ENDROOT
BRANCH   4   8
ATOM      8  CB  GLN A   1      -9.972   9.549  67.991  1.00  0.00    -0.198 C  
BRANCH   8   9
ATOM      9  CG  GLN A   1     -10.594   8.155  68.089  1.00  0.00    -0.168 C  
BRANCH   9  10
ATOM     10  CD  GLN A   1     -10.313   7.326  66.855  1.00  0.00    -0.288 C  
ATOM     11  NE2 GLN A   1     -11.214   6.324  66.644  1.00  0.00    -0.753 N  
ATOM     12  OE1 GLN A   1      -9.372   7.509  66.093  1.00  0.00    -0.155 OA 
ATOM     13 1HE2 GLN A   1     -11.024   5.765  65.813  1.00  0.00     0.000 HD 
ATOM     14 2HE2 GLN A   1     -12.006   6.150  67.262  1.00  0.00     0.000 HD 
ENDBRANCH   9  10
ENDBRANCH   8   9
ENDBRANCH   4   8
TORSDOF 3
ENDMDL
MODEL      161
REMARK 921   NORMALIZED FREE ENERGY PREDICTED BY IDOCK:   -2.46 KCAL/MOL
REMARK 922        TOTAL FREE ENERGY PREDICTED BY IDOCK:   -3.01 KCAL/MOL
REMARK 923 INTER-LIGAND FREE ENERGY PREDICTED BY IDOCK:   -2.61 KCAL/MOL
REMARK 924 INTRA-LIGAND FREE ENERGY PREDICTED BY IDOCK:   -0.40 KCAL/MOL
REMARK 927      BINDING AFFINITY PREDICTED BY RF-SCORE:    0.00 PKD
ROOT
ATOM      1  N   GLN A   1     -12.018   6.662  69.885  1.00  0.00    -0.639 NA 
ATOM      2  H1  GLN A   1     -12.169   6.030  70.671  1.00  0.00     0.000 HD 
ATOM      3  H2  GLN A   1     -11.899   6.162  69.004  1.00  0.00     0.000 HD 
ATOM      4  CA  GLN A   1     -10.858   7.566  70.186  1.00  0.00    -0.249 C  
ATOM      5  O   GLN A   1     -12.325   7.867  72.059  1.00  0.00    -0.299 OA 
ATOM      6  C   GLN A   1     -11.163   8.304  71.508  1.00  0.00    -0.262 C  
ATOM      7  OXT GLN A   1     -10.455   9.151  72.030  1.00  0.00    -0.322 OA 
ENDROOT
BRANCH   4   8
ATOM      8  CB  GLN A   1     -10.631   8.515  69.008  1.00  0.00    -0.173 C  
BRANCH   8   9
ATOM      9  CG  GLN A   1      -9.192   8.522  68.491  1.00  0.00    -0.135 C  
BRANCH   9  10
ATOM     10  CD  GLN A   1      -8.261   9.258  69.428  1.00  0.00    -0.114 C  
ATOM     11  NE2 GLN A   1      -8.744  10.457  69.862  1.00  0.00    -0.366 N  
ATOM     12  OE1 GLN A   1      -7.164   8.845  69.786  1.00  0.00    -0.052 OA 
ATOM     13 1HE2 GLN A   1      -8.115  10.953  70.493  1.00  0.00     0.000 HD 
ATOM     14 2HE2 GLN A   1      -9.652  10.824  69.579  1.00  0.00     0.000 HD 
ENDBRANCH   9  10
ENDBRANCH   8   9
ENDBRANCH   4   8
TORSDOF 3
ENDMDL
MODEL      162
REMARK 921   NORMALIZED FREE ENERGY PREDICTED BY IDOCK:   -2.45 KCAL/MOL
REMARK 922        TOTAL FREE ENERGY PREDICTED BY IDOCK:   -3.00 KCAL/MOL
REMARK 923 INTER-LIGAND FREE ENERGY PREDICTED BY IDOCK:   -2.62 KCAL/MOL
REMARK 924 INTRA-LIGAND FREE ENERGY PREDICTED BY IDOCK:   -0.38 KCAL/MOL
REMARK 927      BINDING AFFINITY PREDICTED BY RF-SCORE:    0.00 PKD
ROOT
ATOM      1  N   GLN A   1      -7.666   5.424  71.705  1.00  0.00    -0.103 NA 
ATOM      2  H1  GLN A   1      -6.736   5.613  72.079  1.00  0.00     0.000 HD 
ATOM      3  H2  GLN A   1      -7.643   4.763  70.928  1.00  0.00     0.000 HD 
ATOM      4  CA  GLN A   1      -8.325   6.719  71.328  1.00  0.00    -0.120 C  
ATOM      5  O   GLN A   1      -7.696   7.037  73.620  1.00  0.00    -0.089 OA 
ATOM      6  C   GLN A   1      -8.348   7.620  72.582  1.00  0.00    -0.121 C  
ATOM      7  OXT GLN A   1      -8.849   8.732  72.651  1.00  0.00    -0.394 OA 
ENDROOT
BRANCH   4   8
ATOM      8  CB  GLN A   1      -9.720   6.437  70.767  1.00  0.00    -0.197 C  
BRANCH   8   9
ATOM      9  CG  GLN A   1     -10.731   5.993  71.825  1.00  0.00    -0.294 C  
BRANCH   9  10
ATOM     10  CD  GLN A   1     -11.924   6.921  71.889  1.00  0.00    -0.327 C  
ATOM     11  NE2 GLN A   1     -11.865   7.832  72.902  1.00  0.00    -0.618 N  
ATOM     12  OE1 GLN A   1     -12.874   6.887  71.117  1.00  0.00    -0.354 OA 
ATOM     13 1HE2 GLN A   1     -12.669   8.457  72.945  1.00  0.00     0.000 HD 
ATOM     14 2HE2 GLN A   1     -11.085   7.882  73.558  1.00  0.00     0.000 HD 
ENDBRANCH   9  10
ENDBRANCH   8   9
ENDBRANCH   4   8
TORSDOF 3
ENDMDL
MODEL      163
REMARK 921   NORMALIZED FREE ENERGY PREDICTED BY IDOCK:   -2.45 KCAL/MOL
REMARK 922        TOTAL FREE ENERGY PREDICTED BY IDOCK:   -2.99 KCAL/MOL
REMARK 923 INTER-LIGAND FREE ENERGY PREDICTED BY IDOCK:   -2.75 KCAL/MOL
REMARK 924 INTRA-LIGAND FREE ENERGY PREDICTED BY IDOCK:   -0.25 KCAL/MOL
REMARK 927      BINDING AFFINITY PREDICTED BY RF-SCORE:    0.00 PKD
ROOT
ATOM      1  N   GLN A   1      -8.936   5.735  67.964  1.00  0.00    -0.112 NA 
ATOM      2  H1  GLN A   1      -8.366   5.349  68.717  1.00  0.00     0.000 HD 
ATOM      3  H2  GLN A   1      -8.369   6.142  67.220  1.00  0.00     0.000 HD 
ATOM      4  CA  GLN A   1      -9.915   6.720  68.534  1.00  0.00    -0.149 C  
ATOM      5  O   GLN A   1     -10.306   4.721  69.798  1.00  0.00    -0.227 OA 
ATOM      6  C   GLN A   1     -10.749   5.991  69.610  1.00  0.00    -0.335 C  
ATOM      7  OXT GLN A   1     -11.669   6.477  70.248  1.00  0.00    -0.404 OA 
ENDROOT
BRANCH   4   8
ATOM      8  CB  GLN A   1     -10.770   7.300  67.405  1.00  0.00    -0.358 C  
BRANCH   8   9
ATOM      9  CG  GLN A   1     -10.536   8.791  67.159  1.00  0.00    -0.354 C  
BRANCH   9  10
ATOM     10  CD  GLN A   1      -9.524   9.029  66.059  1.00  0.00    -0.256 C  
ATOM     11  NE2 GLN A   1      -9.131   7.894  65.413  1.00  0.00    -0.393 N  
ATOM     12  OE1 GLN A   1      -9.077  10.126  65.750  1.00  0.00    -0.157 OA 
ATOM     13 1HE2 GLN A   1      -8.449   8.055  64.672  1.00  0.00     0.000 HD 
ATOM     14 2HE2 GLN A   1      -9.488   6.969  65.649  1.00  0.00     0.000 HD 
ENDBRANCH   9  10
ENDBRANCH   8   9
ENDBRANCH   4   8
TORSDOF 3
ENDMDL
MODEL      164
REMARK 921   NORMALIZED FREE ENERGY PREDICTED BY IDOCK:   -2.44 KCAL/MOL
REMARK 922        TOTAL FREE ENERGY PREDICTED BY IDOCK:   -2.99 KCAL/MOL
REMARK 923 INTER-LIGAND FREE ENERGY PREDICTED BY IDOCK:   -2.91 KCAL/MOL
REMARK 924 INTRA-LIGAND FREE ENERGY PREDICTED BY IDOCK:   -0.07 KCAL/MOL
REMARK 927      BINDING AFFINITY PREDICTED BY RF-SCORE:    0.00 PKD
ROOT
ATOM      1  N   GLN A   1     -10.041   4.390  71.289  1.00  0.00    -0.168 NA 
ATOM      2  H1  GLN A   1      -9.701   4.261  72.243  1.00  0.00     0.000 HD 
ATOM      3  H2  GLN A   1      -9.327   4.178  70.593  1.00  0.00     0.000 HD 
ATOM      4  CA  GLN A   1     -10.586   5.780  71.138  1.00  0.00    -0.251 C  
ATOM      5  O   GLN A   1     -11.780   4.896  73.018  1.00  0.00    -0.278 OA 
ATOM      6  C   GLN A   1     -11.685   5.977  72.203  1.00  0.00    -0.279 C  
ATOM      7  OXT GLN A   1     -12.372   6.977  72.341  1.00  0.00    -0.140 OA 
ENDROOT
BRANCH   4   8
ATOM      8  CB  GLN A   1     -11.095   5.975  69.708  1.00  0.00    -0.476 C  
BRANCH   8   9
ATOM      9  CG  GLN A   1     -10.063   5.629  68.634  1.00  0.00    -0.240 C  
BRANCH   9  10
ATOM     10  CD  GLN A   1     -10.560   5.968  67.246  1.00  0.00    -0.294 C  
ATOM     11  NE2 GLN A   1     -11.240   7.147  67.172  1.00  0.00    -0.559 N  
ATOM     12  OE1 GLN A   1     -10.385   5.270  66.254  1.00  0.00    -0.228 OA 
ATOM     13 1HE2 GLN A   1     -11.575   7.375  66.237  1.00  0.00     0.000 HD 
ATOM     14 2HE2 GLN A   1     -11.398   7.748  67.982  1.00  0.00     0.000 HD 
ENDBRANCH   9  10
ENDBRANCH   8   9
ENDBRANCH   4   8
TORSDOF 3
ENDMDL
MODEL      165
REMARK 921   NORMALIZED FREE ENERGY PREDICTED BY IDOCK:   -2.44 KCAL/MOL
REMARK 922        TOTAL FREE ENERGY PREDICTED BY IDOCK:   -2.97 KCAL/MOL
REMARK 923 INTER-LIGAND FREE ENERGY PREDICTED BY IDOCK:   -2.73 KCAL/MOL
REMARK 924 INTRA-LIGAND FREE ENERGY PREDICTED BY IDOCK:   -0.24 KCAL/MOL
REMARK 927      BINDING AFFINITY PREDICTED BY RF-SCORE:    0.00 PKD
ROOT
ATOM      1  N   GLN A   1      -8.916  14.297  68.741  1.00  0.00    -0.322 NA 
ATOM      2  H1  GLN A   1      -8.444  13.611  69.330  1.00  0.00     0.000 HD 
ATOM      3  H2  GLN A   1      -9.873  14.023  68.520  1.00  0.00     0.000 HD 
ATOM      4  CA  GLN A   1      -8.098  14.543  67.507  1.00  0.00    -0.189 C  
ATOM      5  O   GLN A   1      -6.566  14.953  69.305  1.00  0.00    -0.112 OA 
ATOM      6  C   GLN A   1      -6.691  14.995  67.954  1.00  0.00    -0.156 C  
ATOM      7  OXT GLN A   1      -5.778  15.322  67.211  1.00  0.00    -0.332 OA 
ENDROOT
BRANCH   4   8
ATOM      8  CB  GLN A   1      -8.805  15.571  66.622  1.00  0.00    -0.325 C  
BRANCH   8   9
ATOM      9  CG  GLN A   1      -9.019  16.925  67.302  1.00  0.00    -0.212 C  
BRANCH   9  10
ATOM     10  CD  GLN A   1      -8.212  18.020  66.642  1.00  0.00    -0.261 C  
ATOM     11  NE2 GLN A   1      -8.289  19.225  67.277  1.00  0.00    -0.278 N  
ATOM     12  OE1 GLN A   1      -7.539  17.875  65.629  1.00  0.00    -0.546 OA 
ATOM     13 1HE2 GLN A   1      -7.745  19.963  66.831  1.00  0.00     0.000 HD 
ATOM     14 2HE2 GLN A   1      -8.841  19.373  68.121  1.00  0.00     0.000 HD 
ENDBRANCH   9  10
ENDBRANCH   8   9
ENDBRANCH   4   8
TORSDOF 3
ENDMDL
MODEL      166
REMARK 921   NORMALIZED FREE ENERGY PREDICTED BY IDOCK:   -2.42 KCAL/MOL
REMARK 922        TOTAL FREE ENERGY PREDICTED BY IDOCK:   -2.95 KCAL/MOL
REMARK 923 INTER-LIGAND FREE ENERGY PREDICTED BY IDOCK:   -2.93 KCAL/MOL
REMARK 924 INTRA-LIGAND FREE ENERGY PREDICTED BY IDOCK:   -0.02 KCAL/MOL
REMARK 927      BINDING AFFINITY PREDICTED BY RF-SCORE:    0.00 PKD
ROOT
ATOM      1  N   GLN A   1     -11.935  12.125  66.648  1.00  0.00    -0.629 NA 
ATOM      2  H1  GLN A   1     -12.184  11.939  65.676  1.00  0.00     0.000 HD 
ATOM      3  H2  GLN A   1     -12.545  12.822  67.075  1.00  0.00     0.000 HD 
ATOM      4  CA  GLN A   1     -10.487  12.514  66.727  1.00  0.00    -0.225 C  
ATOM      5  O   GLN A   1     -10.457  10.410  65.577  1.00  0.00    -0.227 OA 
ATOM      6  C   GLN A   1      -9.656  11.375  66.097  1.00  0.00    -0.218 C  
ATOM      7  OXT GLN A   1      -8.437  11.335  66.031  1.00  0.00    -0.167 OA 
ENDROOT
BRANCH   4   8
ATOM      8  CB  GLN A   1     -10.114  12.794  68.184  1.00  0.00    -0.239 C  
BRANCH   8   9
ATOM      9  CG  GLN A   1     -11.310  12.798  69.137  1.00  0.00    -0.337 C  
BRANCH   9  10
ATOM     10  CD  GLN A   1     -11.518  11.447  69.784  1.00  0.00    -0.300 C  
ATOM     11  NE2 GLN A   1     -12.501  11.430  70.729  1.00  0.00    -0.372 N  
ATOM     12  OE1 GLN A   1     -10.880  10.438  69.510  1.00  0.00    -0.221 OA 
ATOM     13 1HE2 GLN A   1     -12.641  10.520  71.166  1.00  0.00     0.000 HD 
ATOM     14 2HE2 GLN A   1     -13.048  12.255  70.976  1.00  0.00     0.000 HD 
ENDBRANCH   9  10
ENDBRANCH   8   9
ENDBRANCH   4   8
TORSDOF 3
ENDMDL
MODEL      167
REMARK 921   NORMALIZED FREE ENERGY PREDICTED BY IDOCK:   -2.40 KCAL/MOL
REMARK 922        TOTAL FREE ENERGY PREDICTED BY IDOCK:   -2.93 KCAL/MOL
REMARK 923 INTER-LIGAND FREE ENERGY PREDICTED BY IDOCK:   -2.71 KCAL/MOL
REMARK 924 INTRA-LIGAND FREE ENERGY PREDICTED BY IDOCK:   -0.22 KCAL/MOL
REMARK 927      BINDING AFFINITY PREDICTED BY RF-SCORE:    0.00 PKD
ROOT
ATOM      1  N   GLN A   1      -8.859   7.674  69.950  1.00  0.00    -0.143 NA 
ATOM      2  H1  GLN A   1      -8.270   8.025  69.194  1.00  0.00     0.000 HD 
ATOM      3  H2  GLN A   1      -8.829   6.658  70.023  1.00  0.00     0.000 HD 
ATOM      4  CA  GLN A   1     -10.258   8.188  69.771  1.00  0.00    -0.203 C  
ATOM      5  O   GLN A   1      -8.910  10.170  69.755  1.00  0.00    -0.193 OA 
ATOM      6  C   GLN A   1     -10.194   9.730  69.720  1.00  0.00    -0.242 C  
ATOM      7  OXT GLN A   1     -11.152  10.480  69.626  1.00  0.00    -0.244 OA 
ENDROOT
BRANCH   4   8
ATOM      8  CB  GLN A   1     -11.143   7.663  70.904  1.00  0.00    -0.275 C  
BRANCH   8   9
ATOM      9  CG  GLN A   1     -11.098   8.521  72.169  1.00  0.00    -0.436 C  
BRANCH   9  10
ATOM     10  CD  GLN A   1     -10.024   8.057  73.127  1.00  0.00    -0.246 C  
ATOM     11  NE2 GLN A   1     -10.452   7.135  74.036  1.00  0.00    -0.467 N  
ATOM     12  OE1 GLN A   1      -8.864   8.451  73.117  1.00  0.00    -0.258 OA 
ATOM     13 1HE2 GLN A   1      -9.728   6.822  74.682  1.00  0.00     0.000 HD 
ATOM     14 2HE2 GLN A   1     -11.411   6.789  74.066  1.00  0.00     0.000 HD 
ENDBRANCH   9  10
ENDBRANCH   8   9
ENDBRANCH   4   8
TORSDOF 3
ENDMDL
MODEL      168
REMARK 921   NORMALIZED FREE ENERGY PREDICTED BY IDOCK:   -2.37 KCAL/MOL
REMARK 922        TOTAL FREE ENERGY PREDICTED BY IDOCK:   -2.90 KCAL/MOL
REMARK 923 INTER-LIGAND FREE ENERGY PREDICTED BY IDOCK:   -2.81 KCAL/MOL
REMARK 924 INTRA-LIGAND FREE ENERGY PREDICTED BY IDOCK:   -0.09 KCAL/MOL
REMARK 927      BINDING AFFINITY PREDICTED BY RF-SCORE:    0.00 PKD
ROOT
ATOM      1  N   GLN A   1      -7.961   6.880  71.389  1.00  0.00    -0.107 NA 
ATOM      2  H1  GLN A   1      -7.347   7.484  71.936  1.00  0.00     0.000 HD 
ATOM      3  H2  GLN A   1      -7.446   6.315  70.714  1.00  0.00     0.000 HD 
ATOM      4  CA  GLN A   1      -9.027   7.711  70.736  1.00  0.00    -0.149 C  
ATOM      5  O   GLN A   1      -9.201   8.271  73.061  1.00  0.00    -0.260 OA 
ATOM      6  C   GLN A   1      -9.771   8.484  71.847  1.00  0.00    -0.287 C  
ATOM      7  OXT GLN A   1     -10.727   9.224  71.681  1.00  0.00    -0.354 OA 
ENDROOT
BRANCH   4   8
ATOM      8  CB  GLN A   1      -9.948   6.806  69.916  1.00  0.00    -0.184 C  
BRANCH   8   9
ATOM      9  CG  GLN A   1      -9.570   6.721  68.437  1.00  0.00    -0.125 C  
BRANCH   9  10
ATOM     10  CD  GLN A   1     -10.574   7.433  67.557  1.00  0.00    -0.269 C  
ATOM     11  NE2 GLN A   1     -11.370   6.595  66.833  1.00  0.00    -0.824 N  
ATOM     12  OE1 GLN A   1     -10.690   8.650  67.478  1.00  0.00    -0.249 OA 
ATOM     13 1HE2 GLN A   1     -12.046   7.076  66.241  1.00  0.00     0.000 HD 
ATOM     14 2HE2 GLN A   1     -11.295   5.579  66.881  1.00  0.00     0.000 HD 
ENDBRANCH   9  10
ENDBRANCH   8   9
ENDBRANCH   4   8
TORSDOF 3
ENDMDL
MODEL      169
REMARK 921   NORMALIZED FREE ENERGY PREDICTED BY IDOCK:   -2.35 KCAL/MOL
REMARK 922        TOTAL FREE ENERGY PREDICTED BY IDOCK:   -2.87 KCAL/MOL
REMARK 923 INTER-LIGAND FREE ENERGY PREDICTED BY IDOCK:   -2.70 KCAL/MOL
REMARK 924 INTRA-LIGAND FREE ENERGY PREDICTED BY IDOCK:   -0.17 KCAL/MOL
REMARK 927      BINDING AFFINITY PREDICTED BY RF-SCORE:    0.00 PKD
ROOT
ATOM      1  N   GLN A   1     -10.055   4.059  72.043  1.00  0.00    -0.176 NA 
ATOM      2  H1  GLN A   1      -9.067   3.825  72.143  1.00  0.00     0.000 HD 
ATOM      3  H2  GLN A   1     -10.408   3.853  71.108  1.00  0.00     0.000 HD 
ATOM      4  CA  GLN A   1     -10.269   5.495  72.425  1.00  0.00    -0.196 C  
ATOM      5  O   GLN A   1      -9.168   4.548  74.333  1.00  0.00    -0.109 OA 
ATOM      6  C   GLN A   1      -9.746   5.684  73.866  1.00  0.00    -0.162 C  
ATOM      7  OXT GLN A   1      -9.801   6.718  74.513  1.00  0.00    -0.297 OA 
ENDROOT
BRANCH   4   8
ATOM      8  CB  GLN A   1     -11.750   5.847  72.275  1.00  0.00    -0.309 C  
BRANCH   8   9
ATOM      9  CG  GLN A   1     -11.997   7.198  71.601  1.00  0.00    -0.353 C  
BRANCH   9  10
ATOM     10  CD  GLN A   1     -11.213   7.337  70.315  1.00  0.00    -0.262 C  
ATOM     11  NE2 GLN A   1     -11.631   6.505  69.318  1.00  0.00    -0.643 N  
ATOM     12  OE1 GLN A   1     -10.283   8.116  70.147  1.00  0.00    -0.193 OA 
ATOM     13 1HE2 GLN A   1     -11.102   6.599  68.451  1.00  0.00     0.000 HD 
ATOM     14 2HE2 GLN A   1     -12.403   5.848  69.431  1.00  0.00     0.000 HD 
ENDBRANCH   9  10
ENDBRANCH   8   9
ENDBRANCH   4   8
TORSDOF 3
ENDMDL
MODEL      170
REMARK 921   NORMALIZED FREE ENERGY PREDICTED BY IDOCK:   -2.34 KCAL/MOL
REMARK 922        TOTAL FREE ENERGY PREDICTED BY IDOCK:   -2.87 KCAL/MOL
REMARK 923 INTER-LIGAND FREE ENERGY PREDICTED BY IDOCK:   -2.55 KCAL/MOL
REMARK 924 INTRA-LIGAND FREE ENERGY PREDICTED BY IDOCK:   -0.32 KCAL/MOL
REMARK 927      BINDING AFFINITY PREDICTED BY RF-SCORE:    0.00 PKD
ROOT
ATOM      1  N   GLN A   1      -9.350   6.836  69.565  1.00  0.00    -0.147 NA 
ATOM      2  H1  GLN A   1      -8.656   7.408  69.084  1.00  0.00     0.000 HD 
ATOM      3  H2  GLN A   1      -9.562   5.977  69.058  1.00  0.00     0.000 HD 
ATOM      4  CA  GLN A   1     -10.579   7.657  69.826  1.00  0.00    -0.244 C  
ATOM      5  O   GLN A   1      -8.808   8.948  70.797  1.00  0.00    -0.168 OA 
ATOM      6  C   GLN A   1     -10.155   8.902  70.636  1.00  0.00    -0.212 C  
ATOM      7  OXT GLN A   1     -10.906   9.766  71.059  1.00  0.00    -0.326 OA 
ENDROOT
BRANCH   4   8
ATOM      8  CB  GLN A   1     -11.621   6.800  70.547  1.00  0.00    -0.426 C  
BRANCH   8   9
ATOM      9  CG  GLN A   1     -11.333   6.603  72.036  1.00  0.00    -0.317 C  
BRANCH   9  10
ATOM     10  CD  GLN A   1     -10.866   5.196  72.338  1.00  0.00    -0.203 C  
ATOM     11  NE2 GLN A   1     -11.290   4.717  73.542  1.00  0.00    -0.312 N  
ATOM     12  OE1 GLN A   1     -10.170   4.519  71.591  1.00  0.00    -0.193 OA 
ATOM     13 1HE2 GLN A   1     -10.975   3.768  73.744  1.00  0.00     0.000 HD 
ATOM     14 2HE2 GLN A   1     -11.870   5.259  74.182  1.00  0.00     0.000 HD 
ENDBRANCH   9  10
ENDBRANCH   8   9
ENDBRANCH   4   8
TORSDOF 3
ENDMDL
MODEL      171
REMARK 921   NORMALIZED FREE ENERGY PREDICTED BY IDOCK:   -2.33 KCAL/MOL
REMARK 922        TOTAL FREE ENERGY PREDICTED BY IDOCK:   -2.86 KCAL/MOL
REMARK 923 INTER-LIGAND FREE ENERGY PREDICTED BY IDOCK:   -3.04 KCAL/MOL
REMARK 924 INTRA-LIGAND FREE ENERGY PREDICTED BY IDOCK:    0.19 KCAL/MOL
REMARK 927      BINDING AFFINITY PREDICTED BY RF-SCORE:    0.00 PKD
ROOT
ATOM      1  N   GLN A   1     -11.502   6.812  68.867  1.00  0.00    -0.578 NA 
ATOM      2  H1  GLN A   1     -11.197   7.371  68.069  1.00  0.00     0.000 HD 
ATOM      3  H2  GLN A   1     -12.464   7.016  69.136  1.00  0.00     0.000 HD 
ATOM      4  CA  GLN A   1     -10.542   7.002  70.005  1.00  0.00    -0.230 C  
ATOM      5  O   GLN A   1      -9.144   6.323  68.179  1.00  0.00    -0.115 OA 
ATOM      6  C   GLN A   1      -9.132   6.623  69.503  1.00  0.00    -0.144 C  
ATOM      7  OXT GLN A   1      -8.114   6.617  70.178  1.00  0.00    -0.119 OA 
ENDROOT
BRANCH   4   8
ATOM      8  CB  GLN A   1     -10.998   6.164  71.201  1.00  0.00    -0.343 C  
BRANCH   8   9
ATOM      9  CG  GLN A   1     -12.401   6.513  71.699  1.00  0.00    -0.315 C  
BRANCH   9  10
ATOM     10  CD  GLN A   1     -12.530   7.982  72.037  1.00  0.00    -0.320 C  
ATOM     11  NE2 GLN A   1     -13.818   8.422  72.119  1.00  0.00    -0.511 N  
ATOM     12  OE1 GLN A   1     -11.584   8.738  72.228  1.00  0.00    -0.365 OA 
ATOM     13 1HE2 GLN A   1     -13.904   9.412  72.347  1.00  0.00     0.000 HD 
ATOM     14 2HE2 GLN A   1     -14.623   7.814  71.966  1.00  0.00     0.000 HD 
ENDBRANCH   9  10
ENDBRANCH   8   9
ENDBRANCH   4   8
TORSDOF 3
ENDMDL
MODEL      172
REMARK 921   NORMALIZED FREE ENERGY PREDICTED BY IDOCK:   -2.32 KCAL/MOL
REMARK 922        TOTAL FREE ENERGY PREDICTED BY IDOCK:   -2.84 KCAL/MOL
REMARK 923 INTER-LIGAND FREE ENERGY PREDICTED BY IDOCK:   -2.74 KCAL/MOL
REMARK 924 INTRA-LIGAND FREE ENERGY PREDICTED BY IDOCK:   -0.09 KCAL/MOL
REMARK 927      BINDING AFFINITY PREDICTED BY RF-SCORE:    0.00 PKD
ROOT
ATOM      1  N   GLN A   1      -7.457  14.148  69.734  1.00  0.00    -0.345 NA 
ATOM      2  H1  GLN A   1      -6.456  14.099  69.542  1.00  0.00     0.000 HD 
ATOM      3  H2  GLN A   1      -7.894  13.226  69.744  1.00  0.00     0.000 HD 
ATOM      4  CA  GLN A   1      -8.110  15.074  68.750  1.00  0.00    -0.166 C  
ATOM      5  O   GLN A   1      -6.360  16.398  69.713  1.00  0.00    -0.213 OA 
ATOM      6  C   GLN A   1      -7.407  16.445  68.851  1.00  0.00    -0.214 C  
ATOM      7  OXT GLN A   1      -7.709  17.448  68.224  1.00  0.00    -0.221 OA 
ENDROOT
BRANCH   4   8
ATOM      8  CB  GLN A   1      -9.611  15.148  69.037  1.00  0.00    -0.229 C  
BRANCH   8   9
ATOM      9  CG  GLN A   1     -10.483  15.078  67.783  1.00  0.00    -0.249 C  
BRANCH   9  10
ATOM     10  CD  GLN A   1     -11.691  14.191  67.986  1.00  0.00    -0.359 C  
ATOM     11  NE2 GLN A   1     -12.153  13.612  66.841  1.00  0.00    -0.399 N  
ATOM     12  OE1 GLN A   1     -12.233  13.988  69.066  1.00  0.00    -0.346 OA 
ATOM     13 1HE2 GLN A   1     -12.968  13.014  66.978  1.00  0.00     0.000 HD 
ATOM     14 2HE2 GLN A   1     -11.721  13.763  65.929  1.00  0.00     0.000 HD 
ENDBRANCH   9  10
ENDBRANCH   8   9
ENDBRANCH   4   8
TORSDOF 3
ENDMDL
MODEL      173
REMARK 921   NORMALIZED FREE ENERGY PREDICTED BY IDOCK:   -2.32 KCAL/MOL
REMARK 922        TOTAL FREE ENERGY PREDICTED BY IDOCK:   -2.84 KCAL/MOL
REMARK 923 INTER-LIGAND FREE ENERGY PREDICTED BY IDOCK:   -2.77 KCAL/MOL
REMARK 924 INTRA-LIGAND FREE ENERGY PREDICTED BY IDOCK:   -0.06 KCAL/MOL
REMARK 927      BINDING AFFINITY PREDICTED BY RF-SCORE:    0.00 PKD
ROOT
ATOM      1  N   GLN A   1     -10.808  13.857  66.512  1.00  0.00    -0.293 NA 
ATOM      2  H1  GLN A   1     -10.832  14.838  66.233  1.00  0.00     0.000 HD 
ATOM      3  H2  GLN A   1     -11.723  13.412  66.440  1.00  0.00     0.000 HD 
ATOM      4  CA  GLN A   1     -10.230  13.745  67.893  1.00  0.00    -0.245 C  
ATOM      5  O   GLN A   1      -8.570  14.969  66.672  1.00  0.00    -0.258 OA 
ATOM      6  C   GLN A   1      -8.834  14.404  67.877  1.00  0.00    -0.179 C  
ATOM      7  OXT GLN A   1      -8.060  14.456  68.821  1.00  0.00    -0.140 OA 
ENDROOT
BRANCH   4   8
ATOM      8  CB  GLN A   1     -10.193  12.274  68.312  1.00  0.00    -0.221 C  
BRANCH   8   9
ATOM      9  CG  GLN A   1     -11.577  11.638  68.451  1.00  0.00    -0.376 C  
BRANCH   9  10
ATOM     10  CD  GLN A   1     -11.644  10.687  69.626  1.00  0.00    -0.296 C  
ATOM     11  NE2 GLN A   1     -12.892  10.548  70.157  1.00  0.00    -0.498 N  
ATOM     12  OE1 GLN A   1     -10.685  10.079  70.084  1.00  0.00    -0.268 OA 
ATOM     13 1HE2 GLN A   1     -12.937   9.907  70.948  1.00  0.00     0.000 HD 
ATOM     14 2HE2 GLN A   1     -13.708  11.041  69.794  1.00  0.00     0.000 HD 
ENDBRANCH   9  10
ENDBRANCH   8   9
ENDBRANCH   4   8
TORSDOF 3
ENDMDL
MODEL      174
REMARK 921   NORMALIZED FREE ENERGY PREDICTED BY IDOCK:   -2.31 KCAL/MOL
REMARK 922        TOTAL FREE ENERGY PREDICTED BY IDOCK:   -2.83 KCAL/MOL
REMARK 923 INTER-LIGAND FREE ENERGY PREDICTED BY IDOCK:   -2.46 KCAL/MOL
REMARK 924 INTRA-LIGAND FREE ENERGY PREDICTED BY IDOCK:   -0.37 KCAL/MOL
REMARK 927      BINDING AFFINITY PREDICTED BY RF-SCORE:    0.00 PKD
ROOT
ATOM      1  N   GLN A   1     -11.053   5.828  66.356  1.00  0.00    -0.767 NA 
ATOM      2  H1  GLN A   1     -11.492   6.424  65.653  1.00  0.00     0.000 HD 
ATOM      3  H2  GLN A   1     -11.456   4.891  66.374  1.00  0.00     0.000 HD 
ATOM      4  CA  GLN A   1     -11.124   6.501  67.696  1.00  0.00    -0.287 C  
ATOM      5  O   GLN A   1     -10.074   8.132  66.286  1.00  0.00    -0.197 OA 
ATOM      6  C   GLN A   1     -10.447   7.884  67.567  1.00  0.00    -0.262 C  
ATOM      7  OXT GLN A   1     -10.286   8.684  68.475  1.00  0.00    -0.199 OA 
ENDROOT
BRANCH   4   8
ATOM      8  CB  GLN A   1     -10.466   5.608  68.750  1.00  0.00    -0.289 C  
BRANCH   8   9
ATOM      9  CG  GLN A   1      -9.587   4.504  68.160  1.00  0.00    -0.203 C  
BRANCH   9  10
ATOM     10  CD  GLN A   1      -8.162   4.969  67.956  1.00  0.00    -0.097 C  
ATOM     11  NE2 GLN A   1      -7.849   5.243  66.657  1.00  0.00    -0.100 N  
ATOM     12  OE1 GLN A   1      -7.337   5.098  68.852  1.00  0.00    -0.063 OA 
ATOM     13 1HE2 GLN A   1      -6.888   5.555  66.519  1.00  0.00     0.000 HD 
ATOM     14 2HE2 GLN A   1      -8.516   5.144  65.892  1.00  0.00     0.000 HD 
ENDBRANCH   9  10
ENDBRANCH   8   9
ENDBRANCH   4   8
TORSDOF 3
ENDMDL
MODEL      175
REMARK 921   NORMALIZED FREE ENERGY PREDICTED BY IDOCK:   -2.30 KCAL/MOL
REMARK 922        TOTAL FREE ENERGY PREDICTED BY IDOCK:   -2.82 KCAL/MOL
REMARK 923 INTER-LIGAND FREE ENERGY PREDICTED BY IDOCK:   -2.68 KCAL/MOL
REMARK 924 INTRA-LIGAND FREE ENERGY PREDICTED BY IDOCK:   -0.14 KCAL/MOL
REMARK 927      BINDING AFFINITY PREDICTED BY RF-SCORE:    0.00 PKD
ROOT
ATOM      1  N   GLN A   1     -10.308   5.676  66.293  1.00  0.00    -0.418 NA 
ATOM      2  H1  GLN A   1     -10.236   5.982  65.322  1.00  0.00     0.000 HD 
ATOM      3  H2  GLN A   1     -10.735   4.753  66.376  1.00  0.00     0.000 HD 
ATOM      4  CA  GLN A   1     -11.041   6.714  67.091  1.00  0.00    -0.357 C  
ATOM      5  O   GLN A   1      -9.253   7.935  66.061  1.00  0.00    -0.172 OA 
ATOM      6  C   GLN A   1     -10.287   8.052  66.933  1.00  0.00    -0.338 C  
ATOM      7  OXT GLN A   1     -10.579   9.104  67.481  1.00  0.00    -0.267 OA 
ENDROOT
BRANCH   4   8
ATOM      8  CB  GLN A   1     -11.149   6.256  68.546  1.00  0.00    -0.397 C  
BRANCH   8   9
ATOM      9  CG  GLN A   1      -9.939   5.457  69.032  1.00  0.00    -0.260 C  
BRANCH   9  10
ATOM     10  CD  GLN A   1      -9.367   6.025  70.312  1.00  0.00    -0.159 C  
ATOM     11  NE2 GLN A   1     -10.142   5.805  71.412  1.00  0.00    -0.192 N  
ATOM     12  OE1 GLN A   1      -8.306   6.633  70.391  1.00  0.00    -0.123 OA 
ATOM     13 1HE2 GLN A   1      -9.756   6.188  72.275  1.00  0.00     0.000 HD 
ATOM     14 2HE2 GLN A   1     -11.029   5.301  71.375  1.00  0.00     0.000 HD 
ENDBRANCH   9  10
ENDBRANCH   8   9
ENDBRANCH   4   8
TORSDOF 3
ENDMDL
MODEL      176
REMARK 921   NORMALIZED FREE ENERGY PREDICTED BY IDOCK:   -2.30 KCAL/MOL
REMARK 922        TOTAL FREE ENERGY PREDICTED BY IDOCK:   -2.81 KCAL/MOL
REMARK 923 INTER-LIGAND FREE ENERGY PREDICTED BY IDOCK:   -2.65 KCAL/MOL
REMARK 924 INTRA-LIGAND FREE ENERGY PREDICTED BY IDOCK:   -0.17 KCAL/MOL
REMARK 927      BINDING AFFINITY PREDICTED BY RF-SCORE:    0.00 PKD
ROOT
ATOM      1  N   GLN A   1      -8.815   9.826  64.394  1.00  0.00    -0.211 NA 
ATOM      2  H1  GLN A   1      -9.006   9.196  63.614  1.00  0.00     0.000 HD 
ATOM      3  H2  GLN A   1      -8.364   9.349  65.174  1.00  0.00     0.000 HD 
ATOM      4  CA  GLN A   1     -10.085  10.512  64.805  1.00  0.00    -0.336 C  
ATOM      5  O   GLN A   1      -9.913  10.977  62.460  1.00  0.00    -0.126 OA 
ATOM      6  C   GLN A   1     -10.655  11.237  63.567  1.00  0.00    -0.369 C  
ATOM      7  OXT GLN A   1     -11.658  11.933  63.548  1.00  0.00    -0.439 OA 
ENDROOT
BRANCH   4   8
ATOM      8  CB  GLN A   1      -9.799  11.456  65.974  1.00  0.00    -0.256 C  
BRANCH   8   9
ATOM      9  CG  GLN A   1     -10.429  11.011  67.295  1.00  0.00    -0.270 C  
BRANCH   9  10
ATOM     10  CD  GLN A   1      -9.459  10.219  68.142  1.00  0.00    -0.147 C  
ATOM     11  NE2 GLN A   1      -8.932  10.921  69.185  1.00  0.00    -0.356 N  
ATOM     12  OE1 GLN A   1      -9.151   9.050  67.940  1.00  0.00    -0.135 OA 
ATOM     13 1HE2 GLN A   1      -8.278  10.387  69.757  1.00  0.00     0.000 HD 
ATOM     14 2HE2 GLN A   1      -9.172  11.894  69.377  1.00  0.00     0.000 HD 
ENDBRANCH   9  10
ENDBRANCH   8   9
ENDBRANCH   4   8
TORSDOF 3
ENDMDL
MODEL      177
REMARK 921   NORMALIZED FREE ENERGY PREDICTED BY IDOCK:   -2.28 KCAL/MOL
REMARK 922        TOTAL FREE ENERGY PREDICTED BY IDOCK:   -2.79 KCAL/MOL
REMARK 923 INTER-LIGAND FREE ENERGY PREDICTED BY IDOCK:   -2.71 KCAL/MOL
REMARK 924 INTRA-LIGAND FREE ENERGY PREDICTED BY IDOCK:   -0.08 KCAL/MOL
REMARK 927      BINDING AFFINITY PREDICTED BY RF-SCORE:    0.00 PKD
ROOT
ATOM      1  N   GLN A   1      -9.043   8.708  68.509  1.00  0.00    -0.139 NA 
ATOM      2  H1  GLN A   1      -8.466   8.166  69.153  1.00  0.00     0.000 HD 
ATOM      3  H2  GLN A   1      -8.486   9.326  67.919  1.00  0.00     0.000 HD 
ATOM      4  CA  GLN A   1     -10.089   9.455  69.283  1.00  0.00    -0.196 C  
ATOM      5  O   GLN A   1     -10.387   7.175  69.963  1.00  0.00    -0.199 OA 
ATOM      6  C   GLN A   1     -10.900   8.424  70.100  1.00  0.00    -0.236 C  
ATOM      7  OXT GLN A   1     -11.859   8.676  70.812  1.00  0.00    -0.265 OA 
ENDROOT
BRANCH   4   8
ATOM      8  CB  GLN A   1     -10.954  10.268  68.318  1.00  0.00    -0.315 C  
BRANCH   8   9
ATOM      9  CG  GLN A   1     -10.413  10.307  66.889  1.00  0.00    -0.291 C  
BRANCH   9  10
ATOM     10  CD  GLN A   1     -10.658  11.646  66.230  1.00  0.00    -0.258 C  
ATOM     11  NE2 GLN A   1      -9.615  12.091  65.473  1.00  0.00    -0.364 N  
ATOM     12  OE1 GLN A   1     -11.688  12.299  66.343  1.00  0.00    -0.443 OA 
ATOM     13 1HE2 GLN A   1      -9.780  12.994  65.029  1.00  0.00     0.000 HD 
ATOM     14 2HE2 GLN A   1      -8.747  11.567  65.361  1.00  0.00     0.000 HD 
ENDBRANCH   9  10
ENDBRANCH   8   9
ENDBRANCH   4   8
TORSDOF 3
ENDMDL
MODEL      178
REMARK 921   NORMALIZED FREE ENERGY PREDICTED BY IDOCK:   -2.24 KCAL/MOL
REMARK 922        TOTAL FREE ENERGY PREDICTED BY IDOCK:   -2.75 KCAL/MOL
REMARK 923 INTER-LIGAND FREE ENERGY PREDICTED BY IDOCK:   -2.67 KCAL/MOL
REMARK 924 INTRA-LIGAND FREE ENERGY PREDICTED BY IDOCK:   -0.08 KCAL/MOL
REMARK 927      BINDING AFFINITY PREDICTED BY RF-SCORE:    0.00 PKD
ROOT
ATOM      1  N   GLN A   1      -9.113  16.239  65.499  1.00  0.00    -0.291 NA 
ATOM      2  H1  GLN A   1      -9.151  15.514  64.783  1.00  0.00     0.000 HD 
ATOM      3  H2  GLN A   1      -8.953  17.166  65.103  1.00  0.00     0.000 HD 
ATOM      4  CA  GLN A   1      -8.079  15.875  66.524  1.00  0.00    -0.235 C  
ATOM      5  O   GLN A   1      -9.515  13.956  66.446  1.00  0.00    -0.280 OA 
ATOM      6  C   GLN A   1      -8.442  14.484  67.089  1.00  0.00    -0.212 C  
ATOM      7  OXT GLN A   1      -7.841  13.896  67.975  1.00  0.00    -0.126 OA 
ENDROOT
BRANCH   4   8
ATOM      8  CB  GLN A   1      -8.022  16.962  67.599  1.00  0.00    -0.186 C  
BRANCH   8   9
ATOM      9  CG  GLN A   1      -8.820  18.218  67.248  1.00  0.00    -0.255 C  
BRANCH   9  10
ATOM     10  CD  GLN A   1      -9.134  19.047  68.474  1.00  0.00    -0.358 C  
ATOM     11  NE2 GLN A   1     -10.446  19.403  68.581  1.00  0.00    -0.488 N  
ATOM     12  OE1 GLN A   1      -8.311  19.385  69.315  1.00  0.00    -0.242 OA 
ATOM     13 1HE2 GLN A   1     -10.658  19.961  69.408  1.00  0.00     0.000 HD 
ATOM     14 2HE2 GLN A   1     -11.152  19.134  67.896  1.00  0.00     0.000 HD 
ENDBRANCH   9  10
ENDBRANCH   8   9
ENDBRANCH   4   8
TORSDOF 3
ENDMDL
MODEL      179
REMARK 921   NORMALIZED FREE ENERGY PREDICTED BY IDOCK:   -2.23 KCAL/MOL
REMARK 922        TOTAL FREE ENERGY PREDICTED BY IDOCK:   -2.73 KCAL/MOL
REMARK 923 INTER-LIGAND FREE ENERGY PREDICTED BY IDOCK:   -2.64 KCAL/MOL
REMARK 924 INTRA-LIGAND FREE ENERGY PREDICTED BY IDOCK:   -0.09 KCAL/MOL
REMARK 927      BINDING AFFINITY PREDICTED BY RF-SCORE:    0.00 PKD
ROOT
ATOM      1  N   GLN A   1      -9.249  16.737  65.765  1.00  0.00    -0.518 NA 
ATOM      2  H1  GLN A   1      -9.316  15.942  65.130  1.00  0.00     0.000 HD 
ATOM      3  H2  GLN A   1      -9.345  17.629  65.280  1.00  0.00     0.000 HD 
ATOM      4  CA  GLN A   1      -7.968  16.649  66.542  1.00  0.00    -0.307 C  
ATOM      5  O   GLN A   1      -9.026  14.535  66.936  1.00  0.00    -0.227 OA 
ATOM      6  C   GLN A   1      -7.948  15.288  67.272  1.00  0.00    -0.202 C  
ATOM      7  OXT GLN A   1      -7.074  14.900  68.030  1.00  0.00    -0.109 OA 
ENDROOT
BRANCH   4   8
ATOM      8  CB  GLN A   1      -7.868  17.842  67.496  1.00  0.00    -0.214 C  
BRANCH   8   9
ATOM      9  CG  GLN A   1      -6.483  18.491  67.526  1.00  0.00    -0.196 C  
BRANCH   9  10
ATOM     10  CD  GLN A   1      -6.484  19.782  68.315  1.00  0.00    -0.256 C  
ATOM     11  NE2 GLN A   1      -6.166  20.883  67.578  1.00  0.00    -0.277 N  
ATOM     12  OE1 GLN A   1      -6.742  19.866  69.510  1.00  0.00    -0.339 OA 
ATOM     13 1HE2 GLN A   1      -6.166  21.753  68.111  1.00  0.00     0.000 HD 
ATOM     14 2HE2 GLN A   1      -5.948  20.841  66.582  1.00  0.00     0.000 HD 
ENDBRANCH   9  10
ENDBRANCH   8   9
ENDBRANCH   4   8
TORSDOF 3
ENDMDL
MODEL      180
REMARK 921   NORMALIZED FREE ENERGY PREDICTED BY IDOCK:   -2.21 KCAL/MOL
REMARK 922        TOTAL FREE ENERGY PREDICTED BY IDOCK:   -2.71 KCAL/MOL
REMARK 923 INTER-LIGAND FREE ENERGY PREDICTED BY IDOCK:   -2.63 KCAL/MOL
REMARK 924 INTRA-LIGAND FREE ENERGY PREDICTED BY IDOCK:   -0.08 KCAL/MOL
REMARK 927      BINDING AFFINITY PREDICTED BY RF-SCORE:    0.00 PKD
ROOT
ATOM      1  N   GLN A   1     -11.525   6.707  67.042  1.00  0.00    -0.754 NA 
ATOM      2  H1  GLN A   1     -11.829   6.282  66.165  1.00  0.00     0.000 HD 
ATOM      3  H2  GLN A   1     -12.089   7.519  67.293  1.00  0.00     0.000 HD 
ATOM      4  CA  GLN A   1     -10.063   7.034  66.958  1.00  0.00    -0.229 C  
ATOM      5  O   GLN A   1     -10.163   4.703  66.409  1.00  0.00    -0.244 OA 
ATOM      6  C   GLN A   1      -9.304   5.732  66.622  1.00  0.00    -0.146 C  
ATOM      7  OXT GLN A   1      -8.093   5.620  66.521  1.00  0.00    -0.104 OA 
ENDROOT
BRANCH   4   8
ATOM      8  CB  GLN A   1      -9.607   7.671  68.272  1.00  0.00    -0.160 C  
BRANCH   8   9
ATOM      9  CG  GLN A   1      -9.168   9.129  68.131  1.00  0.00    -0.137 C  
BRANCH   9  10
ATOM     10  CD  GLN A   1      -9.437   9.923  69.390  1.00  0.00    -0.213 C  
ATOM     11  NE2 GLN A   1      -9.968  11.159  69.164  1.00  0.00    -0.394 N  
ATOM     12  OE1 GLN A   1      -9.211   9.525  70.526  1.00  0.00    -0.248 OA 
ATOM     13 1HE2 GLN A   1     -10.149  11.694  70.013  1.00  0.00     0.000 HD 
ATOM     14 2HE2 GLN A   1     -10.167  11.515  68.229  1.00  0.00     0.000 HD 
ENDBRANCH   9  10
ENDBRANCH   8   9
ENDBRANCH   4   8
TORSDOF 3
ENDMDL
MODEL      181
REMARK 921   NORMALIZED FREE ENERGY PREDICTED BY IDOCK:   -2.21 KCAL/MOL
REMARK 922        TOTAL FREE ENERGY PREDICTED BY IDOCK:   -2.70 KCAL/MOL
REMARK 923 INTER-LIGAND FREE ENERGY PREDICTED BY IDOCK:   -2.31 KCAL/MOL
REMARK 924 INTRA-LIGAND FREE ENERGY PREDICTED BY IDOCK:   -0.39 KCAL/MOL
REMARK 927      BINDING AFFINITY PREDICTED BY RF-SCORE:    0.00 PKD
ROOT
ATOM      1  N   GLN A   1     -10.012   4.033  66.791  1.00  0.00    -0.336 NA 
ATOM      2  H1  GLN A   1      -9.299   3.482  66.313  1.00  0.00     0.000 HD 
ATOM      3  H2  GLN A   1     -10.956   3.707  66.583  1.00  0.00     0.000 HD 
ATOM      4  CA  GLN A   1      -9.827   5.485  66.460  1.00  0.00    -0.172 C  
ATOM      5  O   GLN A   1      -7.685   4.807  67.295  1.00  0.00    -0.089 OA 
ATOM      6  C   GLN A   1      -8.389   5.882  66.857  1.00  0.00    -0.108 C  
ATOM      7  OXT GLN A   1      -7.909   7.001  66.768  1.00  0.00    -0.103 OA 
ENDROOT
BRANCH   4   8
ATOM      8  CB  GLN A   1     -10.897   6.311  67.178  1.00  0.00    -0.460 C  
BRANCH   8   9
ATOM      9  CG  GLN A   1     -10.927   6.098  68.692  1.00  0.00    -0.415 C  
BRANCH   9  10
ATOM     10  CD  GLN A   1     -10.795   7.402  69.447  1.00  0.00    -0.171 C  
ATOM     11  NE2 GLN A   1      -9.924   8.285  68.881  1.00  0.00    -0.181 N  
ATOM     12  OE1 GLN A   1     -11.400   7.675  70.477  1.00  0.00    -0.274 OA 
ATOM     13 1HE2 GLN A   1      -9.835   9.164  69.390  1.00  0.00     0.000 HD 
ATOM     14 2HE2 GLN A   1      -9.408   8.084  68.024  1.00  0.00     0.000 HD 
ENDBRANCH   9  10
ENDBRANCH   8   9
ENDBRANCH   4   8
TORSDOF 3
ENDMDL
MODEL      182
REMARK 921   NORMALIZED FREE ENERGY PREDICTED BY IDOCK:   -2.18 KCAL/MOL
REMARK 922        TOTAL FREE ENERGY PREDICTED BY IDOCK:   -2.67 KCAL/MOL
REMARK 923 INTER-LIGAND FREE ENERGY PREDICTED BY IDOCK:   -2.52 KCAL/MOL
REMARK 924 INTRA-LIGAND FREE ENERGY PREDICTED BY IDOCK:   -0.15 KCAL/MOL
REMARK 927      BINDING AFFINITY PREDICTED BY RF-SCORE:    0.00 PKD
ROOT
ATOM      1  N   GLN A   1     -10.532   5.335  70.180  1.00  0.00    -0.286 NA 
ATOM      2  H1  GLN A   1     -10.666   4.382  69.844  1.00  0.00     0.000 HD 
ATOM      3  H2  GLN A   1     -10.724   5.424  71.178  1.00  0.00     0.000 HD 
ATOM      4  CA  GLN A   1     -11.361   6.277  69.357  1.00  0.00    -0.378 C  
ATOM      5  O   GLN A   1     -10.056   5.091  67.734  1.00  0.00    -0.159 OA 
ATOM      6  C   GLN A   1     -10.958   6.095  67.878  1.00  0.00    -0.304 C  
ATOM      7  OXT GLN A   1     -11.401   6.733  66.935  1.00  0.00    -0.318 OA 
ENDROOT
BRANCH   4   8
ATOM      8  CB  GLN A   1     -11.159   7.708  69.861  1.00  0.00    -0.160 C  
BRANCH   8   9
ATOM      9  CG  GLN A   1      -9.718   8.205  69.741  1.00  0.00    -0.173 C  
BRANCH   9  10
ATOM     10  CD  GLN A   1      -9.656   9.697  69.499  1.00  0.00    -0.198 C  
ATOM     11  NE2 GLN A   1      -8.556  10.301  70.032  1.00  0.00    -0.358 N  
ATOM     12  OE1 GLN A   1     -10.499  10.338  68.883  1.00  0.00    -0.188 OA 
ATOM     13 1HE2 GLN A   1      -8.515  11.306  69.868  1.00  0.00     0.000 HD 
ATOM     14 2HE2 GLN A   1      -7.839   9.791  70.548  1.00  0.00     0.000 HD 
ENDBRANCH   9  10
ENDBRANCH   8   9
ENDBRANCH   4   8
TORSDOF 3
ENDMDL
MODEL      183
REMARK 921   NORMALIZED FREE ENERGY PREDICTED BY IDOCK:   -2.18 KCAL/MOL
REMARK 922        TOTAL FREE ENERGY PREDICTED BY IDOCK:   -2.67 KCAL/MOL
REMARK 923 INTER-LIGAND FREE ENERGY PREDICTED BY IDOCK:   -2.39 KCAL/MOL
REMARK 924 INTRA-LIGAND FREE ENERGY PREDICTED BY IDOCK:   -0.28 KCAL/MOL
REMARK 927      BINDING AFFINITY PREDICTED BY RF-SCORE:    0.00 PKD
ROOT
ATOM      1  N   GLN A   1      -7.802   3.422  68.345  1.00  0.00    -0.059 NA 
ATOM      2  H1  GLN A   1      -7.498   2.826  69.116  1.00  0.00     0.000 HD 
ATOM      3  H2  GLN A   1      -7.039   3.646  67.706  1.00  0.00     0.000 HD 
ATOM      4  CA  GLN A   1      -8.460   4.653  68.896  1.00  0.00    -0.080 C  
ATOM      5  O   GLN A   1      -9.659   2.850  69.924  1.00  0.00    -0.136 OA 
ATOM      6  C   GLN A   1      -9.623   4.202  69.807  1.00  0.00    -0.211 C  
ATOM      7  OXT GLN A   1     -10.402   4.942  70.387  1.00  0.00    -0.246 OA 
ENDROOT
BRANCH   4   8
ATOM      8  CB  GLN A   1      -8.916   5.547  67.742  1.00  0.00    -0.108 C  
BRANCH   8   9
ATOM      9  CG  GLN A   1     -10.246   5.119  67.119  1.00  0.00    -0.254 C  
BRANCH   9  10
ATOM     10  CD  GLN A   1     -10.046   4.414  65.795  1.00  0.00    -0.245 C  
ATOM     11  NE2 GLN A   1     -11.168   4.357  65.022  1.00  0.00    -0.928 N  
ATOM     12  OE1 GLN A   1      -8.987   3.927  65.419  1.00  0.00    -0.122 OA 
ATOM     13 1HE2 GLN A   1     -11.033   3.882  64.130  1.00  0.00     0.000 HD 
ATOM     14 2HE2 GLN A   1     -12.062   4.755  65.311  1.00  0.00     0.000 HD 
ENDBRANCH   9  10
ENDBRANCH   8   9
ENDBRANCH   4   8
TORSDOF 3
ENDMDL
MODEL      184
REMARK 921   NORMALIZED FREE ENERGY PREDICTED BY IDOCK:   -2.17 KCAL/MOL
REMARK 922        TOTAL FREE ENERGY PREDICTED BY IDOCK:   -2.66 KCAL/MOL
REMARK 923 INTER-LIGAND FREE ENERGY PREDICTED BY IDOCK:   -2.43 KCAL/MOL
REMARK 924 INTRA-LIGAND FREE ENERGY PREDICTED BY IDOCK:   -0.23 KCAL/MOL
REMARK 927      BINDING AFFINITY PREDICTED BY RF-SCORE:    0.00 PKD
ROOT
ATOM      1  N   GLN A   1     -11.478   6.341  70.432  1.00  0.00    -0.373 NA 
ATOM      2  H1  GLN A   1     -11.939   6.714  69.602  1.00  0.00     0.000 HD 
ATOM      3  H2  GLN A   1     -11.413   5.323  70.413  1.00  0.00     0.000 HD 
ATOM      4  CA  GLN A   1     -12.179   6.842  71.660  1.00  0.00    -0.361 C  
ATOM      5  O   GLN A   1     -11.641   8.839  70.448  1.00  0.00    -0.213 OA 
ATOM      6  C   GLN A   1     -12.178   8.386  71.610  1.00  0.00    -0.315 C  
ATOM      7  OXT GLN A   1     -12.626   9.127  72.470  1.00  0.00    -0.341 OA 
ENDROOT
BRANCH   4   8
ATOM      8  CB  GLN A   1     -11.487   6.284  72.906  1.00  0.00    -0.126 C  
BRANCH   8   9
ATOM      9  CG  GLN A   1     -10.009   5.953  72.693  1.00  0.00    -0.195 C  
BRANCH   9  10
ATOM     10  CD  GLN A   1      -9.104   6.953  73.378  1.00  0.00    -0.136 C  
ATOM     11  NE2 GLN A   1      -8.038   6.391  74.016  1.00  0.00    -0.107 N  
ATOM     12  OE1 GLN A   1      -9.281   8.166  73.380  1.00  0.00    -0.265 OA 
ATOM     13 1HE2 GLN A   1      -7.429   7.066  74.478  1.00  0.00     0.000 HD 
ATOM     14 2HE2 GLN A   1      -7.866   5.386  74.030  1.00  0.00     0.000 HD 
ENDBRANCH   9  10
ENDBRANCH   8   9
ENDBRANCH   4   8
TORSDOF 3
ENDMDL
MODEL      185
REMARK 921   NORMALIZED FREE ENERGY PREDICTED BY IDOCK:   -2.13 KCAL/MOL
REMARK 922        TOTAL FREE ENERGY PREDICTED BY IDOCK:   -2.62 KCAL/MOL
REMARK 923 INTER-LIGAND FREE ENERGY PREDICTED BY IDOCK:   -2.48 KCAL/MOL
REMARK 924 INTRA-LIGAND FREE ENERGY PREDICTED BY IDOCK:   -0.14 KCAL/MOL
REMARK 927      BINDING AFFINITY PREDICTED BY RF-SCORE:    0.00 PKD
ROOT
ATOM      1  N   GLN A   1      -7.005  13.623  69.731  1.00  0.00    -0.340 NA 
ATOM      2  H1  GLN A   1      -6.222  13.912  70.319  1.00  0.00     0.000 HD 
ATOM      3  H2  GLN A   1      -7.329  12.682  69.955  1.00  0.00     0.000 HD 
ATOM      4  CA  GLN A   1      -6.623  13.763  68.287  1.00  0.00    -0.109 C  
ATOM      5  O   GLN A   1      -6.196  15.934  69.208  1.00  0.00    -0.129 OA 
ATOM      6  C   GLN A   1      -6.196  15.228  68.049  1.00  0.00    -0.144 C  
ATOM      7  OXT GLN A   1      -5.864  15.707  66.977  1.00  0.00    -0.294 OA 
ENDROOT
BRANCH   4   8
ATOM      8  CB  GLN A   1      -7.797  13.330  67.405  1.00  0.00    -0.159 C  
BRANCH   8   9
ATOM      9  CG  GLN A   1      -9.161  13.781  67.931  1.00  0.00    -0.193 C  
BRANCH   9  10
ATOM     10  CD  GLN A   1     -10.164  13.958  66.813  1.00  0.00    -0.268 C  
ATOM     11  NE2 GLN A   1      -9.603  14.067  65.575  1.00  0.00    -0.536 N  
ATOM     12  OE1 GLN A   1     -11.378  14.004  66.969  1.00  0.00    -0.306 OA 
ATOM     13 1HE2 GLN A   1     -10.279  14.186  64.822  1.00  0.00     0.000 HD 
ATOM     14 2HE2 GLN A   1      -8.595  14.031  65.418  1.00  0.00     0.000 HD 
ENDBRANCH   9  10
ENDBRANCH   8   9
ENDBRANCH   4   8
TORSDOF 3
ENDMDL
MODEL      186
REMARK 921   NORMALIZED FREE ENERGY PREDICTED BY IDOCK:   -2.13 KCAL/MOL
REMARK 922        TOTAL FREE ENERGY PREDICTED BY IDOCK:   -2.61 KCAL/MOL
REMARK 923 INTER-LIGAND FREE ENERGY PREDICTED BY IDOCK:   -2.51 KCAL/MOL
REMARK 924 INTRA-LIGAND FREE ENERGY PREDICTED BY IDOCK:   -0.10 KCAL/MOL
REMARK 927      BINDING AFFINITY PREDICTED BY RF-SCORE:    0.00 PKD
ROOT
ATOM      1  N   GLN A   1      -7.732   9.068  67.557  1.00  0.00    -0.096 NA 
ATOM      2  H1  GLN A   1      -6.738   9.165  67.349  1.00  0.00     0.000 HD 
ATOM      3  H2  GLN A   1      -7.898   8.506  68.392  1.00  0.00     0.000 HD 
ATOM      4  CA  GLN A   1      -8.443   8.520  66.354  1.00  0.00    -0.117 C  
ATOM      5  O   GLN A   1      -7.297  10.452  65.516  1.00  0.00    -0.145 OA 
ATOM      6  C   GLN A   1      -8.164   9.468  65.167  1.00  0.00    -0.133 C  
ATOM      7  OXT GLN A   1      -8.621   9.352  64.041  1.00  0.00    -0.188 OA 
ENDROOT
BRANCH   4   8
ATOM      8  CB  GLN A   1      -9.934   8.374  66.666  1.00  0.00    -0.354 C  
BRANCH   8   9
ATOM      9  CG  GLN A   1     -10.223   7.938  68.103  1.00  0.00    -0.248 C  
BRANCH   9  10
ATOM     10  CD  GLN A   1     -10.965   6.621  68.153  1.00  0.00    -0.243 C  
ATOM     11  NE2 GLN A   1     -11.523   6.253  66.965  1.00  0.00    -0.639 N  
ATOM     12  OE1 GLN A   1     -11.076   5.922  69.153  1.00  0.00    -0.351 OA 
ATOM     13 1HE2 GLN A   1     -12.024   5.365  66.999  1.00  0.00     0.000 HD 
ATOM     14 2HE2 GLN A   1     -11.446   6.815  66.117  1.00  0.00     0.000 HD 
ENDBRANCH   9  10
ENDBRANCH   8   9
ENDBRANCH   4   8
TORSDOF 3
ENDMDL
MODEL      187
REMARK 921   NORMALIZED FREE ENERGY PREDICTED BY IDOCK:   -2.09 KCAL/MOL
REMARK 922        TOTAL FREE ENERGY PREDICTED BY IDOCK:   -2.57 KCAL/MOL
REMARK 923 INTER-LIGAND FREE ENERGY PREDICTED BY IDOCK:   -2.14 KCAL/MOL
REMARK 924 INTRA-LIGAND FREE ENERGY PREDICTED BY IDOCK:   -0.42 KCAL/MOL
REMARK 927      BINDING AFFINITY PREDICTED BY RF-SCORE:    0.00 PKD
ROOT
ATOM      1  N   GLN A   1     -10.560  11.647  68.044  1.00  0.00    -0.194 NA 
ATOM      2  H1  GLN A   1     -10.213  11.411  68.974  1.00  0.00     0.000 HD 
ATOM      3  H2  GLN A   1     -11.510  11.311  67.889  1.00  0.00     0.000 HD 
ATOM      4  CA  GLN A   1      -9.602  11.135  67.009  1.00  0.00    -0.181 C  
ATOM      5  O   GLN A   1      -8.231  12.472  68.452  1.00  0.00    -0.161 OA 
ATOM      6  C   GLN A   1      -8.213  11.741  67.308  1.00  0.00    -0.163 C  
ATOM      7  OXT GLN A   1      -7.204  11.573  66.641  1.00  0.00    -0.132 OA 
ENDROOT
BRANCH   4   8
ATOM      8  CB  GLN A   1     -10.121  11.488  65.614  1.00  0.00    -0.278 C  
BRANCH   8   9
ATOM      9  CG  GLN A   1      -9.982  10.353  64.599  1.00  0.00    -0.408 C  
BRANCH   9  10
ATOM     10  CD  GLN A   1      -8.801  10.562  63.678  1.00  0.00    -0.203 C  
ATOM     11  NE2 GLN A   1      -7.672   9.902  64.066  1.00  0.00    -0.137 N  
ATOM     12  OE1 GLN A   1      -8.819  11.253  62.667  1.00  0.00    -0.287 OA 
ATOM     13 1HE2 GLN A   1      -6.876  10.043  63.445  1.00  0.00     0.000 HD 
ATOM     14 2HE2 GLN A   1      -7.629   9.320  64.902  1.00  0.00     0.000 HD 
ENDBRANCH   9  10
ENDBRANCH   8   9
ENDBRANCH   4   8
TORSDOF 3
ENDMDL
MODEL      188
REMARK 921   NORMALIZED FREE ENERGY PREDICTED BY IDOCK:   -2.09 KCAL/MOL
REMARK 922        TOTAL FREE ENERGY PREDICTED BY IDOCK:   -2.57 KCAL/MOL
REMARK 923 INTER-LIGAND FREE ENERGY PREDICTED BY IDOCK:   -2.43 KCAL/MOL
REMARK 924 INTRA-LIGAND FREE ENERGY PREDICTED BY IDOCK:   -0.14 KCAL/MOL
REMARK 927      BINDING AFFINITY PREDICTED BY RF-SCORE:    0.00 PKD
ROOT
ATOM      1  N   GLN A   1     -10.201   9.621  65.753  1.00  0.00    -0.229 NA 
ATOM      2  H1  GLN A   1     -11.069   9.872  65.277  1.00  0.00     0.000 HD 
ATOM      3  H2  GLN A   1      -9.830   8.727  65.433  1.00  0.00     0.000 HD 
ATOM      4  CA  GLN A   1     -10.420   9.646  67.237  1.00  0.00    -0.258 C  
ATOM      5  O   GLN A   1     -11.128  11.820  66.514  1.00  0.00    -0.286 OA 
ATOM      6  C   GLN A   1     -10.934  11.052  67.617  1.00  0.00    -0.275 C  
ATOM      7  OXT GLN A   1     -11.175  11.440  68.749  1.00  0.00    -0.204 OA 
ENDROOT
BRANCH   4   8
ATOM      8  CB  GLN A   1      -9.120   9.270  67.950  1.00  0.00    -0.133 C  
BRANCH   8   9
ATOM      9  CG  GLN A   1      -9.320   8.816  69.397  1.00  0.00    -0.157 C  
BRANCH   9  10
ATOM     10  CD  GLN A   1      -8.390   9.538  70.347  1.00  0.00    -0.192 C  
ATOM     11  NE2 GLN A   1      -7.905  10.716  69.862  1.00  0.00    -0.356 N  
ATOM     12  OE1 GLN A   1      -8.079   9.131  71.460  1.00  0.00    -0.337 OA 
ATOM     13 1HE2 GLN A   1      -7.279  11.202  70.502  1.00  0.00     0.000 HD 
ATOM     14 2HE2 GLN A   1      -8.148  11.078  68.939  1.00  0.00     0.000 HD 
ENDBRANCH   9  10
ENDBRANCH   8   9
ENDBRANCH   4   8
TORSDOF 3
ENDMDL
MODEL      189
REMARK 921   NORMALIZED FREE ENERGY PREDICTED BY IDOCK:   -2.07 KCAL/MOL
REMARK 922        TOTAL FREE ENERGY PREDICTED BY IDOCK:   -2.55 KCAL/MOL
REMARK 923 INTER-LIGAND FREE ENERGY PREDICTED BY IDOCK:   -2.15 KCAL/MOL
REMARK 924 INTRA-LIGAND FREE ENERGY PREDICTED BY IDOCK:   -0.40 KCAL/MOL
REMARK 927      BINDING AFFINITY PREDICTED BY RF-SCORE:    0.00 PKD
ROOT
ATOM      1  N   GLN A   1      -8.384   5.577  68.372  1.00  0.00    -0.098 NA 
ATOM      2  H1  GLN A   1      -7.733   6.012  67.718  1.00  0.00     0.000 HD 
ATOM      3  H2  GLN A   1      -8.544   4.592  68.161  1.00  0.00     0.000 HD 
ATOM      4  CA  GLN A   1      -9.661   6.365  68.405  1.00  0.00    -0.125 C  
ATOM      5  O   GLN A   1      -7.966   7.994  68.877  1.00  0.00    -0.114 OA 
ATOM      6  C   GLN A   1      -9.309   7.822  68.779  1.00  0.00    -0.146 C  
ATOM      7  OXT GLN A   1     -10.110   8.729  68.938  1.00  0.00    -0.187 OA 
ENDROOT
BRANCH   4   8
ATOM      8  CB  GLN A   1     -10.637   5.714  69.386  1.00  0.00    -0.374 C  
BRANCH   8   9
ATOM      9  CG  GLN A   1     -10.178   5.774  70.843  1.00  0.00    -0.275 C  
BRANCH   9  10
ATOM     10  CD  GLN A   1     -11.165   6.517  71.715  1.00  0.00    -0.269 C  
ATOM     11  NE2 GLN A   1     -11.930   7.421  71.040  1.00  0.00    -0.333 N  
ATOM     12  OE1 GLN A   1     -11.292   6.349  72.922  1.00  0.00    -0.225 OA 
ATOM     13 1HE2 GLN A   1     -12.596   7.922  71.628  1.00  0.00     0.000 HD 
ATOM     14 2HE2 GLN A   1     -11.845   7.580  70.036  1.00  0.00     0.000 HD 
ENDBRANCH   9  10
ENDBRANCH   8   9
ENDBRANCH   4   8
TORSDOF 3
ENDMDL
MODEL      190
REMARK 921   NORMALIZED FREE ENERGY PREDICTED BY IDOCK:   -2.06 KCAL/MOL
REMARK 922        TOTAL FREE ENERGY PREDICTED BY IDOCK:   -2.53 KCAL/MOL
REMARK 923 INTER-LIGAND FREE ENERGY PREDICTED BY IDOCK:   -2.34 KCAL/MOL
REMARK 924 INTRA-LIGAND FREE ENERGY PREDICTED BY IDOCK:   -0.19 KCAL/MOL
REMARK 927      BINDING AFFINITY PREDICTED BY RF-SCORE:    0.00 PKD
ROOT
ATOM      1  N   GLN A   1     -10.654   7.282  72.568  1.00  0.00    -0.230 NA 
ATOM      2  H1  GLN A   1     -11.292   7.044  73.327  1.00  0.00     0.000 HD 
ATOM      3  H2  GLN A   1      -9.698   6.985  72.759  1.00  0.00     0.000 HD 
ATOM      4  CA  GLN A   1     -10.745   8.753  72.284  1.00  0.00    -0.252 C  
ATOM      5  O   GLN A   1     -13.013   7.994  72.118  1.00  0.00    -0.294 OA 
ATOM      6  C   GLN A   1     -12.218   9.084  71.962  1.00  0.00    -0.375 C  
ATOM      7  OXT GLN A   1     -12.648  10.181  71.641  1.00  0.00    -0.381 OA 
ENDROOT
BRANCH   4   8
ATOM      8  CB  GLN A   1      -9.788   9.112  71.144  1.00  0.00    -0.371 C  
BRANCH   8   9
ATOM      9  CG  GLN A   1      -9.470   7.939  70.215  1.00  0.00    -0.163 C  
BRANCH   9  10
ATOM     10  CD  GLN A   1      -8.041   7.467  70.374  1.00  0.00    -0.108 C  
ATOM     11  NE2 GLN A   1      -7.465   7.830  71.555  1.00  0.00    -0.074 N  
ATOM     12  OE1 GLN A   1      -7.427   6.815  69.538  1.00  0.00    -0.088 OA 
ATOM     13 1HE2 GLN A   1      -6.502   7.512  71.661  1.00  0.00     0.000 HD 
ATOM     14 2HE2 GLN A   1      -7.954   8.372  72.268  1.00  0.00     0.000 HD 
ENDBRANCH   9  10
ENDBRANCH   8   9
ENDBRANCH   4   8
TORSDOF 3
ENDMDL
MODEL      191
REMARK 921   NORMALIZED FREE ENERGY PREDICTED BY IDOCK:   -1.99 KCAL/MOL
REMARK 922        TOTAL FREE ENERGY PREDICTED BY IDOCK:   -2.46 KCAL/MOL
REMARK 923 INTER-LIGAND FREE ENERGY PREDICTED BY IDOCK:   -2.09 KCAL/MOL
REMARK 924 INTRA-LIGAND FREE ENERGY PREDICTED BY IDOCK:   -0.36 KCAL/MOL
REMARK 927      BINDING AFFINITY PREDICTED BY RF-SCORE:    0.00 PKD
ROOT
ATOM      1  N   GLN A   1      -9.473   8.204  71.331  1.00  0.00    -0.157 NA 
ATOM      2  H1  GLN A   1      -8.722   8.718  70.870  1.00  0.00     0.000 HD 
ATOM      3  H2  GLN A   1     -10.396   8.512  71.026  1.00  0.00     0.000 HD 
ATOM      4  CA  GLN A   1      -9.305   8.301  72.819  1.00  0.00    -0.268 C  
ATOM      5  O   GLN A   1      -7.196   7.457  72.055  1.00  0.00    -0.066 OA 
ATOM      6  C   GLN A   1      -7.900   7.767  73.173  1.00  0.00    -0.122 C  
ATOM      7  OXT GLN A   1      -7.443   7.659  74.300  1.00  0.00    -0.119 OA 
ENDROOT
BRANCH   4   8
ATOM      8  CB  GLN A   1     -10.431   7.529  73.510  1.00  0.00    -0.362 C  
BRANCH   8   9
ATOM      9  CG  GLN A   1     -11.288   6.700  72.552  1.00  0.00    -0.290 C  
BRANCH   9  10
ATOM     10  CD  GLN A   1     -10.861   5.250  72.526  1.00  0.00    -0.245 C  
ATOM     11  NE2 GLN A   1      -9.930   4.963  71.573  1.00  0.00    -0.186 N  
ATOM     12  OE1 GLN A   1     -11.292   4.384  73.279  1.00  0.00    -0.279 OA 
ATOM     13 1HE2 GLN A   1      -9.642   3.985  71.556  1.00  0.00     0.000 HD 
ATOM     14 2HE2 GLN A   1      -9.554   5.664  70.935  1.00  0.00     0.000 HD 
ENDBRANCH   9  10
ENDBRANCH   8   9
ENDBRANCH   4   8
TORSDOF 3
ENDMDL
MODEL      192
REMARK 921   NORMALIZED FREE ENERGY PREDICTED BY IDOCK:   -1.94 KCAL/MOL
REMARK 922        TOTAL FREE ENERGY PREDICTED BY IDOCK:   -2.39 KCAL/MOL
REMARK 923 INTER-LIGAND FREE ENERGY PREDICTED BY IDOCK:   -2.58 KCAL/MOL
REMARK 924 INTRA-LIGAND FREE ENERGY PREDICTED BY IDOCK:    0.20 KCAL/MOL
REMARK 927      BINDING AFFINITY PREDICTED BY RF-SCORE:    0.00 PKD
ROOT
ATOM      1  N   GLN A   1      -8.753   6.909  69.195  1.00  0.00    -0.135 NA 
ATOM      2  H1  GLN A   1      -8.087   6.383  69.761  1.00  0.00     0.000 HD 
ATOM      3  H2  GLN A   1      -8.294   7.596  68.596  1.00  0.00     0.000 HD 
ATOM      4  CA  GLN A   1      -9.784   7.534  70.089  1.00  0.00    -0.172 C  
ATOM      5  O   GLN A   1      -9.855   5.209  70.666  1.00  0.00    -0.177 OA 
ATOM      6  C   GLN A   1     -10.445   6.407  70.910  1.00  0.00    -0.228 C  
ATOM      7  OXT GLN A   1     -11.358   6.549  71.708  1.00  0.00    -0.254 OA 
ENDROOT
BRANCH   4   8
ATOM      8  CB  GLN A   1     -10.783   8.322  69.240  1.00  0.00    -0.140 C  
BRANCH   8   9
ATOM      9  CG  GLN A   1     -10.246   8.718  67.864  1.00  0.00    -0.272 C  
BRANCH   9  10
ATOM     10  CD  GLN A   1     -10.238   7.548  66.905  1.00  0.00    -0.289 C  
ATOM     11  NE2 GLN A   1     -11.363   6.780  66.957  1.00  0.00    -0.778 N  
ATOM     12  OE1 GLN A   1      -9.321   7.284  66.137  1.00  0.00    -0.141 OA 
ATOM     13 1HE2 GLN A   1     -11.357   5.991  66.311  1.00  0.00     0.000 HD 
ATOM     14 2HE2 GLN A   1     -12.141   6.977  67.586  1.00  0.00     0.000 HD 
ENDBRANCH   9  10
ENDBRANCH   8   9
ENDBRANCH   4   8
TORSDOF 3
ENDMDL
MODEL      193
REMARK 921   NORMALIZED FREE ENERGY PREDICTED BY IDOCK:   -1.93 KCAL/MOL
REMARK 922        TOTAL FREE ENERGY PREDICTED BY IDOCK:   -2.38 KCAL/MOL
REMARK 923 INTER-LIGAND FREE ENERGY PREDICTED BY IDOCK:   -2.44 KCAL/MOL
REMARK 924 INTRA-LIGAND FREE ENERGY PREDICTED BY IDOCK:    0.06 KCAL/MOL
REMARK 927      BINDING AFFINITY PREDICTED BY RF-SCORE:    0.00 PKD
ROOT
ATOM      1  N   GLN A   1     -11.044   5.993  70.407  1.00  0.00    -0.334 NA 
ATOM      2  H1  GLN A   1     -11.306   6.502  69.562  1.00  0.00     0.000 HD 
ATOM      3  H2  GLN A   1     -11.056   4.982  70.267  1.00  0.00     0.000 HD 
ATOM      4  CA  GLN A   1     -11.928   6.419  71.542  1.00  0.00    -0.273 C  
ATOM      5  O   GLN A   1     -11.013   8.477  70.720  1.00  0.00    -0.235 OA 
ATOM      6  C   GLN A   1     -11.799   7.950  71.694  1.00  0.00    -0.288 C  
ATOM      7  OXT GLN A   1     -12.346   8.630  72.548  1.00  0.00    -0.390 OA 
ENDROOT
BRANCH   4   8
ATOM      8  CB  GLN A   1     -11.535   5.656  72.808  1.00  0.00    -0.328 C  
BRANCH   8   9
ATOM      9  CG  GLN A   1     -10.025   5.499  72.989  1.00  0.00    -0.196 C  
BRANCH   9  10
ATOM     10  CD  GLN A   1      -9.488   4.306  72.230  1.00  0.00    -0.132 C  
ATOM     11  NE2 GLN A   1      -8.236   4.490  71.722  1.00  0.00    -0.101 N  
ATOM     12  OE1 GLN A   1     -10.094   3.254  72.068  1.00  0.00    -0.165 OA 
ATOM     13 1HE2 GLN A   1      -7.875   3.685  71.210  1.00  0.00     0.000 HD 
ATOM     14 2HE2 GLN A   1      -7.709   5.355  71.843  1.00  0.00     0.000 HD 
ENDBRANCH   9  10
ENDBRANCH   8   9
ENDBRANCH   4   8
TORSDOF 3
ENDMDL
MODEL      194
REMARK 921   NORMALIZED FREE ENERGY PREDICTED BY IDOCK:   -1.93 KCAL/MOL
REMARK 922        TOTAL FREE ENERGY PREDICTED BY IDOCK:   -2.38 KCAL/MOL
REMARK 923 INTER-LIGAND FREE ENERGY PREDICTED BY IDOCK:   -2.28 KCAL/MOL
REMARK 924 INTRA-LIGAND FREE ENERGY PREDICTED BY IDOCK:   -0.09 KCAL/MOL
REMARK 927      BINDING AFFINITY PREDICTED BY RF-SCORE:    0.00 PKD
ROOT
ATOM      1  N   GLN A   1      -9.713  10.377  67.410  1.00  0.00    -0.161 NA 
ATOM      2  H1  GLN A   1      -9.811  11.234  67.955  1.00  0.00     0.000 HD 
ATOM      3  H2  GLN A   1      -9.800  10.545  66.408  1.00  0.00     0.000 HD 
ATOM      4  CA  GLN A   1     -10.699   9.358  67.902  1.00  0.00    -0.210 C  
ATOM      5  O   GLN A   1      -9.494   9.993  69.875  1.00  0.00    -0.225 OA 
ATOM      6  C   GLN A   1     -10.450   9.147  69.411  1.00  0.00    -0.219 C  
ATOM      7  OXT GLN A   1     -11.042   8.355  70.126  1.00  0.00    -0.245 OA 
ENDROOT
BRANCH   4   8
ATOM      8  CB  GLN A   1     -10.554   8.073  67.084  1.00  0.00    -0.367 C  
BRANCH   8   9
ATOM      9  CG  GLN A   1      -9.215   7.954  66.356  1.00  0.00    -0.241 C  
BRANCH   9  10
ATOM     10  CD  GLN A   1      -8.750   6.518  66.263  1.00  0.00    -0.144 C  
ATOM     11  NE2 GLN A   1      -8.813   5.995  65.005  1.00  0.00    -0.364 N  
ATOM     12  OE1 GLN A   1      -8.347   5.853  67.210  1.00  0.00    -0.106 OA 
ATOM     13 1HE2 GLN A   1      -8.500   5.027  64.942  1.00  0.00     0.000 HD 
ATOM     14 2HE2 GLN A   1      -9.144   6.526  64.199  1.00  0.00     0.000 HD 
ENDBRANCH   9  10
ENDBRANCH   8   9
ENDBRANCH   4   8
TORSDOF 3
ENDMDL
MODEL      195
REMARK 921   NORMALIZED FREE ENERGY PREDICTED BY IDOCK:   -1.91 KCAL/MOL
REMARK 922        TOTAL FREE ENERGY PREDICTED BY IDOCK:   -2.36 KCAL/MOL
REMARK 923 INTER-LIGAND FREE ENERGY PREDICTED BY IDOCK:   -2.71 KCAL/MOL
REMARK 924 INTRA-LIGAND FREE ENERGY PREDICTED BY IDOCK:    0.36 KCAL/MOL
REMARK 927      BINDING AFFINITY PREDICTED BY RF-SCORE:    0.00 PKD
ROOT
ATOM      1  N   GLN A   1     -11.382  13.690  68.119  1.00  0.00    -0.271 NA 
ATOM      2  H1  GLN A   1     -11.433  13.445  69.108  1.00  0.00     0.000 HD 
ATOM      3  H2  GLN A   1     -11.709  12.935  67.517  1.00  0.00     0.000 HD 
ATOM      4  CA  GLN A   1      -9.985  14.121  67.781  1.00  0.00    -0.235 C  
ATOM      5  O   GLN A   1     -10.595  15.534  69.619  1.00  0.00    -0.241 OA 
ATOM      6  C   GLN A   1      -9.611  15.293  68.714  1.00  0.00    -0.214 C  
ATOM      7  OXT GLN A   1      -8.563  15.918  68.688  1.00  0.00    -0.176 OA 
ENDROOT
BRANCH   4   8
ATOM      8  CB  GLN A   1      -9.909  14.488  66.298  1.00  0.00    -0.322 C  
BRANCH   8   9
ATOM      9  CG  GLN A   1      -9.483  15.935  66.043  1.00  0.00    -0.389 C  
BRANCH   9  10
ATOM     10  CD  GLN A   1     -10.634  16.781  65.543  1.00  0.00    -0.230 C  
ATOM     11  NE2 GLN A   1     -11.447  16.142  64.655  1.00  0.00    -0.413 N  
ATOM     12  OE1 GLN A   1     -10.846  17.938  65.884  1.00  0.00    -0.223 OA 
ATOM     13 1HE2 GLN A   1     -12.222  16.712  64.318  1.00  0.00     0.000 HD 
ATOM     14 2HE2 GLN A   1     -11.293  15.179  64.354  1.00  0.00     0.000 HD 
ENDBRANCH   9  10
ENDBRANCH   8   9
ENDBRANCH   4   8
TORSDOF 3
ENDMDL
MODEL      196
REMARK 921   NORMALIZED FREE ENERGY PREDICTED BY IDOCK:   -1.91 KCAL/MOL
REMARK 922        TOTAL FREE ENERGY PREDICTED BY IDOCK:   -2.35 KCAL/MOL
REMARK 923 INTER-LIGAND FREE ENERGY PREDICTED BY IDOCK:   -2.20 KCAL/MOL
REMARK 924 INTRA-LIGAND FREE ENERGY PREDICTED BY IDOCK:   -0.15 KCAL/MOL
REMARK 927      BINDING AFFINITY PREDICTED BY RF-SCORE:    0.00 PKD
ROOT
ATOM      1  N   GLN A   1      -7.404   2.729  68.319  1.00  0.00    -0.049 NA 
ATOM      2  H1  GLN A   1      -6.626   2.572  68.960  1.00  0.00     0.000 HD 
ATOM      3  H2  GLN A   1      -7.089   3.007  67.390  1.00  0.00     0.000 HD 
ATOM      4  CA  GLN A   1      -8.351   3.728  68.919  1.00  0.00    -0.073 C  
ATOM      5  O   GLN A   1      -8.153   2.036  70.606  1.00  0.00    -0.041 OA 
ATOM      6  C   GLN A   1      -8.800   3.188  70.294  1.00  0.00    -0.083 C  
ATOM      7  OXT GLN A   1      -9.605   3.723  71.041  1.00  0.00    -0.157 OA 
ENDROOT
BRANCH   4   8
ATOM      8  CB  GLN A   1      -9.518   3.964  67.958  1.00  0.00    -0.221 C  
BRANCH   8   9
ATOM      9  CG  GLN A   1      -9.578   5.387  67.400  1.00  0.00    -0.139 C  
BRANCH   9  10
ATOM     10  CD  GLN A   1     -10.842   6.104  67.820  1.00  0.00    -0.325 C  
ATOM     11  NE2 GLN A   1     -11.529   6.669  66.786  1.00  0.00    -0.727 N  
ATOM     12  OE1 GLN A   1     -11.244   6.188  68.974  1.00  0.00    -0.383 OA 
ATOM     13 1HE2 GLN A   1     -12.381   7.152  67.069  1.00  0.00     0.000 HD 
ATOM     14 2HE2 GLN A   1     -11.217   6.613  65.817  1.00  0.00     0.000 HD 
ENDBRANCH   9  10
ENDBRANCH   8   9
ENDBRANCH   4   8
TORSDOF 3
ENDMDL
MODEL      197
REMARK 921   NORMALIZED FREE ENERGY PREDICTED BY IDOCK:   -1.88 KCAL/MOL
REMARK 922        TOTAL FREE ENERGY PREDICTED BY IDOCK:   -2.32 KCAL/MOL
REMARK 923 INTER-LIGAND FREE ENERGY PREDICTED BY IDOCK:   -2.11 KCAL/MOL
REMARK 924 INTRA-LIGAND FREE ENERGY PREDICTED BY IDOCK:   -0.21 KCAL/MOL
REMARK 927      BINDING AFFINITY PREDICTED BY RF-SCORE:    0.00 PKD
ROOT
ATOM      1  N   GLN A   1     -11.078  11.928  66.143  1.00  0.00    -0.316 NA 
ATOM      2  H1  GLN A   1     -12.036  12.193  65.913  1.00  0.00     0.000 HD 
ATOM      3  H2  GLN A   1     -10.868  10.967  65.874  1.00  0.00     0.000 HD 
ATOM      4  CA  GLN A   1     -10.830  12.175  67.603  1.00  0.00    -0.233 C  
ATOM      5  O   GLN A   1     -11.617  14.287  66.786  1.00  0.00    -0.356 OA 
ATOM      6  C   GLN A   1     -11.132  13.662  67.889  1.00  0.00    -0.261 C  
ATOM      7  OXT GLN A   1     -10.995  14.222  68.966  1.00  0.00    -0.247 OA 
ENDROOT
BRANCH   4   8
ATOM      8  CB  GLN A   1      -9.393  11.778  67.949  1.00  0.00    -0.184 C  
BRANCH   8   9
ATOM      9  CG  GLN A   1      -8.334  12.533  67.145  1.00  0.00    -0.179 C  
BRANCH   9  10
ATOM     10  CD  GLN A   1      -7.414  13.335  68.038  1.00  0.00    -0.138 C  
ATOM     11  NE2 GLN A   1      -6.787  14.367  67.406  1.00  0.00    -0.201 N  
ATOM     12  OE1 GLN A   1      -7.225  13.106  69.227  1.00  0.00     0.005 OA 
ATOM     13 1HE2 GLN A   1      -6.167  14.907  68.008  1.00  0.00     0.000 HD 
ATOM     14 2HE2 GLN A   1      -6.927  14.580  66.418  1.00  0.00     0.000 HD 
ENDBRANCH   9  10
ENDBRANCH   8   9
ENDBRANCH   4   8
TORSDOF 3
ENDMDL
MODEL      198
REMARK 921   NORMALIZED FREE ENERGY PREDICTED BY IDOCK:   -1.86 KCAL/MOL
REMARK 922        TOTAL FREE ENERGY PREDICTED BY IDOCK:   -2.30 KCAL/MOL
REMARK 923 INTER-LIGAND FREE ENERGY PREDICTED BY IDOCK:   -2.03 KCAL/MOL
REMARK 924 INTRA-LIGAND FREE ENERGY PREDICTED BY IDOCK:   -0.26 KCAL/MOL
REMARK 927      BINDING AFFINITY PREDICTED BY RF-SCORE:    0.00 PKD
ROOT
ATOM      1  N   GLN A   1      -7.498   5.194  66.391  1.00  0.00    -0.086 NA 
ATOM      2  H1  GLN A   1      -7.073   5.641  67.204  1.00  0.00     0.000 HD 
ATOM      3  H2  GLN A   1      -6.996   4.353  66.106  1.00  0.00     0.000 HD 
ATOM      4  CA  GLN A   1      -7.612   6.192  65.276  1.00  0.00    -0.089 C  
ATOM      5  O   GLN A   1      -8.718   7.257  67.117  1.00  0.00    -0.119 OA 
ATOM      6  C   GLN A   1      -8.425   7.396  65.799  1.00  0.00    -0.143 C  
ATOM      7  OXT GLN A   1      -8.748   8.376  65.145  1.00  0.00    -0.162 OA 
ENDROOT
BRANCH   4   8
ATOM      8  CB  GLN A   1      -8.250   5.523  64.057  1.00  0.00    -0.117 C  
BRANCH   8   9
ATOM      9  CG  GLN A   1      -8.720   4.091  64.315  1.00  0.00    -0.118 C  
BRANCH   9  10
ATOM     10  CD  GLN A   1     -10.229   3.982  64.302  1.00  0.00    -0.182 C  
ATOM     11  NE2 GLN A   1     -10.836   4.557  65.378  1.00  0.00    -0.779 N  
ATOM     12  OE1 GLN A   1     -10.879   3.435  63.420  1.00  0.00    -0.240 OA 
ATOM     13 1HE2 GLN A   1     -11.853   4.484  65.369  1.00  0.00     0.000 HD 
ATOM     14 2HE2 GLN A   1     -10.319   5.020  66.126  1.00  0.00     0.000 HD 
ENDBRANCH   9  10
ENDBRANCH   8   9
ENDBRANCH   4   8
TORSDOF 3
ENDMDL
MODEL      199
REMARK 921   NORMALIZED FREE ENERGY PREDICTED BY IDOCK:   -1.84 KCAL/MOL
REMARK 922        TOTAL FREE ENERGY PREDICTED BY IDOCK:   -2.28 KCAL/MOL
REMARK 923 INTER-LIGAND FREE ENERGY PREDICTED BY IDOCK:   -2.21 KCAL/MOL
REMARK 924 INTRA-LIGAND FREE ENERGY PREDICTED BY IDOCK:   -0.07 KCAL/MOL
REMARK 927      BINDING AFFINITY PREDICTED BY RF-SCORE:    0.00 PKD
ROOT
ATOM      1  N   GLN A   1      -6.679   6.694  71.534  1.00  0.00    -0.060 NA 
ATOM      2  H1  GLN A   1      -5.726   7.046  71.634  1.00  0.00     0.000 HD 
ATOM      3  H2  GLN A   1      -6.882   6.398  70.579  1.00  0.00     0.000 HD 
ATOM      4  CA  GLN A   1      -7.648   7.730  72.025  1.00  0.00    -0.081 C  
ATOM      5  O   GLN A   1      -6.151   7.419  73.872  1.00  0.00    -0.066 OA 
ATOM      6  C   GLN A   1      -7.279   8.068  73.485  1.00  0.00    -0.131 C  
ATOM      7  OXT GLN A   1      -7.884   8.841  74.212  1.00  0.00    -0.402 OA 
ENDROOT
BRANCH   4   8
ATOM      8  CB  GLN A   1      -9.076   7.203  71.874  1.00  0.00    -0.144 C  
BRANCH   8   9
ATOM      9  CG  GLN A   1      -9.734   7.579  70.546  1.00  0.00    -0.179 C  
BRANCH   9  10
ATOM     10  CD  GLN A   1     -10.968   6.747  70.273  1.00  0.00    -0.291 C  
ATOM     11  NE2 GLN A   1     -11.378   6.772  68.973  1.00  0.00    -0.558 N  
ATOM     12  OE1 GLN A   1     -11.570   6.097  71.119  1.00  0.00    -0.300 OA 
ATOM     13 1HE2 GLN A   1     -12.210   6.211  68.790  1.00  0.00     0.000 HD 
ATOM     14 2HE2 GLN A   1     -10.895   7.303  68.249  1.00  0.00     0.000 HD 
ENDBRANCH   9  10
ENDBRANCH   8   9
ENDBRANCH   4   8
TORSDOF 3
ENDMDL
MODEL      200
REMARK 921   NORMALIZED FREE ENERGY PREDICTED BY IDOCK:   -1.84 KCAL/MOL
REMARK 922        TOTAL FREE ENERGY PREDICTED BY IDOCK:   -2.28 KCAL/MOL
REMARK 923 INTER-LIGAND FREE ENERGY PREDICTED BY IDOCK:   -2.19 KCAL/MOL
REMARK 924 INTRA-LIGAND FREE ENERGY PREDICTED BY IDOCK:   -0.09 KCAL/MOL
REMARK 927      BINDING AFFINITY PREDICTED BY RF-SCORE:    0.00 PKD
ROOT
ATOM      1  N   GLN A   1     -10.948   7.193  67.882  1.00  0.00    -0.487 NA 
ATOM      2  H1  GLN A   1     -11.095   6.925  66.908  1.00  0.00     0.000 HD 
ATOM      3  H2  GLN A   1     -11.766   7.005  68.462  1.00  0.00     0.000 HD 
ATOM      4  CA  GLN A   1     -10.525   8.631  67.946  1.00  0.00    -0.209 C  
ATOM      5  O   GLN A   1      -8.949   7.634  66.440  1.00  0.00    -0.153 OA 
ATOM      6  C   GLN A   1      -9.258   8.792  67.077  1.00  0.00    -0.142 C  
ATOM      7  OXT GLN A   1      -8.618   9.822  66.935  1.00  0.00    -0.123 OA 
ENDROOT
BRANCH   4   8
ATOM      8  CB  GLN A   1     -10.304   9.033  69.406  1.00  0.00    -0.217 C  
BRANCH   8   9
ATOM      9  CG  GLN A   1     -10.264   7.847  70.372  1.00  0.00    -0.197 C  
BRANCH   9  10
ATOM     10  CD  GLN A   1      -9.429   8.148  71.597  1.00  0.00    -0.177 C  
ATOM     11  NE2 GLN A   1      -9.429   7.150  72.527  1.00  0.00    -0.141 N  
ATOM     12  OE1 GLN A   1      -8.797   9.182  71.773  1.00  0.00    -0.341 OA 
ATOM     13 1HE2 GLN A   1      -8.867   7.353  73.353  1.00  0.00     0.000 HD 
ATOM     14 2HE2 GLN A   1      -9.946   6.279  72.405  1.00  0.00     0.000 HD 
ENDBRANCH   9  10
ENDBRANCH   8   9
ENDBRANCH   4   8
TORSDOF 3
ENDMDL
MODEL      201
REMARK 921   NORMALIZED FREE ENERGY PREDICTED BY IDOCK:   -1.82 KCAL/MOL
REMARK 922        TOTAL FREE ENERGY PREDICTED BY IDOCK:   -2.25 KCAL/MOL
REMARK 923 INTER-LIGAND FREE ENERGY PREDICTED BY IDOCK:   -2.06 KCAL/MOL
REMARK 924 INTRA-LIGAND FREE ENERGY PREDICTED BY IDOCK:   -0.19 KCAL/MOL
REMARK 927      BINDING AFFINITY PREDICTED BY RF-SCORE:    0.00 PKD
ROOT
ATOM      1  N   GLN A   1     -10.486   7.626  73.576  1.00  0.00    -0.310 NA 
ATOM      2  H1  GLN A   1     -11.264   8.132  74.001  1.00  0.00     0.000 HD 
ATOM      3  H2  GLN A   1      -9.791   7.339  74.265  1.00  0.00     0.000 HD 
ATOM      4  CA  GLN A   1      -9.889   8.458  72.480  1.00  0.00    -0.289 C  
ATOM      5  O   GLN A   1     -12.214   8.334  71.907  1.00  0.00    -0.301 OA 
ATOM      6  C   GLN A   1     -11.012   8.795  71.475  1.00  0.00    -0.307 C  
ATOM      7  OXT GLN A   1     -10.874   9.422  70.436  1.00  0.00    -0.232 OA 
ENDROOT
BRANCH   4   8
ATOM      8  CB  GLN A   1      -8.722   7.701  71.842  1.00  0.00    -0.138 C  
BRANCH   8   9
ATOM      9  CG  GLN A   1      -8.536   6.285  72.389  1.00  0.00    -0.114 C  
BRANCH   9  10
ATOM     10  CD  GLN A   1      -8.798   5.234  71.333  1.00  0.00    -0.134 C  
ATOM     11  NE2 GLN A   1      -9.464   5.701  70.239  1.00  0.00    -0.157 N  
ATOM     12  OE1 GLN A   1      -8.456   4.061  71.418  1.00  0.00    -0.082 OA 
ATOM     13 1HE2 GLN A   1      -9.641   4.993  69.528  1.00  0.00     0.000 HD 
ATOM     14 2HE2 GLN A   1      -9.760   6.673  70.142  1.00  0.00     0.000 HD 
ENDBRANCH   9  10
ENDBRANCH   8   9
ENDBRANCH   4   8
TORSDOF 3
ENDMDL
MODEL      202
REMARK 921   NORMALIZED FREE ENERGY PREDICTED BY IDOCK:   -1.80 KCAL/MOL
REMARK 922        TOTAL FREE ENERGY PREDICTED BY IDOCK:   -2.23 KCAL/MOL
REMARK 923 INTER-LIGAND FREE ENERGY PREDICTED BY IDOCK:   -2.10 KCAL/MOL
REMARK 924 INTRA-LIGAND FREE ENERGY PREDICTED BY IDOCK:   -0.13 KCAL/MOL
REMARK 927      BINDING AFFINITY PREDICTED BY RF-SCORE:    0.00 PKD
ROOT
ATOM      1  N   GLN A   1      -7.998   8.972  70.497  1.00  0.00    -0.121 NA 
ATOM      2  H1  GLN A   1      -7.319   9.257  71.205  1.00  0.00     0.000 HD 
ATOM      3  H2  GLN A   1      -7.914   9.519  69.640  1.00  0.00     0.000 HD 
ATOM      4  CA  GLN A   1      -9.380   9.036  71.078  1.00  0.00    -0.271 C  
ATOM      5  O   GLN A   1      -8.176   7.639  72.609  1.00  0.00    -0.106 OA 
ATOM      6  C   GLN A   1      -9.407   8.142  72.337  1.00  0.00    -0.240 C  
ATOM      7  OXT GLN A   1     -10.385   7.925  73.035  1.00  0.00    -0.314 OA 
ENDROOT
BRANCH   4   8
ATOM      8  CB  GLN A   1     -10.398   8.610  70.018  1.00  0.00    -0.213 C  
BRANCH   8   9
ATOM      9  CG  GLN A   1      -9.910   8.803  68.582  1.00  0.00    -0.180 C  
BRANCH   9  10
ATOM     10  CD  GLN A   1     -10.371  10.123  68.003  1.00  0.00    -0.190 C  
ATOM     11  NE2 GLN A   1      -9.482  10.691  67.140  1.00  0.00    -0.155 N  
ATOM     12  OE1 GLN A   1     -11.440  10.661  68.264  1.00  0.00    -0.306 OA 
ATOM     13 1HE2 GLN A   1      -9.793  11.580  66.750  1.00  0.00     0.000 HD 
ATOM     14 2HE2 GLN A   1      -8.585  10.264  66.905  1.00  0.00     0.000 HD 
ENDBRANCH   9  10
ENDBRANCH   8   9
ENDBRANCH   4   8
TORSDOF 3
ENDMDL
MODEL      203
REMARK 921   NORMALIZED FREE ENERGY PREDICTED BY IDOCK:   -1.80 KCAL/MOL
REMARK 922        TOTAL FREE ENERGY PREDICTED BY IDOCK:   -2.23 KCAL/MOL
REMARK 923 INTER-LIGAND FREE ENERGY PREDICTED BY IDOCK:   -1.94 KCAL/MOL
REMARK 924 INTRA-LIGAND FREE ENERGY PREDICTED BY IDOCK:   -0.28 KCAL/MOL
REMARK 927      BINDING AFFINITY PREDICTED BY RF-SCORE:    0.00 PKD
ROOT
ATOM      1  N   GLN A   1     -10.609   6.598  67.207  1.00  0.00    -0.272 NA 
ATOM      2  H1  GLN A   1     -10.423   7.339  66.531  1.00  0.00     0.000 HD 
ATOM      3  H2  GLN A   1     -11.328   5.951  66.883  1.00  0.00     0.000 HD 
ATOM      4  CA  GLN A   1     -10.952   7.208  68.535  1.00  0.00    -0.027 C  
ATOM      5  O   GLN A   1      -8.840   8.195  67.976  1.00  0.00    -0.131 OA 
ATOM      6  C   GLN A   1      -9.783   8.127  68.950  1.00  0.00    -0.156 C  
ATOM      7  OXT GLN A   1      -9.704   8.750  69.997  1.00  0.00    -0.167 OA 
ENDROOT
BRANCH   4   8
ATOM      8  CB  GLN A   1     -11.231   6.097  69.549  1.00  0.00    -0.482 C  
BRANCH   8   9
ATOM      9  CG  GLN A   1      -9.968   5.505  70.177  1.00  0.00    -0.287 C  
BRANCH   9  10
ATOM     10  CD  GLN A   1      -9.543   4.227  69.489  1.00  0.00    -0.204 C  
ATOM     11  NE2 GLN A   1      -9.698   3.108  70.252  1.00  0.00    -0.104 N  
ATOM     12  OE1 GLN A   1      -9.095   4.165  68.350  1.00  0.00    -0.114 OA 
ATOM     13 1HE2 GLN A   1      -9.411   2.247  69.788  1.00  0.00     0.000 HD 
ATOM     14 2HE2 GLN A   1     -10.068   3.131  71.202  1.00  0.00     0.000 HD 
ENDBRANCH   9  10
ENDBRANCH   8   9
ENDBRANCH   4   8
TORSDOF 3
ENDMDL
MODEL      204
REMARK 921   NORMALIZED FREE ENERGY PREDICTED BY IDOCK:   -1.79 KCAL/MOL
REMARK 922        TOTAL FREE ENERGY PREDICTED BY IDOCK:   -2.21 KCAL/MOL
REMARK 923 INTER-LIGAND FREE ENERGY PREDICTED BY IDOCK:   -2.05 KCAL/MOL
REMARK 924 INTRA-LIGAND FREE ENERGY PREDICTED BY IDOCK:   -0.16 KCAL/MOL
REMARK 927      BINDING AFFINITY PREDICTED BY RF-SCORE:    0.00 PKD
ROOT
ATOM      1  N   GLN A   1      -9.868   4.404  71.621  1.00  0.00    -0.177 NA 
ATOM      2  H1  GLN A   1      -9.861   3.548  71.065  1.00  0.00     0.000 HD 
ATOM      3  H2  GLN A   1      -9.936   4.214  72.621  1.00  0.00     0.000 HD 
ATOM      4  CA  GLN A   1     -10.969   5.304  71.138  1.00  0.00     0.022 C  
ATOM      5  O   GLN A   1      -9.693   4.843  69.162  1.00  0.00    -0.152 OA 
ATOM      6  C   GLN A   1     -10.744   5.562  69.633  1.00  0.00    -0.278 C  
ATOM      7  OXT GLN A   1     -11.426   6.287  68.925  1.00  0.00    -0.331 OA 
ENDROOT
BRANCH   4   8
ATOM      8  CB  GLN A   1     -10.980   6.587  71.972  1.00  0.00    -0.283 C  
BRANCH   8   9
ATOM      9  CG  GLN A   1      -9.597   7.212  72.158  1.00  0.00    -0.160 C  
BRANCH   9  10
ATOM     10  CD  GLN A   1      -9.577   8.667  71.744  1.00  0.00    -0.290 C  
ATOM     11  NE2 GLN A   1      -8.334   9.142  71.446  1.00  0.00    -0.060 N  
ATOM     12  OE1 GLN A   1     -10.568   9.384  71.672  1.00  0.00    -0.340 OA 
ATOM     13 1HE2 GLN A   1      -8.321  10.123  71.168  1.00  0.00     0.000 HD 
ATOM     14 2HE2 GLN A   1      -7.493   8.567  71.497  1.00  0.00     0.000 HD 
ENDBRANCH   9  10
ENDBRANCH   8   9
ENDBRANCH   4   8
TORSDOF 3
ENDMDL
MODEL      205
REMARK 921   NORMALIZED FREE ENERGY PREDICTED BY IDOCK:   -1.75 KCAL/MOL
REMARK 922        TOTAL FREE ENERGY PREDICTED BY IDOCK:   -2.17 KCAL/MOL
REMARK 923 INTER-LIGAND FREE ENERGY PREDICTED BY IDOCK:   -1.85 KCAL/MOL
REMARK 924 INTRA-LIGAND FREE ENERGY PREDICTED BY IDOCK:   -0.31 KCAL/MOL
REMARK 927      BINDING AFFINITY PREDICTED BY RF-SCORE:    0.00 PKD
ROOT
ATOM      1  N   GLN A   1     -10.783   2.439  63.832  1.00  0.00    -0.429 NA 
ATOM      2  H1  GLN A   1     -11.018   2.362  62.842  1.00  0.00     0.000 HD 
ATOM      3  H2  GLN A   1     -11.566   2.186  64.435  1.00  0.00     0.000 HD 
ATOM      4  CA  GLN A   1     -10.270   3.821  64.118  1.00  0.00    -0.235 C  
ATOM      5  O   GLN A   1      -8.873   3.046  62.330  1.00  0.00    -0.078 OA 
ATOM      6  C   GLN A   1      -9.064   4.080  63.189  1.00  0.00    -0.117 C  
ATOM      7  OXT GLN A   1      -8.375   5.088  63.181  1.00  0.00    -0.108 OA 
ENDROOT
BRANCH   4   8
ATOM      8  CB  GLN A   1      -9.918   3.937  65.603  1.00  0.00    -0.109 C  
BRANCH   8   9
ATOM      9  CG  GLN A   1     -10.581   5.125  66.302  1.00  0.00    -0.325 C  
BRANCH   9  10
ATOM     10  CD  GLN A   1      -9.672   6.333  66.340  1.00  0.00    -0.099 C  
ATOM     11  NE2 GLN A   1      -8.392   6.078  65.945  1.00  0.00    -0.132 N  
ATOM     12  OE1 GLN A   1     -10.020   7.455  66.688  1.00  0.00    -0.221 OA 
ATOM     13 1HE2 GLN A   1      -7.780   6.893  65.972  1.00  0.00     0.000 HD 
ATOM     14 2HE2 GLN A   1      -8.076   5.155  65.650  1.00  0.00     0.000 HD 
ENDBRANCH   9  10
ENDBRANCH   8   9
ENDBRANCH   4   8
TORSDOF 3
ENDMDL
MODEL      206
REMARK 921   NORMALIZED FREE ENERGY PREDICTED BY IDOCK:   -1.74 KCAL/MOL
REMARK 922        TOTAL FREE ENERGY PREDICTED BY IDOCK:   -2.16 KCAL/MOL
REMARK 923 INTER-LIGAND FREE ENERGY PREDICTED BY IDOCK:   -2.01 KCAL/MOL
REMARK 924 INTRA-LIGAND FREE ENERGY PREDICTED BY IDOCK:   -0.15 KCAL/MOL
REMARK 927      BINDING AFFINITY PREDICTED BY RF-SCORE:    0.00 PKD
ROOT
ATOM      1  N   GLN A   1     -10.960   5.986  66.342  1.00  0.00    -0.714 NA 
ATOM      2  H1  GLN A   1     -11.843   6.482  66.471  1.00  0.00     0.000 HD 
ATOM      3  H2  GLN A   1     -11.100   5.008  66.089  1.00  0.00     0.000 HD 
ATOM      4  CA  GLN A   1     -10.118   6.138  67.575  1.00  0.00    -0.158 C  
ATOM      5  O   GLN A   1     -10.643   8.393  66.955  1.00  0.00    -0.314 OA 
ATOM      6  C   GLN A   1      -9.931   7.648  67.838  1.00  0.00    -0.169 C  
ATOM      7  OXT GLN A   1      -9.263   8.137  68.736  1.00  0.00    -0.144 OA 
ENDROOT
BRANCH   4   8
ATOM      8  CB  GLN A   1      -8.795   5.394  67.383  1.00  0.00    -0.105 C  
BRANCH   8   9
ATOM      9  CG  GLN A   1      -8.443   4.455  68.537  1.00  0.00    -0.102 C  
BRANCH   9  10
ATOM     10  CD  GLN A   1      -8.650   3.003  68.165  1.00  0.00    -0.093 C  
ATOM     11  NE2 GLN A   1      -8.118   2.120  69.057  1.00  0.00    -0.048 N  
ATOM     12  OE1 GLN A   1      -9.238   2.619  67.161  1.00  0.00    -0.166 OA 
ATOM     13 1HE2 GLN A   1      -8.257   1.142  68.806  1.00  0.00     0.000 HD 
ATOM     14 2HE2 GLN A   1      -7.625   2.413  69.901  1.00  0.00     0.000 HD 
ENDBRANCH   9  10
ENDBRANCH   8   9
ENDBRANCH   4   8
TORSDOF 3
ENDMDL
MODEL      207
REMARK 921   NORMALIZED FREE ENERGY PREDICTED BY IDOCK:   -1.74 KCAL/MOL
REMARK 922        TOTAL FREE ENERGY PREDICTED BY IDOCK:   -2.16 KCAL/MOL
REMARK 923 INTER-LIGAND FREE ENERGY PREDICTED BY IDOCK:   -2.09 KCAL/MOL
REMARK 924 INTRA-LIGAND FREE ENERGY PREDICTED BY IDOCK:   -0.07 KCAL/MOL
REMARK 927      BINDING AFFINITY PREDICTED BY RF-SCORE:    0.00 PKD
ROOT
ATOM      1  N   GLN A   1      -8.018   6.845  65.996  1.00  0.00    -0.104 NA 
ATOM      2  H1  GLN A   1      -7.333   6.142  65.718  1.00  0.00     0.000 HD 
ATOM      3  H2  GLN A   1      -7.603   7.584  66.564  1.00  0.00     0.000 HD 
ATOM      4  CA  GLN A   1      -9.168   6.176  66.690  1.00  0.00    -0.144 C  
ATOM      5  O   GLN A   1      -9.010   5.024  64.593  1.00  0.00    -0.145 OA 
ATOM      6  C   GLN A   1      -9.748   5.114  65.730  1.00  0.00    -0.105 C  
ATOM      7  OXT GLN A   1     -10.720   4.410  65.950  1.00  0.00    -0.192 OA 
ENDROOT
BRANCH   4   8
ATOM      8  CB  GLN A   1     -10.195   7.230  67.107  1.00  0.00    -0.339 C  
BRANCH   8   9
ATOM      9  CG  GLN A   1     -10.026   7.719  68.547  1.00  0.00    -0.193 C  
BRANCH   9  10
ATOM     10  CD  GLN A   1     -10.274   6.613  69.549  1.00  0.00    -0.183 C  
ATOM     11  NE2 GLN A   1     -11.572   6.516  69.958  1.00  0.00    -0.536 N  
ATOM     12  OE1 GLN A   1      -9.412   5.856  69.977  1.00  0.00    -0.154 OA 
ATOM     13 1HE2 GLN A   1     -11.738   5.771  70.633  1.00  0.00     0.000 HD 
ATOM     14 2HE2 GLN A   1     -12.309   7.133  69.617  1.00  0.00     0.000 HD 
ENDBRANCH   9  10
ENDBRANCH   8   9
ENDBRANCH   4   8
TORSDOF 3
ENDMDL
MODEL      208
REMARK 921   NORMALIZED FREE ENERGY PREDICTED BY IDOCK:   -1.74 KCAL/MOL
REMARK 922        TOTAL FREE ENERGY PREDICTED BY IDOCK:   -2.16 KCAL/MOL
REMARK 923 INTER-LIGAND FREE ENERGY PREDICTED BY IDOCK:   -1.93 KCAL/MOL
REMARK 924 INTRA-LIGAND FREE ENERGY PREDICTED BY IDOCK:   -0.22 KCAL/MOL
REMARK 927      BINDING AFFINITY PREDICTED BY RF-SCORE:    0.00 PKD
ROOT
ATOM      1  N   GLN A   1      -8.520   7.143  68.507  1.00  0.00    -0.124 NA 
ATOM      2  H1  GLN A   1      -8.058   6.420  69.059  1.00  0.00     0.000 HD 
ATOM      3  H2  GLN A   1      -7.883   7.896  68.247  1.00  0.00     0.000 HD 
ATOM      4  CA  GLN A   1      -9.721   7.649  69.253  1.00  0.00    -0.164 C  
ATOM      5  O   GLN A   1     -10.062   5.278  69.151  1.00  0.00    -0.189 OA 
ATOM      6  C   GLN A   1     -10.635   6.441  69.553  1.00  0.00    -0.253 C  
ATOM      7  OXT GLN A   1     -11.721   6.491  70.109  1.00  0.00    -0.418 OA 
ENDROOT
BRANCH   4   8
ATOM      8  CB  GLN A   1     -10.414   8.734  68.426  1.00  0.00    -0.220 C  
BRANCH   8   9
ATOM      9  CG  GLN A   1     -10.078  10.158  68.873  1.00  0.00    -0.211 C  
BRANCH   9  10
ATOM     10  CD  GLN A   1      -8.629  10.503  68.611  1.00  0.00    -0.139 C  
ATOM     11  NE2 GLN A   1      -8.232  10.293  67.324  1.00  0.00    -0.120 N  
ATOM     12  OE1 GLN A   1      -7.852  10.934  69.455  1.00  0.00    -0.095 OA 
ATOM     13 1HE2 GLN A   1      -7.255  10.525  67.148  1.00  0.00     0.000 HD 
ATOM     14 2HE2 GLN A   1      -8.858   9.935  66.602  1.00  0.00     0.000 HD 
ENDBRANCH   9  10
ENDBRANCH   8   9
ENDBRANCH   4   8
TORSDOF 3
ENDMDL
MODEL      209
REMARK 921   NORMALIZED FREE ENERGY PREDICTED BY IDOCK:   -1.72 KCAL/MOL
REMARK 922        TOTAL FREE ENERGY PREDICTED BY IDOCK:   -2.13 KCAL/MOL
REMARK 923 INTER-LIGAND FREE ENERGY PREDICTED BY IDOCK:   -1.98 KCAL/MOL
REMARK 924 INTRA-LIGAND FREE ENERGY PREDICTED BY IDOCK:   -0.15 KCAL/MOL
REMARK 927      BINDING AFFINITY PREDICTED BY RF-SCORE:    0.00 PKD
ROOT
ATOM      1  N   GLN A   1     -10.724  13.853  66.516  1.00  0.00    -0.277 NA 
ATOM      2  H1  GLN A   1     -10.954  14.826  66.314  1.00  0.00     0.000 HD 
ATOM      3  H2  GLN A   1     -11.550  13.255  66.533  1.00  0.00     0.000 HD 
ATOM      4  CA  GLN A   1      -9.945  13.781  67.797  1.00  0.00    -0.242 C  
ATOM      5  O   GLN A   1      -8.709  15.339  66.459  1.00  0.00    -0.283 OA 
ATOM      6  C   GLN A   1      -8.698  14.679  67.646  1.00  0.00    -0.177 C  
ATOM      7  OXT GLN A   1      -7.819  14.823  68.480  1.00  0.00    -0.117 OA 
ENDROOT
BRANCH   4   8
ATOM      8  CB  GLN A   1      -9.599  12.322  68.102  1.00  0.00    -0.213 C  
BRANCH   8   9
ATOM      9  CG  GLN A   1      -8.931  11.591  66.936  1.00  0.00    -0.179 C  
BRANCH   9  10
ATOM     10  CD  GLN A   1      -9.372  10.147  66.850  1.00  0.00    -0.158 C  
ATOM     11  NE2 GLN A   1      -8.388   9.248  67.141  1.00  0.00    -0.123 N  
ATOM     12  OE1 GLN A   1     -10.501   9.780  66.548  1.00  0.00    -0.211 OA 
ATOM     13 1HE2 GLN A   1      -8.686   8.275  67.083  1.00  0.00     0.000 HD 
ATOM     14 2HE2 GLN A   1      -7.440   9.526  67.396  1.00  0.00     0.000 HD 
ENDBRANCH   9  10
ENDBRANCH   8   9
ENDBRANCH   4   8
TORSDOF 3
ENDMDL
MODEL      210
REMARK 921   NORMALIZED FREE ENERGY PREDICTED BY IDOCK:   -1.69 KCAL/MOL
REMARK 922        TOTAL FREE ENERGY PREDICTED BY IDOCK:   -2.10 KCAL/MOL
REMARK 923 INTER-LIGAND FREE ENERGY PREDICTED BY IDOCK:   -1.93 KCAL/MOL
REMARK 924 INTRA-LIGAND FREE ENERGY PREDICTED BY IDOCK:   -0.17 KCAL/MOL
REMARK 927      BINDING AFFINITY PREDICTED BY RF-SCORE:    0.00 PKD
ROOT
ATOM      1  N   GLN A   1     -10.960   5.986  66.342  1.00  0.00    -0.714 NA 
ATOM      2  H1  GLN A   1     -11.843   6.482  66.471  1.00  0.00     0.000 HD 
ATOM      3  H2  GLN A   1     -11.100   5.008  66.089  1.00  0.00     0.000 HD 
ATOM      4  CA  GLN A   1     -10.118   6.138  67.575  1.00  0.00    -0.158 C  
ATOM      5  O   GLN A   1     -10.643   8.393  66.955  1.00  0.00    -0.314 OA 
ATOM      6  C   GLN A   1      -9.931   7.648  67.838  1.00  0.00    -0.169 C  
ATOM      7  OXT GLN A   1      -9.263   8.137  68.736  1.00  0.00    -0.144 OA 
ENDROOT
BRANCH   4   8
ATOM      8  CB  GLN A   1      -8.795   5.394  67.383  1.00  0.00    -0.105 C  
BRANCH   8   9
ATOM      9  CG  GLN A   1      -8.643   4.755  66.002  1.00  0.00    -0.117 C  
BRANCH   9  10
ATOM     10  CD  GLN A   1      -7.675   5.523  65.130  1.00  0.00    -0.091 C  
ATOM     11  NE2 GLN A   1      -7.311   4.865  63.992  1.00  0.00    -0.054 N  
ATOM     12  OE1 GLN A   1      -7.237   6.637  65.389  1.00  0.00    -0.068 OA 
ATOM     13 1HE2 GLN A   1      -6.658   5.383  63.405  1.00  0.00     0.000 HD 
ATOM     14 2HE2 GLN A   1      -7.661   3.938  63.752  1.00  0.00     0.000 HD 
ENDBRANCH   9  10
ENDBRANCH   8   9
ENDBRANCH   4   8
TORSDOF 3
ENDMDL
MODEL      211
REMARK 921   NORMALIZED FREE ENERGY PREDICTED BY IDOCK:   -1.69 KCAL/MOL
REMARK 922        TOTAL FREE ENERGY PREDICTED BY IDOCK:   -2.10 KCAL/MOL
REMARK 923 INTER-LIGAND FREE ENERGY PREDICTED BY IDOCK:   -2.03 KCAL/MOL
REMARK 924 INTRA-LIGAND FREE ENERGY PREDICTED BY IDOCK:   -0.06 KCAL/MOL
REMARK 927      BINDING AFFINITY PREDICTED BY RF-SCORE:    0.00 PKD
ROOT
ATOM      1  N   GLN A   1      -7.794   7.956  68.353  1.00  0.00    -0.118 NA 
ATOM      2  H1  GLN A   1      -7.046   7.418  67.914  1.00  0.00     0.000 HD 
ATOM      3  H2  GLN A   1      -7.528   8.305  69.274  1.00  0.00     0.000 HD 
ATOM      4  CA  GLN A   1      -9.044   7.127  68.399  1.00  0.00    -0.127 C  
ATOM      5  O   GLN A   1      -8.417   7.096  66.085  1.00  0.00    -0.128 OA 
ATOM      6  C   GLN A   1      -9.379   6.694  66.955  1.00  0.00    -0.148 C  
ATOM      7  OXT GLN A   1     -10.355   6.045  66.614  1.00  0.00    -0.205 OA 
ENDROOT
BRANCH   4   8
ATOM      8  CB  GLN A   1     -10.166   7.934  69.057  1.00  0.00    -0.216 C  
BRANCH   8   9
ATOM      9  CG  GLN A   1      -9.762   8.583  70.382  1.00  0.00    -0.193 C  
BRANCH   9  10
ATOM     10  CD  GLN A   1     -10.919   8.645  71.354  1.00  0.00    -0.271 C  
ATOM     11  NE2 GLN A   1     -11.561   9.848  71.375  1.00  0.00    -0.375 N  
ATOM     12  OE1 GLN A   1     -11.274   7.720  72.073  1.00  0.00    -0.252 OA 
ATOM     13 1HE2 GLN A   1     -12.341   9.890  72.031  1.00  0.00     0.000 HD 
ATOM     14 2HE2 GLN A   1     -11.287  10.634  70.787  1.00  0.00     0.000 HD 
ENDBRANCH   9  10
ENDBRANCH   8   9
ENDBRANCH   4   8
TORSDOF 3
ENDMDL
MODEL      212
REMARK 921   NORMALIZED FREE ENERGY PREDICTED BY IDOCK:   -1.68 KCAL/MOL
REMARK 922        TOTAL FREE ENERGY PREDICTED BY IDOCK:   -2.08 KCAL/MOL
REMARK 923 INTER-LIGAND FREE ENERGY PREDICTED BY IDOCK:   -1.96 KCAL/MOL
REMARK 924 INTRA-LIGAND FREE ENERGY PREDICTED BY IDOCK:   -0.12 KCAL/MOL
REMARK 927      BINDING AFFINITY PREDICTED BY RF-SCORE:    0.00 PKD
ROOT
ATOM      1  N   GLN A   1     -10.591   3.607  64.870  1.00  0.00    -0.468 NA 
ATOM      2  H1  GLN A   1     -10.340   3.314  63.926  1.00  0.00     0.000 HD 
ATOM      3  H2  GLN A   1     -11.269   4.370  64.870  1.00  0.00     0.000 HD 
ATOM      4  CA  GLN A   1      -9.347   3.956  65.633  1.00  0.00    -0.161 C  
ATOM      5  O   GLN A   1      -8.935   1.730  64.844  1.00  0.00    -0.110 OA 
ATOM      6  C   GLN A   1      -8.417   2.723  65.610  1.00  0.00    -0.101 C  
ATOM      7  OXT GLN A   1      -7.335   2.637  66.170  1.00  0.00    -0.064 OA 
ENDROOT
BRANCH   4   8
ATOM      8  CB  GLN A   1      -9.723   4.396  67.049  1.00  0.00    -0.232 C  
BRANCH   8   9
ATOM      9  CG  GLN A   1      -9.202   5.785  67.421  1.00  0.00    -0.109 C  
BRANCH   9  10
ATOM     10  CD  GLN A   1     -10.325   6.723  67.805  1.00  0.00    -0.198 C  
ATOM     11  NE2 GLN A   1     -10.212   7.237  69.063  1.00  0.00    -0.191 N  
ATOM     12  OE1 GLN A   1     -11.266   7.017  67.078  1.00  0.00    -0.328 OA 
ATOM     13 1HE2 GLN A   1     -10.969   7.869  69.322  1.00  0.00     0.000 HD 
ATOM     14 2HE2 GLN A   1      -9.440   7.009  69.689  1.00  0.00     0.000 HD 
ENDBRANCH   9  10
ENDBRANCH   8   9
ENDBRANCH   4   8
TORSDOF 3
ENDMDL
MODEL      213
REMARK 921   NORMALIZED FREE ENERGY PREDICTED BY IDOCK:   -1.67 KCAL/MOL
REMARK 922        TOTAL FREE ENERGY PREDICTED BY IDOCK:   -2.08 KCAL/MOL
REMARK 923 INTER-LIGAND FREE ENERGY PREDICTED BY IDOCK:   -2.04 KCAL/MOL
REMARK 924 INTRA-LIGAND FREE ENERGY PREDICTED BY IDOCK:   -0.03 KCAL/MOL
REMARK 927      BINDING AFFINITY PREDICTED BY RF-SCORE:    0.00 PKD
ROOT
ATOM      1  N   GLN A   1      -7.963   8.965  67.261  1.00  0.00    -0.097 NA 
ATOM      2  H1  GLN A   1      -7.322   8.396  67.815  1.00  0.00     0.000 HD 
ATOM      3  H2  GLN A   1      -7.567   9.875  67.026  1.00  0.00     0.000 HD 
ATOM      4  CA  GLN A   1      -9.274   9.085  67.980  1.00  0.00    -0.135 C  
ATOM      5  O   GLN A   1      -8.908   6.720  67.842  1.00  0.00    -0.120 OA 
ATOM      6  C   GLN A   1      -9.804   7.658  68.243  1.00  0.00    -0.166 C  
ATOM      7  OXT GLN A   1     -10.869   7.380  68.771  1.00  0.00    -0.155 OA 
ENDROOT
BRANCH   4   8
ATOM      8  CB  GLN A   1     -10.235   9.937  67.149  1.00  0.00    -0.285 C  
BRANCH   8   9
ATOM      9  CG  GLN A   1      -9.633  11.262  66.677  1.00  0.00    -0.218 C  
BRANCH   9  10
ATOM     10  CD  GLN A   1     -10.198  12.440  67.439  1.00  0.00    -0.208 C  
ATOM     11  NE2 GLN A   1     -10.173  12.288  68.794  1.00  0.00    -0.390 N  
ATOM     12  OE1 GLN A   1     -10.644  13.456  66.919  1.00  0.00    -0.270 OA 
ATOM     13 1HE2 GLN A   1     -10.554  13.082  69.307  1.00  0.00     0.000 HD 
ATOM     14 2HE2 GLN A   1      -9.807  11.454  69.252  1.00  0.00     0.000 HD 
ENDBRANCH   9  10
ENDBRANCH   8   9
ENDBRANCH   4   8
TORSDOF 3
ENDMDL
MODEL      214
REMARK 921   NORMALIZED FREE ENERGY PREDICTED BY IDOCK:   -1.66 KCAL/MOL
REMARK 922        TOTAL FREE ENERGY PREDICTED BY IDOCK:   -2.06 KCAL/MOL
REMARK 923 INTER-LIGAND FREE ENERGY PREDICTED BY IDOCK:   -1.84 KCAL/MOL
REMARK 924 INTRA-LIGAND FREE ENERGY PREDICTED BY IDOCK:   -0.22 KCAL/MOL
REMARK 927      BINDING AFFINITY PREDICTED BY RF-SCORE:    0.00 PKD
ROOT
ATOM      1  N   GLN A   1      -9.475   5.416  70.934  1.00  0.00    -0.162 NA 
ATOM      2  H1  GLN A   1      -8.953   4.681  71.410  1.00  0.00     0.000 HD 
ATOM      3  H2  GLN A   1     -10.130   5.890  71.555  1.00  0.00     0.000 HD 
ATOM      4  CA  GLN A   1     -10.154   4.843  69.724  1.00  0.00    -0.249 C  
ATOM      5  O   GLN A   1      -7.851   4.245  69.430  1.00  0.00    -0.057 OA 
ATOM      6  C   GLN A   1      -9.070   4.197  68.834  1.00  0.00    -0.129 C  
ATOM      7  OXT GLN A   1      -9.260   3.672  67.748  1.00  0.00    -0.151 OA 
ENDROOT
BRANCH   4   8
ATOM      8  CB  GLN A   1     -10.937   5.946  69.009  1.00  0.00    -0.359 C  
BRANCH   8   9
ATOM      9  CG  GLN A   1     -10.508   7.360  69.403  1.00  0.00    -0.220 C  
BRANCH   9  10
ATOM     10  CD  GLN A   1      -9.795   8.068  68.272  1.00  0.00    -0.170 C  
ATOM     11  NE2 GLN A   1     -10.377   9.243  67.898  1.00  0.00    -0.215 N  
ATOM     12  OE1 GLN A   1      -8.784   7.653  67.718  1.00  0.00    -0.126 OA 
ATOM     13 1HE2 GLN A   1      -9.896   9.720  67.136  1.00  0.00     0.000 HD 
ATOM     14 2HE2 GLN A   1     -11.218   9.612  68.342  1.00  0.00     0.000 HD 
ENDBRANCH   9  10
ENDBRANCH   8   9
ENDBRANCH   4   8
TORSDOF 3
ENDMDL
MODEL      215
REMARK 921   NORMALIZED FREE ENERGY PREDICTED BY IDOCK:   -1.66 KCAL/MOL
REMARK 922        TOTAL FREE ENERGY PREDICTED BY IDOCK:   -2.06 KCAL/MOL
REMARK 923 INTER-LIGAND FREE ENERGY PREDICTED BY IDOCK:   -1.69 KCAL/MOL
REMARK 924 INTRA-LIGAND FREE ENERGY PREDICTED BY IDOCK:   -0.37 KCAL/MOL
REMARK 927      BINDING AFFINITY PREDICTED BY RF-SCORE:    0.00 PKD
ROOT
ATOM      1  N   GLN A   1     -11.119   6.870  72.206  1.00  0.00    -0.241 NA 
ATOM      2  H1  GLN A   1     -11.579   7.519  71.567  1.00  0.00     0.000 HD 
ATOM      3  H2  GLN A   1     -11.516   6.906  73.145  1.00  0.00     0.000 HD 
ATOM      4  CA  GLN A   1      -9.641   7.130  72.205  1.00  0.00    -0.142 C  
ATOM      5  O   GLN A   1     -10.169   6.793  69.891  1.00  0.00    -0.184 OA 
ATOM      6  C   GLN A   1      -9.139   7.004  70.750  1.00  0.00    -0.154 C  
ATOM      7  OXT GLN A   1      -7.979   7.110  70.386  1.00  0.00    -0.108 OA 
ENDROOT
BRANCH   4   8
ATOM      8  CB  GLN A   1      -8.952   6.156  73.163  1.00  0.00    -0.130 C  
BRANCH   8   9
ATOM      9  CG  GLN A   1      -8.226   6.842  74.321  1.00  0.00    -0.149 C  
BRANCH   9  10
ATOM     10  CD  GLN A   1      -7.220   7.860  73.832  1.00  0.00    -0.135 C  
ATOM     11  NE2 GLN A   1      -6.161   7.317  73.167  1.00  0.00    -0.056 N  
ATOM     12  OE1 GLN A   1      -7.316   9.069  74.000  1.00  0.00    -0.391 OA 
ATOM     13 1HE2 GLN A   1      -5.482   8.003  72.837  1.00  0.00     0.000 HD 
ATOM     14 2HE2 GLN A   1      -6.056   6.314  73.013  1.00  0.00     0.000 HD 
ENDBRANCH   9  10
ENDBRANCH   8   9
ENDBRANCH   4   8
TORSDOF 3
ENDMDL
MODEL      216
REMARK 921   NORMALIZED FREE ENERGY PREDICTED BY IDOCK:   -1.65 KCAL/MOL
REMARK 922        TOTAL FREE ENERGY PREDICTED BY IDOCK:   -2.05 KCAL/MOL
REMARK 923 INTER-LIGAND FREE ENERGY PREDICTED BY IDOCK:   -1.89 KCAL/MOL
REMARK 924 INTRA-LIGAND FREE ENERGY PREDICTED BY IDOCK:   -0.16 KCAL/MOL
REMARK 927      BINDING AFFINITY PREDICTED BY RF-SCORE:    0.00 PKD
ROOT
ATOM      1  N   GLN A   1      -8.366   6.450  68.337  1.00  0.00    -0.116 NA 
ATOM      2  H1  GLN A   1      -8.565   5.746  69.049  1.00  0.00     0.000 HD 
ATOM      3  H2  GLN A   1      -8.031   7.324  68.742  1.00  0.00     0.000 HD 
ATOM      4  CA  GLN A   1      -9.582   6.652  67.481  1.00  0.00    -0.126 C  
ATOM      5  O   GLN A   1      -9.182   4.291  67.368  1.00  0.00    -0.129 OA 
ATOM      6  C   GLN A   1      -9.974   5.282  66.884  1.00  0.00    -0.194 C  
ATOM      7  OXT GLN A   1     -10.891   5.081  66.104  1.00  0.00    -0.294 OA 
ENDROOT
BRANCH   4   8
ATOM      8  CB  GLN A   1      -9.285   7.707  66.414  1.00  0.00    -0.223 C  
BRANCH   8   9
ATOM      9  CG  GLN A   1     -10.274   8.874  66.410  1.00  0.00    -0.273 C  
BRANCH   9  10
ATOM     10  CD  GLN A   1      -9.693  10.106  67.070  1.00  0.00    -0.180 C  
ATOM     11  NE2 GLN A   1     -10.437  11.234  66.890  1.00  0.00    -0.234 N  
ATOM     12  OE1 GLN A   1      -8.652  10.125  67.714  1.00  0.00    -0.118 OA 
ATOM     13 1HE2 GLN A   1     -10.045  12.064  67.334  1.00  0.00     0.000 HD 
ATOM     14 2HE2 GLN A   1     -11.308  11.246  66.359  1.00  0.00     0.000 HD 
ENDBRANCH   9  10
ENDBRANCH   8   9
ENDBRANCH   4   8
TORSDOF 3
ENDMDL
MODEL      217
REMARK 921   NORMALIZED FREE ENERGY PREDICTED BY IDOCK:   -1.62 KCAL/MOL
REMARK 922        TOTAL FREE ENERGY PREDICTED BY IDOCK:   -2.02 KCAL/MOL
REMARK 923 INTER-LIGAND FREE ENERGY PREDICTED BY IDOCK:   -1.83 KCAL/MOL
REMARK 924 INTRA-LIGAND FREE ENERGY PREDICTED BY IDOCK:   -0.19 KCAL/MOL
REMARK 927      BINDING AFFINITY PREDICTED BY RF-SCORE:    0.00 PKD
ROOT
ATOM      1  N   GLN A   1      -6.969   4.575  65.133  1.00  0.00    -0.060 NA 
ATOM      2  H1  GLN A   1      -6.216   3.986  65.489  1.00  0.00     0.000 HD 
ATOM      3  H2  GLN A   1      -6.637   5.259  64.453  1.00  0.00     0.000 HD 
ATOM      4  CA  GLN A   1      -7.685   5.220  66.283  1.00  0.00    -0.088 C  
ATOM      5  O   GLN A   1      -7.762   2.880  66.797  1.00  0.00    -0.074 OA 
ATOM      6  C   GLN A   1      -8.185   4.099  67.220  1.00  0.00    -0.099 C  
ATOM      7  OXT GLN A   1      -8.846   4.260  68.234  1.00  0.00    -0.099 OA 
ENDROOT
BRANCH   4   8
ATOM      8  CB  GLN A   1      -8.815   6.103  65.750  1.00  0.00    -0.133 C  
BRANCH   8   9
ATOM      9  CG  GLN A   1      -9.114   7.320  66.627  1.00  0.00    -0.181 C  
BRANCH   9  10
ATOM     10  CD  GLN A   1     -10.519   7.281  67.184  1.00  0.00    -0.324 C  
ATOM     11  NE2 GLN A   1     -10.764   8.224  68.138  1.00  0.00    -0.439 N  
ATOM     12  OE1 GLN A   1     -11.386   6.490  66.833  1.00  0.00    -0.330 OA 
ATOM     13 1HE2 GLN A   1     -11.711   8.197  68.514  1.00  0.00     0.000 HD 
ATOM     14 2HE2 GLN A   1     -10.061   8.895  68.449  1.00  0.00     0.000 HD 
ENDBRANCH   9  10
ENDBRANCH   8   9
ENDBRANCH   4   8
TORSDOF 3
ENDMDL
MODEL      218
REMARK 921   NORMALIZED FREE ENERGY PREDICTED BY IDOCK:   -1.62 KCAL/MOL
REMARK 922        TOTAL FREE ENERGY PREDICTED BY IDOCK:   -2.02 KCAL/MOL
REMARK 923 INTER-LIGAND FREE ENERGY PREDICTED BY IDOCK:   -1.68 KCAL/MOL
REMARK 924 INTRA-LIGAND FREE ENERGY PREDICTED BY IDOCK:   -0.34 KCAL/MOL
REMARK 927      BINDING AFFINITY PREDICTED BY RF-SCORE:    0.00 PKD
ROOT
ATOM      1  N   GLN A   1      -7.334   6.753  71.332  1.00  0.00    -0.081 NA 
ATOM      2  H1  GLN A   1      -6.417   6.896  70.907  1.00  0.00     0.000 HD 
ATOM      3  H2  GLN A   1      -8.036   6.470  70.649  1.00  0.00     0.000 HD 
ATOM      4  CA  GLN A   1      -7.736   7.991  72.080  1.00  0.00    -0.103 C  
ATOM      5  O   GLN A   1      -5.588   7.440  72.991  1.00  0.00    -0.044 OA 
ATOM      6  C   GLN A   1      -6.631   8.300  73.113  1.00  0.00    -0.104 C  
ATOM      7  OXT GLN A   1      -6.649   9.213  73.924  1.00  0.00    -0.342 OA 
ENDROOT
BRANCH   4   8
ATOM      8  CB  GLN A   1      -9.110   7.777  72.718  1.00  0.00    -0.242 C  
BRANCH   8   9
ATOM      9  CG  GLN A   1      -9.118   6.720  73.823  1.00  0.00    -0.178 C  
BRANCH   9  10
ATOM     10  CD  GLN A   1      -9.912   5.495  73.425  1.00  0.00    -0.176 C  
ATOM     11  NE2 GLN A   1     -11.009   5.268  74.201  1.00  0.00    -0.276 N  
ATOM     12  OE1 GLN A   1      -9.624   4.752  72.494  1.00  0.00    -0.134 OA 
ATOM     13 1HE2 GLN A   1     -11.543   4.443  73.933  1.00  0.00     0.000 HD 
ATOM     14 2HE2 GLN A   1     -11.271   5.871  74.981  1.00  0.00     0.000 HD 
ENDBRANCH   9  10
ENDBRANCH   8   9
ENDBRANCH   4   8
TORSDOF 3
ENDMDL
MODEL      219
REMARK 921   NORMALIZED FREE ENERGY PREDICTED BY IDOCK:   -1.62 KCAL/MOL
REMARK 922        TOTAL FREE ENERGY PREDICTED BY IDOCK:   -2.01 KCAL/MOL
REMARK 923 INTER-LIGAND FREE ENERGY PREDICTED BY IDOCK:   -2.06 KCAL/MOL
REMARK 924 INTRA-LIGAND FREE ENERGY PREDICTED BY IDOCK:    0.05 KCAL/MOL
REMARK 927      BINDING AFFINITY PREDICTED BY RF-SCORE:    0.00 PKD
ROOT
ATOM      1  N   GLN A   1     -10.232   6.005  69.479  1.00  0.00    -0.190 NA 
ATOM      2  H1  GLN A   1      -9.999   6.410  68.572  1.00  0.00     0.000 HD 
ATOM      3  H2  GLN A   1     -11.212   6.146  69.725  1.00  0.00     0.000 HD 
ATOM      4  CA  GLN A   1      -9.301   6.549  70.522  1.00  0.00    -0.162 C  
ATOM      5  O   GLN A   1      -7.833   5.663  68.847  1.00  0.00    -0.093 OA 
ATOM      6  C   GLN A   1      -7.855   6.241  70.075  1.00  0.00    -0.106 C  
ATOM      7  OXT GLN A   1      -6.843   6.502  70.706  1.00  0.00    -0.059 OA 
ENDROOT
BRANCH   4   8
ATOM      8  CB  GLN A   1      -9.649   5.942  71.883  1.00  0.00    -0.169 C  
BRANCH   8   9
ATOM      9  CG  GLN A   1     -10.087   6.974  72.924  1.00  0.00    -0.225 C  
BRANCH   9  10
ATOM     10  CD  GLN A   1      -9.859   8.390  72.444  1.00  0.00    -0.308 C  
ATOM     11  NE2 GLN A   1     -10.986   9.011  71.994  1.00  0.00    -0.347 N  
ATOM     12  OE1 GLN A   1      -8.774   8.959  72.445  1.00  0.00    -0.400 OA 
ATOM     13 1HE2 GLN A   1     -10.831   9.966  71.670  1.00  0.00     0.000 HD 
ATOM     14 2HE2 GLN A   1     -11.901   8.561  71.983  1.00  0.00     0.000 HD 
ENDBRANCH   9  10
ENDBRANCH   8   9
ENDBRANCH   4   8
TORSDOF 3
ENDMDL
MODEL      220
REMARK 921   NORMALIZED FREE ENERGY PREDICTED BY IDOCK:   -1.60 KCAL/MOL
REMARK 922        TOTAL FREE ENERGY PREDICTED BY IDOCK:   -1.99 KCAL/MOL
REMARK 923 INTER-LIGAND FREE ENERGY PREDICTED BY IDOCK:   -1.84 KCAL/MOL
REMARK 924 INTRA-LIGAND FREE ENERGY PREDICTED BY IDOCK:   -0.15 KCAL/MOL
REMARK 927      BINDING AFFINITY PREDICTED BY RF-SCORE:    0.00 PKD
ROOT
ATOM      1  N   GLN A   1      -6.896   4.525  66.074  1.00  0.00    -0.056 NA 
ATOM      2  H1  GLN A   1      -6.131   4.302  66.711  1.00  0.00     0.000 HD 
ATOM      3  H2  GLN A   1      -6.622   5.203  65.363  1.00  0.00     0.000 HD 
ATOM      4  CA  GLN A   1      -8.087   4.982  66.864  1.00  0.00    -0.107 C  
ATOM      5  O   GLN A   1      -7.542   2.854  67.823  1.00  0.00    -0.057 OA 
ATOM      6  C   GLN A   1      -8.444   3.867  67.872  1.00  0.00    -0.094 C  
ATOM      7  OXT GLN A   1      -9.387   3.883  68.647  1.00  0.00    -0.144 OA 
ENDROOT
BRANCH   4   8
ATOM      8  CB  GLN A   1      -9.235   5.316  65.909  1.00  0.00    -0.166 C  
BRANCH   8   9
ATOM      9  CG  GLN A   1      -9.165   4.568  64.577  1.00  0.00    -0.136 C  
BRANCH   9  10
ATOM     10  CD  GLN A   1     -10.454   3.836  64.274  1.00  0.00    -0.241 C  
ATOM     11  NE2 GLN A   1     -11.528   4.287  64.982  1.00  0.00    -0.639 N  
ATOM     12  OE1 GLN A   1     -10.559   2.917  63.471  1.00  0.00    -0.199 OA 
ATOM     13 1HE2 GLN A   1     -12.396   3.794  64.777  1.00  0.00     0.000 HD 
ATOM     14 2HE2 GLN A   1     -11.467   5.051  65.656  1.00  0.00     0.000 HD 
ENDBRANCH   9  10
ENDBRANCH   8   9
ENDBRANCH   4   8
TORSDOF 3
ENDMDL
MODEL      221
REMARK 921   NORMALIZED FREE ENERGY PREDICTED BY IDOCK:   -1.58 KCAL/MOL
REMARK 922        TOTAL FREE ENERGY PREDICTED BY IDOCK:   -1.97 KCAL/MOL
REMARK 923 INTER-LIGAND FREE ENERGY PREDICTED BY IDOCK:   -1.67 KCAL/MOL
REMARK 924 INTRA-LIGAND FREE ENERGY PREDICTED BY IDOCK:   -0.31 KCAL/MOL
REMARK 927      BINDING AFFINITY PREDICTED BY RF-SCORE:    0.00 PKD
ROOT
ATOM      1  N   GLN A   1      -6.786   9.407  67.112  1.00  0.00    -0.083 NA 
ATOM      2  H1  GLN A   1      -6.230   8.586  67.352  1.00  0.00     0.000 HD 
ATOM      3  H2  GLN A   1      -6.212  10.175  66.764  1.00  0.00     0.000 HD 
ATOM      4  CA  GLN A   1      -7.616   9.811  68.296  1.00  0.00    -0.081 C  
ATOM      5  O   GLN A   1      -8.175   7.504  67.960  1.00  0.00    -0.122 OA 
ATOM      6  C   GLN A   1      -8.476   8.597  68.708  1.00  0.00    -0.129 C  
ATOM      7  OXT GLN A   1      -9.302   8.581  69.607  1.00  0.00    -0.156 OA 
ENDROOT
BRANCH   4   8
ATOM      8  CB  GLN A   1      -8.451  11.042  67.938  1.00  0.00    -0.128 C  
BRANCH   8   9
ATOM      9  CG  GLN A   1      -9.599  10.748  66.972  1.00  0.00    -0.195 C  
BRANCH   9  10
ATOM     10  CD  GLN A   1      -9.331  11.303  65.591  1.00  0.00    -0.224 C  
ATOM     11  NE2 GLN A   1      -9.983  12.471  65.326  1.00  0.00    -0.392 N  
ATOM     12  OE1 GLN A   1      -8.599  10.779  64.760  1.00  0.00    -0.161 OA 
ATOM     13 1HE2 GLN A   1      -9.802  12.845  64.395  1.00  0.00     0.000 HD 
ATOM     14 2HE2 GLN A   1     -10.597  12.929  65.999  1.00  0.00     0.000 HD 
ENDBRANCH   9  10
ENDBRANCH   8   9
ENDBRANCH   4   8
TORSDOF 3
ENDMDL
MODEL      222
REMARK 921   NORMALIZED FREE ENERGY PREDICTED BY IDOCK:   -1.55 KCAL/MOL
REMARK 922        TOTAL FREE ENERGY PREDICTED BY IDOCK:   -1.93 KCAL/MOL
REMARK 923 INTER-LIGAND FREE ENERGY PREDICTED BY IDOCK:   -1.80 KCAL/MOL
REMARK 924 INTRA-LIGAND FREE ENERGY PREDICTED BY IDOCK:   -0.13 KCAL/MOL
REMARK 927      BINDING AFFINITY PREDICTED BY RF-SCORE:    0.00 PKD
ROOT
ATOM      1  N   GLN A   1      -9.345   9.041  68.938  1.00  0.00    -0.143 NA 
ATOM      2  H1  GLN A   1      -8.946   9.791  69.503  1.00  0.00     0.000 HD 
ATOM      3  H2  GLN A   1      -8.817   8.172  69.022  1.00  0.00     0.000 HD 
ATOM      4  CA  GLN A   1      -9.462   9.498  67.513  1.00  0.00    -0.130 C  
ATOM      5  O   GLN A   1     -10.629  11.183  68.757  1.00  0.00    -0.185 OA 
ATOM      6  C   GLN A   1     -10.314  10.785  67.497  1.00  0.00    -0.206 C  
ATOM      7  OXT GLN A   1     -10.649  11.405  66.500  1.00  0.00    -0.243 OA 
ENDROOT
BRANCH   4   8
ATOM      8  CB  GLN A   1     -10.060   8.373  66.666  1.00  0.00    -0.358 C  
BRANCH   8   9
ATOM      9  CG  GLN A   1      -9.087   7.225  66.391  1.00  0.00    -0.192 C  
BRANCH   9  10
ATOM     10  CD  GLN A   1      -8.014   7.620  65.402  1.00  0.00    -0.123 C  
ATOM     11  NE2 GLN A   1      -6.768   7.173  65.727  1.00  0.00    -0.051 N  
ATOM     12  OE1 GLN A   1      -8.210   8.282  64.389  1.00  0.00    -0.165 OA 
ATOM     13 1HE2 GLN A   1      -6.044   7.440  65.060  1.00  0.00     0.000 HD 
ATOM     14 2HE2 GLN A   1      -6.577   6.621  66.563  1.00  0.00     0.000 HD 
ENDBRANCH   9  10
ENDBRANCH   8   9
ENDBRANCH   4   8
TORSDOF 3
ENDMDL
MODEL      223
REMARK 921   NORMALIZED FREE ENERGY PREDICTED BY IDOCK:   -1.54 KCAL/MOL
REMARK 922        TOTAL FREE ENERGY PREDICTED BY IDOCK:   -1.92 KCAL/MOL
REMARK 923 INTER-LIGAND FREE ENERGY PREDICTED BY IDOCK:   -1.70 KCAL/MOL
REMARK 924 INTRA-LIGAND FREE ENERGY PREDICTED BY IDOCK:   -0.22 KCAL/MOL
REMARK 927      BINDING AFFINITY PREDICTED BY RF-SCORE:    0.00 PKD
ROOT
ATOM      1  N   GLN A   1      -7.477   6.447  66.186  1.00  0.00    -0.080 NA 
ATOM      2  H1  GLN A   1      -6.722   6.689  65.544  1.00  0.00     0.000 HD 
ATOM      3  H2  GLN A   1      -7.603   5.438  66.272  1.00  0.00     0.000 HD 
ATOM      4  CA  GLN A   1      -8.737   7.142  65.760  1.00  0.00    -0.107 C  
ATOM      5  O   GLN A   1      -7.141   8.919  65.967  1.00  0.00    -0.085 OA 
ATOM      6  C   GLN A   1      -8.448   8.658  65.709  1.00  0.00    -0.151 C  
ATOM      7  OXT GLN A   1      -9.261   9.529  65.442  1.00  0.00    -0.213 OA 
ENDROOT
BRANCH   4   8
ATOM      8  CB  GLN A   1      -9.870   6.780  66.722  1.00  0.00    -0.236 C  
BRANCH   8   9
ATOM      9  CG  GLN A   1      -9.405   6.550  68.161  1.00  0.00    -0.109 C  
BRANCH   9  10
ATOM     10  CD  GLN A   1      -9.627   7.770  69.026  1.00  0.00    -0.155 C  
ATOM     11  NE2 GLN A   1     -10.939   8.099  69.197  1.00  0.00    -0.426 N  
ATOM     12  OE1 GLN A   1      -8.732   8.428  69.544  1.00  0.00    -0.134 OA 
ATOM     13 1HE2 GLN A   1     -11.088   8.922  69.780  1.00  0.00     0.000 HD 
ATOM     14 2HE2 GLN A   1     -11.703   7.569  68.778  1.00  0.00     0.000 HD 
ENDBRANCH   9  10
ENDBRANCH   8   9
ENDBRANCH   4   8
TORSDOF 3
ENDMDL
MODEL      224
REMARK 921   NORMALIZED FREE ENERGY PREDICTED BY IDOCK:   -1.48 KCAL/MOL
REMARK 922        TOTAL FREE ENERGY PREDICTED BY IDOCK:   -1.85 KCAL/MOL
REMARK 923 INTER-LIGAND FREE ENERGY PREDICTED BY IDOCK:   -2.39 KCAL/MOL
REMARK 924 INTRA-LIGAND FREE ENERGY PREDICTED BY IDOCK:    0.54 KCAL/MOL
REMARK 927      BINDING AFFINITY PREDICTED BY RF-SCORE:    0.00 PKD
ROOT
ATOM      1  N   GLN A   1      -8.856  14.189  68.724  1.00  0.00    -0.337 NA 
ATOM      2  H1  GLN A   1      -8.061  13.649  69.068  1.00  0.00     0.000 HD 
ATOM      3  H2  GLN A   1      -9.727  13.659  68.757  1.00  0.00     0.000 HD 
ATOM      4  CA  GLN A   1      -8.554  14.698  67.344  1.00  0.00    -0.199 C  
ATOM      5  O   GLN A   1      -6.706  15.472  68.661  1.00  0.00    -0.103 OA 
ATOM      6  C   GLN A   1      -7.249  15.520  67.417  1.00  0.00    -0.209 C  
ATOM      7  OXT GLN A   1      -6.731  16.118  66.487  1.00  0.00    -0.195 OA 
ENDROOT
BRANCH   4   8
ATOM      8  CB  GLN A   1      -9.745  15.508  66.828  1.00  0.00    -0.252 C  
BRANCH   8   9
ATOM      9  CG  GLN A   1      -9.345  16.755  66.038  1.00  0.00    -0.245 C  
BRANCH   9  10
ATOM     10  CD  GLN A   1     -10.549  17.464  65.458  1.00  0.00    -0.108 C  
ATOM     11  NE2 GLN A   1     -11.402  16.644  64.780  1.00  0.00    -0.167 N  
ATOM     12  OE1 GLN A   1     -10.770  18.664  65.567  1.00  0.00    -0.577 OA 
ATOM     13 1HE2 GLN A   1     -12.213  17.122  64.389  1.00  0.00     0.000 HD 
ATOM     14 2HE2 GLN A   1     -11.242  15.642  64.674  1.00  0.00     0.000 HD 
ENDBRANCH   9  10
ENDBRANCH   8   9
ENDBRANCH   4   8
TORSDOF 3
ENDMDL
MODEL      225
REMARK 921   NORMALIZED FREE ENERGY PREDICTED BY IDOCK:   -1.46 KCAL/MOL
REMARK 922        TOTAL FREE ENERGY PREDICTED BY IDOCK:   -1.83 KCAL/MOL
REMARK 923 INTER-LIGAND FREE ENERGY PREDICTED BY IDOCK:   -1.75 KCAL/MOL
REMARK 924 INTRA-LIGAND FREE ENERGY PREDICTED BY IDOCK:   -0.08 KCAL/MOL
REMARK 927      BINDING AFFINITY PREDICTED BY RF-SCORE:    0.00 PKD
ROOT
ATOM      1  N   GLN A   1      -7.906   3.485  66.415  1.00  0.00    -0.084 NA 
ATOM      2  H1  GLN A   1      -7.364   2.878  67.030  1.00  0.00     0.000 HD 
ATOM      3  H2  GLN A   1      -7.353   3.834  65.632  1.00  0.00     0.000 HD 
ATOM      4  CA  GLN A   1      -8.513   4.597  67.221  1.00  0.00    -0.104 C  
ATOM      5  O   GLN A   1      -9.243   2.607  68.341  1.00  0.00    -0.161 OA 
ATOM      6  C   GLN A   1      -9.361   3.959  68.343  1.00  0.00    -0.163 C  
ATOM      7  OXT GLN A   1     -10.033   4.568  69.161  1.00  0.00    -0.178 OA 
ENDROOT
BRANCH   4   8
ATOM      8  CB  GLN A   1      -9.326   5.508  66.300  1.00  0.00    -0.166 C  
BRANCH   8   9
ATOM      9  CG  GLN A   1      -8.490   6.584  65.604  1.00  0.00    -0.146 C  
BRANCH   9  10
ATOM     10  CD  GLN A   1      -8.805   7.968  66.129  1.00  0.00    -0.166 C  
ATOM     11  NE2 GLN A   1     -10.136   8.206  66.304  1.00  0.00    -0.479 N  
ATOM     12  OE1 GLN A   1      -7.965   8.822  66.384  1.00  0.00    -0.100 OA 
ATOM     13 1HE2 GLN A   1     -10.347   9.139  66.657  1.00  0.00     0.000 HD 
ATOM     14 2HE2 GLN A   1     -10.855   7.512  66.099  1.00  0.00     0.000 HD 
ENDBRANCH   9  10
ENDBRANCH   8   9
ENDBRANCH   4   8
TORSDOF 3
ENDMDL
MODEL      226
REMARK 921   NORMALIZED FREE ENERGY PREDICTED BY IDOCK:   -1.44 KCAL/MOL
REMARK 922        TOTAL FREE ENERGY PREDICTED BY IDOCK:   -1.81 KCAL/MOL
REMARK 923 INTER-LIGAND FREE ENERGY PREDICTED BY IDOCK:   -1.60 KCAL/MOL
REMARK 924 INTRA-LIGAND FREE ENERGY PREDICTED BY IDOCK:   -0.20 KCAL/MOL
REMARK 927      BINDING AFFINITY PREDICTED BY RF-SCORE:    0.00 PKD
ROOT
ATOM      1  N   GLN A   1      -6.948   9.242  65.029  1.00  0.00    -0.084 NA 
ATOM      2  H1  GLN A   1      -5.979   8.968  64.866  1.00  0.00     0.000 HD 
ATOM      3  H2  GLN A   1      -7.032  10.220  65.306  1.00  0.00     0.000 HD 
ATOM      4  CA  GLN A   1      -7.568   8.313  66.031  1.00  0.00    -0.078 C  
ATOM      5  O   GLN A   1      -6.717   6.846  64.336  1.00  0.00    -0.044 OA 
ATOM      6  C   GLN A   1      -7.429   6.872  65.492  1.00  0.00    -0.086 C  
ATOM      7  OXT GLN A   1      -7.862   5.866  66.031  1.00  0.00    -0.100 OA 
ENDROOT
BRANCH   4   8
ATOM      8  CB  GLN A   1      -9.022   8.723  66.276  1.00  0.00    -0.211 C  
BRANCH   8   9
ATOM      9  CG  GLN A   1      -9.399   8.804  67.756  1.00  0.00    -0.157 C  
BRANCH   9  10
ATOM     10  CD  GLN A   1     -10.546   7.878  68.096  1.00  0.00    -0.120 C  
ATOM     11  NE2 GLN A   1     -11.095   7.254  67.015  1.00  0.00    -0.576 N  
ATOM     12  OE1 GLN A   1     -10.970   7.683  69.228  1.00  0.00    -0.149 OA 
ATOM     13 1HE2 GLN A   1     -11.868   6.631  67.245  1.00  0.00     0.000 HD 
ATOM     14 2HE2 GLN A   1     -10.761   7.399  66.062  1.00  0.00     0.000 HD 
ENDBRANCH   9  10
ENDBRANCH   8   9
ENDBRANCH   4   8
TORSDOF 3
ENDMDL
MODEL      227
REMARK 921   NORMALIZED FREE ENERGY PREDICTED BY IDOCK:   -1.44 KCAL/MOL
REMARK 922        TOTAL FREE ENERGY PREDICTED BY IDOCK:   -1.80 KCAL/MOL
REMARK 923 INTER-LIGAND FREE ENERGY PREDICTED BY IDOCK:   -1.64 KCAL/MOL
REMARK 924 INTRA-LIGAND FREE ENERGY PREDICTED BY IDOCK:   -0.17 KCAL/MOL
REMARK 927      BINDING AFFINITY PREDICTED BY RF-SCORE:    0.00 PKD
ROOT
ATOM      1  N   GLN A   1      -7.385   7.201  68.977  1.00  0.00    -0.090 NA 
ATOM      2  H1  GLN A   1      -7.395   6.317  69.488  1.00  0.00     0.000 HD 
ATOM      3  H2  GLN A   1      -6.486   7.678  69.049  1.00  0.00     0.000 HD 
ATOM      4  CA  GLN A   1      -8.522   8.061  69.446  1.00  0.00    -0.132 C  
ATOM      5  O   GLN A   1      -9.579   6.006  68.810  1.00  0.00    -0.126 OA 
ATOM      6  C   GLN A   1      -9.831   7.265  69.251  1.00  0.00    -0.166 C  
ATOM      7  OXT GLN A   1     -10.956   7.675  69.486  1.00  0.00    -0.204 OA 
ENDROOT
BRANCH   4   8
ATOM      8  CB  GLN A   1      -8.508   9.386  68.681  1.00  0.00    -0.119 C  
BRANCH   8   9
ATOM      9  CG  GLN A   1      -8.216   9.233  67.188  1.00  0.00    -0.117 C  
BRANCH   9  10
ATOM     10  CD  GLN A   1      -9.141  10.080  66.343  1.00  0.00    -0.149 C  
ATOM     11  NE2 GLN A   1      -8.497  10.860  65.429  1.00  0.00    -0.308 N  
ATOM     12  OE1 GLN A   1     -10.361  10.090  66.444  1.00  0.00    -0.226 OA 
ATOM     13 1HE2 GLN A   1      -9.121  11.432  64.859  1.00  0.00     0.000 HD 
ATOM     14 2HE2 GLN A   1      -7.483  10.871  65.324  1.00  0.00     0.000 HD 
ENDBRANCH   9  10
ENDBRANCH   8   9
ENDBRANCH   4   8
TORSDOF 3
ENDMDL
MODEL      228
REMARK 921   NORMALIZED FREE ENERGY PREDICTED BY IDOCK:   -1.41 KCAL/MOL
REMARK 922        TOTAL FREE ENERGY PREDICTED BY IDOCK:   -1.77 KCAL/MOL
REMARK 923 INTER-LIGAND FREE ENERGY PREDICTED BY IDOCK:   -1.67 KCAL/MOL
REMARK 924 INTRA-LIGAND FREE ENERGY PREDICTED BY IDOCK:   -0.10 KCAL/MOL
REMARK 927      BINDING AFFINITY PREDICTED BY RF-SCORE:    0.00 PKD
ROOT
ATOM      1  N   GLN A   1      -7.059  10.104  64.891  1.00  0.00    -0.136 NA 
ATOM      2  H1  GLN A   1      -6.225   9.572  64.640  1.00  0.00     0.000 HD 
ATOM      3  H2  GLN A   1      -6.832  11.030  65.254  1.00  0.00     0.000 HD 
ATOM      4  CA  GLN A   1      -7.891   9.306  65.852  1.00  0.00    -0.099 C  
ATOM      5  O   GLN A   1      -7.591   7.830  63.987  1.00  0.00    -0.099 OA 
ATOM      6  C   GLN A   1      -8.215   7.951  65.187  1.00  0.00    -0.141 C  
ATOM      7  OXT GLN A   1      -8.911   7.070  65.667  1.00  0.00    -0.118 OA 
ENDROOT
BRANCH   4   8
ATOM      8  CB  GLN A   1      -9.141  10.104  66.228  1.00  0.00    -0.180 C  
BRANCH   8   9
ATOM      9  CG  GLN A   1      -9.480  10.052  67.718  1.00  0.00    -0.157 C  
BRANCH   9  10
ATOM     10  CD  GLN A   1     -10.706  10.875  68.046  1.00  0.00    -0.220 C  
ATOM     11  NE2 GLN A   1     -11.213  11.563  66.983  1.00  0.00    -0.302 N  
ATOM     12  OE1 GLN A   1     -11.225  10.940  69.154  1.00  0.00    -0.214 OA 
ATOM     13 1HE2 GLN A   1     -12.040  12.117  67.204  1.00  0.00     0.000 HD 
ATOM     14 2HE2 GLN A   1     -10.802  11.525  66.051  1.00  0.00     0.000 HD 
ENDBRANCH   9  10
ENDBRANCH   8   9
ENDBRANCH   4   8
TORSDOF 3
ENDMDL
MODEL      229
REMARK 921   NORMALIZED FREE ENERGY PREDICTED BY IDOCK:   -1.39 KCAL/MOL
REMARK 922        TOTAL FREE ENERGY PREDICTED BY IDOCK:   -1.74 KCAL/MOL
REMARK 923 INTER-LIGAND FREE ENERGY PREDICTED BY IDOCK:   -1.63 KCAL/MOL
REMARK 924 INTRA-LIGAND FREE ENERGY PREDICTED BY IDOCK:   -0.11 KCAL/MOL
REMARK 927      BINDING AFFINITY PREDICTED BY RF-SCORE:    0.00 PKD
ROOT
ATOM      1  N   GLN A   1      -6.438   2.011  68.204  1.00  0.00    -0.028 NA 
ATOM      2  H1  GLN A   1      -5.701   2.223  68.878  1.00  0.00     0.000 HD 
ATOM      3  H2  GLN A   1      -6.135   2.158  67.242  1.00  0.00     0.000 HD 
ATOM      4  CA  GLN A   1      -7.666   2.806  68.541  1.00  0.00    -0.054 C  
ATOM      5  O   GLN A   1      -7.154   1.647  70.576  1.00  0.00    -0.032 OA 
ATOM      6  C   GLN A   1      -8.062   2.473  69.996  1.00  0.00    -0.041 C  
ATOM      7  OXT GLN A   1      -9.039   2.907  70.584  1.00  0.00    -0.097 OA 
ENDROOT
BRANCH   4   8
ATOM      8  CB  GLN A   1      -8.771   2.488  67.531  1.00  0.00    -0.139 C  
BRANCH   8   9
ATOM      9  CG  GLN A   1      -9.630   3.697  67.158  1.00  0.00    -0.194 C  
BRANCH   9  10
ATOM     10  CD  GLN A   1      -9.774   3.844  65.659  1.00  0.00    -0.170 C  
ATOM     11  NE2 GLN A   1     -10.854   4.581  65.275  1.00  0.00    -0.755 N  
ATOM     12  OE1 GLN A   1      -9.008   3.358  64.835  1.00  0.00    -0.122 OA 
ATOM     13 1HE2 GLN A   1     -10.951   4.680  64.265  1.00  0.00     0.000 HD 
ATOM     14 2HE2 GLN A   1     -11.507   4.997  65.940  1.00  0.00     0.000 HD 
ENDBRANCH   9  10
ENDBRANCH   8   9
ENDBRANCH   4   8
TORSDOF 3
ENDMDL
MODEL      230
REMARK 921   NORMALIZED FREE ENERGY PREDICTED BY IDOCK:   -1.39 KCAL/MOL
REMARK 922        TOTAL FREE ENERGY PREDICTED BY IDOCK:   -1.74 KCAL/MOL
REMARK 923 INTER-LIGAND FREE ENERGY PREDICTED BY IDOCK:   -1.43 KCAL/MOL
REMARK 924 INTRA-LIGAND FREE ENERGY PREDICTED BY IDOCK:   -0.31 KCAL/MOL
REMARK 927      BINDING AFFINITY PREDICTED BY RF-SCORE:    0.00 PKD
ROOT
ATOM      1  N   GLN A   1      -6.586   6.606  64.798  1.00  0.00    -0.041 NA 
ATOM      2  H1  GLN A   1      -6.151   7.046  63.986  1.00  0.00     0.000 HD 
ATOM      3  H2  GLN A   1      -6.570   5.588  64.740  1.00  0.00     0.000 HD 
ATOM      4  CA  GLN A   1      -7.977   7.143  64.970  1.00  0.00    -0.129 C  
ATOM      5  O   GLN A   1      -6.604   9.107  64.920  1.00  0.00    -0.069 OA 
ATOM      6  C   GLN A   1      -7.881   8.679  65.093  1.00  0.00    -0.110 C  
ATOM      7  OXT GLN A   1      -8.817   9.438  65.287  1.00  0.00    -0.166 OA 
ENDROOT
BRANCH   4   8
ATOM      8  CB  GLN A   1      -8.631   6.484  66.186  1.00  0.00    -0.146 C  
BRANCH   8   9
ATOM      9  CG  GLN A   1      -9.497   5.272  65.839  1.00  0.00    -0.156 C  
BRANCH   9  10
ATOM     10  CD  GLN A   1      -8.789   3.969  66.141  1.00  0.00    -0.120 C  
ATOM     11  NE2 GLN A   1      -9.596   3.010  66.677  1.00  0.00    -0.406 N  
ATOM     12  OE1 GLN A   1      -7.599   3.760  65.934  1.00  0.00    -0.083 OA 
ATOM     13 1HE2 GLN A   1      -9.118   2.133  66.881  1.00  0.00     0.000 HD 
ATOM     14 2HE2 GLN A   1     -10.589   3.158  66.859  1.00  0.00     0.000 HD 
ENDBRANCH   9  10
ENDBRANCH   8   9
ENDBRANCH   4   8
TORSDOF 3
ENDMDL
MODEL      231
REMARK 921   NORMALIZED FREE ENERGY PREDICTED BY IDOCK:   -1.38 KCAL/MOL
REMARK 922        TOTAL FREE ENERGY PREDICTED BY IDOCK:   -1.74 KCAL/MOL
REMARK 923 INTER-LIGAND FREE ENERGY PREDICTED BY IDOCK:   -1.50 KCAL/MOL
REMARK 924 INTRA-LIGAND FREE ENERGY PREDICTED BY IDOCK:   -0.24 KCAL/MOL
REMARK 927      BINDING AFFINITY PREDICTED BY RF-SCORE:    0.00 PKD
ROOT
ATOM      1  N   GLN A   1      -8.584   6.692  70.421  1.00  0.00    -0.141 NA 
ATOM      2  H1  GLN A   1      -7.798   6.260  70.909  1.00  0.00     0.000 HD 
ATOM      3  H2  GLN A   1      -9.387   6.067  70.353  1.00  0.00     0.000 HD 
ATOM      4  CA  GLN A   1      -8.129   7.181  69.077  1.00  0.00    -0.121 C  
ATOM      5  O   GLN A   1      -6.603   8.211  70.611  1.00  0.00    -0.036 OA 
ATOM      6  C   GLN A   1      -6.949   8.151  69.300  1.00  0.00    -0.055 C  
ATOM      7  OXT GLN A   1      -6.361   8.769  68.426  1.00  0.00    -0.053 OA 
ENDROOT
BRANCH   4   8
ATOM      8  CB  GLN A   1      -9.307   7.828  68.345  1.00  0.00    -0.143 C  
BRANCH   8   9
ATOM      9  CG  GLN A   1     -10.426   8.300  69.275  1.00  0.00    -0.218 C  
BRANCH   9  10
ATOM     10  CD  GLN A   1     -10.366   9.792  69.517  1.00  0.00    -0.230 C  
ATOM     11  NE2 GLN A   1     -11.282  10.245  70.420  1.00  0.00    -0.315 N  
ATOM     12  OE1 GLN A   1      -9.579  10.555  68.970  1.00  0.00    -0.187 OA 
ATOM     13 1HE2 GLN A   1     -11.241  11.250  70.583  1.00  0.00     0.000 HD 
ATOM     14 2HE2 GLN A   1     -11.947   9.632  70.890  1.00  0.00     0.000 HD 
ENDBRANCH   9  10
ENDBRANCH   8   9
ENDBRANCH   4   8
TORSDOF 3
ENDMDL
MODEL      232
REMARK 921   NORMALIZED FREE ENERGY PREDICTED BY IDOCK:   -1.33 KCAL/MOL
REMARK 922        TOTAL FREE ENERGY PREDICTED BY IDOCK:   -1.67 KCAL/MOL
REMARK 923 INTER-LIGAND FREE ENERGY PREDICTED BY IDOCK:   -1.60 KCAL/MOL
REMARK 924 INTRA-LIGAND FREE ENERGY PREDICTED BY IDOCK:   -0.07 KCAL/MOL
REMARK 927      BINDING AFFINITY PREDICTED BY RF-SCORE:    0.00 PKD
ROOT
ATOM      1  N   GLN A   1      -6.669   5.255  67.909  1.00  0.00    -0.053 NA 
ATOM      2  H1  GLN A   1      -5.665   5.146  68.055  1.00  0.00     0.000 HD 
ATOM      3  H2  GLN A   1      -6.973   4.873  67.013  1.00  0.00     0.000 HD 
ATOM      4  CA  GLN A   1      -7.041   6.701  68.064  1.00  0.00    -0.089 C  
ATOM      5  O   GLN A   1      -5.898   6.178  70.105  1.00  0.00    -0.016 OA 
ATOM      6  C   GLN A   1      -6.579   7.162  69.463  1.00  0.00    -0.044 C  
ATOM      7  OXT GLN A   1      -6.758   8.270  69.943  1.00  0.00    -0.042 OA 
ENDROOT
BRANCH   4   8
ATOM      8  CB  GLN A   1      -8.546   6.867  67.845  1.00  0.00    -0.122 C  
BRANCH   8   9
ATOM      9  CG  GLN A   1      -8.907   7.496  66.499  1.00  0.00    -0.167 C  
BRANCH   9  10
ATOM     10  CD  GLN A   1     -10.090   8.433  66.614  1.00  0.00    -0.288 C  
ATOM     11  NE2 GLN A   1     -11.029   8.030  67.516  1.00  0.00    -0.506 N  
ATOM     12  OE1 GLN A   1     -10.224   9.467  65.972  1.00  0.00    -0.272 OA 
ATOM     13 1HE2 GLN A   1     -11.826   8.662  67.594  1.00  0.00     0.000 HD 
ATOM     14 2HE2 GLN A   1     -10.943   7.175  68.064  1.00  0.00     0.000 HD 
ENDBRANCH   9  10
ENDBRANCH   8   9
ENDBRANCH   4   8
TORSDOF 3
ENDMDL
MODEL      233
REMARK 921   NORMALIZED FREE ENERGY PREDICTED BY IDOCK:   -1.32 KCAL/MOL
REMARK 922        TOTAL FREE ENERGY PREDICTED BY IDOCK:   -1.67 KCAL/MOL
REMARK 923 INTER-LIGAND FREE ENERGY PREDICTED BY IDOCK:   -1.43 KCAL/MOL
REMARK 924 INTRA-LIGAND FREE ENERGY PREDICTED BY IDOCK:   -0.23 KCAL/MOL
REMARK 927      BINDING AFFINITY PREDICTED BY RF-SCORE:    0.00 PKD
ROOT
ATOM      1  N   GLN A   1      -8.376   6.445  68.328  1.00  0.00    -0.116 NA 
ATOM      2  H1  GLN A   1      -8.550   5.765  69.069  1.00  0.00     0.000 HD 
ATOM      3  H2  GLN A   1      -8.065   7.345  68.695  1.00  0.00     0.000 HD 
ATOM      4  CA  GLN A   1      -9.601   6.575  67.471  1.00  0.00    -0.124 C  
ATOM      5  O   GLN A   1      -9.131   4.225  67.452  1.00  0.00    -0.121 OA 
ATOM      6  C   GLN A   1      -9.954   5.172  66.933  1.00  0.00    -0.201 C  
ATOM      7  OXT GLN A   1     -10.869   4.912  66.167  1.00  0.00    -0.289 OA 
ENDROOT
BRANCH   4   8
ATOM      8  CB  GLN A   1      -9.341   7.595  66.361  1.00  0.00    -0.228 C  
BRANCH   8   9
ATOM      9  CG  GLN A   1      -7.858   7.794  66.043  1.00  0.00    -0.100 C  
BRANCH   9  10
ATOM     10  CD  GLN A   1      -7.451   7.068  64.779  1.00  0.00    -0.096 C  
ATOM     11  NE2 GLN A   1      -6.208   7.398  64.327  1.00  0.00    -0.040 N  
ATOM     12  OE1 GLN A   1      -8.149   6.252  64.190  1.00  0.00    -0.118 OA 
ATOM     13 1HE2 GLN A   1      -5.933   6.909  63.475  1.00  0.00     0.000 HD 
ATOM     14 2HE2 GLN A   1      -5.606   8.073  64.799  1.00  0.00     0.000 HD 
ENDBRANCH   9  10
ENDBRANCH   8   9
ENDBRANCH   4   8
TORSDOF 3
ENDMDL
MODEL      234
REMARK 921   NORMALIZED FREE ENERGY PREDICTED BY IDOCK:   -1.27 KCAL/MOL
REMARK 922        TOTAL FREE ENERGY PREDICTED BY IDOCK:   -1.61 KCAL/MOL
REMARK 923 INTER-LIGAND FREE ENERGY PREDICTED BY IDOCK:   -1.95 KCAL/MOL
REMARK 924 INTRA-LIGAND FREE ENERGY PREDICTED BY IDOCK:    0.34 KCAL/MOL
REMARK 927      BINDING AFFINITY PREDICTED BY RF-SCORE:    0.00 PKD
ROOT
ATOM      1  N   GLN A   1      -6.709   5.275  67.888  1.00  0.00    -0.053 NA 
ATOM      2  H1  GLN A   1      -5.724   5.207  68.145  1.00  0.00     0.000 HD 
ATOM      3  H2  GLN A   1      -6.901   4.853  66.980  1.00  0.00     0.000 HD 
ATOM      4  CA  GLN A   1      -7.142   6.711  67.950  1.00  0.00    -0.085 C  
ATOM      5  O   GLN A   1      -6.213   6.296  70.120  1.00  0.00    -0.029 OA 
ATOM      6  C   GLN A   1      -6.850   7.233  69.373  1.00  0.00    -0.050 C  
ATOM      7  OXT GLN A   1      -7.116   8.350  69.791  1.00  0.00    -0.050 OA 
ENDROOT
BRANCH   4   8
ATOM      8  CB  GLN A   1      -8.619   6.815  67.564  1.00  0.00    -0.120 C  
BRANCH   8   9
ATOM      9  CG  GLN A   1      -9.530   7.228  68.721  1.00  0.00    -0.142 C  
BRANCH   9  10
ATOM     10  CD  GLN A   1     -10.905   6.609  68.603  1.00  0.00    -0.262 C  
ATOM     11  NE2 GLN A   1     -11.397   6.587  67.332  1.00  0.00    -0.758 N  
ATOM     12  OE1 GLN A   1     -11.548   6.159  69.544  1.00  0.00    -0.396 OA 
ATOM     13 1HE2 GLN A   1     -12.324   6.171  67.253  1.00  0.00     0.000 HD 
ATOM     14 2HE2 GLN A   1     -10.882   6.955  66.532  1.00  0.00     0.000 HD 
ENDBRANCH   9  10
ENDBRANCH   8   9
ENDBRANCH   4   8
TORSDOF 3
ENDMDL
MODEL      235
REMARK 921   NORMALIZED FREE ENERGY PREDICTED BY IDOCK:   -1.21 KCAL/MOL
REMARK 922        TOTAL FREE ENERGY PREDICTED BY IDOCK:   -1.53 KCAL/MOL
REMARK 923 INTER-LIGAND FREE ENERGY PREDICTED BY IDOCK:   -1.24 KCAL/MOL
REMARK 924 INTRA-LIGAND FREE ENERGY PREDICTED BY IDOCK:   -0.29 KCAL/MOL
REMARK 927      BINDING AFFINITY PREDICTED BY RF-SCORE:    0.00 PKD
ROOT
ATOM      1  N   GLN A   1      -6.850   5.285  67.714  1.00  0.00    -0.059 NA 
ATOM      2  H1  GLN A   1      -5.983   5.609  68.143  1.00  0.00     0.000 HD 
ATOM      3  H2  GLN A   1      -6.684   4.590  66.986  1.00  0.00     0.000 HD 
ATOM      4  CA  GLN A   1      -7.626   6.464  67.206  1.00  0.00    -0.096 C  
ATOM      5  O   GLN A   1      -7.231   6.985  69.512  1.00  0.00    -0.076 OA 
ATOM      6  C   GLN A   1      -7.861   7.424  68.393  1.00  0.00    -0.122 C  
ATOM      7  OXT GLN A   1      -8.497   8.465  68.351  1.00  0.00    -0.133 OA 
ENDROOT
BRANCH   4   8
ATOM      8  CB  GLN A   1      -8.927   5.978  66.562  1.00  0.00    -0.137 C  
BRANCH   8   9
ATOM      9  CG  GLN A   1      -8.713   5.100  65.328  1.00  0.00    -0.150 C  
BRANCH   9  10
ATOM     10  CD  GLN A   1      -9.174   3.679  65.562  1.00  0.00    -0.155 C  
ATOM     11  NE2 GLN A   1      -9.055   3.263  66.855  1.00  0.00    -0.160 N  
ATOM     12  OE1 GLN A   1      -9.619   2.939  64.693  1.00  0.00    -0.153 OA 
ATOM     13 1HE2 GLN A   1      -9.366   2.304  67.012  1.00  0.00     0.000 HD 
ATOM     14 2HE2 GLN A   1      -8.688   3.857  67.598  1.00  0.00     0.000 HD 
ENDBRANCH   9  10
ENDBRANCH   8   9
ENDBRANCH   4   8
TORSDOF 3
ENDMDL
MODEL      236
REMARK 921   NORMALIZED FREE ENERGY PREDICTED BY IDOCK:   -1.11 KCAL/MOL
REMARK 922        TOTAL FREE ENERGY PREDICTED BY IDOCK:   -1.42 KCAL/MOL
REMARK 923 INTER-LIGAND FREE ENERGY PREDICTED BY IDOCK:   -1.35 KCAL/MOL
REMARK 924 INTRA-LIGAND FREE ENERGY PREDICTED BY IDOCK:   -0.07 KCAL/MOL
REMARK 927      BINDING AFFINITY PREDICTED BY RF-SCORE:    0.00 PKD
ROOT
ATOM      1  N   GLN A   1      -6.500   8.796  65.650  1.00  0.00    -0.059 NA 
ATOM      2  H1  GLN A   1      -5.887   8.478  64.898  1.00  0.00     0.000 HD 
ATOM      3  H2  GLN A   1      -5.992   9.303  66.374  1.00  0.00     0.000 HD 
ATOM      4  CA  GLN A   1      -7.259   7.625  66.203  1.00  0.00    -0.070 C  
ATOM      5  O   GLN A   1      -7.726   7.555  63.853  1.00  0.00    -0.114 OA 
ATOM      6  C   GLN A   1      -8.024   6.963  65.037  1.00  0.00    -0.125 C  
ATOM      7  OXT GLN A   1      -8.780   6.008  65.132  1.00  0.00    -0.116 OA 
ENDROOT
BRANCH   4   8
ATOM      8  CB  GLN A   1      -8.179   8.101  67.330  1.00  0.00    -0.121 C  
BRANCH   8   9
ATOM      9  CG  GLN A   1      -7.713   9.394  68.001  1.00  0.00    -0.084 C  
BRANCH   9  10
ATOM     10  CD  GLN A   1      -8.574   9.752  69.191  1.00  0.00    -0.153 C  
ATOM     11  NE2 GLN A   1      -8.514  11.068  69.543  1.00  0.00    -0.353 N  
ATOM     12  OE1 GLN A   1      -9.275   8.958  69.807  1.00  0.00    -0.156 OA 
ATOM     13 1HE2 GLN A   1      -9.095  11.309  70.346  1.00  0.00     0.000 HD 
ATOM     14 2HE2 GLN A   1      -7.940  11.749  69.048  1.00  0.00     0.000 HD 
ENDBRANCH   9  10
ENDBRANCH   8   9
ENDBRANCH   4   8
TORSDOF 3
ENDMDL
MODEL      237
REMARK 921   NORMALIZED FREE ENERGY PREDICTED BY IDOCK:   -0.94 KCAL/MOL
REMARK 922        TOTAL FREE ENERGY PREDICTED BY IDOCK:   -1.22 KCAL/MOL
REMARK 923 INTER-LIGAND FREE ENERGY PREDICTED BY IDOCK:   -1.13 KCAL/MOL
REMARK 924 INTRA-LIGAND FREE ENERGY PREDICTED BY IDOCK:   -0.08 KCAL/MOL
REMARK 927      BINDING AFFINITY PREDICTED BY RF-SCORE:    0.00 PKD
ROOT
ATOM      1  N   GLN A   1      -6.104   8.457  65.923  1.00  0.00    -0.048 NA 
ATOM      2  H1  GLN A   1      -5.803   7.734  65.269  1.00  0.00     0.000 HD 
ATOM      3  H2  GLN A   1      -5.415   9.204  66.017  1.00  0.00     0.000 HD 
ATOM      4  CA  GLN A   1      -6.442   7.827  67.242  1.00  0.00    -0.056 C  
ATOM      5  O   GLN A   1      -7.783   6.617  65.666  1.00  0.00    -0.085 OA 
ATOM      6  C   GLN A   1      -7.521   6.752  66.991  1.00  0.00    -0.087 C  
ATOM      7  OXT GLN A   1      -8.061   6.071  67.849  1.00  0.00    -0.104 OA 
ENDROOT
BRANCH   4   8
ATOM      8  CB  GLN A   1      -6.894   8.911  68.223  1.00  0.00    -0.065 C  
BRANCH   8   9
ATOM      9  CG  GLN A   1      -7.068  10.289  67.582  1.00  0.00    -0.086 C  
BRANCH   9  10
ATOM     10  CD  GLN A   1      -7.553  11.317  68.579  1.00  0.00    -0.123 C  
ATOM     11  NE2 GLN A   1      -8.583  10.888  69.362  1.00  0.00    -0.384 N  
ATOM     12  OE1 GLN A   1      -7.087  12.444  68.700  1.00  0.00    -0.094 OA 
ATOM     13 1HE2 GLN A   1      -8.911  11.581  70.034  1.00  0.00     0.000 HD 
ATOM     14 2HE2 GLN A   1      -8.990   9.956  69.282  1.00  0.00     0.000 HD 
ENDBRANCH   9  10
ENDBRANCH   8   9
ENDBRANCH   4   8
TORSDOF 3
ENDMDL
MODEL      238
REMARK 921   NORMALIZED FREE ENERGY PREDICTED BY IDOCK:   -0.59 KCAL/MOL
REMARK 922        TOTAL FREE ENERGY PREDICTED BY IDOCK:   -0.80 KCAL/MOL
REMARK 923 INTER-LIGAND FREE ENERGY PREDICTED BY IDOCK:   -0.58 KCAL/MOL
REMARK 924 INTRA-LIGAND FREE ENERGY PREDICTED BY IDOCK:   -0.22 KCAL/MOL
REMARK 927      BINDING AFFINITY PREDICTED BY RF-SCORE:    0.00 PKD
ROOT
ATOM      1  N   GLN A   1      -6.466   6.826  64.894  1.00  0.00    -0.041 NA 
ATOM      2  H1  GLN A   1      -6.111   5.980  64.447  1.00  0.00     0.000 HD 
ATOM      3  H2  GLN A   1      -5.962   7.661  64.594  1.00  0.00     0.000 HD 
ATOM      4  CA  GLN A   1      -6.438   6.652  66.384  1.00  0.00    -0.043 C  
ATOM      5  O   GLN A   1      -7.692   4.762  65.607  1.00  0.00    -0.088 OA 
ATOM      6  C   GLN A   1      -7.264   5.394  66.730  1.00  0.00    -0.078 C  
ATOM      7  OXT GLN A   1      -7.491   4.978  67.856  1.00  0.00    -0.077 OA 
ENDROOT
BRANCH   4   8
ATOM      8  CB  GLN A   1      -6.969   7.921  67.055  1.00  0.00    -0.074 C  
BRANCH   8   9
ATOM      9  CG  GLN A   1      -6.105   8.411  68.218  1.00  0.00    -0.046 C  
BRANCH   9  10
ATOM     10  CD  GLN A   1      -6.702   8.043  69.558  1.00  0.00    -0.038 C  
ATOM     11  NE2 GLN A   1      -7.643   8.921  70.006  1.00  0.00    -0.061 N  
ATOM     12  OE1 GLN A   1      -6.393   7.052  70.209  1.00  0.00    -0.037 OA 
ATOM     13 1HE2 GLN A   1      -8.045   8.673  70.910  1.00  0.00     0.000 HD 
ATOM     14 2HE2 GLN A   1      -7.920   9.753  69.484  1.00  0.00     0.000 HD 
ENDBRANCH   9  10
ENDBRANCH   8   9
ENDBRANCH   4   8
TORSDOF 3
ENDMDL
