MODEL        1
REMARK 921   NORMALIZED FREE ENERGY PREDICTED BY IDOCK:   -4.25 KCAL/MOL
REMARK 922        TOTAL FREE ENERGY PREDICTED BY IDOCK:   -5.75 KCAL/MOL
REMARK 923 INTER-LIGAND FREE ENERGY PREDICTED BY IDOCK:   -5.25 KCAL/MOL
REMARK 924 INTRA-LIGAND FREE ENERGY PREDICTED BY IDOCK:   -0.50 KCAL/MOL
REMARK 927      BINDING AFFINITY PREDICTED BY RF-SCORE:    0.00 PKD
ROOT
ATOM      1  NZ  LYS A   1     -11.240  15.992  64.414  1.00  0.00    -0.924 NA 
ATOM      2  HZ2 LYS A   1     -12.238  16.085  64.603  1.00  0.00     0.000 HD 
ATOM      3  CE  LYS A   1     -10.449  16.160  65.629  1.00  0.00    -0.383 C  
ATOM      4  HZ1 LYS A   1     -10.940  16.631  63.677  1.00  0.00     0.000 HD 
ENDROOT
BRANCH   3   5
ATOM      5  CD  LYS A   1     -10.899  15.201  66.734  1.00  0.00    -0.322 C  
BRANCH   5   6
ATOM      6  CG  LYS A   1     -11.869  14.133  66.215  1.00  0.00    -0.427 C  
BRANCH   6   7
ATOM      7  CB  LYS A   1     -11.189  12.775  66.038  1.00  0.00    -0.335 C  
BRANCH   7   8
ATOM      8  CA  LYS A   1     -11.141  12.318  64.572  1.00  0.00    -0.321 C  
ATOM      9  N   LYS A   1     -10.090  13.045  63.798  1.00  0.00    -0.744 NA 
ATOM     10  C   LYS A   1     -12.497  12.617  63.915  1.00  0.00    -0.407 C  
ATOM     11  OXT LYS A   1     -13.507  11.942  64.038  1.00  0.00    -0.600 OA 
ATOM     12  O   LYS A   1     -12.442  13.766  63.187  1.00  0.00    -0.786 OA 
ATOM     13  H1  LYS A   1     -10.058  12.742  62.825  1.00  0.00     0.000 HD 
ATOM     14  H2  LYS A   1      -9.176  12.960  64.244  1.00  0.00     0.000 HD 
ENDBRANCH   7   8
ENDBRANCH   6   7
ENDBRANCH   5   6
ENDBRANCH   3   5
TORSDOF 4
ENDMDL
MODEL        2
REMARK 921   NORMALIZED FREE ENERGY PREDICTED BY IDOCK:   -4.24 KCAL/MOL
REMARK 922        TOTAL FREE ENERGY PREDICTED BY IDOCK:   -5.73 KCAL/MOL
REMARK 923 INTER-LIGAND FREE ENERGY PREDICTED BY IDOCK:   -5.26 KCAL/MOL
REMARK 924 INTRA-LIGAND FREE ENERGY PREDICTED BY IDOCK:   -0.47 KCAL/MOL
REMARK 927      BINDING AFFINITY PREDICTED BY RF-SCORE:    0.00 PKD
ROOT
ATOM      1  NZ  LYS A   1     -12.525  13.837  63.117  1.00  0.00    -1.074 NA 
ATOM      2  HZ2 LYS A   1     -11.786  14.464  62.799  1.00  0.00     0.000 HD 
ATOM      3  CE  LYS A   1     -11.976  12.589  63.639  1.00  0.00    -0.537 C  
ATOM      4  HZ1 LYS A   1     -13.212  13.669  62.382  1.00  0.00     0.000 HD 
ENDROOT
BRANCH   3   5
ATOM      5  CD  LYS A   1     -10.945  12.842  64.742  1.00  0.00    -0.334 C  
BRANCH   5   6
ATOM      6  CG  LYS A   1     -11.601  13.236  66.069  1.00  0.00    -0.384 C  
BRANCH   6   7
ATOM      7  CB  LYS A   1     -11.420  14.722  66.381  1.00  0.00    -0.319 C  
BRANCH   7   8
ATOM      8  CA  LYS A   1     -10.318  15.380  65.536  1.00  0.00    -0.387 C  
ATOM      9  N   LYS A   1      -9.208  15.906  66.384  1.00  0.00    -0.279 NA 
ATOM     10  C   LYS A   1     -10.924  16.565  64.768  1.00  0.00    -0.177 C  
ATOM     11  OXT LYS A   1     -11.586  16.481  63.746  1.00  0.00    -1.109 OA 
ATOM     12  O   LYS A   1     -10.650  17.741  65.395  1.00  0.00    -0.659 OA 
ATOM     13  H1  LYS A   1      -8.476  16.343  65.823  1.00  0.00     0.000 HD 
ATOM     14  H2  LYS A   1      -8.827  15.179  66.990  1.00  0.00     0.000 HD 
ENDBRANCH   7   8
ENDBRANCH   6   7
ENDBRANCH   5   6
ENDBRANCH   3   5
TORSDOF 4
ENDMDL
MODEL        3
REMARK 921   NORMALIZED FREE ENERGY PREDICTED BY IDOCK:   -4.07 KCAL/MOL
REMARK 922        TOTAL FREE ENERGY PREDICTED BY IDOCK:   -5.52 KCAL/MOL
REMARK 923 INTER-LIGAND FREE ENERGY PREDICTED BY IDOCK:   -5.42 KCAL/MOL
REMARK 924 INTRA-LIGAND FREE ENERGY PREDICTED BY IDOCK:   -0.10 KCAL/MOL
REMARK 927      BINDING AFFINITY PREDICTED BY RF-SCORE:    0.00 PKD
ROOT
ATOM      1  NZ  LYS A   1     -11.936   9.436  70.205  1.00  0.00    -0.470 NA 
ATOM      2  HZ2 LYS A   1     -12.869   9.025  70.222  1.00  0.00     0.000 HD 
ATOM      3  CE  LYS A   1     -11.996  10.894  70.182  1.00  0.00    -0.352 C  
ATOM      4  HZ1 LYS A   1     -11.381   9.069  69.432  1.00  0.00     0.000 HD 
ENDROOT
BRANCH   3   5
ATOM      5  CD  LYS A   1     -12.828  11.444  71.344  1.00  0.00    -0.502 C  
BRANCH   5   6
ATOM      6  CG  LYS A   1     -12.883  12.976  71.343  1.00  0.00    -0.385 C  
BRANCH   6   7
ATOM      7  CB  LYS A   1     -13.803  13.519  72.437  1.00  0.00    -0.687 C  
BRANCH   7   8
ATOM      8  CA  LYS A   1     -14.111  15.015  72.271  1.00  0.00    -0.513 C  
ATOM      9  N   LYS A   1     -14.112  15.425  70.835  1.00  0.00    -0.864 NA 
ATOM     10  C   LYS A   1     -13.023  15.828  72.989  1.00  0.00    -0.525 C  
ATOM     11  OXT LYS A   1     -12.966  16.026  74.193  1.00  0.00    -0.626 OA 
ATOM     12  O   LYS A   1     -12.094  16.284  72.106  1.00  0.00    -0.496 OA 
ATOM     13  H1  LYS A   1     -14.316  16.418  70.724  1.00  0.00     0.000 HD 
ATOM     14  H2  LYS A   1     -14.751  14.850  70.286  1.00  0.00     0.000 HD 
ENDBRANCH   7   8
ENDBRANCH   6   7
ENDBRANCH   5   6
ENDBRANCH   3   5
TORSDOF 4
ENDMDL
MODEL        4
REMARK 921   NORMALIZED FREE ENERGY PREDICTED BY IDOCK:   -4.05 KCAL/MOL
REMARK 922        TOTAL FREE ENERGY PREDICTED BY IDOCK:   -5.50 KCAL/MOL
REMARK 923 INTER-LIGAND FREE ENERGY PREDICTED BY IDOCK:   -5.41 KCAL/MOL
REMARK 924 INTRA-LIGAND FREE ENERGY PREDICTED BY IDOCK:   -0.09 KCAL/MOL
REMARK 927      BINDING AFFINITY PREDICTED BY RF-SCORE:    0.00 PKD
ROOT
ATOM      1  NZ  LYS A   1     -14.103   9.117  72.897  1.00  0.00    -1.088 NA 
ATOM      2  HZ2 LYS A   1     -14.665   9.920  73.180  1.00  0.00     0.000 HD 
ATOM      3  CE  LYS A   1     -13.512   9.320  71.578  1.00  0.00    -0.370 C  
ATOM      4  HZ1 LYS A   1     -14.642   8.252  72.940  1.00  0.00     0.000 HD 
ENDROOT
BRANCH   3   5
ATOM      5  CD  LYS A   1     -12.703  10.618  71.514  1.00  0.00    -0.549 C  
BRANCH   5   6
ATOM      6  CG  LYS A   1     -13.466  11.806  72.111  1.00  0.00    -0.273 C  
BRANCH   6   7
ATOM      7  CB  LYS A   1     -12.948  13.145  71.584  1.00  0.00    -0.429 C  
BRANCH   7   8
ATOM      8  CA  LYS A   1     -13.718  14.348  72.150  1.00  0.00    -0.463 C  
ATOM      9  N   LYS A   1     -14.249  15.227  71.067  1.00  0.00    -0.803 NA 
ATOM     10  C   LYS A   1     -12.762  15.188  73.010  1.00  0.00    -0.450 C  
ATOM     11  OXT LYS A   1     -12.426  14.929  74.156  1.00  0.00    -0.520 OA 
ATOM     12  O   LYS A   1     -12.301  16.264  72.315  1.00  0.00    -0.462 OA 
ATOM     13  H1  LYS A   1     -14.760  16.026  71.443  1.00  0.00     0.000 HD 
ATOM     14  H2  LYS A   1     -14.818  14.699  70.406  1.00  0.00     0.000 HD 
ENDBRANCH   7   8
ENDBRANCH   6   7
ENDBRANCH   5   6
ENDBRANCH   3   5
TORSDOF 4
ENDMDL
MODEL        5
REMARK 921   NORMALIZED FREE ENERGY PREDICTED BY IDOCK:   -4.05 KCAL/MOL
REMARK 922        TOTAL FREE ENERGY PREDICTED BY IDOCK:   -5.50 KCAL/MOL
REMARK 923 INTER-LIGAND FREE ENERGY PREDICTED BY IDOCK:   -5.16 KCAL/MOL
REMARK 924 INTRA-LIGAND FREE ENERGY PREDICTED BY IDOCK:   -0.34 KCAL/MOL
REMARK 927      BINDING AFFINITY PREDICTED BY RF-SCORE:    0.00 PKD
ROOT
ATOM      1  NZ  LYS A   1     -12.412  13.711  63.085  1.00  0.00    -1.045 NA 
ATOM      2  HZ2 LYS A   1     -11.546  14.251  63.080  1.00  0.00     0.000 HD 
ATOM      3  CE  LYS A   1     -12.422  12.732  64.167  1.00  0.00    -0.369 C  
ATOM      4  HZ1 LYS A   1     -12.583  13.274  62.179  1.00  0.00     0.000 HD 
ENDROOT
BRANCH   3   5
ATOM      5  CD  LYS A   1     -12.166  13.388  65.526  1.00  0.00    -0.499 C  
BRANCH   5   6
ATOM      6  CG  LYS A   1     -10.700  13.273  65.957  1.00  0.00    -0.286 C  
BRANCH   6   7
ATOM      7  CB  LYS A   1      -9.941  14.589  65.774  1.00  0.00    -0.361 C  
BRANCH   7   8
ATOM      8  CA  LYS A   1     -10.871  15.810  65.712  1.00  0.00    -0.280 C  
ATOM      9  N   LYS A   1     -11.058  16.295  64.312  1.00  0.00    -1.192 NA 
ATOM     10  C   LYS A   1     -10.243  16.953  66.524  1.00  0.00    -0.318 C  
ATOM     11  OXT LYS A   1     -10.273  17.057  67.740  1.00  0.00    -0.288 OA 
ATOM     12  O   LYS A   1      -9.610  17.839  65.708  1.00  0.00    -0.519 OA 
ATOM     13  H1  LYS A   1     -11.674  17.106  64.270  1.00  0.00     0.000 HD 
ATOM     14  H2  LYS A   1     -11.385  15.547  63.701  1.00  0.00     0.000 HD 
ENDBRANCH   7   8
ENDBRANCH   6   7
ENDBRANCH   5   6
ENDBRANCH   3   5
TORSDOF 4
ENDMDL
MODEL        6
REMARK 921   NORMALIZED FREE ENERGY PREDICTED BY IDOCK:   -4.03 KCAL/MOL
REMARK 922        TOTAL FREE ENERGY PREDICTED BY IDOCK:   -5.47 KCAL/MOL
REMARK 923 INTER-LIGAND FREE ENERGY PREDICTED BY IDOCK:   -5.32 KCAL/MOL
REMARK 924 INTRA-LIGAND FREE ENERGY PREDICTED BY IDOCK:   -0.15 KCAL/MOL
REMARK 927      BINDING AFFINITY PREDICTED BY RF-SCORE:    0.00 PKD
ROOT
ATOM      1  NZ  LYS A   1     -12.293  11.534  62.996  1.00  0.00    -0.935 NA 
ATOM      2  HZ2 LYS A   1     -12.856  12.214  63.508  1.00  0.00     0.000 HD 
ATOM      3  CE  LYS A   1     -10.880  11.642  63.347  1.00  0.00    -0.379 C  
ATOM      4  HZ1 LYS A   1     -12.438  11.612  61.990  1.00  0.00     0.000 HD 
ENDROOT
BRANCH   3   5
ATOM      5  CD  LYS A   1     -10.662  11.524  64.857  1.00  0.00    -0.357 C  
BRANCH   5   6
ATOM      6  CG  LYS A   1     -11.028  12.815  65.598  1.00  0.00    -0.302 C  
BRANCH   6   7
ATOM      7  CB  LYS A   1     -10.469  14.056  64.901  1.00  0.00    -0.453 C  
BRANCH   7   8
ATOM      8  CA  LYS A   1     -11.329  15.308  65.132  1.00  0.00    -0.321 C  
ATOM      9  N   LYS A   1     -11.463  16.127  63.891  1.00  0.00    -1.418 NA 
ATOM     10  C   LYS A   1     -10.653  16.183  66.200  1.00  0.00    -0.283 C  
ATOM     11  OXT LYS A   1     -10.699  15.992  67.405  1.00  0.00    -0.313 OA 
ATOM     12  O   LYS A   1      -9.958  17.201  65.624  1.00  0.00    -0.558 OA 
ATOM     13  H1  LYS A   1     -12.033  16.958  64.044  1.00  0.00     0.000 HD 
ATOM     14  H2  LYS A   1     -11.821  15.568  63.115  1.00  0.00     0.000 HD 
ENDBRANCH   7   8
ENDBRANCH   6   7
ENDBRANCH   5   6
ENDBRANCH   3   5
TORSDOF 4
ENDMDL
MODEL        7
REMARK 921   NORMALIZED FREE ENERGY PREDICTED BY IDOCK:   -4.00 KCAL/MOL
REMARK 922        TOTAL FREE ENERGY PREDICTED BY IDOCK:   -5.44 KCAL/MOL
REMARK 923 INTER-LIGAND FREE ENERGY PREDICTED BY IDOCK:   -4.95 KCAL/MOL
REMARK 924 INTRA-LIGAND FREE ENERGY PREDICTED BY IDOCK:   -0.49 KCAL/MOL
REMARK 927      BINDING AFFINITY PREDICTED BY RF-SCORE:    0.00 PKD
ROOT
ATOM      1  NZ  LYS A   1      -9.128  11.908  65.328  1.00  0.00    -0.414 NA 
ATOM      2  HZ2 LYS A   1      -9.304  12.913  65.353  1.00  0.00     0.000 HD 
ATOM      3  CE  LYS A   1     -10.300  11.174  64.861  1.00  0.00    -0.313 C  
ATOM      4  HZ1 LYS A   1      -8.803  11.564  66.232  1.00  0.00     0.000 HD 
ENDROOT
BRANCH   3   5
ATOM      5  CD  LYS A   1     -10.787  11.690  63.504  1.00  0.00    -0.497 C  
BRANCH   5   6
ATOM      6  CG  LYS A   1     -12.223  12.223  63.569  1.00  0.00    -0.669 C  
BRANCH   6   7
ATOM      7  CB  LYS A   1     -12.589  12.724  64.967  1.00  0.00    -0.538 C  
BRANCH   7   8
ATOM      8  CA  LYS A   1     -12.512  14.253  65.092  1.00  0.00    -0.416 C  
ATOM      9  N   LYS A   1     -12.306  14.909  63.767  1.00  0.00    -1.071 NA 
ATOM     10  C   LYS A   1     -11.317  14.618  65.986  1.00  0.00    -0.344 C  
ATOM     11  OXT LYS A   1     -11.305  14.569  67.206  1.00  0.00    -0.322 OA 
ATOM     12  O   LYS A   1     -10.242  14.981  65.236  1.00  0.00    -0.361 OA 
ATOM     13  H1  LYS A   1     -12.255  15.924  63.850  1.00  0.00     0.000 HD 
ATOM     14  H2  LYS A   1     -13.023  14.626  63.097  1.00  0.00     0.000 HD 
ENDBRANCH   7   8
ENDBRANCH   6   7
ENDBRANCH   5   6
ENDBRANCH   3   5
TORSDOF 4
ENDMDL
MODEL        8
REMARK 921   NORMALIZED FREE ENERGY PREDICTED BY IDOCK:   -3.99 KCAL/MOL
REMARK 922        TOTAL FREE ENERGY PREDICTED BY IDOCK:   -5.43 KCAL/MOL
REMARK 923 INTER-LIGAND FREE ENERGY PREDICTED BY IDOCK:   -5.26 KCAL/MOL
REMARK 924 INTRA-LIGAND FREE ENERGY PREDICTED BY IDOCK:   -0.17 KCAL/MOL
REMARK 927      BINDING AFFINITY PREDICTED BY RF-SCORE:    0.00 PKD
ROOT
ATOM      1  NZ  LYS A   1     -12.036  10.921  68.373  1.00  0.00    -0.818 NA 
ATOM      2  HZ2 LYS A   1     -12.968  10.957  67.959  1.00  0.00     0.000 HD 
ATOM      3  CE  LYS A   1     -11.000  11.149  67.371  1.00  0.00    -0.290 C  
ATOM      4  HZ1 LYS A   1     -11.887  10.048  68.878  1.00  0.00     0.000 HD 
ENDROOT
BRANCH   3   5
ATOM      5  CD  LYS A   1     -11.224  12.460  66.613  1.00  0.00    -0.366 C  
BRANCH   5   6
ATOM      6  CG  LYS A   1      -9.987  12.887  65.815  1.00  0.00    -0.261 C  
BRANCH   6   7
ATOM      7  CB  LYS A   1     -10.348  13.777  64.626  1.00  0.00    -0.393 C  
BRANCH   7   8
ATOM      8  CA  LYS A   1     -11.524  14.721  64.922  1.00  0.00    -0.412 C  
ATOM      9  N   LYS A   1     -12.464  14.818  63.766  1.00  0.00    -1.063 NA 
ATOM     10  C   LYS A   1     -10.972  16.128  65.197  1.00  0.00    -0.316 C  
ATOM     11  OXT LYS A   1     -10.475  16.501  66.248  1.00  0.00    -0.308 OA 
ATOM     12  O   LYS A   1     -11.081  16.917  64.093  1.00  0.00    -1.032 OA 
ATOM     13  H1  LYS A   1     -13.244  15.444  63.963  1.00  0.00     0.000 HD 
ATOM     14  H2  LYS A   1     -12.791  13.896  63.476  1.00  0.00     0.000 HD 
ENDBRANCH   7   8
ENDBRANCH   6   7
ENDBRANCH   5   6
ENDBRANCH   3   5
TORSDOF 4
ENDMDL
MODEL        9
REMARK 921   NORMALIZED FREE ENERGY PREDICTED BY IDOCK:   -3.89 KCAL/MOL
REMARK 922        TOTAL FREE ENERGY PREDICTED BY IDOCK:   -5.30 KCAL/MOL
REMARK 923 INTER-LIGAND FREE ENERGY PREDICTED BY IDOCK:   -4.77 KCAL/MOL
REMARK 924 INTRA-LIGAND FREE ENERGY PREDICTED BY IDOCK:   -0.53 KCAL/MOL
REMARK 927      BINDING AFFINITY PREDICTED BY RF-SCORE:    0.00 PKD
ROOT
ATOM      1  NZ  LYS A   1     -12.457  13.614  63.099  1.00  0.00    -1.045 NA 
ATOM      2  HZ2 LYS A   1     -11.572  13.942  62.711  1.00  0.00     0.000 HD 
ATOM      3  CE  LYS A   1     -12.400  12.193  63.429  1.00  0.00    -0.538 C  
ATOM      4  HZ1 LYS A   1     -13.238  13.826  62.478  1.00  0.00     0.000 HD 
ENDROOT
BRANCH   3   5
ATOM      5  CD  LYS A   1     -11.228  11.876  64.362  1.00  0.00    -0.401 C  
BRANCH   5   6
ATOM      6  CG  LYS A   1     -10.301  13.081  64.559  1.00  0.00    -0.386 C  
BRANCH   6   7
ATOM      7  CB  LYS A   1     -10.151  13.456  66.034  1.00  0.00    -0.308 C  
BRANCH   7   8
ATOM      8  CA  LYS A   1     -10.914  14.737  66.404  1.00  0.00    -0.331 C  
ATOM      9  N   LYS A   1     -12.383  14.592  66.184  1.00  0.00    -0.285 NA 
ATOM     10  C   LYS A   1     -10.418  15.885  65.511  1.00  0.00    -0.404 C  
ATOM     11  OXT LYS A   1      -9.385  16.514  65.675  1.00  0.00    -0.490 OA 
ATOM     12  O   LYS A   1     -11.274  16.100  64.475  1.00  0.00    -0.583 OA 
ATOM     13  H1  LYS A   1     -12.890  15.442  66.430  1.00  0.00     0.000 HD 
ATOM     14  H2  LYS A   1     -12.754  13.782  66.681  1.00  0.00     0.000 HD 
ENDBRANCH   7   8
ENDBRANCH   6   7
ENDBRANCH   5   6
ENDBRANCH   3   5
TORSDOF 4
ENDMDL
MODEL       10
REMARK 921   NORMALIZED FREE ENERGY PREDICTED BY IDOCK:   -3.86 KCAL/MOL
REMARK 922        TOTAL FREE ENERGY PREDICTED BY IDOCK:   -5.26 KCAL/MOL
REMARK 923 INTER-LIGAND FREE ENERGY PREDICTED BY IDOCK:   -5.19 KCAL/MOL
REMARK 924 INTRA-LIGAND FREE ENERGY PREDICTED BY IDOCK:   -0.07 KCAL/MOL
REMARK 927      BINDING AFFINITY PREDICTED BY RF-SCORE:    0.00 PKD
ROOT
ATOM      1  NZ  LYS A   1     -12.216  10.809  68.467  1.00  0.00    -0.822 NA 
ATOM      2  HZ2 LYS A   1     -13.134  10.945  68.041  1.00  0.00     0.000 HD 
ATOM      3  CE  LYS A   1     -11.245  11.773  67.958  1.00  0.00    -0.263 C  
ATOM      4  HZ1 LYS A   1     -11.891   9.849  68.351  1.00  0.00     0.000 HD 
ENDROOT
BRANCH   3   5
ATOM      5  CD  LYS A   1     -11.733  13.213  68.133  1.00  0.00    -0.391 C  
BRANCH   5   6
ATOM      6  CG  LYS A   1     -12.157  13.846  66.803  1.00  0.00    -0.476 C  
BRANCH   6   7
ATOM      7  CB  LYS A   1     -10.967  14.074  65.869  1.00  0.00    -0.286 C  
BRANCH   7   8
ATOM      8  CA  LYS A   1     -11.314  13.835  64.392  1.00  0.00    -0.360 C  
ATOM      9  N   LYS A   1     -12.383  14.761  63.916  1.00  0.00    -1.070 NA 
ATOM     10  C   LYS A   1     -11.833  12.398  64.230  1.00  0.00    -0.398 C  
ATOM     11  OXT LYS A   1     -11.136  11.396  64.175  1.00  0.00    -0.362 OA 
ATOM     12  O   LYS A   1     -13.192  12.374  64.184  1.00  0.00    -0.761 OA 
ATOM     13  H1  LYS A   1     -12.614  14.603  62.935  1.00  0.00     0.000 HD 
ATOM     14  H2  LYS A   1     -12.133  15.736  64.086  1.00  0.00     0.000 HD 
ENDBRANCH   7   8
ENDBRANCH   6   7
ENDBRANCH   5   6
ENDBRANCH   3   5
TORSDOF 4
ENDMDL
MODEL       11
REMARK 921   NORMALIZED FREE ENERGY PREDICTED BY IDOCK:   -3.81 KCAL/MOL
REMARK 922        TOTAL FREE ENERGY PREDICTED BY IDOCK:   -5.20 KCAL/MOL
REMARK 923 INTER-LIGAND FREE ENERGY PREDICTED BY IDOCK:   -5.10 KCAL/MOL
REMARK 924 INTRA-LIGAND FREE ENERGY PREDICTED BY IDOCK:   -0.11 KCAL/MOL
REMARK 927      BINDING AFFINITY PREDICTED BY RF-SCORE:    0.00 PKD
ROOT
ATOM      1  NZ  LYS A   1     -12.531  15.527  69.641  1.00  0.00    -0.591 NA 
ATOM      2  HZ2 LYS A   1     -13.354  15.066  70.032  1.00  0.00     0.000 HD 
ATOM      3  CE  LYS A   1     -11.499  14.560  69.284  1.00  0.00    -0.288 C  
ATOM      4  HZ1 LYS A   1     -12.174  16.245  70.271  1.00  0.00     0.000 HD 
ENDROOT
BRANCH   3   5
ATOM      5  CD  LYS A   1     -12.036  13.482  68.338  1.00  0.00    -0.378 C  
BRANCH   5   6
ATOM      6  CG  LYS A   1     -11.715  13.787  66.871  1.00  0.00    -0.424 C  
BRANCH   6   7
ATOM      7  CB  LYS A   1     -11.475  12.513  66.058  1.00  0.00    -0.423 C  
BRANCH   7   8
ATOM      8  CA  LYS A   1     -10.950  12.798  64.643  1.00  0.00    -0.327 C  
ATOM      9  N   LYS A   1     -10.224  14.101  64.572  1.00  0.00    -0.678 NA 
ATOM     10  C   LYS A   1     -12.142  12.873  63.677  1.00  0.00    -0.535 C  
ATOM     11  OXT LYS A   1     -12.735  11.914  63.208  1.00  0.00    -0.654 OA 
ATOM     12  O   LYS A   1     -12.484  14.166  63.426  1.00  0.00    -0.797 OA 
ATOM     13  H1  LYS A   1      -9.875  14.290  63.632  1.00  0.00     0.000 HD 
ATOM     14  H2  LYS A   1      -9.474  14.146  65.263  1.00  0.00     0.000 HD 
ENDBRANCH   7   8
ENDBRANCH   6   7
ENDBRANCH   5   6
ENDBRANCH   3   5
TORSDOF 4
ENDMDL
MODEL       12
REMARK 921   NORMALIZED FREE ENERGY PREDICTED BY IDOCK:   -3.80 KCAL/MOL
REMARK 922        TOTAL FREE ENERGY PREDICTED BY IDOCK:   -5.18 KCAL/MOL
REMARK 923 INTER-LIGAND FREE ENERGY PREDICTED BY IDOCK:   -5.15 KCAL/MOL
REMARK 924 INTRA-LIGAND FREE ENERGY PREDICTED BY IDOCK:   -0.04 KCAL/MOL
REMARK 927      BINDING AFFINITY PREDICTED BY RF-SCORE:    0.00 PKD
ROOT
ATOM      1  NZ  LYS A   1     -11.661  16.292  63.823  1.00  0.00    -1.488 NA 
ATOM      2  HZ2 LYS A   1     -12.606  15.907  63.814  1.00  0.00     0.000 HD 
ATOM      3  CE  LYS A   1     -10.845  15.673  64.863  1.00  0.00    -0.418 C  
ATOM      4  HZ1 LYS A   1     -11.675  17.309  63.909  1.00  0.00     0.000 HD 
ENDROOT
BRANCH   3   5
ATOM      5  CD  LYS A   1     -10.824  14.148  64.733  1.00  0.00    -0.426 C  
BRANCH   5   6
ATOM      6  CG  LYS A   1     -10.058  13.480  65.880  1.00  0.00    -0.311 C  
BRANCH   6   7
ATOM      7  CB  LYS A   1     -10.356  14.134  67.230  1.00  0.00    -0.267 C  
BRANCH   7   8
ATOM      8  CA  LYS A   1     -11.797  13.895  67.704  1.00  0.00    -0.386 C  
ATOM      9  N   LYS A   1     -12.231  14.917  68.702  1.00  0.00    -0.591 NA 
ATOM     10  C   LYS A   1     -11.874  12.518  68.381  1.00  0.00    -0.304 C  
ATOM     11  OXT LYS A   1     -11.942  11.446  67.800  1.00  0.00    -0.637 OA 
ATOM     12  O   LYS A   1     -11.826  12.639  69.736  1.00  0.00    -0.315 OA 
ATOM     13  H1  LYS A   1     -13.187  14.759  69.017  1.00  0.00     0.000 HD 
ATOM     14  H2  LYS A   1     -12.111  15.864  68.339  1.00  0.00     0.000 HD 
ENDBRANCH   7   8
ENDBRANCH   6   7
ENDBRANCH   5   6
ENDBRANCH   3   5
TORSDOF 4
ENDMDL
MODEL       13
REMARK 921   NORMALIZED FREE ENERGY PREDICTED BY IDOCK:   -3.78 KCAL/MOL
REMARK 922        TOTAL FREE ENERGY PREDICTED BY IDOCK:   -5.17 KCAL/MOL
REMARK 923 INTER-LIGAND FREE ENERGY PREDICTED BY IDOCK:   -5.08 KCAL/MOL
REMARK 924 INTRA-LIGAND FREE ENERGY PREDICTED BY IDOCK:   -0.09 KCAL/MOL
REMARK 927      BINDING AFFINITY PREDICTED BY RF-SCORE:    0.00 PKD
ROOT
ATOM      1  NZ  LYS A   1     -12.564  10.691  69.424  1.00  0.00    -0.678 NA 
ATOM      2  HZ2 LYS A   1     -13.234  10.482  68.684  1.00  0.00     0.000 HD 
ATOM      3  CE  LYS A   1     -11.425  11.446  68.913  1.00  0.00    -0.298 C  
ATOM      4  HZ1 LYS A   1     -12.268   9.843  69.908  1.00  0.00     0.000 HD 
ENDROOT
BRANCH   3   5
ATOM      5  CD  LYS A   1     -11.870  12.719  68.188  1.00  0.00    -0.372 C  
BRANCH   5   6
ATOM      6  CG  LYS A   1     -11.786  12.577  66.665  1.00  0.00    -0.453 C  
BRANCH   6   7
ATOM      7  CB  LYS A   1     -12.233  13.849  65.943  1.00  0.00    -0.497 C  
BRANCH   7   8
ATOM      8  CA  LYS A   1     -11.301  14.239  64.786  1.00  0.00    -0.382 C  
ATOM      9  N   LYS A   1      -9.875  13.920  65.089  1.00  0.00    -0.595 NA 
ATOM     10  C   LYS A   1     -11.404  15.754  64.555  1.00  0.00    -0.316 C  
ATOM     11  OXT LYS A   1     -12.303  16.320  63.953  1.00  0.00    -0.874 OA 
ATOM     12  O   LYS A   1     -10.363  16.406  65.141  1.00  0.00    -0.610 OA 
ATOM     13  H1  LYS A   1      -9.256  14.178  64.321  1.00  0.00     0.000 HD 
ATOM     14  H2  LYS A   1      -9.760  12.938  65.345  1.00  0.00     0.000 HD 
ENDBRANCH   7   8
ENDBRANCH   6   7
ENDBRANCH   5   6
ENDBRANCH   3   5
TORSDOF 4
ENDMDL
MODEL       14
REMARK 921   NORMALIZED FREE ENERGY PREDICTED BY IDOCK:   -3.78 KCAL/MOL
REMARK 922        TOTAL FREE ENERGY PREDICTED BY IDOCK:   -5.16 KCAL/MOL
REMARK 923 INTER-LIGAND FREE ENERGY PREDICTED BY IDOCK:   -5.04 KCAL/MOL
REMARK 924 INTRA-LIGAND FREE ENERGY PREDICTED BY IDOCK:   -0.12 KCAL/MOL
REMARK 927      BINDING AFFINITY PREDICTED BY RF-SCORE:    0.00 PKD
ROOT
ATOM      1  NZ  LYS A   1     -13.298  15.479  70.342  1.00  0.00    -0.779 NA 
ATOM      2  HZ2 LYS A   1     -13.488  14.802  71.081  1.00  0.00     0.000 HD 
ATOM      3  CE  LYS A   1     -12.049  15.177  69.650  1.00  0.00    -0.304 C  
ATOM      4  HZ1 LYS A   1     -13.309  16.434  70.701  1.00  0.00     0.000 HD 
ENDROOT
BRANCH   3   5
ATOM      5  CD  LYS A   1     -12.034  13.744  69.111  1.00  0.00    -0.403 C  
BRANCH   5   6
ATOM      6  CG  LYS A   1     -11.492  13.669  67.680  1.00  0.00    -0.357 C  
BRANCH   6   7
ATOM      7  CB  LYS A   1     -11.599  15.010  66.953  1.00  0.00    -0.229 C  
BRANCH   7   8
ATOM      8  CA  LYS A   1     -10.841  15.028  65.617  1.00  0.00    -0.349 C  
ATOM      9  N   LYS A   1      -9.641  15.914  65.671  1.00  0.00    -0.393 NA 
ATOM     10  C   LYS A   1     -11.775  15.570  64.524  1.00  0.00    -0.253 C  
ATOM     11  OXT LYS A   1     -12.650  14.931  63.960  1.00  0.00    -0.832 OA 
ATOM     12  O   LYS A   1     -11.523  16.884  64.277  1.00  0.00    -1.142 OA 
ATOM     13  H1  LYS A   1      -9.137  15.926  64.784  1.00  0.00     0.000 HD 
ATOM     14  H2  LYS A   1      -9.026  15.659  66.444  1.00  0.00     0.000 HD 
ENDBRANCH   7   8
ENDBRANCH   6   7
ENDBRANCH   5   6
ENDBRANCH   3   5
TORSDOF 4
ENDMDL
MODEL       15
REMARK 921   NORMALIZED FREE ENERGY PREDICTED BY IDOCK:   -3.76 KCAL/MOL
REMARK 922        TOTAL FREE ENERGY PREDICTED BY IDOCK:   -5.14 KCAL/MOL
REMARK 923 INTER-LIGAND FREE ENERGY PREDICTED BY IDOCK:   -5.15 KCAL/MOL
REMARK 924 INTRA-LIGAND FREE ENERGY PREDICTED BY IDOCK:    0.01 KCAL/MOL
REMARK 927      BINDING AFFINITY PREDICTED BY RF-SCORE:    0.00 PKD
ROOT
ATOM      1  NZ  LYS A   1     -10.070  10.529  62.431  1.00  0.00    -0.746 NA 
ATOM      2  HZ2 LYS A   1     -10.756  10.515  61.676  1.00  0.00     0.000 HD 
ATOM      3  CE  LYS A   1     -10.296  11.653  63.335  1.00  0.00    -0.435 C  
ATOM      4  HZ1 LYS A   1      -9.116  10.523  62.068  1.00  0.00     0.000 HD 
ENDROOT
BRANCH   3   5
ATOM      5  CD  LYS A   1     -11.726  11.662  63.880  1.00  0.00    -0.370 C  
BRANCH   5   6
ATOM      6  CG  LYS A   1     -11.828  12.382  65.229  1.00  0.00    -0.451 C  
BRANCH   6   7
ATOM      7  CB  LYS A   1     -12.000  13.893  65.063  1.00  0.00    -0.403 C  
BRANCH   7   8
ATOM      8  CA  LYS A   1     -10.663  14.631  64.894  1.00  0.00    -0.427 C  
ATOM      9  N   LYS A   1      -9.676  14.238  65.943  1.00  0.00    -0.451 NA 
ATOM     10  C   LYS A   1     -10.911  16.141  65.027  1.00  0.00    -0.363 C  
ATOM     11  OXT LYS A   1     -11.362  16.864  64.152  1.00  0.00    -1.208 OA 
ATOM     12  O   LYS A   1     -10.588  16.579  66.274  1.00  0.00    -0.294 OA 
ATOM     13  H1  LYS A   1      -8.788  14.728  65.831  1.00  0.00     0.000 HD 
ATOM     14  H2  LYS A   1      -9.541  13.226  65.966  1.00  0.00     0.000 HD 
ENDBRANCH   7   8
ENDBRANCH   6   7
ENDBRANCH   5   6
ENDBRANCH   3   5
TORSDOF 4
ENDMDL
MODEL       16
REMARK 921   NORMALIZED FREE ENERGY PREDICTED BY IDOCK:   -3.67 KCAL/MOL
REMARK 922        TOTAL FREE ENERGY PREDICTED BY IDOCK:   -5.03 KCAL/MOL
REMARK 923 INTER-LIGAND FREE ENERGY PREDICTED BY IDOCK:   -4.88 KCAL/MOL
REMARK 924 INTRA-LIGAND FREE ENERGY PREDICTED BY IDOCK:   -0.15 KCAL/MOL
REMARK 927      BINDING AFFINITY PREDICTED BY RF-SCORE:    0.00 PKD
ROOT
ATOM      1  NZ  LYS A   1     -11.685  16.344  63.786  1.00  0.00    -1.498 NA 
ATOM      2  HZ2 LYS A   1     -12.646  16.379  63.444  1.00  0.00     0.000 HD 
ATOM      3  CE  LYS A   1     -11.495  15.250  64.732  1.00  0.00    -0.363 C  
ATOM      4  HZ1 LYS A   1     -11.398  17.240  64.182  1.00  0.00     0.000 HD 
ENDROOT
BRANCH   3   5
ATOM      5  CD  LYS A   1     -11.925  13.907  64.137  1.00  0.00    -0.464 C  
BRANCH   5   6
ATOM      6  CG  LYS A   1     -10.788  12.879  64.144  1.00  0.00    -0.445 C  
BRANCH   6   7
ATOM      7  CB  LYS A   1     -11.120  11.658  65.003  1.00  0.00    -0.312 C  
BRANCH   7   8
ATOM      8  CA  LYS A   1     -10.510  11.734  66.410  1.00  0.00    -0.235 C  
ATOM      9  N   LYS A   1     -10.047  10.398  66.888  1.00  0.00    -0.210 NA 
ATOM     10  C   LYS A   1     -11.582  12.236  67.389  1.00  0.00    -0.355 C  
ATOM     11  OXT LYS A   1     -11.924  13.400  67.530  1.00  0.00    -0.361 OA 
ATOM     12  O   LYS A   1     -12.139  11.200  68.073  1.00  0.00    -0.635 OA 
ATOM     13  H1  LYS A   1      -9.642  10.448  67.822  1.00  0.00     0.000 HD 
ATOM     14  H2  LYS A   1      -9.399   9.971  66.225  1.00  0.00     0.000 HD 
ENDBRANCH   7   8
ENDBRANCH   6   7
ENDBRANCH   5   6
ENDBRANCH   3   5
TORSDOF 4
ENDMDL
MODEL       17
REMARK 921   NORMALIZED FREE ENERGY PREDICTED BY IDOCK:   -3.67 KCAL/MOL
REMARK 922        TOTAL FREE ENERGY PREDICTED BY IDOCK:   -5.02 KCAL/MOL
REMARK 923 INTER-LIGAND FREE ENERGY PREDICTED BY IDOCK:   -4.85 KCAL/MOL
REMARK 924 INTRA-LIGAND FREE ENERGY PREDICTED BY IDOCK:   -0.17 KCAL/MOL
REMARK 927      BINDING AFFINITY PREDICTED BY RF-SCORE:    0.00 PKD
ROOT
ATOM      1  NZ  LYS A   1     -11.469  16.306  63.870  1.00  0.00    -1.539 NA 
ATOM      2  HZ2 LYS A   1     -12.443  16.483  63.622  1.00  0.00     0.000 HD 
ATOM      3  CE  LYS A   1     -11.360  15.267  64.890  1.00  0.00    -0.384 C  
ATOM      4  HZ1 LYS A   1     -10.995  17.163  64.153  1.00  0.00     0.000 HD 
ENDROOT
BRANCH   3   5
ATOM      5  CD  LYS A   1     -12.071  13.980  64.464  1.00  0.00    -0.484 C  
BRANCH   5   6
ATOM      6  CG  LYS A   1     -12.061  12.919  65.571  1.00  0.00    -0.507 C  
BRANCH   6   7
ATOM      7  CB  LYS A   1     -11.816  13.530  66.951  1.00  0.00    -0.452 C  
BRANCH   7   8
ATOM      8  CA  LYS A   1     -10.822  12.719  67.795  1.00  0.00    -0.225 C  
ATOM      9  N   LYS A   1     -10.144  11.661  66.990  1.00  0.00    -0.207 NA 
ATOM     10  C   LYS A   1     -11.588  12.024  68.932  1.00  0.00    -0.321 C  
ATOM     11  OXT LYS A   1     -11.954  12.557  69.968  1.00  0.00    -0.332 OA 
ATOM     12  O   LYS A   1     -11.840  10.723  68.624  1.00  0.00    -0.404 OA 
ATOM     13  H1  LYS A   1      -9.484  11.122  67.550  1.00  0.00     0.000 HD 
ATOM     14  H2  LYS A   1      -9.694  12.055  66.163  1.00  0.00     0.000 HD 
ENDBRANCH   7   8
ENDBRANCH   6   7
ENDBRANCH   5   6
ENDBRANCH   3   5
TORSDOF 4
ENDMDL
MODEL       18
REMARK 921   NORMALIZED FREE ENERGY PREDICTED BY IDOCK:   -3.65 KCAL/MOL
REMARK 922        TOTAL FREE ENERGY PREDICTED BY IDOCK:   -5.01 KCAL/MOL
REMARK 923 INTER-LIGAND FREE ENERGY PREDICTED BY IDOCK:   -4.69 KCAL/MOL
REMARK 924 INTRA-LIGAND FREE ENERGY PREDICTED BY IDOCK:   -0.31 KCAL/MOL
REMARK 927      BINDING AFFINITY PREDICTED BY RF-SCORE:    0.00 PKD
ROOT
ATOM      1  NZ  LYS A   1      -9.062  11.769  65.704  1.00  0.00    -0.403 NA 
ATOM      2  HZ2 LYS A   1      -9.620  12.612  65.568  1.00  0.00     0.000 HD 
ATOM      3  CE  LYS A   1      -9.674  10.615  65.054  1.00  0.00    -0.279 C  
ATOM      4  HZ1 LYS A   1      -8.885  11.596  66.694  1.00  0.00     0.000 HD 
ENDROOT
BRANCH   3   5
ATOM      5  CD  LYS A   1      -9.938  10.876  63.569  1.00  0.00    -0.419 C  
BRANCH   5   6
ATOM      6  CG  LYS A   1     -10.652  12.211  63.333  1.00  0.00    -0.454 C  
BRANCH   6   7
ATOM      7  CB  LYS A   1     -12.147  12.128  63.646  1.00  0.00    -0.648 C  
BRANCH   7   8
ATOM      8  CA  LYS A   1     -12.650  13.318  64.476  1.00  0.00    -0.251 C  
ATOM      9  N   LYS A   1     -12.440  14.616  63.771  1.00  0.00    -1.068 NA 
ATOM     10  C   LYS A   1     -11.864  13.369  65.796  1.00  0.00    -0.377 C  
ATOM     11  OXT LYS A   1     -12.073  12.666  66.772  1.00  0.00    -0.504 OA 
ATOM     12  O   LYS A   1     -10.868  14.293  65.732  1.00  0.00    -0.291 OA 
ATOM     13  H1  LYS A   1     -12.774  15.407  64.322  1.00  0.00     0.000 HD 
ATOM     14  H2  LYS A   1     -12.863  14.606  62.842  1.00  0.00     0.000 HD 
ENDBRANCH   7   8
ENDBRANCH   6   7
ENDBRANCH   5   6
ENDBRANCH   3   5
TORSDOF 4
ENDMDL
MODEL       19
REMARK 921   NORMALIZED FREE ENERGY PREDICTED BY IDOCK:   -3.65 KCAL/MOL
REMARK 922        TOTAL FREE ENERGY PREDICTED BY IDOCK:   -5.00 KCAL/MOL
REMARK 923 INTER-LIGAND FREE ENERGY PREDICTED BY IDOCK:   -4.91 KCAL/MOL
REMARK 924 INTRA-LIGAND FREE ENERGY PREDICTED BY IDOCK:   -0.09 KCAL/MOL
REMARK 927      BINDING AFFINITY PREDICTED BY RF-SCORE:    0.00 PKD
ROOT
ATOM      1  NZ  LYS A   1     -13.563  15.425  70.500  1.00  0.00    -0.810 NA 
ATOM      2  HZ2 LYS A   1     -13.687  14.721  71.228  1.00  0.00     0.000 HD 
ATOM      3  CE  LYS A   1     -12.177  15.480  70.045  1.00  0.00    -0.355 C  
ATOM      4  HZ1 LYS A   1     -13.896  16.339  70.806  1.00  0.00     0.000 HD 
ENDROOT
BRANCH   3   5
ATOM      5  CD  LYS A   1     -11.677  14.108  69.586  1.00  0.00    -0.372 C  
BRANCH   5   6
ATOM      6  CG  LYS A   1     -11.027  14.162  68.199  1.00  0.00    -0.264 C  
BRANCH   6   7
ATOM      7  CB  LYS A   1     -12.028  13.861  67.083  1.00  0.00    -0.455 C  
BRANCH   7   8
ATOM      8  CA  LYS A   1     -11.349  13.518  65.748  1.00  0.00    -0.305 C  
ATOM      9  N   LYS A   1     -10.405  14.590  65.314  1.00  0.00    -0.384 NA 
ATOM     10  C   LYS A   1     -12.429  13.377  64.664  1.00  0.00    -0.331 C  
ATOM     11  OXT LYS A   1     -13.139  12.398  64.495  1.00  0.00    -0.823 OA 
ATOM     12  O   LYS A   1     -12.519  14.512  63.918  1.00  0.00    -0.814 OA 
ATOM     13  H1  LYS A   1      -9.954  14.362  64.428  1.00  0.00     0.000 HD 
ATOM     14  H2  LYS A   1      -9.717  14.794  66.039  1.00  0.00     0.000 HD 
ENDBRANCH   7   8
ENDBRANCH   6   7
ENDBRANCH   5   6
ENDBRANCH   3   5
TORSDOF 4
ENDMDL
MODEL       20
REMARK 921   NORMALIZED FREE ENERGY PREDICTED BY IDOCK:   -3.63 KCAL/MOL
REMARK 922        TOTAL FREE ENERGY PREDICTED BY IDOCK:   -4.98 KCAL/MOL
REMARK 923 INTER-LIGAND FREE ENERGY PREDICTED BY IDOCK:   -4.31 KCAL/MOL
REMARK 924 INTRA-LIGAND FREE ENERGY PREDICTED BY IDOCK:   -0.66 KCAL/MOL
REMARK 927      BINDING AFFINITY PREDICTED BY RF-SCORE:    0.00 PKD
ROOT
ATOM      1  NZ  LYS A   1     -12.288  14.468  67.474  1.00  0.00    -0.582 NA 
ATOM      2  HZ2 LYS A   1     -12.527  13.851  66.697  1.00  0.00     0.000 HD 
ATOM      3  CE  LYS A   1     -10.924  14.972  67.353  1.00  0.00    -0.315 C  
ATOM      4  HZ1 LYS A   1     -12.442  14.011  68.373  1.00  0.00     0.000 HD 
ENDROOT
BRANCH   3   5
ATOM      5  CD  LYS A   1     -10.692  15.659  66.004  1.00  0.00    -0.322 C  
BRANCH   5   6
ATOM      6  CG  LYS A   1     -11.391  14.926  64.854  1.00  0.00    -0.415 C  
BRANCH   6   7
ATOM      7  CB  LYS A   1     -10.692  13.613  64.499  1.00  0.00    -0.420 C  
BRANCH   7   8
ATOM      8  CA  LYS A   1     -11.623  12.395  64.601  1.00  0.00    -0.343 C  
ATOM      9  N   LYS A   1     -13.035  12.796  64.870  1.00  0.00    -0.853 NA 
ATOM     10  C   LYS A   1     -11.157  11.511  65.768  1.00  0.00    -0.210 C  
ATOM     11  OXT LYS A   1     -10.220  10.727  65.732  1.00  0.00    -0.248 OA 
ATOM     12  O   LYS A   1     -11.911  11.733  66.878  1.00  0.00    -0.605 OA 
ATOM     13  H1  LYS A   1     -13.653  11.988  64.938  1.00  0.00     0.000 HD 
ATOM     14  H2  LYS A   1     -13.371  13.463  64.174  1.00  0.00     0.000 HD 
ENDBRANCH   7   8
ENDBRANCH   6   7
ENDBRANCH   5   6
ENDBRANCH   3   5
TORSDOF 4
ENDMDL
MODEL       21
REMARK 921   NORMALIZED FREE ENERGY PREDICTED BY IDOCK:   -3.62 KCAL/MOL
REMARK 922        TOTAL FREE ENERGY PREDICTED BY IDOCK:   -4.97 KCAL/MOL
REMARK 923 INTER-LIGAND FREE ENERGY PREDICTED BY IDOCK:   -4.85 KCAL/MOL
REMARK 924 INTRA-LIGAND FREE ENERGY PREDICTED BY IDOCK:   -0.12 KCAL/MOL
REMARK 927      BINDING AFFINITY PREDICTED BY RF-SCORE:    0.00 PKD
ROOT
ATOM      1  NZ  LYS A   1     -11.334  16.401  64.199  1.00  0.00    -1.422 NA 
ATOM      2  HZ2 LYS A   1     -12.347  16.462  64.307  1.00  0.00     0.000 HD 
ATOM      3  CE  LYS A   1     -10.679  16.122  65.473  1.00  0.00    -0.342 C  
ATOM      4  HZ1 LYS A   1     -10.955  17.238  63.756  1.00  0.00     0.000 HD 
ENDROOT
BRANCH   3   5
ATOM      5  CD  LYS A   1     -11.247  14.865  66.138  1.00  0.00    -0.325 C  
BRANCH   5   6
ATOM      6  CG  LYS A   1     -10.938  14.813  67.639  1.00  0.00    -0.292 C  
BRANCH   6   7
ATOM      7  CB  LYS A   1     -11.631  15.938  68.408  1.00  0.00    -0.317 C  
BRANCH   7   8
ATOM      8  CA  LYS A   1     -11.365  15.880  69.920  1.00  0.00    -0.348 C  
ATOM      9  N   LYS A   1     -10.104  15.145  70.234  1.00  0.00    -0.499 NA 
ATOM     10  C   LYS A   1     -12.524  15.134  70.599  1.00  0.00    -0.388 C  
ATOM     11  OXT LYS A   1     -13.616  15.612  70.862  1.00  0.00    -0.568 OA 
ATOM     12  O   LYS A   1     -12.188  13.840  70.850  1.00  0.00    -0.347 OA 
ATOM     13  H1  LYS A   1      -9.927  15.106  71.237  1.00  0.00     0.000 HD 
ATOM     14  H2  LYS A   1      -9.309  15.541  69.732  1.00  0.00     0.000 HD 
ENDBRANCH   7   8
ENDBRANCH   6   7
ENDBRANCH   5   6
ENDBRANCH   3   5
TORSDOF 4
ENDMDL
MODEL       22
REMARK 921   NORMALIZED FREE ENERGY PREDICTED BY IDOCK:   -3.60 KCAL/MOL
REMARK 922        TOTAL FREE ENERGY PREDICTED BY IDOCK:   -4.94 KCAL/MOL
REMARK 923 INTER-LIGAND FREE ENERGY PREDICTED BY IDOCK:   -4.84 KCAL/MOL
REMARK 924 INTRA-LIGAND FREE ENERGY PREDICTED BY IDOCK:   -0.10 KCAL/MOL
REMARK 927      BINDING AFFINITY PREDICTED BY RF-SCORE:    0.00 PKD
ROOT
ATOM      1  NZ  LYS A   1     -10.086  17.506  68.612  1.00  0.00    -0.343 NA 
ATOM      2  HZ2 LYS A   1      -9.129  17.166  68.515  1.00  0.00     0.000 HD 
ATOM      3  CE  LYS A   1     -10.453  18.384  67.506  1.00  0.00    -0.419 C  
ATOM      4  HZ1 LYS A   1     -10.232  17.956  69.515  1.00  0.00     0.000 HD 
ENDROOT
BRANCH   3   5
ATOM      5  CD  LYS A   1     -10.236  17.708  66.150  1.00  0.00    -0.345 C  
BRANCH   5   6
ATOM      6  CG  LYS A   1     -10.411  16.187  66.226  1.00  0.00    -0.337 C  
BRANCH   6   7
ATOM      7  CB  LYS A   1     -10.615  15.562  64.845  1.00  0.00    -0.370 C  
BRANCH   7   8
ATOM      8  CA  LYS A   1     -10.911  14.056  64.910  1.00  0.00    -0.410 C  
ATOM      9  N   LYS A   1     -10.052  13.280  63.967  1.00  0.00    -0.776 NA 
ATOM     10  C   LYS A   1     -12.376  13.821  64.511  1.00  0.00    -0.358 C  
ATOM     11  OXT LYS A   1     -13.343  13.990  65.238  1.00  0.00    -0.741 OA 
ATOM     12  O   LYS A   1     -12.468  13.421  63.214  1.00  0.00    -0.739 OA 
ATOM     13  H1  LYS A   1     -10.249  12.280  64.009  1.00  0.00     0.000 HD 
ATOM     14  H2  LYS A   1      -9.062  13.471  64.123  1.00  0.00     0.000 HD 
ENDBRANCH   7   8
ENDBRANCH   6   7
ENDBRANCH   5   6
ENDBRANCH   3   5
TORSDOF 4
ENDMDL
MODEL       23
REMARK 921   NORMALIZED FREE ENERGY PREDICTED BY IDOCK:   -3.56 KCAL/MOL
REMARK 922        TOTAL FREE ENERGY PREDICTED BY IDOCK:   -4.89 KCAL/MOL
REMARK 923 INTER-LIGAND FREE ENERGY PREDICTED BY IDOCK:   -4.46 KCAL/MOL
REMARK 924 INTRA-LIGAND FREE ENERGY PREDICTED BY IDOCK:   -0.43 KCAL/MOL
REMARK 927      BINDING AFFINITY PREDICTED BY RF-SCORE:    0.00 PKD
ROOT
ATOM      1  NZ  LYS A   1      -9.822  12.745  63.802  1.00  0.00    -0.702 NA 
ATOM      2  HZ2 LYS A   1      -9.958  12.966  64.788  1.00  0.00     0.000 HD 
ATOM      3  CE  LYS A   1     -10.959  12.008  63.259  1.00  0.00    -0.325 C  
ATOM      4  HZ1 LYS A   1      -8.944  12.248  63.650  1.00  0.00     0.000 HD 
ENDROOT
BRANCH   3   5
ATOM      5  CD  LYS A   1     -12.276  12.754  63.487  1.00  0.00    -0.613 C  
BRANCH   5   6
ATOM      6  CG  LYS A   1     -12.694  12.757  64.961  1.00  0.00    -0.455 C  
BRANCH   6   7
ATOM      7  CB  LYS A   1     -12.624  14.156  65.576  1.00  0.00    -0.501 C  
BRANCH   7   8
ATOM      8  CA  LYS A   1     -11.635  14.244  66.748  1.00  0.00    -0.391 C  
ATOM      9  N   LYS A   1     -12.305  14.675  68.010  1.00  0.00    -0.589 NA 
ATOM     10  C   LYS A   1     -10.558  15.287  66.410  1.00  0.00    -0.308 C  
ATOM     11  OXT LYS A   1      -9.598  15.102  65.679  1.00  0.00    -0.334 OA 
ATOM     12  O   LYS A   1     -10.828  16.477  67.013  1.00  0.00    -0.245 OA 
ATOM     13  H1  LYS A   1     -11.648  14.734  68.788  1.00  0.00     0.000 HD 
ATOM     14  H2  LYS A   1     -13.095  14.069  68.236  1.00  0.00     0.000 HD 
ENDBRANCH   7   8
ENDBRANCH   6   7
ENDBRANCH   5   6
ENDBRANCH   3   5
TORSDOF 4
ENDMDL
MODEL       24
REMARK 921   NORMALIZED FREE ENERGY PREDICTED BY IDOCK:   -3.56 KCAL/MOL
REMARK 922        TOTAL FREE ENERGY PREDICTED BY IDOCK:   -4.89 KCAL/MOL
REMARK 923 INTER-LIGAND FREE ENERGY PREDICTED BY IDOCK:   -4.21 KCAL/MOL
REMARK 924 INTRA-LIGAND FREE ENERGY PREDICTED BY IDOCK:   -0.68 KCAL/MOL
REMARK 927      BINDING AFFINITY PREDICTED BY RF-SCORE:    0.00 PKD
ROOT
ATOM      1  NZ  LYS A   1      -9.742  12.291  63.302  1.00  0.00    -0.609 NA 
ATOM      2  HZ2 LYS A   1      -9.738  13.016  64.020  1.00  0.00     0.000 HD 
ATOM      3  CE  LYS A   1     -10.872  11.383  63.469  1.00  0.00    -0.353 C  
ATOM      4  HZ1 LYS A   1      -8.854  11.789  63.275  1.00  0.00     0.000 HD 
ENDROOT
BRANCH   3   5
ATOM      5  CD  LYS A   1     -12.203  12.138  63.508  1.00  0.00    -0.670 C  
BRANCH   5   6
ATOM      6  CG  LYS A   1     -12.014  13.632  63.793  1.00  0.00    -0.425 C  
BRANCH   6   7
ATOM      7  CB  LYS A   1     -12.474  14.011  65.202  1.00  0.00    -0.472 C  
BRANCH   7   8
ATOM      8  CA  LYS A   1     -11.304  14.263  66.164  1.00  0.00    -0.342 C  
ATOM      9  N   LYS A   1     -10.018  14.467  65.434  1.00  0.00    -0.499 NA 
ATOM     10  C   LYS A   1     -11.137  13.036  67.074  1.00  0.00    -0.281 C  
ATOM     11  OXT LYS A   1     -11.821  12.782  68.053  1.00  0.00    -0.345 OA 
ATOM     12  O   LYS A   1     -10.133  12.234  66.628  1.00  0.00    -0.210 OA 
ATOM     13  H1  LYS A   1      -9.241  14.634  66.073  1.00  0.00     0.000 HD 
ATOM     14  H2  LYS A   1     -10.098  15.213  64.743  1.00  0.00     0.000 HD 
ENDBRANCH   7   8
ENDBRANCH   6   7
ENDBRANCH   5   6
ENDBRANCH   3   5
TORSDOF 4
ENDMDL
MODEL       25
REMARK 921   NORMALIZED FREE ENERGY PREDICTED BY IDOCK:   -3.56 KCAL/MOL
REMARK 922        TOTAL FREE ENERGY PREDICTED BY IDOCK:   -4.89 KCAL/MOL
REMARK 923 INTER-LIGAND FREE ENERGY PREDICTED BY IDOCK:   -4.68 KCAL/MOL
REMARK 924 INTRA-LIGAND FREE ENERGY PREDICTED BY IDOCK:   -0.21 KCAL/MOL
REMARK 927      BINDING AFFINITY PREDICTED BY RF-SCORE:    0.00 PKD
ROOT
ATOM      1  NZ  LYS A   1     -12.092  11.481  62.987  1.00  0.00    -0.920 NA 
ATOM      2  HZ2 LYS A   1     -12.408  12.249  62.395  1.00  0.00     0.000 HD 
ATOM      3  CE  LYS A   1     -10.747  11.722  63.499  1.00  0.00    -0.436 C  
ATOM      4  HZ1 LYS A   1     -12.156  10.586  62.500  1.00  0.00     0.000 HD 
ENDROOT
BRANCH   3   5
ATOM      5  CD  LYS A   1     -10.652  13.064  64.229  1.00  0.00    -0.434 C  
BRANCH   5   6
ATOM      6  CG  LYS A   1     -12.014  13.758  64.345  1.00  0.00    -0.480 C  
BRANCH   6   7
ATOM      7  CB  LYS A   1     -12.561  13.717  65.772  1.00  0.00    -0.525 C  
BRANCH   7   8
ATOM      8  CA  LYS A   1     -11.496  13.328  66.809  1.00  0.00    -0.350 C  
ATOM      9  N   LYS A   1     -11.836  12.050  67.502  1.00  0.00    -0.574 NA 
ATOM     10  C   LYS A   1     -11.416  14.432  67.875  1.00  0.00    -0.321 C  
ATOM     11  OXT LYS A   1     -10.831  15.497  67.749  1.00  0.00    -0.292 OA 
ATOM     12  O   LYS A   1     -12.116  14.084  68.989  1.00  0.00    -0.346 OA 
ATOM     13  H1  LYS A   1     -11.130  11.792  68.190  1.00  0.00     0.000 HD 
ATOM     14  H2  LYS A   1     -11.996  11.297  66.833  1.00  0.00     0.000 HD 
ENDBRANCH   7   8
ENDBRANCH   6   7
ENDBRANCH   5   6
ENDBRANCH   3   5
TORSDOF 4
ENDMDL
MODEL       26
REMARK 921   NORMALIZED FREE ENERGY PREDICTED BY IDOCK:   -3.56 KCAL/MOL
REMARK 922        TOTAL FREE ENERGY PREDICTED BY IDOCK:   -4.89 KCAL/MOL
REMARK 923 INTER-LIGAND FREE ENERGY PREDICTED BY IDOCK:   -4.74 KCAL/MOL
REMARK 924 INTRA-LIGAND FREE ENERGY PREDICTED BY IDOCK:   -0.15 KCAL/MOL
REMARK 927      BINDING AFFINITY PREDICTED BY RF-SCORE:    0.00 PKD
ROOT
ATOM      1  NZ  LYS A   1     -11.905  10.382  68.220  1.00  0.00    -0.760 NA 
ATOM      2  HZ2 LYS A   1     -11.069  10.131  67.692  1.00  0.00     0.000 HD 
ATOM      3  CE  LYS A   1     -11.622  11.429  69.197  1.00  0.00    -0.314 C  
ATOM      4  HZ1 LYS A   1     -12.330   9.564  68.657  1.00  0.00     0.000 HD 
ENDROOT
BRANCH   3   5
ATOM      5  CD  LYS A   1     -10.985  12.657  68.541  1.00  0.00    -0.292 C  
BRANCH   5   6
ATOM      6  CG  LYS A   1     -11.788  13.936  68.803  1.00  0.00    -0.396 C  
BRANCH   6   7
ATOM      7  CB  LYS A   1     -11.935  14.228  70.297  1.00  0.00    -0.398 C  
BRANCH   7   8
ATOM      8  CA  LYS A   1     -13.398  14.235  70.764  1.00  0.00    -0.119 C  
ATOM      9  N   LYS A   1     -13.900  15.621  70.998  1.00  0.00    -0.770 NA 
ATOM     10  C   LYS A   1     -13.498  13.469  72.092  1.00  0.00    -0.537 C  
ATOM     11  OXT LYS A   1     -13.520  12.254  72.209  1.00  0.00    -0.520 OA 
ATOM     12  O   LYS A   1     -13.530  14.329  73.147  1.00  0.00    -0.632 OA 
ATOM     13  H1  LYS A   1     -14.872  15.626  71.308  1.00  0.00     0.000 HD 
ATOM     14  H2  LYS A   1     -13.771  16.207  70.173  1.00  0.00     0.000 HD 
ENDBRANCH   7   8
ENDBRANCH   6   7
ENDBRANCH   5   6
ENDBRANCH   3   5
TORSDOF 4
ENDMDL
MODEL       27
REMARK 921   NORMALIZED FREE ENERGY PREDICTED BY IDOCK:   -3.55 KCAL/MOL
REMARK 922        TOTAL FREE ENERGY PREDICTED BY IDOCK:   -4.88 KCAL/MOL
REMARK 923 INTER-LIGAND FREE ENERGY PREDICTED BY IDOCK:   -4.65 KCAL/MOL
REMARK 924 INTRA-LIGAND FREE ENERGY PREDICTED BY IDOCK:   -0.23 KCAL/MOL
REMARK 927      BINDING AFFINITY PREDICTED BY RF-SCORE:    0.00 PKD
ROOT
ATOM      1  NZ  LYS A   1     -12.035  16.110  63.817  1.00  0.00    -1.338 NA 
ATOM      2  HZ2 LYS A   1     -13.004  16.032  64.126  1.00  0.00     0.000 HD 
ATOM      3  CE  LYS A   1     -11.110  16.029  64.943  1.00  0.00    -0.370 C  
ATOM      4  HZ1 LYS A   1     -11.887  16.957  63.268  1.00  0.00     0.000 HD 
ENDROOT
BRANCH   3   5
ATOM      5  CD  LYS A   1     -11.332  14.758  65.767  1.00  0.00    -0.336 C  
BRANCH   5   6
ATOM      6  CG  LYS A   1     -12.523  13.938  65.257  1.00  0.00    -0.504 C  
BRANCH   6   7
ATOM      7  CB  LYS A   1     -12.085  12.607  64.645  1.00  0.00    -0.484 C  
BRANCH   7   8
ATOM      8  CA  LYS A   1     -10.564  12.401  64.689  1.00  0.00    -0.308 C  
ATOM      9  N   LYS A   1      -9.989  12.210  63.324  1.00  0.00    -0.531 NA 
ATOM     10  C   LYS A   1     -10.258  11.137  65.507  1.00  0.00    -0.263 C  
ATOM     11  OXT LYS A   1     -10.250  11.067  66.726  1.00  0.00    -0.212 OA 
ATOM     12  O   LYS A   1     -10.020  10.075  64.690  1.00  0.00    -0.309 OA 
ATOM     13  H1  LYS A   1      -8.979  12.074  63.353  1.00  0.00     0.000 HD 
ATOM     14  H2  LYS A   1     -10.243  12.980  62.704  1.00  0.00     0.000 HD 
ENDBRANCH   7   8
ENDBRANCH   6   7
ENDBRANCH   5   6
ENDBRANCH   3   5
TORSDOF 4
ENDMDL
MODEL       28
REMARK 921   NORMALIZED FREE ENERGY PREDICTED BY IDOCK:   -3.54 KCAL/MOL
REMARK 922        TOTAL FREE ENERGY PREDICTED BY IDOCK:   -4.87 KCAL/MOL
REMARK 923 INTER-LIGAND FREE ENERGY PREDICTED BY IDOCK:   -4.69 KCAL/MOL
REMARK 924 INTRA-LIGAND FREE ENERGY PREDICTED BY IDOCK:   -0.18 KCAL/MOL
REMARK 927      BINDING AFFINITY PREDICTED BY RF-SCORE:    0.00 PKD
ROOT
ATOM      1  NZ  LYS A   1      -9.325   8.428  65.590  1.00  0.00    -0.425 NA 
ATOM      2  HZ2 LYS A   1      -8.349   8.720  65.550  1.00  0.00     0.000 HD 
ATOM      3  CE  LYS A   1     -10.144   9.404  66.302  1.00  0.00    -0.258 C  
ATOM      4  HZ1 LYS A   1      -9.418   7.494  65.991  1.00  0.00     0.000 HD 
ENDROOT
BRANCH   3   5
ATOM      5  CD  LYS A   1     -10.005  10.805  65.700  1.00  0.00    -0.317 C  
BRANCH   5   6
ATOM      6  CG  LYS A   1     -10.159  10.798  64.175  1.00  0.00    -0.418 C  
BRANCH   6   7
ATOM      7  CB  LYS A   1     -10.967  11.997  63.674  1.00  0.00    -0.517 C  
BRANCH   7   8
ATOM      8  CA  LYS A   1     -11.672  12.758  64.807  1.00  0.00    -0.352 C  
ATOM      9  N   LYS A   1     -13.147  12.532  64.794  1.00  0.00    -0.814 NA 
ATOM     10  C   LYS A   1     -11.427  14.263  64.619  1.00  0.00    -0.385 C  
ATOM     11  OXT LYS A   1     -10.405  14.858  64.925  1.00  0.00    -0.400 OA 
ATOM     12  O   LYS A   1     -12.499  14.860  64.032  1.00  0.00    -0.807 OA 
ATOM     13  H1  LYS A   1     -13.615  13.037  65.546  1.00  0.00     0.000 HD 
ATOM     14  H2  LYS A   1     -13.370  11.536  64.820  1.00  0.00     0.000 HD 
ENDBRANCH   7   8
ENDBRANCH   6   7
ENDBRANCH   5   6
ENDBRANCH   3   5
TORSDOF 4
ENDMDL
MODEL       29
REMARK 921   NORMALIZED FREE ENERGY PREDICTED BY IDOCK:   -3.53 KCAL/MOL
REMARK 922        TOTAL FREE ENERGY PREDICTED BY IDOCK:   -4.85 KCAL/MOL
REMARK 923 INTER-LIGAND FREE ENERGY PREDICTED BY IDOCK:   -4.76 KCAL/MOL
REMARK 924 INTRA-LIGAND FREE ENERGY PREDICTED BY IDOCK:   -0.09 KCAL/MOL
REMARK 927      BINDING AFFINITY PREDICTED BY RF-SCORE:    0.00 PKD
ROOT
ATOM      1  NZ  LYS A   1      -8.486  20.071  66.499  1.00  0.00    -0.407 NA 
ATOM      2  HZ2 LYS A   1      -8.585  20.428  67.449  1.00  0.00     0.000 HD 
ATOM      3  CE  LYS A   1      -8.223  18.635  66.495  1.00  0.00    -0.286 C  
ATOM      4  HZ1 LYS A   1      -7.775  20.586  65.980  1.00  0.00     0.000 HD 
ENDROOT
BRANCH   3   5
ATOM      5  CD  LYS A   1      -9.291  17.863  67.273  1.00  0.00    -0.258 C  
BRANCH   5   6
ATOM      6  CG  LYS A   1     -10.459  17.429  66.380  1.00  0.00    -0.267 C  
BRANCH   6   7
ATOM      7  CB  LYS A   1     -10.505  15.912  66.189  1.00  0.00    -0.336 C  
BRANCH   7   8
ATOM      8  CA  LYS A   1     -10.711  15.501  64.724  1.00  0.00    -0.304 C  
ATOM      9  N   LYS A   1     -11.421  16.559  63.944  1.00  0.00    -1.599 NA 
ATOM     10  C   LYS A   1     -11.575  14.231  64.682  1.00  0.00    -0.408 C  
ATOM     11  OXT LYS A   1     -11.175  13.096  64.891  1.00  0.00    -0.295 OA 
ATOM     12  O   LYS A   1     -12.872  14.534  64.409  1.00  0.00    -0.603 OA 
ATOM     13  H1  LYS A   1     -11.558  16.286  62.972  1.00  0.00     0.000 HD 
ATOM     14  H2  LYS A   1     -10.940  17.456  64.014  1.00  0.00     0.000 HD 
ENDBRANCH   7   8
ENDBRANCH   6   7
ENDBRANCH   5   6
ENDBRANCH   3   5
TORSDOF 4
ENDMDL
MODEL       30
REMARK 921   NORMALIZED FREE ENERGY PREDICTED BY IDOCK:   -3.51 KCAL/MOL
REMARK 922        TOTAL FREE ENERGY PREDICTED BY IDOCK:   -4.83 KCAL/MOL
REMARK 923 INTER-LIGAND FREE ENERGY PREDICTED BY IDOCK:   -4.62 KCAL/MOL
REMARK 924 INTRA-LIGAND FREE ENERGY PREDICTED BY IDOCK:   -0.21 KCAL/MOL
REMARK 927      BINDING AFFINITY PREDICTED BY RF-SCORE:    0.00 PKD
ROOT
ATOM      1  NZ  LYS A   1      -7.794  12.921  67.007  1.00  0.00    -0.391 NA 
ATOM      2  HZ2 LYS A   1      -7.364  13.833  67.168  1.00  0.00     0.000 HD 
ATOM      3  CE  LYS A   1      -9.240  12.974  67.195  1.00  0.00    -0.226 C  
ATOM      4  HZ1 LYS A   1      -7.364  12.200  67.587  1.00  0.00     0.000 HD 
ENDROOT
BRANCH   3   5
ATOM      5  CD  LYS A   1      -9.884  14.056  66.325  1.00  0.00    -0.318 C  
BRANCH   5   6
ATOM      6  CG  LYS A   1     -11.323  14.364  66.753  1.00  0.00    -0.360 C  
BRANCH   6   7
ATOM      7  CB  LYS A   1     -12.350  13.769  65.788  1.00  0.00    -0.523 C  
BRANCH   7   8
ATOM      8  CA  LYS A   1     -11.805  13.610  64.360  1.00  0.00    -0.424 C  
ATOM      9  N   LYS A   1     -12.605  14.390  63.371  1.00  0.00    -0.970 NA 
ATOM     10  C   LYS A   1     -11.884  12.128  63.962  1.00  0.00    -0.434 C  
ATOM     11  OXT LYS A   1     -11.096  11.260  64.304  1.00  0.00    -0.333 OA 
ATOM     12  O   LYS A   1     -12.979  11.890  63.189  1.00  0.00    -0.640 OA 
ATOM     13  H1  LYS A   1     -12.244  14.285  62.423  1.00  0.00     0.000 HD 
ATOM     14  H2  LYS A   1     -12.668  15.373  63.637  1.00  0.00     0.000 HD 
ENDBRANCH   7   8
ENDBRANCH   6   7
ENDBRANCH   5   6
ENDBRANCH   3   5
TORSDOF 4
ENDMDL
MODEL       31
REMARK 921   NORMALIZED FREE ENERGY PREDICTED BY IDOCK:   -3.49 KCAL/MOL
REMARK 922        TOTAL FREE ENERGY PREDICTED BY IDOCK:   -4.81 KCAL/MOL
REMARK 923 INTER-LIGAND FREE ENERGY PREDICTED BY IDOCK:   -4.61 KCAL/MOL
REMARK 924 INTRA-LIGAND FREE ENERGY PREDICTED BY IDOCK:   -0.19 KCAL/MOL
REMARK 927      BINDING AFFINITY PREDICTED BY RF-SCORE:    0.00 PKD
ROOT
ATOM      1  NZ  LYS A   1     -12.339  13.600  63.202  1.00  0.00    -1.076 NA 
ATOM      2  HZ2 LYS A   1     -13.257  13.163  63.114  1.00  0.00     0.000 HD 
ATOM      3  CE  LYS A   1     -12.263  14.446  64.389  1.00  0.00    -0.458 C  
ATOM      4  HZ1 LYS A   1     -12.089  14.113  62.357  1.00  0.00     0.000 HD 
ENDROOT
BRANCH   3   5
ATOM      5  CD  LYS A   1     -12.638  13.675  65.658  1.00  0.00    -0.531 C  
BRANCH   5   6
ATOM      6  CG  LYS A   1     -12.029  14.301  66.917  1.00  0.00    -0.467 C  
BRANCH   6   7
ATOM      7  CB  LYS A   1     -11.780  13.263  68.013  1.00  0.00    -0.394 C  
BRANCH   7   8
ATOM      8  CA  LYS A   1     -11.413  11.880  67.452  1.00  0.00    -0.323 C  
ATOM      9  N   LYS A   1     -11.971  10.776  68.288  1.00  0.00    -0.810 NA 
ATOM     10  C   LYS A   1      -9.883  11.738  67.449  1.00  0.00    -0.178 C  
ATOM     11  OXT LYS A   1      -9.129  12.218  66.617  1.00  0.00    -0.204 OA 
ATOM     12  O   LYS A   1      -9.459  11.020  68.524  1.00  0.00    -0.174 OA 
ATOM     13  H1  LYS A   1     -11.727   9.859  67.916  1.00  0.00     0.000 HD 
ATOM     14  H2  LYS A   1     -12.980  10.874  68.405  1.00  0.00     0.000 HD 
ENDBRANCH   7   8
ENDBRANCH   6   7
ENDBRANCH   5   6
ENDBRANCH   3   5
TORSDOF 4
ENDMDL
MODEL       32
REMARK 921   NORMALIZED FREE ENERGY PREDICTED BY IDOCK:   -3.49 KCAL/MOL
REMARK 922        TOTAL FREE ENERGY PREDICTED BY IDOCK:   -4.80 KCAL/MOL
REMARK 923 INTER-LIGAND FREE ENERGY PREDICTED BY IDOCK:   -4.61 KCAL/MOL
REMARK 924 INTRA-LIGAND FREE ENERGY PREDICTED BY IDOCK:   -0.19 KCAL/MOL
REMARK 927      BINDING AFFINITY PREDICTED BY RF-SCORE:    0.00 PKD
ROOT
ATOM      1  NZ  LYS A   1     -11.692  16.280  63.851  1.00  0.00    -1.518 NA 
ATOM      2  HZ2 LYS A   1     -12.701  16.368  63.728  1.00  0.00     0.000 HD 
ATOM      3  CE  LYS A   1     -11.364  15.284  64.866  1.00  0.00    -0.384 C  
ATOM      4  HZ1 LYS A   1     -11.262  17.182  64.055  1.00  0.00     0.000 HD 
ENDROOT
BRANCH   3   5
ATOM      5  CD  LYS A   1     -12.009  13.930  64.559  1.00  0.00    -0.464 C  
BRANCH   5   6
ATOM      6  CG  LYS A   1     -12.506  13.224  65.825  1.00  0.00    -0.480 C  
BRANCH   6   7
ATOM      7  CB  LYS A   1     -12.031  13.925  67.099  1.00  0.00    -0.455 C  
BRANCH   7   8
ATOM      8  CA  LYS A   1     -11.321  12.975  68.074  1.00  0.00    -0.290 C  
ATOM      9  N   LYS A   1     -11.325  13.506  69.470  1.00  0.00    -0.417 NA 
ATOM     10  C   LYS A   1      -9.857  12.819  67.637  1.00  0.00    -0.214 C  
ATOM     11  OXT LYS A   1      -9.461  12.101  66.731  1.00  0.00    -0.200 OA 
ATOM     12  O   LYS A   1      -9.040  13.616  68.378  1.00  0.00    -0.193 OA 
ATOM     13  H1  LYS A   1     -10.853  12.876  70.117  1.00  0.00     0.000 HD 
ATOM     14  H2  LYS A   1     -12.272  13.720  69.782  1.00  0.00     0.000 HD 
ENDBRANCH   7   8
ENDBRANCH   6   7
ENDBRANCH   5   6
ENDBRANCH   3   5
TORSDOF 4
ENDMDL
MODEL       33
REMARK 921   NORMALIZED FREE ENERGY PREDICTED BY IDOCK:   -3.47 KCAL/MOL
REMARK 922        TOTAL FREE ENERGY PREDICTED BY IDOCK:   -4.78 KCAL/MOL
REMARK 923 INTER-LIGAND FREE ENERGY PREDICTED BY IDOCK:   -4.61 KCAL/MOL
REMARK 924 INTRA-LIGAND FREE ENERGY PREDICTED BY IDOCK:   -0.17 KCAL/MOL
REMARK 927      BINDING AFFINITY PREDICTED BY RF-SCORE:    0.00 PKD
ROOT
ATOM      1  NZ  LYS A   1     -12.424  14.210  63.155  1.00  0.00    -1.037 NA 
ATOM      2  HZ2 LYS A   1     -12.221  14.876  63.901  1.00  0.00     0.000 HD 
ATOM      3  CE  LYS A   1     -11.898  12.885  63.467  1.00  0.00    -0.536 C  
ATOM      4  HZ1 LYS A   1     -12.087  14.547  62.253  1.00  0.00     0.000 HD 
ENDROOT
BRANCH   3   5
ATOM      5  CD  LYS A   1     -12.404  12.380  64.821  1.00  0.00    -0.497 C  
BRANCH   5   6
ATOM      6  CG  LYS A   1     -12.388  13.476  65.892  1.00  0.00    -0.507 C  
BRANCH   6   7
ATOM      7  CB  LYS A   1     -11.108  13.443  66.729  1.00  0.00    -0.308 C  
BRANCH   7   8
ATOM      8  CA  LYS A   1     -11.377  13.191  68.220  1.00  0.00    -0.297 C  
ATOM      9  N   LYS A   1     -10.333  13.815  69.086  1.00  0.00    -0.430 NA 
ATOM     10  C   LYS A   1     -11.354  11.676  68.478  1.00  0.00    -0.274 C  
ATOM     11  OXT LYS A   1     -12.268  10.903  68.236  1.00  0.00    -0.526 OA 
ATOM     12  O   LYS A   1     -10.156  11.289  68.994  1.00  0.00    -0.198 OA 
ATOM     13  H1  LYS A   1     -10.511  13.648  70.076  1.00  0.00     0.000 HD 
ATOM     14  H2  LYS A   1     -10.236  14.812  68.889  1.00  0.00     0.000 HD 
ENDBRANCH   7   8
ENDBRANCH   6   7
ENDBRANCH   5   6
ENDBRANCH   3   5
TORSDOF 4
ENDMDL
MODEL       34
REMARK 921   NORMALIZED FREE ENERGY PREDICTED BY IDOCK:   -3.46 KCAL/MOL
REMARK 922        TOTAL FREE ENERGY PREDICTED BY IDOCK:   -4.76 KCAL/MOL
REMARK 923 INTER-LIGAND FREE ENERGY PREDICTED BY IDOCK:   -4.60 KCAL/MOL
REMARK 924 INTRA-LIGAND FREE ENERGY PREDICTED BY IDOCK:   -0.17 KCAL/MOL
REMARK 927      BINDING AFFINITY PREDICTED BY RF-SCORE:    0.00 PKD
ROOT
ATOM      1  NZ  LYS A   1     -10.612  17.318  65.344  1.00  0.00    -0.631 NA 
ATOM      2  HZ2 LYS A   1     -11.096  16.525  64.922  1.00  0.00     0.000 HD 
ATOM      3  CE  LYS A   1      -9.803  16.903  66.485  1.00  0.00    -0.296 C  
ATOM      4  HZ1 LYS A   1     -11.265  18.061  65.595  1.00  0.00     0.000 HD 
ENDROOT
BRANCH   3   5
ATOM      5  CD  LYS A   1      -8.823  15.789  66.107  1.00  0.00    -0.346 C  
BRANCH   5   6
ATOM      6  CG  LYS A   1      -9.250  14.428  66.667  1.00  0.00    -0.283 C  
BRANCH   6   7
ATOM      7  CB  LYS A   1     -10.172  13.675  65.706  1.00  0.00    -0.317 C  
BRANCH   7   8
ATOM      8  CA  LYS A   1     -11.658  13.824  66.064  1.00  0.00    -0.346 C  
ATOM      9  N   LYS A   1     -12.103  12.781  67.035  1.00  0.00    -0.452 NA 
ATOM     10  C   LYS A   1     -12.494  13.661  64.785  1.00  0.00    -0.350 C  
ATOM     11  OXT LYS A   1     -12.665  14.522  63.936  1.00  0.00    -0.782 OA 
ATOM     12  O   LYS A   1     -13.008  12.404  64.697  1.00  0.00    -0.793 OA 
ATOM     13  H1  LYS A   1     -13.090  12.880  67.272  1.00  0.00     0.000 HD 
ATOM     14  H2  LYS A   1     -11.518  12.778  67.871  1.00  0.00     0.000 HD 
ENDBRANCH   7   8
ENDBRANCH   6   7
ENDBRANCH   5   6
ENDBRANCH   3   5
TORSDOF 4
ENDMDL
MODEL       35
REMARK 921   NORMALIZED FREE ENERGY PREDICTED BY IDOCK:   -3.45 KCAL/MOL
REMARK 922        TOTAL FREE ENERGY PREDICTED BY IDOCK:   -4.76 KCAL/MOL
REMARK 923 INTER-LIGAND FREE ENERGY PREDICTED BY IDOCK:   -4.29 KCAL/MOL
REMARK 924 INTRA-LIGAND FREE ENERGY PREDICTED BY IDOCK:   -0.47 KCAL/MOL
REMARK 927      BINDING AFFINITY PREDICTED BY RF-SCORE:    0.00 PKD
ROOT
ATOM      1  NZ  LYS A   1     -11.612  16.125  63.830  1.00  0.00    -1.469 NA 
ATOM      2  HZ2 LYS A   1     -11.278  16.063  62.868  1.00  0.00     0.000 HD 
ATOM      3  CE  LYS A   1     -12.336  14.919  64.220  1.00  0.00    -0.277 C  
ATOM      4  HZ1 LYS A   1     -12.171  16.965  63.977  1.00  0.00     0.000 HD 
ENDROOT
BRANCH   3   5
ATOM      5  CD  LYS A   1     -11.497  13.658  64.001  1.00  0.00    -0.303 C  
BRANCH   5   6
ATOM      6  CG  LYS A   1     -10.409  13.493  65.068  1.00  0.00    -0.379 C  
BRANCH   6   7
ATOM      7  CB  LYS A   1     -10.984  13.523  66.485  1.00  0.00    -0.295 C  
BRANCH   7   8
ATOM      8  CA  LYS A   1     -10.171  14.411  67.440  1.00  0.00    -0.247 C  
ATOM      9  N   LYS A   1     -10.100  13.829  68.813  1.00  0.00    -0.367 NA 
ATOM     10  C   LYS A   1     -10.857  15.781  67.547  1.00  0.00    -0.315 C  
ATOM     11  OXT LYS A   1     -10.775  16.680  66.724  1.00  0.00    -0.253 OA 
ATOM     12  O   LYS A   1     -11.607  15.863  68.679  1.00  0.00    -0.382 OA 
ATOM     13  H1  LYS A   1      -9.561  14.418  69.447  1.00  0.00     0.000 HD 
ATOM     14  H2  LYS A   1      -9.738  12.875  68.794  1.00  0.00     0.000 HD 
ENDBRANCH   7   8
ENDBRANCH   6   7
ENDBRANCH   5   6
ENDBRANCH   3   5
TORSDOF 4
ENDMDL
MODEL       36
REMARK 921   NORMALIZED FREE ENERGY PREDICTED BY IDOCK:   -3.45 KCAL/MOL
REMARK 922        TOTAL FREE ENERGY PREDICTED BY IDOCK:   -4.75 KCAL/MOL
REMARK 923 INTER-LIGAND FREE ENERGY PREDICTED BY IDOCK:   -4.57 KCAL/MOL
REMARK 924 INTRA-LIGAND FREE ENERGY PREDICTED BY IDOCK:   -0.18 KCAL/MOL
REMARK 927      BINDING AFFINITY PREDICTED BY RF-SCORE:    0.00 PKD
ROOT
ATOM      1  NZ  LYS A   1     -12.340  13.785  63.122  1.00  0.00    -1.106 NA 
ATOM      2  HZ2 LYS A   1     -11.735  14.598  63.234  1.00  0.00     0.000 HD 
ATOM      3  CE  LYS A   1     -11.981  12.721  64.054  1.00  0.00    -0.447 C  
ATOM      4  HZ1 LYS A   1     -12.345  13.454  62.156  1.00  0.00     0.000 HD 
ENDROOT
BRANCH   3   5
ATOM      5  CD  LYS A   1     -11.975  13.216  65.502  1.00  0.00    -0.457 C  
BRANCH   5   6
ATOM      6  CG  LYS A   1     -10.567  13.219  66.108  1.00  0.00    -0.293 C  
BRANCH   6   7
ATOM      7  CB  LYS A   1     -10.574  13.636  67.579  1.00  0.00    -0.243 C  
BRANCH   7   8
ATOM      8  CA  LYS A   1     -11.967  13.541  68.220  1.00  0.00    -0.342 C  
ATOM      9  N   LYS A   1     -12.253  14.709  69.105  1.00  0.00    -0.549 NA 
ATOM     10  C   LYS A   1     -12.030  12.272  69.083  1.00  0.00    -0.249 C  
ATOM     11  OXT LYS A   1     -12.202  11.138  68.664  1.00  0.00    -0.582 OA 
ATOM     12  O   LYS A   1     -11.837  12.568  70.397  1.00  0.00    -0.299 OA 
ATOM     13  H1  LYS A   1     -13.177  14.646  69.530  1.00  0.00     0.000 HD 
ATOM     14  H2  LYS A   1     -12.132  15.591  68.606  1.00  0.00     0.000 HD 
ENDBRANCH   7   8
ENDBRANCH   6   7
ENDBRANCH   5   6
ENDBRANCH   3   5
TORSDOF 4
ENDMDL
MODEL       37
REMARK 921   NORMALIZED FREE ENERGY PREDICTED BY IDOCK:   -3.42 KCAL/MOL
REMARK 922        TOTAL FREE ENERGY PREDICTED BY IDOCK:   -4.73 KCAL/MOL
REMARK 923 INTER-LIGAND FREE ENERGY PREDICTED BY IDOCK:   -4.55 KCAL/MOL
REMARK 924 INTRA-LIGAND FREE ENERGY PREDICTED BY IDOCK:   -0.18 KCAL/MOL
REMARK 927      BINDING AFFINITY PREDICTED BY RF-SCORE:    0.00 PKD
ROOT
ATOM      1  NZ  LYS A   1     -13.659  15.446  70.584  1.00  0.00    -0.826 NA 
ATOM      2  HZ2 LYS A   1     -13.996  14.494  70.440  1.00  0.00     0.000 HD 
ATOM      3  CE  LYS A   1     -12.222  15.543  70.348  1.00  0.00    -0.406 C  
ATOM      4  HZ1 LYS A   1     -13.914  15.796  71.508  1.00  0.00     0.000 HD 
ENDROOT
BRANCH   3   5
ATOM      5  CD  LYS A   1     -11.839  15.019  68.962  1.00  0.00    -0.330 C  
BRANCH   5   6
ATOM      6  CG  LYS A   1     -11.885  13.489  68.888  1.00  0.00    -0.384 C  
BRANCH   6   7
ATOM      7  CB  LYS A   1     -11.788  12.979  67.449  1.00  0.00    -0.411 C  
BRANCH   7   8
ATOM      8  CA  LYS A   1     -11.889  14.105  66.409  1.00  0.00    -0.423 C  
ATOM      9  N   LYS A   1     -13.002  13.870  65.442  1.00  0.00    -0.748 NA 
ATOM     10  C   LYS A   1     -10.578  14.161  65.610  1.00  0.00    -0.310 C  
ATOM     11  OXT LYS A   1      -9.538  14.676  65.990  1.00  0.00    -0.304 OA 
ATOM     12  O   LYS A   1     -10.711  13.527  64.413  1.00  0.00    -0.408 OA 
ATOM     13  H1  LYS A   1     -13.069  14.617  64.751  1.00  0.00     0.000 HD 
ATOM     14  H2  LYS A   1     -13.890  13.730  65.925  1.00  0.00     0.000 HD 
ENDBRANCH   7   8
ENDBRANCH   6   7
ENDBRANCH   5   6
ENDBRANCH   3   5
TORSDOF 4
ENDMDL
MODEL       38
REMARK 921   NORMALIZED FREE ENERGY PREDICTED BY IDOCK:   -3.42 KCAL/MOL
REMARK 922        TOTAL FREE ENERGY PREDICTED BY IDOCK:   -4.72 KCAL/MOL
REMARK 923 INTER-LIGAND FREE ENERGY PREDICTED BY IDOCK:   -4.60 KCAL/MOL
REMARK 924 INTRA-LIGAND FREE ENERGY PREDICTED BY IDOCK:   -0.12 KCAL/MOL
REMARK 927      BINDING AFFINITY PREDICTED BY RF-SCORE:    0.00 PKD
ROOT
ATOM      1  NZ  LYS A   1     -11.662  16.312  63.787  1.00  0.00    -1.488 NA 
ATOM      2  HZ2 LYS A   1     -12.676  16.226  63.717  1.00  0.00     0.000 HD 
ATOM      3  CE  LYS A   1     -11.138  15.534  64.905  1.00  0.00    -0.416 C  
ATOM      4  HZ1 LYS A   1     -11.374  17.289  63.840  1.00  0.00     0.000 HD 
ENDROOT
BRANCH   3   5
ATOM      5  CD  LYS A   1     -11.570  14.067  64.825  1.00  0.00    -0.387 C  
BRANCH   5   6
ATOM      6  CG  LYS A   1     -11.931  13.494  66.200  1.00  0.00    -0.454 C  
BRANCH   6   7
ATOM      7  CB  LYS A   1     -11.759  14.525  67.316  1.00  0.00    -0.429 C  
BRANCH   7   8
ATOM      8  CA  LYS A   1     -10.654  14.147  68.314  1.00  0.00    -0.251 C  
ATOM      9  N   LYS A   1     -11.096  13.074  69.253  1.00  0.00    -0.421 NA 
ATOM     10  C   LYS A   1     -10.298  15.385  69.151  1.00  0.00    -0.240 C  
ATOM     11  OXT LYS A   1      -9.582  16.305  68.786  1.00  0.00    -0.222 OA 
ATOM     12  O   LYS A   1     -10.913  15.345  70.364  1.00  0.00    -0.290 OA 
ATOM     13  H1  LYS A   1     -10.362  12.823  69.915  1.00  0.00     0.000 HD 
ATOM     14  H2  LYS A   1     -11.436  12.255  68.747  1.00  0.00     0.000 HD 
ENDBRANCH   7   8
ENDBRANCH   6   7
ENDBRANCH   5   6
ENDBRANCH   3   5
TORSDOF 4
ENDMDL
MODEL       39
REMARK 921   NORMALIZED FREE ENERGY PREDICTED BY IDOCK:   -3.41 KCAL/MOL
REMARK 922        TOTAL FREE ENERGY PREDICTED BY IDOCK:   -4.71 KCAL/MOL
REMARK 923 INTER-LIGAND FREE ENERGY PREDICTED BY IDOCK:   -4.49 KCAL/MOL
REMARK 924 INTRA-LIGAND FREE ENERGY PREDICTED BY IDOCK:   -0.22 KCAL/MOL
REMARK 927      BINDING AFFINITY PREDICTED BY RF-SCORE:    0.00 PKD
ROOT
ATOM      1  NZ  LYS A   1      -9.436  11.665  68.922  1.00  0.00    -0.407 NA 
ATOM      2  HZ2 LYS A   1      -8.876  10.822  68.793  1.00  0.00     0.000 HD 
ATOM      3  CE  LYS A   1      -9.899  12.196  67.644  1.00  0.00    -0.194 C  
ATOM      4  HZ1 LYS A   1      -8.930  12.368  69.461  1.00  0.00     0.000 HD 
ENDROOT
BRANCH   3   5
ATOM      5  CD  LYS A   1     -10.657  11.141  66.835  1.00  0.00    -0.304 C  
BRANCH   5   6
ATOM      6  CG  LYS A   1     -10.026  10.901  65.459  1.00  0.00    -0.315 C  
BRANCH   6   7
ATOM      7  CB  LYS A   1     -10.496  11.924  64.424  1.00  0.00    -0.356 C  
BRANCH   7   8
ATOM      8  CA  LYS A   1     -12.023  12.092  64.401  1.00  0.00    -0.361 C  
ATOM      9  N   LYS A   1     -12.605  11.710  63.081  1.00  0.00    -0.909 NA 
ATOM     10  C   LYS A   1     -12.363  13.570  64.652  1.00  0.00    -0.372 C  
ATOM     11  OXT LYS A   1     -12.369  14.119  65.743  1.00  0.00    -0.438 OA 
ATOM     12  O   LYS A   1     -12.632  14.212  63.483  1.00  0.00    -0.834 OA 
ATOM     13  H1  LYS A   1     -13.618  11.821  63.066  1.00  0.00     0.000 HD 
ATOM     14  H2  LYS A   1     -12.331  10.763  62.815  1.00  0.00     0.000 HD 
ENDBRANCH   7   8
ENDBRANCH   6   7
ENDBRANCH   5   6
ENDBRANCH   3   5
TORSDOF 4
ENDMDL
MODEL       40
REMARK 921   NORMALIZED FREE ENERGY PREDICTED BY IDOCK:   -3.36 KCAL/MOL
REMARK 922        TOTAL FREE ENERGY PREDICTED BY IDOCK:   -4.65 KCAL/MOL
REMARK 923 INTER-LIGAND FREE ENERGY PREDICTED BY IDOCK:   -4.51 KCAL/MOL
REMARK 924 INTRA-LIGAND FREE ENERGY PREDICTED BY IDOCK:   -0.13 KCAL/MOL
REMARK 927      BINDING AFFINITY PREDICTED BY RF-SCORE:    0.00 PKD
ROOT
ATOM      1  NZ  LYS A   1      -8.229  11.603  69.064  1.00  0.00    -0.366 NA 
ATOM      2  HZ2 LYS A   1      -8.732  11.217  69.863  1.00  0.00     0.000 HD 
ATOM      3  CE  LYS A   1      -9.075  11.653  67.876  1.00  0.00    -0.171 C  
ATOM      4  HZ1 LYS A   1      -7.362  11.095  68.888  1.00  0.00     0.000 HD 
ENDROOT
BRANCH   3   5
ATOM      5  CD  LYS A   1     -10.376  12.417  68.139  1.00  0.00    -0.231 C  
BRANCH   5   6
ATOM      6  CG  LYS A   1     -11.499  11.994  67.187  1.00  0.00    -0.401 C  
BRANCH   6   7
ATOM      7  CB  LYS A   1     -11.847  13.094  66.182  1.00  0.00    -0.453 C  
BRANCH   7   8
ATOM      8  CA  LYS A   1     -11.260  12.835  64.787  1.00  0.00    -0.305 C  
ATOM      9  N   LYS A   1     -10.284  13.893  64.389  1.00  0.00    -0.732 NA 
ATOM     10  C   LYS A   1     -12.402  12.842  63.759  1.00  0.00    -0.446 C  
ATOM     11  OXT LYS A   1     -13.172  11.917  63.551  1.00  0.00    -0.676 OA 
ATOM     12  O   LYS A   1     -12.472  14.039  63.118  1.00  0.00    -0.733 OA 
ATOM     13  H1  LYS A   1      -9.894  13.722  63.463  1.00  0.00     0.000 HD 
ATOM     14  H2  LYS A   1      -9.548  14.001  65.088  1.00  0.00     0.000 HD 
ENDBRANCH   7   8
ENDBRANCH   6   7
ENDBRANCH   5   6
ENDBRANCH   3   5
TORSDOF 4
ENDMDL
MODEL       41
REMARK 921   NORMALIZED FREE ENERGY PREDICTED BY IDOCK:   -3.36 KCAL/MOL
REMARK 922        TOTAL FREE ENERGY PREDICTED BY IDOCK:   -4.64 KCAL/MOL
REMARK 923 INTER-LIGAND FREE ENERGY PREDICTED BY IDOCK:   -4.33 KCAL/MOL
REMARK 924 INTRA-LIGAND FREE ENERGY PREDICTED BY IDOCK:   -0.31 KCAL/MOL
REMARK 927      BINDING AFFINITY PREDICTED BY RF-SCORE:    0.00 PKD
ROOT
ATOM      1  NZ  LYS A   1     -12.332  15.156  68.744  1.00  0.00    -0.595 NA 
ATOM      2  HZ2 LYS A   1     -12.033  14.199  68.929  1.00  0.00     0.000 HD 
ATOM      3  CE  LYS A   1     -11.200  16.077  68.739  1.00  0.00    -0.360 C  
ATOM      4  HZ1 LYS A   1     -13.056  15.452  69.400  1.00  0.00     0.000 HD 
ENDROOT
BRANCH   3   5
ATOM      5  CD  LYS A   1     -10.114  15.632  67.755  1.00  0.00    -0.226 C  
BRANCH   5   6
ATOM      6  CG  LYS A   1     -10.578  15.730  66.298  1.00  0.00    -0.313 C  
BRANCH   6   7
ATOM      7  CB  LYS A   1     -10.608  14.363  65.611  1.00  0.00    -0.339 C  
BRANCH   7   8
ATOM      8  CA  LYS A   1     -12.008  13.731  65.600  1.00  0.00    -0.388 C  
ATOM      9  N   LYS A   1     -12.105  12.579  66.544  1.00  0.00    -0.585 NA 
ATOM     10  C   LYS A   1     -12.302  13.205  64.186  1.00  0.00    -0.348 C  
ATOM     11  OXT LYS A   1     -12.658  13.886  63.237  1.00  0.00    -0.824 OA 
ATOM     12  O   LYS A   1     -12.086  11.864  64.112  1.00  0.00    -0.351 OA 
ATOM     13  H1  LYS A   1     -13.034  12.159  66.536  1.00  0.00     0.000 HD 
ATOM     14  H2  LYS A   1     -11.827  12.848  67.488  1.00  0.00     0.000 HD 
ENDBRANCH   7   8
ENDBRANCH   6   7
ENDBRANCH   5   6
ENDBRANCH   3   5
TORSDOF 4
ENDMDL
MODEL       42
REMARK 921   NORMALIZED FREE ENERGY PREDICTED BY IDOCK:   -3.35 KCAL/MOL
REMARK 922        TOTAL FREE ENERGY PREDICTED BY IDOCK:   -4.63 KCAL/MOL
REMARK 923 INTER-LIGAND FREE ENERGY PREDICTED BY IDOCK:   -4.47 KCAL/MOL
REMARK 924 INTRA-LIGAND FREE ENERGY PREDICTED BY IDOCK:   -0.16 KCAL/MOL
REMARK 927      BINDING AFFINITY PREDICTED BY RF-SCORE:    0.00 PKD
ROOT
ATOM      1  NZ  LYS A   1     -13.993   8.956  72.846  1.00  0.00    -1.052 NA 
ATOM      2  HZ2 LYS A   1     -13.959   9.975  72.897  1.00  0.00     0.000 HD 
ATOM      3  CE  LYS A   1     -13.085   8.444  71.825  1.00  0.00    -0.351 C  
ATOM      4  HZ1 LYS A   1     -14.947   8.623  72.704  1.00  0.00     0.000 HD 
ENDROOT
BRANCH   3   5
ATOM      5  CD  LYS A   1     -11.654   8.944  72.038  1.00  0.00    -0.435 C  
BRANCH   5   6
ATOM      6  CG  LYS A   1     -11.116   9.700  70.818  1.00  0.00    -0.403 C  
BRANCH   6   7
ATOM      7  CB  LYS A   1     -11.874  11.005  70.571  1.00  0.00    -0.464 C  
BRANCH   7   8
ATOM      8  CA  LYS A   1     -12.139  11.268  69.081  1.00  0.00    -0.279 C  
ATOM      9  N   LYS A   1     -11.499  10.237  68.212  1.00  0.00    -0.604 NA 
ATOM     10  C   LYS A   1     -11.543  12.633  68.704  1.00  0.00    -0.316 C  
ATOM     11  OXT LYS A   1     -12.056  13.718  68.934  1.00  0.00    -0.349 OA 
ATOM     12  O   LYS A   1     -10.334  12.485  68.097  1.00  0.00    -0.218 OA 
ATOM     13  H1  LYS A   1     -11.675  10.411  67.223  1.00  0.00     0.000 HD 
ATOM     14  H2  LYS A   1     -11.787   9.295  68.480  1.00  0.00     0.000 HD 
ENDBRANCH   7   8
ENDBRANCH   6   7
ENDBRANCH   5   6
ENDBRANCH   3   5
TORSDOF 4
ENDMDL
MODEL       43
REMARK 921   NORMALIZED FREE ENERGY PREDICTED BY IDOCK:   -3.35 KCAL/MOL
REMARK 922        TOTAL FREE ENERGY PREDICTED BY IDOCK:   -4.63 KCAL/MOL
REMARK 923 INTER-LIGAND FREE ENERGY PREDICTED BY IDOCK:   -4.11 KCAL/MOL
REMARK 924 INTRA-LIGAND FREE ENERGY PREDICTED BY IDOCK:   -0.52 KCAL/MOL
REMARK 927      BINDING AFFINITY PREDICTED BY RF-SCORE:    0.00 PKD
ROOT
ATOM      1  NZ  LYS A   1     -12.225  11.582  63.128  1.00  0.00    -0.932 NA 
ATOM      2  HZ2 LYS A   1     -13.212  11.332  63.061  1.00  0.00     0.000 HD 
ATOM      3  CE  LYS A   1     -12.055  12.954  63.596  1.00  0.00    -0.535 C  
ATOM      4  HZ1 LYS A   1     -11.739  11.421  62.246  1.00  0.00     0.000 HD 
ENDROOT
BRANCH   3   5
ATOM      5  CD  LYS A   1     -12.784  13.194  64.920  1.00  0.00    -0.421 C  
BRANCH   5   6
ATOM      6  CG  LYS A   1     -11.838  13.685  66.022  1.00  0.00    -0.415 C  
BRANCH   6   7
ATOM      7  CB  LYS A   1     -11.639  12.636  67.118  1.00  0.00    -0.434 C  
BRANCH   7   8
ATOM      8  CA  LYS A   1     -10.256  11.970  67.062  1.00  0.00    -0.203 C  
ATOM      9  N   LYS A   1      -9.344  12.662  66.104  1.00  0.00    -0.402 NA 
ATOM     10  C   LYS A   1     -10.424  10.519  66.583  1.00  0.00    -0.228 C  
ATOM     11  OXT LYS A   1     -10.791   9.583  67.277  1.00  0.00    -0.251 OA 
ATOM     12  O   LYS A   1     -10.138  10.408  65.258  1.00  0.00    -0.293 OA 
ATOM     13  H1  LYS A   1      -8.426  12.219  66.067  1.00  0.00     0.000 HD 
ATOM     14  H2  LYS A   1      -9.268  13.657  66.317  1.00  0.00     0.000 HD 
ENDBRANCH   7   8
ENDBRANCH   6   7
ENDBRANCH   5   6
ENDBRANCH   3   5
TORSDOF 4
ENDMDL
MODEL       44
REMARK 921   NORMALIZED FREE ENERGY PREDICTED BY IDOCK:   -3.35 KCAL/MOL
REMARK 922        TOTAL FREE ENERGY PREDICTED BY IDOCK:   -4.63 KCAL/MOL
REMARK 923 INTER-LIGAND FREE ENERGY PREDICTED BY IDOCK:   -4.52 KCAL/MOL
REMARK 924 INTRA-LIGAND FREE ENERGY PREDICTED BY IDOCK:   -0.11 KCAL/MOL
REMARK 927      BINDING AFFINITY PREDICTED BY RF-SCORE:    0.00 PKD
ROOT
ATOM      1  NZ  LYS A   1      -6.678  13.040  67.006  1.00  0.00    -0.442 NA 
ATOM      2  HZ2 LYS A   1      -5.975  13.667  66.616  1.00  0.00     0.000 HD 
ATOM      3  CE  LYS A   1      -7.634  13.764  67.839  1.00  0.00    -0.156 C  
ATOM      4  HZ1 LYS A   1      -6.247  12.267  67.513  1.00  0.00     0.000 HD 
ENDROOT
BRANCH   3   5
ATOM      5  CD  LYS A   1      -8.281  14.924  67.079  1.00  0.00    -0.228 C  
BRANCH   5   6
ATOM      6  CG  LYS A   1      -9.769  14.679  66.805  1.00  0.00    -0.267 C  
BRANCH   6   7
ATOM      7  CB  LYS A   1     -10.090  14.697  65.310  1.00  0.00    -0.393 C  
BRANCH   7   8
ATOM      8  CA  LYS A   1     -10.784  13.412  64.833  1.00  0.00    -0.369 C  
ATOM      9  N   LYS A   1     -10.146  12.859  63.602  1.00  0.00    -0.715 NA 
ATOM     10  C   LYS A   1     -12.248  13.735  64.497  1.00  0.00    -0.403 C  
ATOM     11  OXT LYS A   1     -13.150  13.859  65.311  1.00  0.00    -0.777 OA 
ATOM     12  O   LYS A   1     -12.414  13.898  63.157  1.00  0.00    -0.766 OA 
ATOM     13  H1  LYS A   1     -10.606  12.006  63.286  1.00  0.00     0.000 HD 
ATOM     14  H2  LYS A   1      -9.145  12.713  63.737  1.00  0.00     0.000 HD 
ENDBRANCH   7   8
ENDBRANCH   6   7
ENDBRANCH   5   6
ENDBRANCH   3   5
TORSDOF 4
ENDMDL
MODEL       45
REMARK 921   NORMALIZED FREE ENERGY PREDICTED BY IDOCK:   -3.31 KCAL/MOL
REMARK 922        TOTAL FREE ENERGY PREDICTED BY IDOCK:   -4.58 KCAL/MOL
REMARK 923 INTER-LIGAND FREE ENERGY PREDICTED BY IDOCK:   -4.46 KCAL/MOL
REMARK 924 INTRA-LIGAND FREE ENERGY PREDICTED BY IDOCK:   -0.12 KCAL/MOL
REMARK 927      BINDING AFFINITY PREDICTED BY RF-SCORE:    0.00 PKD
ROOT
ATOM      1  NZ  LYS A   1     -11.242  13.580  69.804  1.00  0.00    -0.473 NA 
ATOM      2  HZ2 LYS A   1     -10.716  13.838  70.639  1.00  0.00     0.000 HD 
ATOM      3  CE  LYS A   1     -12.050  12.386  70.032  1.00  0.00    -0.263 C  
ATOM      4  HZ1 LYS A   1     -10.628  13.471  68.997  1.00  0.00     0.000 HD 
ENDROOT
BRANCH   3   5
ATOM      5  CD  LYS A   1     -12.971  12.549  71.244  1.00  0.00    -0.301 C  
BRANCH   5   6
ATOM      6  CG  LYS A   1     -13.182  11.229  71.993  1.00  0.00    -0.437 C  
BRANCH   6   7
ATOM      7  CB  LYS A   1     -13.130  10.021  71.057  1.00  0.00    -0.435 C  
BRANCH   7   8
ATOM      8  CA  LYS A   1     -13.568   8.716  71.740  1.00  0.00    -0.403 C  
ATOM      9  N   LYS A   1     -14.022   8.949  73.143  1.00  0.00    -1.215 NA 
ATOM     10  C   LYS A   1     -12.370   7.756  71.788  1.00  0.00    -0.317 C  
ATOM     11  OXT LYS A   1     -11.971   7.074  70.857  1.00  0.00    -0.342 OA 
ATOM     12  O   LYS A   1     -11.777   7.780  73.012  1.00  0.00    -0.277 OA 
ATOM     13  H1  LYS A   1     -14.313   8.084  73.596  1.00  0.00     0.000 HD 
ATOM     14  H2  LYS A   1     -14.758   9.655  73.182  1.00  0.00     0.000 HD 
ENDBRANCH   7   8
ENDBRANCH   6   7
ENDBRANCH   5   6
ENDBRANCH   3   5
TORSDOF 4
ENDMDL
MODEL       46
REMARK 921   NORMALIZED FREE ENERGY PREDICTED BY IDOCK:   -3.30 KCAL/MOL
REMARK 922        TOTAL FREE ENERGY PREDICTED BY IDOCK:   -4.57 KCAL/MOL
REMARK 923 INTER-LIGAND FREE ENERGY PREDICTED BY IDOCK:   -4.43 KCAL/MOL
REMARK 924 INTRA-LIGAND FREE ENERGY PREDICTED BY IDOCK:   -0.14 KCAL/MOL
REMARK 927      BINDING AFFINITY PREDICTED BY RF-SCORE:    0.00 PKD
ROOT
ATOM      1  NZ  LYS A   1     -10.856   8.560  67.431  1.00  0.00    -0.472 NA 
ATOM      2  HZ2 LYS A   1     -10.482   7.611  67.394  1.00  0.00     0.000 HD 
ATOM      3  CE  LYS A   1      -9.919   9.524  66.864  1.00  0.00    -0.216 C  
ATOM      4  HZ1 LYS A   1     -11.132   8.814  68.379  1.00  0.00     0.000 HD 
ENDROOT
BRANCH   3   5
ATOM      5  CD  LYS A   1      -9.505   9.142  65.441  1.00  0.00    -0.231 C  
BRANCH   5   6
ATOM      6  CG  LYS A   1      -9.846  10.237  64.425  1.00  0.00    -0.374 C  
BRANCH   6   7
ATOM      7  CB  LYS A   1     -10.403  11.493  65.097  1.00  0.00    -0.329 C  
BRANCH   7   8
ATOM      8  CA  LYS A   1     -10.695  12.625  64.100  1.00  0.00    -0.406 C  
ATOM      9  N   LYS A   1     -10.220  13.947  64.605  1.00  0.00    -0.635 NA 
ATOM     10  C   LYS A   1     -12.214  12.721  63.892  1.00  0.00    -0.463 C  
ATOM     11  OXT LYS A   1     -12.879  11.988  63.176  1.00  0.00    -0.661 OA 
ATOM     12  O   LYS A   1     -12.745  13.726  64.641  1.00  0.00    -0.644 OA 
ATOM     13  H1  LYS A   1     -10.414  14.698  63.944  1.00  0.00     0.000 HD 
ATOM     14  H2  LYS A   1      -9.230  13.916  64.852  1.00  0.00     0.000 HD 
ENDBRANCH   7   8
ENDBRANCH   6   7
ENDBRANCH   5   6
ENDBRANCH   3   5
TORSDOF 4
ENDMDL
MODEL       47
REMARK 921   NORMALIZED FREE ENERGY PREDICTED BY IDOCK:   -3.29 KCAL/MOL
REMARK 922        TOTAL FREE ENERGY PREDICTED BY IDOCK:   -4.55 KCAL/MOL
REMARK 923 INTER-LIGAND FREE ENERGY PREDICTED BY IDOCK:   -4.45 KCAL/MOL
REMARK 924 INTRA-LIGAND FREE ENERGY PREDICTED BY IDOCK:   -0.11 KCAL/MOL
REMARK 927      BINDING AFFINITY PREDICTED BY RF-SCORE:    0.00 PKD
ROOT
ATOM      1  NZ  LYS A   1     -13.330  15.835  70.832  1.00  0.00    -0.722 NA 
ATOM      2  HZ2 LYS A   1     -13.920  16.378  71.463  1.00  0.00     0.000 HD 
ATOM      3  CE  LYS A   1     -12.590  14.803  71.552  1.00  0.00    -0.333 C  
ATOM      4  HZ1 LYS A   1     -12.708  16.438  70.293  1.00  0.00     0.000 HD 
ENDROOT
BRANCH   3   5
ATOM      5  CD  LYS A   1     -13.523  13.898  72.361  1.00  0.00    -0.661 C  
BRANCH   5   6
ATOM      6  CG  LYS A   1     -13.348  12.418  72.003  1.00  0.00    -0.511 C  
BRANCH   6   7
ATOM      7  CB  LYS A   1     -12.346  12.216  70.866  1.00  0.00    -0.370 C  
BRANCH   7   8
ATOM      8  CA  LYS A   1     -12.282  10.760  70.379  1.00  0.00    -0.349 C  
ATOM      9  N   LYS A   1     -11.540   9.886  71.335  1.00  0.00    -0.375 NA 
ATOM     10  C   LYS A   1     -11.540  10.719  69.034  1.00  0.00    -0.299 C  
ATOM     11  OXT LYS A   1     -12.023  11.006  67.950  1.00  0.00    -0.620 OA 
ATOM     12  O   LYS A   1     -10.243  10.345  69.206  1.00  0.00    -0.207 OA 
ATOM     13  H1  LYS A   1     -11.497   8.920  71.012  1.00  0.00     0.000 HD 
ATOM     14  H2  LYS A   1     -11.933   9.947  72.275  1.00  0.00     0.000 HD 
ENDBRANCH   7   8
ENDBRANCH   6   7
ENDBRANCH   5   6
ENDBRANCH   3   5
TORSDOF 4
ENDMDL
MODEL       48
REMARK 921   NORMALIZED FREE ENERGY PREDICTED BY IDOCK:   -3.28 KCAL/MOL
REMARK 922        TOTAL FREE ENERGY PREDICTED BY IDOCK:   -4.55 KCAL/MOL
REMARK 923 INTER-LIGAND FREE ENERGY PREDICTED BY IDOCK:   -4.46 KCAL/MOL
REMARK 924 INTRA-LIGAND FREE ENERGY PREDICTED BY IDOCK:   -0.09 KCAL/MOL
REMARK 927      BINDING AFFINITY PREDICTED BY RF-SCORE:    0.00 PKD
ROOT
ATOM      1  NZ  LYS A   1     -13.306   9.928  70.665  1.00  0.00    -0.612 NA 
ATOM      2  HZ2 LYS A   1     -12.862   9.013  70.578  1.00  0.00     0.000 HD 
ATOM      3  CE  LYS A   1     -12.346  11.007  70.459  1.00  0.00    -0.373 C  
ATOM      4  HZ1 LYS A   1     -13.793  10.021  71.557  1.00  0.00     0.000 HD 
ENDROOT
BRANCH   3   5
ATOM      5  CD  LYS A   1     -11.615  10.867  69.121  1.00  0.00    -0.389 C  
BRANCH   5   6
ATOM      6  CG  LYS A   1     -11.683  12.150  68.286  1.00  0.00    -0.401 C  
BRANCH   6   7
ATOM      7  CB  LYS A   1     -11.439  11.884  66.800  1.00  0.00    -0.384 C  
BRANCH   7   8
ATOM      8  CA  LYS A   1     -11.884  13.050  65.904  1.00  0.00    -0.416 C  
ATOM      9  N   LYS A   1     -12.850  12.607  64.855  1.00  0.00    -0.842 NA 
ATOM     10  C   LYS A   1     -10.650  13.625  65.191  1.00  0.00    -0.361 C  
ATOM     11  OXT LYS A   1      -9.835  14.386  65.689  1.00  0.00    -0.324 OA 
ATOM     12  O   LYS A   1     -10.558  13.149  63.919  1.00  0.00    -0.361 OA 
ATOM     13  H1  LYS A   1     -13.145  13.381  64.260  1.00  0.00     0.000 HD 
ATOM     14  H2  LYS A   1     -13.652  12.129  65.268  1.00  0.00     0.000 HD 
ENDBRANCH   7   8
ENDBRANCH   6   7
ENDBRANCH   5   6
ENDBRANCH   3   5
TORSDOF 4
ENDMDL
MODEL       49
REMARK 921   NORMALIZED FREE ENERGY PREDICTED BY IDOCK:   -3.26 KCAL/MOL
REMARK 922        TOTAL FREE ENERGY PREDICTED BY IDOCK:   -4.52 KCAL/MOL
REMARK 923 INTER-LIGAND FREE ENERGY PREDICTED BY IDOCK:   -4.08 KCAL/MOL
REMARK 924 INTRA-LIGAND FREE ENERGY PREDICTED BY IDOCK:   -0.44 KCAL/MOL
REMARK 927      BINDING AFFINITY PREDICTED BY RF-SCORE:    0.00 PKD
ROOT
ATOM      1  NZ  LYS A   1     -10.141  13.087  63.936  1.00  0.00    -0.757 NA 
ATOM      2  HZ2 LYS A   1      -9.468  13.244  64.687  1.00  0.00     0.000 HD 
ATOM      3  CE  LYS A   1      -9.935  11.790  63.299  1.00  0.00    -0.410 C  
ATOM      4  HZ1 LYS A   1     -10.126  13.847  63.257  1.00  0.00     0.000 HD 
ENDROOT
BRANCH   3   5
ATOM      5  CD  LYS A   1      -9.959  10.649  64.319  1.00  0.00    -0.413 C  
BRANCH   5   6
ATOM      6  CG  LYS A   1      -8.954  10.866  65.456  1.00  0.00    -0.213 C  
BRANCH   6   7
ATOM      7  CB  LYS A   1      -9.553  10.533  66.824  1.00  0.00    -0.205 C  
BRANCH   7   8
ATOM      8  CA  LYS A   1     -10.050  11.776  67.577  1.00  0.00    -0.192 C  
ATOM      9  N   LYS A   1      -9.855  11.647  69.051  1.00  0.00    -0.416 NA 
ATOM     10  C   LYS A   1     -11.555  11.943  67.317  1.00  0.00    -0.293 C  
ATOM     11  OXT LYS A   1     -12.050  12.420  66.308  1.00  0.00    -0.612 OA 
ATOM     12  O   LYS A   1     -12.285  11.459  68.358  1.00  0.00    -0.571 OA 
ATOM     13  H1  LYS A   1     -10.185  12.472  69.552  1.00  0.00     0.000 HD 
ATOM     14  H2  LYS A   1      -8.882  11.438  69.280  1.00  0.00     0.000 HD 
ENDBRANCH   7   8
ENDBRANCH   6   7
ENDBRANCH   5   6
ENDBRANCH   3   5
TORSDOF 4
ENDMDL
MODEL       50
REMARK 921   NORMALIZED FREE ENERGY PREDICTED BY IDOCK:   -3.25 KCAL/MOL
REMARK 922        TOTAL FREE ENERGY PREDICTED BY IDOCK:   -4.51 KCAL/MOL
REMARK 923 INTER-LIGAND FREE ENERGY PREDICTED BY IDOCK:   -4.23 KCAL/MOL
REMARK 924 INTRA-LIGAND FREE ENERGY PREDICTED BY IDOCK:   -0.28 KCAL/MOL
REMARK 927      BINDING AFFINITY PREDICTED BY RF-SCORE:    0.00 PKD
ROOT
ATOM      1  NZ  LYS A   1      -8.719  20.230  66.025  1.00  0.00    -0.580 NA 
ATOM      2  HZ2 LYS A   1      -9.396  20.921  65.702  1.00  0.00     0.000 HD 
ATOM      3  CE  LYS A   1      -8.725  20.119  67.480  1.00  0.00    -0.336 C  
ATOM      4  HZ1 LYS A   1      -7.785  20.427  65.666  1.00  0.00     0.000 HD 
ENDROOT
BRANCH   3   5
ATOM      5  CD  LYS A   1     -10.126  19.822  68.019  1.00  0.00    -0.571 C  
BRANCH   5   6
ATOM      6  CG  LYS A   1     -10.722  18.547  67.412  1.00  0.00    -0.424 C  
BRANCH   6   7
ATOM      7  CB  LYS A   1      -9.994  17.289  67.888  1.00  0.00    -0.297 C  
BRANCH   7   8
ATOM      8  CA  LYS A   1      -9.537  16.389  66.729  1.00  0.00    -0.248 C  
ATOM      9  N   LYS A   1      -8.625  17.111  65.793  1.00  0.00    -0.487 NA 
ATOM     10  C   LYS A   1     -10.772  15.944  65.931  1.00  0.00    -0.296 C  
ATOM     11  OXT LYS A   1     -11.539  15.050  66.254  1.00  0.00    -0.286 OA 
ATOM     12  O   LYS A   1     -10.926  16.702  64.812  1.00  0.00    -0.705 OA 
ATOM     13  H1  LYS A   1      -8.322  16.514  65.024  1.00  0.00     0.000 HD 
ATOM     14  H2  LYS A   1      -7.828  17.514  66.287  1.00  0.00     0.000 HD 
ENDBRANCH   7   8
ENDBRANCH   6   7
ENDBRANCH   5   6
ENDBRANCH   3   5
TORSDOF 4
ENDMDL
MODEL       51
REMARK 921   NORMALIZED FREE ENERGY PREDICTED BY IDOCK:   -3.25 KCAL/MOL
REMARK 922        TOTAL FREE ENERGY PREDICTED BY IDOCK:   -4.51 KCAL/MOL
REMARK 923 INTER-LIGAND FREE ENERGY PREDICTED BY IDOCK:   -4.39 KCAL/MOL
REMARK 924 INTRA-LIGAND FREE ENERGY PREDICTED BY IDOCK:   -0.12 KCAL/MOL
REMARK 927      BINDING AFFINITY PREDICTED BY RF-SCORE:    0.00 PKD
ROOT
ATOM      1  NZ  LYS A   1     -11.514  16.234  63.959  1.00  0.00    -1.521 NA 
ATOM      2  HZ2 LYS A   1     -10.968  17.083  64.104  1.00  0.00     0.000 HD 
ATOM      3  CE  LYS A   1     -10.936  15.101  64.674  1.00  0.00    -0.303 C  
ATOM      4  HZ1 LYS A   1     -11.632  16.032  62.966  1.00  0.00     0.000 HD 
ENDROOT
BRANCH   3   5
ATOM      5  CD  LYS A   1     -10.760  15.403  66.164  1.00  0.00    -0.316 C  
BRANCH   5   6
ATOM      6  CG  LYS A   1      -9.398  16.036  66.470  1.00  0.00    -0.296 C  
BRANCH   6   7
ATOM      7  CB  LYS A   1      -9.536  17.445  67.050  1.00  0.00    -0.268 C  
BRANCH   7   8
ATOM      8  CA  LYS A   1      -8.908  18.523  66.154  1.00  0.00    -0.111 C  
ATOM      9  N   LYS A   1      -7.446  18.297  65.953  1.00  0.00    -0.491 NA 
ATOM     10  C   LYS A   1      -9.082  19.892  66.830  1.00  0.00    -0.356 C  
ATOM     11  OXT LYS A   1     -10.105  20.558  66.827  1.00  0.00    -0.416 OA 
ATOM     12  O   LYS A   1      -7.941  20.266  67.471  1.00  0.00    -0.308 OA 
ATOM     13  H1  LYS A   1      -7.029  19.013  65.359  1.00  0.00     0.000 HD 
ATOM     14  H2  LYS A   1      -7.262  17.361  65.592  1.00  0.00     0.000 HD 
ENDBRANCH   7   8
ENDBRANCH   6   7
ENDBRANCH   5   6
ENDBRANCH   3   5
TORSDOF 4
ENDMDL
MODEL       52
REMARK 921   NORMALIZED FREE ENERGY PREDICTED BY IDOCK:   -3.24 KCAL/MOL
REMARK 922        TOTAL FREE ENERGY PREDICTED BY IDOCK:   -4.50 KCAL/MOL
REMARK 923 INTER-LIGAND FREE ENERGY PREDICTED BY IDOCK:   -4.37 KCAL/MOL
REMARK 924 INTRA-LIGAND FREE ENERGY PREDICTED BY IDOCK:   -0.13 KCAL/MOL
REMARK 927      BINDING AFFINITY PREDICTED BY RF-SCORE:    0.00 PKD
ROOT
ATOM      1  NZ  LYS A   1     -12.488  11.506  62.900  1.00  0.00    -0.867 NA 
ATOM      2  HZ2 LYS A   1     -13.218  12.105  62.514  1.00  0.00     0.000 HD 
ATOM      3  CE  LYS A   1     -11.703  12.207  63.911  1.00  0.00    -0.458 C  
ATOM      4  HZ1 LYS A   1     -11.896  11.120  62.164  1.00  0.00     0.000 HD 
ENDROOT
BRANCH   3   5
ATOM      5  CD  LYS A   1     -12.592  12.785  65.016  1.00  0.00    -0.538 C  
BRANCH   5   6
ATOM      6  CG  LYS A   1     -11.895  12.782  66.381  1.00  0.00    -0.472 C  
BRANCH   6   7
ATOM      7  CB  LYS A   1     -11.954  14.151  67.060  1.00  0.00    -0.471 C  
BRANCH   7   8
ATOM      8  CA  LYS A   1     -10.834  15.096  66.596  1.00  0.00    -0.318 C  
ATOM      9  N   LYS A   1      -9.622  14.345  66.153  1.00  0.00    -0.396 NA 
ATOM     10  C   LYS A   1     -10.425  15.994  67.774  1.00  0.00    -0.298 C  
ATOM     11  OXT LYS A   1     -11.031  16.983  68.155  1.00  0.00    -0.367 OA 
ATOM     12  O   LYS A   1      -9.296  15.526  68.372  1.00  0.00    -0.186 OA 
ATOM     13  H1  LYS A   1      -8.879  14.972  65.845  1.00  0.00     0.000 HD 
ATOM     14  H2  LYS A   1      -9.853  13.661  65.432  1.00  0.00     0.000 HD 
ENDBRANCH   7   8
ENDBRANCH   6   7
ENDBRANCH   5   6
ENDBRANCH   3   5
TORSDOF 4
ENDMDL
MODEL       53
REMARK 921   NORMALIZED FREE ENERGY PREDICTED BY IDOCK:   -3.23 KCAL/MOL
REMARK 922        TOTAL FREE ENERGY PREDICTED BY IDOCK:   -4.49 KCAL/MOL
REMARK 923 INTER-LIGAND FREE ENERGY PREDICTED BY IDOCK:   -3.96 KCAL/MOL
REMARK 924 INTRA-LIGAND FREE ENERGY PREDICTED BY IDOCK:   -0.53 KCAL/MOL
REMARK 927      BINDING AFFINITY PREDICTED BY RF-SCORE:    0.00 PKD
ROOT
ATOM      1  NZ  LYS A   1      -9.514  16.552  65.875  1.00  0.00    -0.488 NA 
ATOM      2  HZ2 LYS A   1      -8.619  16.317  66.304  1.00  0.00     0.000 HD 
ATOM      3  CE  LYS A   1     -10.633  16.166  66.729  1.00  0.00    -0.277 C  
ATOM      4  HZ1 LYS A   1      -9.597  16.150  64.941  1.00  0.00     0.000 HD 
ENDROOT
BRANCH   3   5
ATOM      5  CD  LYS A   1     -10.509  16.771  68.130  1.00  0.00    -0.332 C  
BRANCH   5   6
ATOM      6  CG  LYS A   1      -9.557  17.971  68.161  1.00  0.00    -0.303 C  
BRANCH   6   7
ATOM      7  CB  LYS A   1     -10.305  19.301  68.059  1.00  0.00    -0.506 C  
BRANCH   7   8
ATOM      8  CA  LYS A   1      -9.924  20.105  66.806  1.00  0.00    -0.469 C  
ATOM      9  N   LYS A   1     -10.519  19.520  65.568  1.00  0.00    -0.470 NA 
ATOM     10  C   LYS A   1      -8.396  20.082  66.648  1.00  0.00    -0.317 C  
ATOM     11  OXT LYS A   1      -7.609  20.778  67.271  1.00  0.00    -0.346 OA 
ATOM     12  O   LYS A   1      -8.016  19.151  65.731  1.00  0.00    -0.456 OA 
ATOM     13  H1  LYS A   1     -10.266  20.054  64.737  1.00  0.00     0.000 HD 
ATOM     14  H2  LYS A   1     -11.531  19.422  65.653  1.00  0.00     0.000 HD 
ENDBRANCH   7   8
ENDBRANCH   6   7
ENDBRANCH   5   6
ENDBRANCH   3   5
TORSDOF 4
ENDMDL
MODEL       54
REMARK 921   NORMALIZED FREE ENERGY PREDICTED BY IDOCK:   -3.22 KCAL/MOL
REMARK 922        TOTAL FREE ENERGY PREDICTED BY IDOCK:   -4.48 KCAL/MOL
REMARK 923 INTER-LIGAND FREE ENERGY PREDICTED BY IDOCK:   -4.19 KCAL/MOL
REMARK 924 INTRA-LIGAND FREE ENERGY PREDICTED BY IDOCK:   -0.29 KCAL/MOL
REMARK 927      BINDING AFFINITY PREDICTED BY RF-SCORE:    0.00 PKD
ROOT
ATOM      1  NZ  LYS A   1     -12.012  14.042  68.654  1.00  0.00    -0.416 NA 
ATOM      2  HZ2 LYS A   1     -11.229  14.201  68.019  1.00  0.00     0.000 HD 
ATOM      3  CE  LYS A   1     -11.740  14.589  69.980  1.00  0.00    -0.301 C  
ATOM      4  HZ1 LYS A   1     -12.261  13.054  68.698  1.00  0.00     0.000 HD 
ENDROOT
BRANCH   3   5
ATOM      5  CD  LYS A   1     -11.367  16.072  69.915  1.00  0.00    -0.340 C  
BRANCH   5   6
ATOM      6  CG  LYS A   1     -10.137  16.322  69.036  1.00  0.00    -0.259 C  
BRANCH   6   7
ATOM      7  CB  LYS A   1     -10.456  17.222  67.842  1.00  0.00    -0.382 C  
BRANCH   7   8
ATOM      8  CA  LYS A   1      -9.728  16.793  66.559  1.00  0.00    -0.283 C  
ATOM      9  N   LYS A   1      -9.008  17.934  65.920  1.00  0.00    -0.500 NA 
ATOM     10  C   LYS A   1     -10.764  16.271  65.552  1.00  0.00    -0.313 C  
ATOM     11  OXT LYS A   1     -11.275  15.162  65.572  1.00  0.00    -0.345 OA 
ATOM     12  O   LYS A   1     -11.073  17.226  64.633  1.00  0.00    -1.052 OA 
ATOM     13  H1  LYS A   1      -8.525  17.649  65.069  1.00  0.00     0.000 HD 
ATOM     14  H2  LYS A   1      -8.369  18.384  66.577  1.00  0.00     0.000 HD 
ENDBRANCH   7   8
ENDBRANCH   6   7
ENDBRANCH   5   6
ENDBRANCH   3   5
TORSDOF 4
ENDMDL
MODEL       55
REMARK 921   NORMALIZED FREE ENERGY PREDICTED BY IDOCK:   -3.22 KCAL/MOL
REMARK 922        TOTAL FREE ENERGY PREDICTED BY IDOCK:   -4.47 KCAL/MOL
REMARK 923 INTER-LIGAND FREE ENERGY PREDICTED BY IDOCK:   -4.09 KCAL/MOL
REMARK 924 INTRA-LIGAND FREE ENERGY PREDICTED BY IDOCK:   -0.38 KCAL/MOL
REMARK 927      BINDING AFFINITY PREDICTED BY RF-SCORE:    0.00 PKD
ROOT
ATOM      1  NZ  LYS A   1      -7.691  11.550  66.099  1.00  0.00    -0.379 NA 
ATOM      2  HZ2 LYS A   1      -8.361  11.558  66.868  1.00  0.00     0.000 HD 
ATOM      3  CE  LYS A   1      -7.649  10.247  65.444  1.00  0.00    -0.146 C  
ATOM      4  HZ1 LYS A   1      -6.766  11.847  66.408  1.00  0.00     0.000 HD 
ENDROOT
BRANCH   3   5
ATOM      5  CD  LYS A   1      -9.038   9.801  64.980  1.00  0.00    -0.280 C  
BRANCH   5   6
ATOM      6  CG  LYS A   1     -10.116  10.844  65.295  1.00  0.00    -0.340 C  
BRANCH   6   7
ATOM      7  CB  LYS A   1     -10.496  11.668  64.064  1.00  0.00    -0.418 C  
BRANCH   7   8
ATOM      8  CA  LYS A   1     -10.561  13.176  64.352  1.00  0.00    -0.421 C  
ATOM      9  N   LYS A   1      -9.941  13.517  65.667  1.00  0.00    -0.420 NA 
ATOM     10  C   LYS A   1     -12.034  13.608  64.402  1.00  0.00    -0.437 C  
ATOM     11  OXT LYS A   1     -12.745  13.815  63.431  1.00  0.00    -0.795 OA 
ATOM     12  O   LYS A   1     -12.469  13.704  65.688  1.00  0.00    -0.457 OA 
ATOM     13  H1  LYS A   1      -9.985  14.518  65.858  1.00  0.00     0.000 HD 
ATOM     14  H2  LYS A   1      -8.984  13.168  65.728  1.00  0.00     0.000 HD 
ENDBRANCH   7   8
ENDBRANCH   6   7
ENDBRANCH   5   6
ENDBRANCH   3   5
TORSDOF 4
ENDMDL
MODEL       56
REMARK 921   NORMALIZED FREE ENERGY PREDICTED BY IDOCK:   -3.21 KCAL/MOL
REMARK 922        TOTAL FREE ENERGY PREDICTED BY IDOCK:   -4.47 KCAL/MOL
REMARK 923 INTER-LIGAND FREE ENERGY PREDICTED BY IDOCK:   -4.35 KCAL/MOL
REMARK 924 INTRA-LIGAND FREE ENERGY PREDICTED BY IDOCK:   -0.12 KCAL/MOL
REMARK 927      BINDING AFFINITY PREDICTED BY RF-SCORE:    0.00 PKD
ROOT
ATOM      1  NZ  LYS A   1     -12.288  14.683  63.746  1.00  0.00    -1.092 NA 
ATOM      2  HZ2 LYS A   1     -12.236  15.698  63.661  1.00  0.00     0.000 HD 
ATOM      3  CE  LYS A   1     -11.247  14.168  64.629  1.00  0.00    -0.368 C  
ATOM      4  HZ1 LYS A   1     -12.265  14.231  62.832  1.00  0.00     0.000 HD 
ENDROOT
BRANCH   3   5
ATOM      5  CD  LYS A   1     -11.283  14.845  66.001  1.00  0.00    -0.327 C  
BRANCH   5   6
ATOM      6  CG  LYS A   1     -10.244  15.966  66.121  1.00  0.00    -0.340 C  
BRANCH   6   7
ATOM      7  CB  LYS A   1     -10.422  16.781  67.403  1.00  0.00    -0.310 C  
BRANCH   7   8
ATOM      8  CA  LYS A   1     -10.560  18.288  67.139  1.00  0.00    -0.367 C  
ATOM      9  N   LYS A   1     -10.652  18.589  65.680  1.00  0.00    -0.589 NA 
ATOM     10  C   LYS A   1      -9.315  19.003  67.687  1.00  0.00    -0.298 C  
ATOM     11  OXT LYS A   1      -9.117  19.279  68.860  1.00  0.00    -0.368 OA 
ATOM     12  O   LYS A   1      -8.429  19.270  66.690  1.00  0.00    -0.288 OA 
ATOM     13  H1  LYS A   1     -10.743  19.590  65.504  1.00  0.00     0.000 HD 
ATOM     14  H2  LYS A   1     -11.408  18.064  65.239  1.00  0.00     0.000 HD 
ENDBRANCH   7   8
ENDBRANCH   6   7
ENDBRANCH   5   6
ENDBRANCH   3   5
TORSDOF 4
ENDMDL
MODEL       57
REMARK 921   NORMALIZED FREE ENERGY PREDICTED BY IDOCK:   -3.19 KCAL/MOL
REMARK 922        TOTAL FREE ENERGY PREDICTED BY IDOCK:   -4.44 KCAL/MOL
REMARK 923 INTER-LIGAND FREE ENERGY PREDICTED BY IDOCK:   -4.29 KCAL/MOL
REMARK 924 INTRA-LIGAND FREE ENERGY PREDICTED BY IDOCK:   -0.15 KCAL/MOL
REMARK 927      BINDING AFFINITY PREDICTED BY RF-SCORE:    0.00 PKD
ROOT
ATOM      1  NZ  LYS A   1     -11.704  11.529  67.459  1.00  0.00    -0.604 NA 
ATOM      2  HZ2 LYS A   1     -10.738  11.440  67.143  1.00  0.00     0.000 HD 
ATOM      3  CE  LYS A   1     -11.849  12.610  68.429  1.00  0.00    -0.301 C  
ATOM      4  HZ1 LYS A   1     -12.059  10.645  67.823  1.00  0.00     0.000 HD 
ENDROOT
BRANCH   3   5
ATOM      5  CD  LYS A   1     -11.315  13.936  67.883  1.00  0.00    -0.320 C  
BRANCH   5   6
ATOM      6  CG  LYS A   1     -11.107  13.896  66.365  1.00  0.00    -0.309 C  
BRANCH   6   7
ATOM      7  CB  LYS A   1     -10.220  15.041  65.875  1.00  0.00    -0.335 C  
BRANCH   7   8
ATOM      8  CA  LYS A   1     -10.976  16.372  65.753  1.00  0.00    -0.031 C  
ATOM      9  N   LYS A   1     -11.061  16.836  64.337  1.00  0.00    -1.260 NA 
ATOM     10  C   LYS A   1     -10.222  17.446  66.553  1.00  0.00    -0.329 C  
ATOM     11  OXT LYS A   1     -10.268  17.589  67.765  1.00  0.00    -0.317 OA 
ATOM     12  O   LYS A   1      -9.456  18.215  65.732  1.00  0.00    -0.483 OA 
ATOM     13  H1  LYS A   1     -11.563  17.720  64.256  1.00  0.00     0.000 HD 
ATOM     14  H2  LYS A   1     -11.470  16.120  63.736  1.00  0.00     0.000 HD 
ENDBRANCH   7   8
ENDBRANCH   6   7
ENDBRANCH   5   6
ENDBRANCH   3   5
TORSDOF 4
ENDMDL
MODEL       58
REMARK 921   NORMALIZED FREE ENERGY PREDICTED BY IDOCK:   -3.18 KCAL/MOL
REMARK 922        TOTAL FREE ENERGY PREDICTED BY IDOCK:   -4.43 KCAL/MOL
REMARK 923 INTER-LIGAND FREE ENERGY PREDICTED BY IDOCK:   -3.89 KCAL/MOL
REMARK 924 INTRA-LIGAND FREE ENERGY PREDICTED BY IDOCK:   -0.53 KCAL/MOL
REMARK 927      BINDING AFFINITY PREDICTED BY RF-SCORE:    0.00 PKD
ROOT
ATOM      1  NZ  LYS A   1     -12.628   8.259  72.843  1.00  0.00    -0.659 NA 
ATOM      2  HZ2 LYS A   1     -13.133   8.995  72.349  1.00  0.00     0.000 HD 
ATOM      3  CE  LYS A   1     -12.270   7.165  71.946  1.00  0.00    -0.323 C  
ATOM      4  HZ1 LYS A   1     -13.153   7.926  73.653  1.00  0.00     0.000 HD 
ENDROOT
BRANCH   3   5
ATOM      5  CD  LYS A   1     -11.482   7.664  70.732  1.00  0.00    -0.295 C  
BRANCH   5   6
ATOM      6  CG  LYS A   1     -10.434   8.716  71.113  1.00  0.00    -0.291 C  
BRANCH   6   7
ATOM      7  CB  LYS A   1     -10.559   9.984  70.269  1.00  0.00    -0.354 C  
BRANCH   7   8
ATOM      8  CA  LYS A   1     -12.012  10.311  69.892  1.00  0.00    -0.150 C  
ATOM      9  N   LYS A   1     -12.116  10.865  68.510  1.00  0.00    -0.812 NA 
ATOM     10  C   LYS A   1     -12.549  11.372  70.864  1.00  0.00    -0.356 C  
ATOM     11  OXT LYS A   1     -12.946  11.157  71.999  1.00  0.00    -0.447 OA 
ATOM     12  O   LYS A   1     -12.501  12.612  70.305  1.00  0.00    -0.207 OA 
ATOM     13  H1  LYS A   1     -13.081  11.082  68.259  1.00  0.00     0.000 HD 
ATOM     14  H2  LYS A   1     -11.686  10.241  67.826  1.00  0.00     0.000 HD 
ENDBRANCH   7   8
ENDBRANCH   6   7
ENDBRANCH   5   6
ENDBRANCH   3   5
TORSDOF 4
ENDMDL
MODEL       59
REMARK 921   NORMALIZED FREE ENERGY PREDICTED BY IDOCK:   -3.18 KCAL/MOL
REMARK 922        TOTAL FREE ENERGY PREDICTED BY IDOCK:   -4.42 KCAL/MOL
REMARK 923 INTER-LIGAND FREE ENERGY PREDICTED BY IDOCK:   -3.95 KCAL/MOL
REMARK 924 INTRA-LIGAND FREE ENERGY PREDICTED BY IDOCK:   -0.47 KCAL/MOL
REMARK 927      BINDING AFFINITY PREDICTED BY RF-SCORE:    0.00 PKD
ROOT
ATOM      1  NZ  LYS A   1      -7.000  20.572  64.946  1.00  0.00    -0.455 NA 
ATOM      2  HZ2 LYS A   1      -7.888  21.073  64.927  1.00  0.00     0.000 HD 
ATOM      3  CE  LYS A   1      -6.158  21.024  66.049  1.00  0.00    -0.262 C  
ATOM      4  HZ1 LYS A   1      -6.515  20.638  64.051  1.00  0.00     0.000 HD 
ENDROOT
BRANCH   3   5
ATOM      5  CD  LYS A   1      -6.884  20.925  67.393  1.00  0.00    -0.434 C  
BRANCH   5   6
ATOM      6  CG  LYS A   1      -6.555  19.624  68.135  1.00  0.00    -0.295 C  
BRANCH   6   7
ATOM      7  CB  LYS A   1      -7.811  18.930  68.663  1.00  0.00    -0.375 C  
BRANCH   7   8
ATOM      8  CA  LYS A   1      -9.109  19.568  68.145  1.00  0.00    -0.339 C  
ATOM      9  N   LYS A   1     -10.127  19.714  69.228  1.00  0.00    -0.616 NA 
ATOM     10  C   LYS A   1      -9.707  18.661  67.059  1.00  0.00    -0.308 C  
ATOM     11  OXT LYS A   1      -9.332  18.605  65.898  1.00  0.00    -0.475 OA 
ATOM     12  O   LYS A   1     -10.708  17.891  67.565  1.00  0.00    -0.389 OA 
ATOM     13  H1  LYS A   1     -10.988  20.137  68.884  1.00  0.00     0.000 HD 
ATOM     14  H2  LYS A   1      -9.751  20.230  70.023  1.00  0.00     0.000 HD 
ENDBRANCH   7   8
ENDBRANCH   6   7
ENDBRANCH   5   6
ENDBRANCH   3   5
TORSDOF 4
ENDMDL
MODEL       60
REMARK 921   NORMALIZED FREE ENERGY PREDICTED BY IDOCK:   -3.17 KCAL/MOL
REMARK 922        TOTAL FREE ENERGY PREDICTED BY IDOCK:   -4.42 KCAL/MOL
REMARK 923 INTER-LIGAND FREE ENERGY PREDICTED BY IDOCK:   -4.33 KCAL/MOL
REMARK 924 INTRA-LIGAND FREE ENERGY PREDICTED BY IDOCK:   -0.08 KCAL/MOL
REMARK 927      BINDING AFFINITY PREDICTED BY RF-SCORE:    0.00 PKD
ROOT
ATOM      1  NZ  LYS A   1     -13.268   8.427  72.407  1.00  0.00    -0.565 NA 
ATOM      2  HZ2 LYS A   1     -12.480   8.241  73.028  1.00  0.00     0.000 HD 
ATOM      3  CE  LYS A   1     -13.276   9.815  71.957  1.00  0.00    -0.460 C  
ATOM      4  HZ1 LYS A   1     -14.154   8.166  72.842  1.00  0.00     0.000 HD 
ENDROOT
BRANCH   3   5
ATOM      5  CD  LYS A   1     -11.948  10.205  71.304  1.00  0.00    -0.473 C  
BRANCH   5   6
ATOM      6  CG  LYS A   1     -12.137  10.747  69.883  1.00  0.00    -0.410 C  
BRANCH   6   7
ATOM      7  CB  LYS A   1     -11.940  12.262  69.815  1.00  0.00    -0.365 C  
BRANCH   7   8
ATOM      8  CA  LYS A   1     -10.945  12.686  68.724  1.00  0.00    -0.249 C  
ATOM      9  N   LYS A   1     -10.243  13.956  69.074  1.00  0.00    -0.422 NA 
ATOM     10  C   LYS A   1     -11.714  12.922  67.415  1.00  0.00    -0.372 C  
ATOM     11  OXT LYS A   1     -12.099  12.048  66.653  1.00  0.00    -0.615 OA 
ATOM     12  O   LYS A   1     -11.946  14.248  67.220  1.00  0.00    -0.401 OA 
ATOM     13  H1  LYS A   1      -9.583  14.237  68.350  1.00  0.00     0.000 HD 
ATOM     14  H2  LYS A   1      -9.789  13.890  69.986  1.00  0.00     0.000 HD 
ENDBRANCH   7   8
ENDBRANCH   6   7
ENDBRANCH   5   6
ENDBRANCH   3   5
TORSDOF 4
ENDMDL
MODEL       61
REMARK 921   NORMALIZED FREE ENERGY PREDICTED BY IDOCK:   -3.17 KCAL/MOL
REMARK 922        TOTAL FREE ENERGY PREDICTED BY IDOCK:   -4.41 KCAL/MOL
REMARK 923 INTER-LIGAND FREE ENERGY PREDICTED BY IDOCK:   -4.31 KCAL/MOL
REMARK 924 INTRA-LIGAND FREE ENERGY PREDICTED BY IDOCK:   -0.09 KCAL/MOL
REMARK 927      BINDING AFFINITY PREDICTED BY RF-SCORE:    0.00 PKD
ROOT
ATOM      1  NZ  LYS A   1     -11.307   6.805  66.975  1.00  0.00    -0.778 NA 
ATOM      2  HZ2 LYS A   1     -11.088   6.307  66.112  1.00  0.00     0.000 HD 
ATOM      3  CE  LYS A   1     -10.296   7.813  67.279  1.00  0.00    -0.301 C  
ATOM      4  HZ1 LYS A   1     -11.441   6.159  67.753  1.00  0.00     0.000 HD 
ENDROOT
BRANCH   3   5
ATOM      5  CD  LYS A   1     -10.096   8.782  66.111  1.00  0.00    -0.154 C  
BRANCH   5   6
ATOM      6  CG  LYS A   1     -10.394  10.233  66.505  1.00  0.00    -0.276 C  
BRANCH   6   7
ATOM      7  CB  LYS A   1     -10.308  11.183  65.310  1.00  0.00    -0.336 C  
BRANCH   7   8
ATOM      8  CA  LYS A   1     -11.174  12.440  65.482  1.00  0.00    -0.325 C  
ATOM      9  N   LYS A   1     -12.050  12.350  66.687  1.00  0.00    -0.584 NA 
ATOM     10  C   LYS A   1     -12.082  12.589  64.252  1.00  0.00    -0.428 C  
ATOM     11  OXT LYS A   1     -11.739  13.036  63.169  1.00  0.00    -0.438 OA 
ATOM     12  O   LYS A   1     -13.334  12.124  64.513  1.00  0.00    -0.691 OA 
ATOM     13  H1  LYS A   1     -12.626  13.184  66.802  1.00  0.00     0.000 HD 
ATOM     14  H2  LYS A   1     -11.506  12.155  67.528  1.00  0.00     0.000 HD 
ENDBRANCH   7   8
ENDBRANCH   6   7
ENDBRANCH   5   6
ENDBRANCH   3   5
TORSDOF 4
ENDMDL
MODEL       62
REMARK 921   NORMALIZED FREE ENERGY PREDICTED BY IDOCK:   -3.16 KCAL/MOL
REMARK 922        TOTAL FREE ENERGY PREDICTED BY IDOCK:   -4.40 KCAL/MOL
REMARK 923 INTER-LIGAND FREE ENERGY PREDICTED BY IDOCK:   -3.88 KCAL/MOL
REMARK 924 INTRA-LIGAND FREE ENERGY PREDICTED BY IDOCK:   -0.52 KCAL/MOL
REMARK 927      BINDING AFFINITY PREDICTED BY RF-SCORE:    0.00 PKD
ROOT
ATOM      1  NZ  LYS A   1     -11.772  10.128  69.366  1.00  0.00    -0.476 NA 
ATOM      2  HZ2 LYS A   1     -12.483  10.405  68.689  1.00  0.00     0.000 HD 
ATOM      3  CE  LYS A   1     -12.131  10.546  70.717  1.00  0.00    -0.370 C  
ATOM      4  HZ1 LYS A   1     -10.849  10.471  69.098  1.00  0.00     0.000 HD 
ENDROOT
BRANCH   3   5
ATOM      5  CD  LYS A   1     -13.516  10.030  71.119  1.00  0.00    -0.299 C  
BRANCH   5   6
ATOM      6  CG  LYS A   1     -13.435   8.884  72.133  1.00  0.00    -0.497 C  
BRANCH   6   7
ATOM      7  CB  LYS A   1     -13.544   7.514  71.462  1.00  0.00    -0.439 C  
BRANCH   7   8
ATOM      8  CA  LYS A   1     -12.301   6.639  71.686  1.00  0.00    -0.332 C  
ATOM      9  N   LYS A   1     -11.494   7.108  72.850  1.00  0.00    -0.533 NA 
ATOM     10  C   LYS A   1     -11.410   6.716  70.436  1.00  0.00    -0.365 C  
ATOM     11  OXT LYS A   1     -11.593   6.101  69.397  1.00  0.00    -0.372 OA 
ATOM     12  O   LYS A   1     -10.387   7.594  70.622  1.00  0.00    -0.203 OA 
ATOM     13  H1  LYS A   1     -10.669   6.528  72.999  1.00  0.00     0.000 HD 
ATOM     14  H2  LYS A   1     -12.063   7.169  73.695  1.00  0.00     0.000 HD 
ENDBRANCH   7   8
ENDBRANCH   6   7
ENDBRANCH   5   6
ENDBRANCH   3   5
TORSDOF 4
ENDMDL
MODEL       63
REMARK 921   NORMALIZED FREE ENERGY PREDICTED BY IDOCK:   -3.16 KCAL/MOL
REMARK 922        TOTAL FREE ENERGY PREDICTED BY IDOCK:   -4.40 KCAL/MOL
REMARK 923 INTER-LIGAND FREE ENERGY PREDICTED BY IDOCK:   -4.25 KCAL/MOL
REMARK 924 INTRA-LIGAND FREE ENERGY PREDICTED BY IDOCK:   -0.15 KCAL/MOL
REMARK 927      BINDING AFFINITY PREDICTED BY RF-SCORE:    0.00 PKD
ROOT
ATOM      1  NZ  LYS A   1     -11.383   6.404  68.491  1.00  0.00    -0.550 NA 
ATOM      2  HZ2 LYS A   1     -10.807   7.161  68.123  1.00  0.00     0.000 HD 
ATOM      3  CE  LYS A   1     -10.704   5.694  69.570  1.00  0.00    -0.310 C  
ATOM      4  HZ1 LYS A   1     -11.680   5.769  67.749  1.00  0.00     0.000 HD 
ENDROOT
BRANCH   3   5
ATOM      5  CD  LYS A   1     -10.260   6.647  70.682  1.00  0.00    -0.215 C  
BRANCH   5   6
ATOM      6  CG  LYS A   1     -11.156   6.550  71.922  1.00  0.00    -0.300 C  
BRANCH   6   7
ATOM      7  CB  LYS A   1     -12.488   7.275  71.727  1.00  0.00    -0.378 C  
BRANCH   7   8
ATOM      8  CA  LYS A   1     -12.521   8.655  72.402  1.00  0.00    -0.362 C  
ATOM      9  N   LYS A   1     -13.846   8.935  73.029  1.00  0.00    -1.107 NA 
ATOM     10  C   LYS A   1     -12.269   9.734  71.337  1.00  0.00    -0.397 C  
ATOM     11  OXT LYS A   1     -11.177  10.039  70.882  1.00  0.00    -0.323 OA 
ATOM     12  O   LYS A   1     -13.438  10.299  70.932  1.00  0.00    -0.307 OA 
ATOM     13  H1  LYS A   1     -13.868   9.851  73.477  1.00  0.00     0.000 HD 
ATOM     14  H2  LYS A   1     -14.111   8.196  73.681  1.00  0.00     0.000 HD 
ENDBRANCH   7   8
ENDBRANCH   6   7
ENDBRANCH   5   6
ENDBRANCH   3   5
TORSDOF 4
ENDMDL
MODEL       64
REMARK 921   NORMALIZED FREE ENERGY PREDICTED BY IDOCK:   -3.16 KCAL/MOL
REMARK 922        TOTAL FREE ENERGY PREDICTED BY IDOCK:   -4.40 KCAL/MOL
REMARK 923 INTER-LIGAND FREE ENERGY PREDICTED BY IDOCK:   -4.28 KCAL/MOL
REMARK 924 INTRA-LIGAND FREE ENERGY PREDICTED BY IDOCK:   -0.12 KCAL/MOL
REMARK 927      BINDING AFFINITY PREDICTED BY RF-SCORE:    0.00 PKD
ROOT
ATOM      1  NZ  LYS A   1     -12.922  15.222  74.006  1.00  0.00    -0.623 NA 
ATOM      2  HZ2 LYS A   1     -11.993  15.644  73.976  1.00  0.00     0.000 HD 
ATOM      3  CE  LYS A   1     -13.649  15.447  72.761  1.00  0.00    -0.531 C  
ATOM      4  HZ1 LYS A   1     -13.452  15.545  74.816  1.00  0.00     0.000 HD 
ENDROOT
BRANCH   3   5
ATOM      5  CD  LYS A   1     -12.854  14.962  71.546  1.00  0.00    -0.411 C  
BRANCH   5   6
ATOM      6  CG  LYS A   1     -11.641  15.853  71.254  1.00  0.00    -0.509 C  
BRANCH   6   7
ATOM      7  CB  LYS A   1     -10.935  15.456  69.956  1.00  0.00    -0.313 C  
BRANCH   7   8
ATOM      8  CA  LYS A   1     -11.677  15.939  68.701  1.00  0.00    -0.322 C  
ATOM      9  N   LYS A   1     -12.131  14.800  67.850  1.00  0.00    -0.580 NA 
ATOM     10  C   LYS A   1     -10.720  16.799  67.861  1.00  0.00    -0.347 C  
ATOM     11  OXT LYS A   1     -10.438  17.967  68.082  1.00  0.00    -0.374 OA 
ATOM     12  O   LYS A   1     -10.191  16.077  66.836  1.00  0.00    -0.267 OA 
ATOM     13  H1  LYS A   1     -12.623  15.121  67.017  1.00  0.00     0.000 HD 
ATOM     14  H2  LYS A   1     -12.697  14.140  68.385  1.00  0.00     0.000 HD 
ENDBRANCH   7   8
ENDBRANCH   6   7
ENDBRANCH   5   6
ENDBRANCH   3   5
TORSDOF 4
ENDMDL
MODEL       65
REMARK 921   NORMALIZED FREE ENERGY PREDICTED BY IDOCK:   -3.15 KCAL/MOL
REMARK 922        TOTAL FREE ENERGY PREDICTED BY IDOCK:   -4.39 KCAL/MOL
REMARK 923 INTER-LIGAND FREE ENERGY PREDICTED BY IDOCK:   -4.20 KCAL/MOL
REMARK 924 INTRA-LIGAND FREE ENERGY PREDICTED BY IDOCK:   -0.19 KCAL/MOL
REMARK 927      BINDING AFFINITY PREDICTED BY RF-SCORE:    0.00 PKD
ROOT
ATOM      1  NZ  LYS A   1     -12.490  15.577  63.859  1.00  0.00    -0.911 NA 
ATOM      2  HZ2 LYS A   1     -11.650  16.156  63.853  1.00  0.00     0.000 HD 
ATOM      3  CE  LYS A   1     -12.203  14.227  64.334  1.00  0.00    -0.447 C  
ATOM      4  HZ1 LYS A   1     -12.942  15.568  62.945  1.00  0.00     0.000 HD 
ENDROOT
BRANCH   3   5
ATOM      5  CD  LYS A   1     -11.526  14.242  65.706  1.00  0.00    -0.335 C  
BRANCH   5   6
ATOM      6  CG  LYS A   1     -10.091  14.777  65.638  1.00  0.00    -0.393 C  
BRANCH   6   7
ATOM      7  CB  LYS A   1      -9.634  15.368  66.972  1.00  0.00    -0.227 C  
BRANCH   7   8
ATOM      8  CA  LYS A   1      -9.066  16.789  66.832  1.00  0.00    -0.229 C  
ATOM      9  N   LYS A   1      -8.502  17.291  68.120  1.00  0.00    -0.230 NA 
ATOM     10  C   LYS A   1     -10.201  17.737  66.416  1.00  0.00    -0.365 C  
ATOM     11  OXT LYS A   1     -10.643  17.858  65.285  1.00  0.00    -0.637 OA 
ATOM     12  O   LYS A   1     -10.682  18.419  67.491  1.00  0.00    -0.424 OA 
ATOM     13  H1  LYS A   1      -8.125  18.234  68.027  1.00  0.00     0.000 HD 
ATOM     14  H2  LYS A   1      -7.805  16.647  68.496  1.00  0.00     0.000 HD 
ENDBRANCH   7   8
ENDBRANCH   6   7
ENDBRANCH   5   6
ENDBRANCH   3   5
TORSDOF 4
ENDMDL
MODEL       66
REMARK 921   NORMALIZED FREE ENERGY PREDICTED BY IDOCK:   -3.15 KCAL/MOL
REMARK 922        TOTAL FREE ENERGY PREDICTED BY IDOCK:   -4.39 KCAL/MOL
REMARK 923 INTER-LIGAND FREE ENERGY PREDICTED BY IDOCK:   -4.24 KCAL/MOL
REMARK 924 INTRA-LIGAND FREE ENERGY PREDICTED BY IDOCK:   -0.14 KCAL/MOL
REMARK 927      BINDING AFFINITY PREDICTED BY RF-SCORE:    0.00 PKD
ROOT
ATOM      1  NZ  LYS A   1     -13.984   7.536  71.102  1.00  0.00    -0.642 NA 
ATOM      2  HZ2 LYS A   1     -14.222   7.964  70.207  1.00  0.00     0.000 HD 
ATOM      3  CE  LYS A   1     -13.024   8.349  71.842  1.00  0.00    -0.355 C  
ATOM      4  HZ1 LYS A   1     -13.654   6.579  70.981  1.00  0.00     0.000 HD 
ENDROOT
BRANCH   3   5
ATOM      5  CD  LYS A   1     -13.520   9.785  72.024  1.00  0.00    -0.498 C  
BRANCH   5   6
ATOM      6  CG  LYS A   1     -12.818  10.765  71.077  1.00  0.00    -0.480 C  
BRANCH   6   7
ATOM      7  CB  LYS A   1     -11.548  10.168  70.469  1.00  0.00    -0.411 C  
BRANCH   7   8
ATOM      8  CA  LYS A   1     -10.814  11.146  69.539  1.00  0.00    -0.188 C  
ATOM      9  N   LYS A   1     -11.207  12.562  69.801  1.00  0.00    -0.487 NA 
ATOM     10  C   LYS A   1     -11.184  10.819  68.085  1.00  0.00    -0.302 C  
ATOM     11  OXT LYS A   1     -10.709   9.911  67.420  1.00  0.00    -0.266 OA 
ATOM     12  O   LYS A   1     -12.148  11.663  67.626  1.00  0.00    -0.615 OA 
ATOM     13  H1  LYS A   1     -10.721  13.212  69.184  1.00  0.00     0.000 HD 
ATOM     14  H2  LYS A   1     -11.072  12.809  70.782  1.00  0.00     0.000 HD 
ENDBRANCH   7   8
ENDBRANCH   6   7
ENDBRANCH   5   6
ENDBRANCH   3   5
TORSDOF 4
ENDMDL
MODEL       67
REMARK 921   NORMALIZED FREE ENERGY PREDICTED BY IDOCK:   -3.14 KCAL/MOL
REMARK 922        TOTAL FREE ENERGY PREDICTED BY IDOCK:   -4.38 KCAL/MOL
REMARK 923 INTER-LIGAND FREE ENERGY PREDICTED BY IDOCK:   -4.21 KCAL/MOL
REMARK 924 INTRA-LIGAND FREE ENERGY PREDICTED BY IDOCK:   -0.16 KCAL/MOL
REMARK 927      BINDING AFFINITY PREDICTED BY RF-SCORE:    0.00 PKD
ROOT
ATOM      1  NZ  LYS A   1     -12.411  13.894  63.207  1.00  0.00    -1.148 NA 
ATOM      2  HZ2 LYS A   1     -11.689  13.633  62.535  1.00  0.00     0.000 HD 
ATOM      3  CE  LYS A   1     -12.013  13.562  64.572  1.00  0.00    -0.410 C  
ATOM      4  HZ1 LYS A   1     -13.311  13.480  62.965  1.00  0.00     0.000 HD 
ENDROOT
BRANCH   3   5
ATOM      5  CD  LYS A   1     -10.662  14.183  64.935  1.00  0.00    -0.444 C  
BRANCH   5   6
ATOM      6  CG  LYS A   1     -10.736  15.710  65.039  1.00  0.00    -0.458 C  
BRANCH   6   7
ATOM      7  CB  LYS A   1      -9.897  16.249  66.199  1.00  0.00    -0.358 C  
BRANCH   7   8
ATOM      8  CA  LYS A   1     -10.739  16.590  67.438  1.00  0.00    -0.260 C  
ATOM      9  N   LYS A   1     -10.227  17.802  68.142  1.00  0.00    -0.361 NA 
ATOM     10  C   LYS A   1     -10.671  15.412  68.422  1.00  0.00    -0.256 C  
ATOM     11  OXT LYS A   1     -11.314  14.377  68.334  1.00  0.00    -0.261 OA 
ATOM     12  O   LYS A   1      -9.768  15.656  69.410  1.00  0.00    -0.257 OA 
ATOM     13  H1  LYS A   1     -10.786  18.028  68.964  1.00  0.00     0.000 HD 
ATOM     14  H2  LYS A   1     -10.159  18.599  67.507  1.00  0.00     0.000 HD 
ENDBRANCH   7   8
ENDBRANCH   6   7
ENDBRANCH   5   6
ENDBRANCH   3   5
TORSDOF 4
ENDMDL
MODEL       68
REMARK 921   NORMALIZED FREE ENERGY PREDICTED BY IDOCK:   -3.13 KCAL/MOL
REMARK 922        TOTAL FREE ENERGY PREDICTED BY IDOCK:   -4.36 KCAL/MOL
REMARK 923 INTER-LIGAND FREE ENERGY PREDICTED BY IDOCK:   -4.25 KCAL/MOL
REMARK 924 INTRA-LIGAND FREE ENERGY PREDICTED BY IDOCK:   -0.11 KCAL/MOL
REMARK 927      BINDING AFFINITY PREDICTED BY RF-SCORE:    0.00 PKD
ROOT
ATOM      1  NZ  LYS A   1     -11.491  16.461  63.864  1.00  0.00    -1.618 NA 
ATOM      2  HZ2 LYS A   1     -10.582  16.479  63.402  1.00  0.00     0.000 HD 
ATOM      3  CE  LYS A   1     -11.864  15.104  64.251  1.00  0.00    -0.251 C  
ATOM      4  HZ1 LYS A   1     -12.210  16.900  63.289  1.00  0.00     0.000 HD 
ENDROOT
BRANCH   3   5
ATOM      5  CD  LYS A   1     -10.785  14.445  65.114  1.00  0.00    -0.413 C  
BRANCH   5   6
ATOM      6  CG  LYS A   1     -11.382  13.635  66.270  1.00  0.00    -0.325 C  
BRANCH   6   7
ATOM      7  CB  LYS A   1     -11.591  12.167  65.897  1.00  0.00    -0.425 C  
BRANCH   7   8
ATOM      8  CA  LYS A   1     -10.339  11.308  66.128  1.00  0.00    -0.251 C  
ATOM      9  N   LYS A   1     -10.210  10.228  65.106  1.00  0.00    -0.289 NA 
ATOM     10  C   LYS A   1     -10.445  10.638  67.506  1.00  0.00    -0.230 C  
ATOM     11  OXT LYS A   1     -10.209  11.178  68.576  1.00  0.00    -0.183 OA 
ATOM     12  O   LYS A   1     -10.871   9.351  67.390  1.00  0.00    -0.263 OA 
ATOM     13  H1  LYS A   1      -9.378   9.657  65.259  1.00  0.00     0.000 HD 
ATOM     14  H2  LYS A   1     -10.230  10.608  64.159  1.00  0.00     0.000 HD 
ENDBRANCH   7   8
ENDBRANCH   6   7
ENDBRANCH   5   6
ENDBRANCH   3   5
TORSDOF 4
ENDMDL
MODEL       69
REMARK 921   NORMALIZED FREE ENERGY PREDICTED BY IDOCK:   -3.12 KCAL/MOL
REMARK 922        TOTAL FREE ENERGY PREDICTED BY IDOCK:   -4.35 KCAL/MOL
REMARK 923 INTER-LIGAND FREE ENERGY PREDICTED BY IDOCK:   -4.05 KCAL/MOL
REMARK 924 INTRA-LIGAND FREE ENERGY PREDICTED BY IDOCK:   -0.30 KCAL/MOL
REMARK 927      BINDING AFFINITY PREDICTED BY RF-SCORE:    0.00 PKD
ROOT
ATOM      1  NZ  LYS A   1     -11.724  15.255  64.119  1.00  0.00    -0.816 NA 
ATOM      2  HZ2 LYS A   1     -10.742  15.289  64.397  1.00  0.00     0.000 HD 
ATOM      3  CE  LYS A   1     -12.277  13.914  64.284  1.00  0.00    -0.408 C  
ATOM      4  HZ1 LYS A   1     -11.853  15.602  63.168  1.00  0.00     0.000 HD 
ENDROOT
BRANCH   3   5
ATOM      5  CD  LYS A   1     -12.082  13.394  65.710  1.00  0.00    -0.481 C  
BRANCH   5   6
ATOM      6  CG  LYS A   1     -11.867  14.529  66.717  1.00  0.00    -0.390 C  
BRANCH   6   7
ATOM      7  CB  LYS A   1     -10.515  14.422  67.424  1.00  0.00    -0.261 C  
BRANCH   7   8
ATOM      8  CA  LYS A   1      -9.326  14.537  66.459  1.00  0.00    -0.284 C  
ATOM      9  N   LYS A   1      -8.086  13.931  67.029  1.00  0.00    -0.383 NA 
ATOM     10  C   LYS A   1      -9.042  16.025  66.197  1.00  0.00    -0.351 C  
ATOM     11  OXT LYS A   1      -9.668  16.740  65.430  1.00  0.00    -0.510 OA 
ATOM     12  O   LYS A   1      -8.006  16.464  66.962  1.00  0.00    -0.166 OA 
ATOM     13  H1  LYS A   1      -7.297  14.008  66.389  1.00  0.00     0.000 HD 
ATOM     14  H2  LYS A   1      -8.243  12.964  67.312  1.00  0.00     0.000 HD 
ENDBRANCH   7   8
ENDBRANCH   6   7
ENDBRANCH   5   6
ENDBRANCH   3   5
TORSDOF 4
ENDMDL
MODEL       70
REMARK 921   NORMALIZED FREE ENERGY PREDICTED BY IDOCK:   -3.11 KCAL/MOL
REMARK 922        TOTAL FREE ENERGY PREDICTED BY IDOCK:   -4.33 KCAL/MOL
REMARK 923 INTER-LIGAND FREE ENERGY PREDICTED BY IDOCK:   -3.81 KCAL/MOL
REMARK 924 INTRA-LIGAND FREE ENERGY PREDICTED BY IDOCK:   -0.53 KCAL/MOL
REMARK 927      BINDING AFFINITY PREDICTED BY RF-SCORE:    0.00 PKD
ROOT
ATOM      1  NZ  LYS A   1     -11.837  13.085  68.172  1.00  0.00    -0.348 NA 
ATOM      2  HZ2 LYS A   1     -10.933  12.652  67.986  1.00  0.00     0.000 HD 
ATOM      3  CE  LYS A   1     -11.884  14.456  67.674  1.00  0.00    -0.378 C  
ATOM      4  HZ1 LYS A   1     -12.077  13.035  69.162  1.00  0.00     0.000 HD 
ENDROOT
BRANCH   3   5
ATOM      5  CD  LYS A   1     -11.524  14.530  66.188  1.00  0.00    -0.357 C  
BRANCH   5   6
ATOM      6  CG  LYS A   1     -12.616  13.926  65.297  1.00  0.00    -0.508 C  
BRANCH   6   7
ATOM      7  CB  LYS A   1     -12.110  12.721  64.504  1.00  0.00    -0.478 C  
BRANCH   7   8
ATOM      8  CA  LYS A   1     -10.588  12.535  64.607  1.00  0.00    -0.316 C  
ATOM      9  N   LYS A   1      -9.942  12.490  63.262  1.00  0.00    -0.582 NA 
ATOM     10  C   LYS A   1     -10.299  11.199  65.310  1.00  0.00    -0.277 C  
ATOM     11  OXT LYS A   1     -10.352  11.008  66.515  1.00  0.00    -0.229 OA 
ATOM     12  O   LYS A   1      -9.998  10.229  64.405  1.00  0.00    -0.335 OA 
ATOM     13  H1  LYS A   1      -8.932  12.367  63.330  1.00  0.00     0.000 HD 
ATOM     14  H2  LYS A   1     -10.179  13.315  62.709  1.00  0.00     0.000 HD 
ENDBRANCH   7   8
ENDBRANCH   6   7
ENDBRANCH   5   6
ENDBRANCH   3   5
TORSDOF 4
ENDMDL
MODEL       71
REMARK 921   NORMALIZED FREE ENERGY PREDICTED BY IDOCK:   -3.10 KCAL/MOL
REMARK 922        TOTAL FREE ENERGY PREDICTED BY IDOCK:   -4.32 KCAL/MOL
REMARK 923 INTER-LIGAND FREE ENERGY PREDICTED BY IDOCK:   -4.11 KCAL/MOL
REMARK 924 INTRA-LIGAND FREE ENERGY PREDICTED BY IDOCK:   -0.21 KCAL/MOL
REMARK 927      BINDING AFFINITY PREDICTED BY RF-SCORE:    0.00 PKD
ROOT
ATOM      1  NZ  LYS A   1     -12.267  14.441  68.300  1.00  0.00    -0.600 NA 
ATOM      2  HZ2 LYS A   1     -12.296  14.515  67.283  1.00  0.00     0.000 HD 
ATOM      3  CE  LYS A   1     -10.946  14.776  68.821  1.00  0.00    -0.259 C  
ATOM      4  HZ1 LYS A   1     -12.575  13.521  68.615  1.00  0.00     0.000 HD 
ENDROOT
BRANCH   3   5
ATOM      5  CD  LYS A   1     -10.485  16.157  68.348  1.00  0.00    -0.274 C  
BRANCH   5   6
ATOM      6  CG  LYS A   1     -11.057  16.520  66.973  1.00  0.00     0.106 C  
BRANCH   6   7
ATOM      7  CB  LYS A   1     -10.079  16.200  65.841  1.00  0.00    -0.379 C  
BRANCH   7   8
ATOM      8  CA  LYS A   1     -10.724  15.390  64.706  1.00  0.00    -0.314 C  
ATOM      9  N   LYS A   1     -11.762  16.180  63.980  1.00  0.00    -1.351 NA 
ATOM     10  C   LYS A   1     -11.411  14.155  65.308  1.00  0.00    -0.330 C  
ATOM     11  OXT LYS A   1     -10.847  13.127  65.651  1.00  0.00    -0.274 OA 
ATOM     12  O   LYS A   1     -12.749  14.360  65.441  1.00  0.00    -0.442 OA 
ATOM     13  H1  LYS A   1     -12.190  15.643  63.227  1.00  0.00     0.000 HD 
ATOM     14  H2  LYS A   1     -11.383  17.064  63.638  1.00  0.00     0.000 HD 
ENDBRANCH   7   8
ENDBRANCH   6   7
ENDBRANCH   5   6
ENDBRANCH   3   5
TORSDOF 4
ENDMDL
MODEL       72
REMARK 921   NORMALIZED FREE ENERGY PREDICTED BY IDOCK:   -3.10 KCAL/MOL
REMARK 922        TOTAL FREE ENERGY PREDICTED BY IDOCK:   -4.32 KCAL/MOL
REMARK 923 INTER-LIGAND FREE ENERGY PREDICTED BY IDOCK:   -4.14 KCAL/MOL
REMARK 924 INTRA-LIGAND FREE ENERGY PREDICTED BY IDOCK:   -0.18 KCAL/MOL
REMARK 927      BINDING AFFINITY PREDICTED BY RF-SCORE:    0.00 PKD
ROOT
ATOM      1  NZ  LYS A   1      -8.667  14.900  69.505  1.00  0.00    -0.433 NA 
ATOM      2  HZ2 LYS A   1      -8.125  14.394  68.805  1.00  0.00     0.000 HD 
ATOM      3  CE  LYS A   1     -10.070  15.007  69.117  1.00  0.00    -0.245 C  
ATOM      4  HZ1 LYS A   1      -8.260  15.815  69.702  1.00  0.00     0.000 HD 
ENDROOT
BRANCH   3   5
ATOM      5  CD  LYS A   1     -10.682  13.635  68.823  1.00  0.00    -0.265 C  
BRANCH   5   6
ATOM      6  CG  LYS A   1     -12.127  13.525  69.322  1.00  0.00    -0.335 C  
BRANCH   6   7
ATOM      7  CB  LYS A   1     -12.204  13.459  70.848  1.00  0.00    -0.367 C  
BRANCH   7   8
ATOM      8  CA  LYS A   1     -13.261  14.407  71.434  1.00  0.00    -0.348 C  
ATOM      9  N   LYS A   1     -13.605  15.509  70.487  1.00  0.00    -0.825 NA 
ATOM     10  C   LYS A   1     -12.699  15.047  72.713  1.00  0.00    -0.400 C  
ATOM     11  OXT LYS A   1     -12.647  14.511  73.809  1.00  0.00    -0.427 OA 
ATOM     12  O   LYS A   1     -12.229  16.299  72.464  1.00  0.00    -0.493 OA 
ATOM     13  H1  LYS A   1     -14.306  16.139  70.876  1.00  0.00     0.000 HD 
ATOM     14  H2  LYS A   1     -13.896  15.142  69.581  1.00  0.00     0.000 HD 
ENDBRANCH   7   8
ENDBRANCH   6   7
ENDBRANCH   5   6
ENDBRANCH   3   5
TORSDOF 4
ENDMDL
MODEL       73
REMARK 921   NORMALIZED FREE ENERGY PREDICTED BY IDOCK:   -3.09 KCAL/MOL
REMARK 922        TOTAL FREE ENERGY PREDICTED BY IDOCK:   -4.32 KCAL/MOL
REMARK 923 INTER-LIGAND FREE ENERGY PREDICTED BY IDOCK:   -4.23 KCAL/MOL
REMARK 924 INTRA-LIGAND FREE ENERGY PREDICTED BY IDOCK:   -0.09 KCAL/MOL
REMARK 927      BINDING AFFINITY PREDICTED BY RF-SCORE:    0.00 PKD
ROOT
ATOM      1  NZ  LYS A   1     -11.831  16.246  63.711  1.00  0.00    -1.413 NA 
ATOM      2  HZ2 LYS A   1     -12.640  15.638  63.841  1.00  0.00     0.000 HD 
ATOM      3  CE  LYS A   1     -10.997  16.285  64.908  1.00  0.00    -0.307 C  
ATOM      4  HZ1 LYS A   1     -12.112  17.182  63.417  1.00  0.00     0.000 HD 
ENDROOT
BRANCH   3   5
ATOM      5  CD  LYS A   1     -10.575  14.881  65.349  1.00  0.00    -0.391 C  
BRANCH   5   6
ATOM      6  CG  LYS A   1     -11.302  13.784  64.563  1.00  0.00    -0.393 C  
BRANCH   6   7
ATOM      7  CB  LYS A   1     -10.405  12.573  64.302  1.00  0.00    -0.396 C  
BRANCH   7   8
ATOM      8  CA  LYS A   1     -10.522  11.497  65.391  1.00  0.00    -0.281 C  
ATOM      9  N   LYS A   1     -11.547  11.853  66.417  1.00  0.00    -0.501 NA 
ATOM     10  C   LYS A   1      -9.169  11.367  66.107  1.00  0.00    -0.210 C  
ATOM     11  OXT LYS A   1      -8.198  10.759  65.683  1.00  0.00    -0.162 OA 
ATOM     12  O   LYS A   1      -9.173  12.052  67.283  1.00  0.00    -0.174 OA 
ATOM     13  H1  LYS A   1     -11.624  11.139  67.140  1.00  0.00     0.000 HD 
ATOM     14  H2  LYS A   1     -12.452  12.045  65.985  1.00  0.00     0.000 HD 
ENDBRANCH   7   8
ENDBRANCH   6   7
ENDBRANCH   5   6
ENDBRANCH   3   5
TORSDOF 4
ENDMDL
MODEL       74
REMARK 921   NORMALIZED FREE ENERGY PREDICTED BY IDOCK:   -3.09 KCAL/MOL
REMARK 922        TOTAL FREE ENERGY PREDICTED BY IDOCK:   -4.31 KCAL/MOL
REMARK 923 INTER-LIGAND FREE ENERGY PREDICTED BY IDOCK:   -4.21 KCAL/MOL
REMARK 924 INTRA-LIGAND FREE ENERGY PREDICTED BY IDOCK:   -0.10 KCAL/MOL
REMARK 927      BINDING AFFINITY PREDICTED BY RF-SCORE:    0.00 PKD
ROOT
ATOM      1  NZ  LYS A   1      -8.330  16.997  68.453  1.00  0.00    -0.232 NA 
ATOM      2  HZ2 LYS A   1      -8.956  17.770  68.682  1.00  0.00     0.000 HD 
ATOM      3  CE  LYS A   1      -8.961  16.057  67.532  1.00  0.00    -0.194 C  
ATOM      4  HZ1 LYS A   1      -7.990  16.531  69.294  1.00  0.00     0.000 HD 
ENDROOT
BRANCH   3   5
ATOM      5  CD  LYS A   1      -9.471  16.756  66.270  1.00  0.00    -0.314 C  
BRANCH   5   6
ATOM      6  CG  LYS A   1     -10.636  16.002  65.620  1.00  0.00    -0.392 C  
BRANCH   6   7
ATOM      7  CB  LYS A   1     -10.298  14.533  65.362  1.00  0.00    -0.405 C  
BRANCH   7   8
ATOM      8  CA  LYS A   1     -11.168  13.904  64.263  1.00  0.00    -0.262 C  
ATOM      9  N   LYS A   1     -12.269  14.817  63.836  1.00  0.00    -1.018 NA 
ATOM     10  C   LYS A   1     -11.809  12.621  64.813  1.00  0.00    -0.380 C  
ATOM     11  OXT LYS A   1     -11.252  11.539  64.919  1.00  0.00    -0.263 OA 
ATOM     12  O   LYS A   1     -13.093  12.848  65.203  1.00  0.00    -0.753 OA 
ATOM     13  H1  LYS A   1     -12.847  14.399  63.107  1.00  0.00     0.000 HD 
ATOM     14  H2  LYS A   1     -11.907  15.726  63.548  1.00  0.00     0.000 HD 
ENDBRANCH   7   8
ENDBRANCH   6   7
ENDBRANCH   5   6
ENDBRANCH   3   5
TORSDOF 4
ENDMDL
MODEL       75
REMARK 921   NORMALIZED FREE ENERGY PREDICTED BY IDOCK:   -3.08 KCAL/MOL
REMARK 922        TOTAL FREE ENERGY PREDICTED BY IDOCK:   -4.30 KCAL/MOL
REMARK 923 INTER-LIGAND FREE ENERGY PREDICTED BY IDOCK:   -4.16 KCAL/MOL
REMARK 924 INTRA-LIGAND FREE ENERGY PREDICTED BY IDOCK:   -0.14 KCAL/MOL
REMARK 927      BINDING AFFINITY PREDICTED BY RF-SCORE:    0.00 PKD
ROOT
ATOM      1  NZ  LYS A   1     -11.224  16.458  64.192  1.00  0.00    -1.371 NA 
ATOM      2  HZ2 LYS A   1     -11.946  15.787  64.456  1.00  0.00     0.000 HD 
ATOM      3  CE  LYS A   1     -10.588  17.046  65.367  1.00  0.00    -0.134 C  
ATOM      4  HZ1 LYS A   1     -11.592  17.174  63.565  1.00  0.00     0.000 HD 
ENDROOT
BRANCH   3   5
ATOM      5  CD  LYS A   1     -10.035  15.972  66.308  1.00  0.00    -0.329 C  
BRANCH   5   6
ATOM      6  CG  LYS A   1     -11.096  15.457  67.287  1.00  0.00    -0.302 C  
BRANCH   6   7
ATOM      7  CB  LYS A   1     -11.551  14.037  66.948  1.00  0.00    -0.407 C  
BRANCH   7   8
ATOM      8  CA  LYS A   1     -10.663  12.957  67.584  1.00  0.00    -0.223 C  
ATOM      9  N   LYS A   1      -9.930  12.163  66.555  1.00  0.00    -0.209 NA 
ATOM     10  C   LYS A   1     -11.553  11.988  68.378  1.00  0.00    -0.311 C  
ATOM     11  OXT LYS A   1     -12.010  12.196  69.491  1.00  0.00    -0.302 OA 
ATOM     12  O   LYS A   1     -11.800  10.858  67.661  1.00  0.00    -0.572 OA 
ATOM     13  H1  LYS A   1      -9.341  11.446  66.977  1.00  0.00     0.000 HD 
ATOM     14  H2  LYS A   1      -9.392  12.768  65.933  1.00  0.00     0.000 HD 
ENDBRANCH   7   8
ENDBRANCH   6   7
ENDBRANCH   5   6
ENDBRANCH   3   5
TORSDOF 4
ENDMDL
MODEL       76
REMARK 921   NORMALIZED FREE ENERGY PREDICTED BY IDOCK:   -3.07 KCAL/MOL
REMARK 922        TOTAL FREE ENERGY PREDICTED BY IDOCK:   -4.28 KCAL/MOL
REMARK 923 INTER-LIGAND FREE ENERGY PREDICTED BY IDOCK:   -3.98 KCAL/MOL
REMARK 924 INTRA-LIGAND FREE ENERGY PREDICTED BY IDOCK:   -0.30 KCAL/MOL
REMARK 927      BINDING AFFINITY PREDICTED BY RF-SCORE:    0.00 PKD
ROOT
ATOM      1  NZ  LYS A   1     -10.923  18.055  65.057  1.00  0.00    -0.587 NA 
ATOM      2  HZ2 LYS A   1     -11.766  17.558  65.346  1.00  0.00     0.000 HD 
ATOM      3  CE  LYS A   1     -10.761  19.303  65.797  1.00  0.00    -0.330 C  
ATOM      4  HZ1 LYS A   1     -10.909  18.209  64.049  1.00  0.00     0.000 HD 
ENDROOT
BRANCH   3   5
ATOM      5  CD  LYS A   1     -10.783  19.071  67.310  1.00  0.00    -0.556 C  
BRANCH   5   6
ATOM      6  CG  LYS A   1      -9.703  19.881  68.036  1.00  0.00    -0.510 C  
BRANCH   6   7
ATOM      7  CB  LYS A   1      -8.472  19.035  68.365  1.00  0.00    -0.383 C  
BRANCH   7   8
ATOM      8  CA  LYS A   1      -7.215  19.491  67.609  1.00  0.00    -0.239 C  
ATOM      9  N   LYS A   1      -7.458  20.741  66.830  1.00  0.00    -0.518 NA 
ATOM     10  C   LYS A   1      -6.808  18.392  66.616  1.00  0.00    -0.198 C  
ATOM     11  OXT LYS A   1      -6.204  17.369  66.900  1.00  0.00    -0.142 OA 
ATOM     12  O   LYS A   1      -7.238  18.688  65.359  1.00  0.00    -0.520 OA 
ATOM     13  H1  LYS A   1      -6.624  21.044  66.328  1.00  0.00     0.000 HD 
ATOM     14  H2  LYS A   1      -7.824  21.485  67.426  1.00  0.00     0.000 HD 
ENDBRANCH   7   8
ENDBRANCH   6   7
ENDBRANCH   5   6
ENDBRANCH   3   5
TORSDOF 4
ENDMDL
MODEL       77
REMARK 921   NORMALIZED FREE ENERGY PREDICTED BY IDOCK:   -3.04 KCAL/MOL
REMARK 922        TOTAL FREE ENERGY PREDICTED BY IDOCK:   -4.25 KCAL/MOL
REMARK 923 INTER-LIGAND FREE ENERGY PREDICTED BY IDOCK:   -4.04 KCAL/MOL
REMARK 924 INTRA-LIGAND FREE ENERGY PREDICTED BY IDOCK:   -0.21 KCAL/MOL
REMARK 927      BINDING AFFINITY PREDICTED BY RF-SCORE:    0.00 PKD
ROOT
ATOM      1  NZ  LYS A   1      -7.387  11.588  66.651  1.00  0.00    -0.291 NA 
ATOM      2  HZ2 LYS A   1      -7.722  11.513  67.611  1.00  0.00     0.000 HD 
ATOM      3  CE  LYS A   1      -8.313  10.963  65.713  1.00  0.00    -0.133 C  
ATOM      4  HZ1 LYS A   1      -6.443  11.213  66.556  1.00  0.00     0.000 HD 
ENDROOT
BRANCH   3   5
ATOM      5  CD  LYS A   1      -9.729  11.528  65.855  1.00  0.00    -0.260 C  
BRANCH   5   6
ATOM      6  CG  LYS A   1      -9.729  12.968  66.378  1.00  0.00    -0.268 C  
BRANCH   6   7
ATOM      7  CB  LYS A   1     -10.176  13.968  65.312  1.00  0.00    -0.383 C  
BRANCH   7   8
ATOM      8  CA  LYS A   1     -11.629  14.430  65.499  1.00  0.00    -0.347 C  
ATOM      9  N   LYS A   1     -12.180  14.011  66.822  1.00  0.00    -0.471 NA 
ATOM     10  C   LYS A   1     -12.498  13.789  64.406  1.00  0.00    -0.270 C  
ATOM     11  OXT LYS A   1     -12.579  14.173  63.249  1.00  0.00    -0.766 OA 
ATOM     12  O   LYS A   1     -13.158  12.700  64.885  1.00  0.00    -0.850 OA 
ATOM     13  H1  LYS A   1     -13.144  14.318  66.946  1.00  0.00     0.000 HD 
ATOM     14  H2  LYS A   1     -11.586  14.330  67.588  1.00  0.00     0.000 HD 
ENDBRANCH   7   8
ENDBRANCH   6   7
ENDBRANCH   5   6
ENDBRANCH   3   5
TORSDOF 4
ENDMDL
MODEL       78
REMARK 921   NORMALIZED FREE ENERGY PREDICTED BY IDOCK:   -3.03 KCAL/MOL
REMARK 922        TOTAL FREE ENERGY PREDICTED BY IDOCK:   -4.24 KCAL/MOL
REMARK 923 INTER-LIGAND FREE ENERGY PREDICTED BY IDOCK:   -4.45 KCAL/MOL
REMARK 924 INTRA-LIGAND FREE ENERGY PREDICTED BY IDOCK:    0.21 KCAL/MOL
REMARK 927      BINDING AFFINITY PREDICTED BY RF-SCORE:    0.00 PKD
ROOT
ATOM      1  NZ  LYS A   1     -11.638  16.342  63.804  1.00  0.00    -1.515 NA 
ATOM      2  HZ2 LYS A   1     -10.706  16.669  63.546  1.00  0.00     0.000 HD 
ATOM      3  CE  LYS A   1     -11.582  15.043  64.466  1.00  0.00    -0.343 C  
ATOM      4  HZ1 LYS A   1     -12.264  16.329  62.998  1.00  0.00     0.000 HD 
ENDROOT
BRANCH   3   5
ATOM      5  CD  LYS A   1     -10.643  15.063  65.674  1.00  0.00    -0.360 C  
BRANCH   5   6
ATOM      6  CG  LYS A   1     -10.050  16.454  65.924  1.00  0.00    -0.370 C  
BRANCH   6   7
ATOM      7  CB  LYS A   1      -8.557  16.393  66.250  1.00  0.00    -0.375 C  
BRANCH   7   8
ATOM      8  CA  LYS A   1      -8.061  17.631  67.012  1.00  0.00    -0.222 C  
ATOM      9  N   LYS A   1      -8.030  17.401  68.487  1.00  0.00    -0.258 NA 
ATOM     10  C   LYS A   1      -9.023  18.798  66.741  1.00  0.00    -0.308 C  
ATOM     11  OXT LYS A   1      -9.034  19.487  65.732  1.00  0.00    -0.381 OA 
ATOM     12  O   LYS A   1      -9.899  18.956  67.770  1.00  0.00    -0.313 OA 
ATOM     13  H1  LYS A   1      -7.701  18.222  68.993  1.00  0.00     0.000 HD 
ATOM     14  H2  LYS A   1      -7.479  16.574  68.722  1.00  0.00     0.000 HD 
ENDBRANCH   7   8
ENDBRANCH   6   7
ENDBRANCH   5   6
ENDBRANCH   3   5
TORSDOF 4
ENDMDL
MODEL       79
REMARK 921   NORMALIZED FREE ENERGY PREDICTED BY IDOCK:   -3.01 KCAL/MOL
REMARK 922        TOTAL FREE ENERGY PREDICTED BY IDOCK:   -4.22 KCAL/MOL
REMARK 923 INTER-LIGAND FREE ENERGY PREDICTED BY IDOCK:   -4.24 KCAL/MOL
REMARK 924 INTRA-LIGAND FREE ENERGY PREDICTED BY IDOCK:    0.02 KCAL/MOL
REMARK 927      BINDING AFFINITY PREDICTED BY RF-SCORE:    0.00 PKD
ROOT
ATOM      1  NZ  LYS A   1     -11.546  16.259  63.845  1.00  0.00    -1.573 NA 
ATOM      2  HZ2 LYS A   1     -10.534  16.204  63.725  1.00  0.00     0.000 HD 
ATOM      3  CE  LYS A   1     -12.074  15.053  64.475  1.00  0.00    -0.363 C  
ATOM      4  HZ1 LYS A   1     -12.014  16.459  62.961  1.00  0.00     0.000 HD 
ENDROOT
BRANCH   3   5
ATOM      5  CD  LYS A   1     -11.371  14.754  65.801  1.00  0.00    -0.336 C  
BRANCH   5   6
ATOM      6  CG  LYS A   1     -10.422  15.882  66.221  1.00  0.00    -0.324 C  
BRANCH   6   7
ATOM      7  CB  LYS A   1      -9.043  15.354  66.622  1.00  0.00    -0.310 C  
BRANCH   7   8
ATOM      8  CA  LYS A   1      -8.715  15.604  68.102  1.00  0.00    -0.168 C  
ATOM      9  N   LYS A   1      -9.464  14.678  69.001  1.00  0.00    -0.341 NA 
ATOM     10  C   LYS A   1      -9.124  17.041  68.464  1.00  0.00    -0.259 C  
ATOM     11  OXT LYS A   1      -8.481  18.046  68.205  1.00  0.00    -0.254 OA 
ATOM     12  O   LYS A   1     -10.328  17.059  69.096  1.00  0.00    -0.307 OA 
ATOM     13  H1  LYS A   1      -9.247  14.843  69.983  1.00  0.00     0.000 HD 
ATOM     14  H2  LYS A   1      -9.305  13.703  68.745  1.00  0.00     0.000 HD 
ENDBRANCH   7   8
ENDBRANCH   6   7
ENDBRANCH   5   6
ENDBRANCH   3   5
TORSDOF 4
ENDMDL
MODEL       80
REMARK 921   NORMALIZED FREE ENERGY PREDICTED BY IDOCK:   -3.01 KCAL/MOL
REMARK 922        TOTAL FREE ENERGY PREDICTED BY IDOCK:   -4.21 KCAL/MOL
REMARK 923 INTER-LIGAND FREE ENERGY PREDICTED BY IDOCK:   -4.11 KCAL/MOL
REMARK 924 INTRA-LIGAND FREE ENERGY PREDICTED BY IDOCK:   -0.10 KCAL/MOL
REMARK 927      BINDING AFFINITY PREDICTED BY RF-SCORE:    0.00 PKD
ROOT
ATOM      1  NZ  LYS A   1     -12.733  15.114  74.221  1.00  0.00    -0.603 NA 
ATOM      2  HZ2 LYS A   1     -11.883  15.561  74.564  1.00  0.00     0.000 HD 
ATOM      3  CE  LYS A   1     -13.191  15.726  72.977  1.00  0.00    -0.573 C  
ATOM      4  HZ1 LYS A   1     -13.465  15.111  74.931  1.00  0.00     0.000 HD 
ENDROOT
BRANCH   3   5
ATOM      5  CD  LYS A   1     -12.093  15.730  71.911  1.00  0.00    -0.548 C  
BRANCH   5   6
ATOM      6  CG  LYS A   1     -12.615  15.286  70.540  1.00  0.00    -0.450 C  
BRANCH   6   7
ATOM      7  CB  LYS A   1     -11.622  15.596  69.419  1.00  0.00    -0.378 C  
BRANCH   7   8
ATOM      8  CA  LYS A   1     -10.832  14.360  68.962  1.00  0.00    -0.252 C  
ATOM      9  N   LYS A   1      -9.358  14.583  69.038  1.00  0.00    -0.369 NA 
ATOM     10  C   LYS A   1     -11.185  14.061  67.496  1.00  0.00    -0.309 C  
ATOM     11  OXT LYS A   1     -12.196  13.493  67.114  1.00  0.00    -0.362 OA 
ATOM     12  O   LYS A   1     -10.228  14.542  66.658  1.00  0.00    -0.266 OA 
ATOM     13  H1  LYS A   1      -8.834  13.763  68.735  1.00  0.00     0.000 HD 
ATOM     14  H2  LYS A   1      -9.076  14.880  69.973  1.00  0.00     0.000 HD 
ENDBRANCH   7   8
ENDBRANCH   6   7
ENDBRANCH   5   6
ENDBRANCH   3   5
TORSDOF 4
ENDMDL
MODEL       81
REMARK 921   NORMALIZED FREE ENERGY PREDICTED BY IDOCK:   -3.01 KCAL/MOL
REMARK 922        TOTAL FREE ENERGY PREDICTED BY IDOCK:   -4.21 KCAL/MOL
REMARK 923 INTER-LIGAND FREE ENERGY PREDICTED BY IDOCK:   -4.10 KCAL/MOL
REMARK 924 INTRA-LIGAND FREE ENERGY PREDICTED BY IDOCK:   -0.11 KCAL/MOL
REMARK 927      BINDING AFFINITY PREDICTED BY RF-SCORE:    0.00 PKD
ROOT
ATOM      1  NZ  LYS A   1     -10.120   8.591  66.081  1.00  0.00    -0.448 NA 
ATOM      2  HZ2 LYS A   1     -11.043   8.575  66.513  1.00  0.00     0.000 HD 
ATOM      3  CE  LYS A   1      -9.882   9.848  65.378  1.00  0.00    -0.313 C  
ATOM      4  HZ1 LYS A   1      -9.981   7.785  65.470  1.00  0.00     0.000 HD 
ENDROOT
BRANCH   3   5
ATOM      5  CD  LYS A   1     -10.090  11.056  66.295  1.00  0.00    -0.282 C  
BRANCH   5   6
ATOM      6  CG  LYS A   1     -11.354  11.845  65.936  1.00  0.00    -0.365 C  
BRANCH   6   7
ATOM      7  CB  LYS A   1     -11.734  12.849  67.025  1.00  0.00    -0.447 C  
BRANCH   7   8
ATOM      8  CA  LYS A   1     -12.269  14.172  66.457  1.00  0.00    -0.433 C  
ATOM      9  N   LYS A   1     -13.036  13.965  65.194  1.00  0.00    -0.773 NA 
ATOM     10  C   LYS A   1     -11.079  15.091  66.138  1.00  0.00    -0.329 C  
ATOM     11  OXT LYS A   1     -10.456  15.752  66.954  1.00  0.00    -0.304 OA 
ATOM     12  O   LYS A   1     -10.779  15.054  64.812  1.00  0.00    -0.404 OA 
ATOM     13  H1  LYS A   1     -13.391  14.844  64.817  1.00  0.00     0.000 HD 
ATOM     14  H2  LYS A   1     -13.787  13.286  65.322  1.00  0.00     0.000 HD 
ENDBRANCH   7   8
ENDBRANCH   6   7
ENDBRANCH   5   6
ENDBRANCH   3   5
TORSDOF 4
ENDMDL
MODEL       82
REMARK 921   NORMALIZED FREE ENERGY PREDICTED BY IDOCK:   -3.00 KCAL/MOL
REMARK 922        TOTAL FREE ENERGY PREDICTED BY IDOCK:   -4.21 KCAL/MOL
REMARK 923 INTER-LIGAND FREE ENERGY PREDICTED BY IDOCK:   -4.18 KCAL/MOL
REMARK 924 INTRA-LIGAND FREE ENERGY PREDICTED BY IDOCK:   -0.03 KCAL/MOL
REMARK 927      BINDING AFFINITY PREDICTED BY RF-SCORE:    0.00 PKD
ROOT
ATOM      1  NZ  LYS A   1     -11.148  16.757  64.442  1.00  0.00    -1.260 NA 
ATOM      2  HZ2 LYS A   1     -11.890  17.245  64.944  1.00  0.00     0.000 HD 
ATOM      3  CE  LYS A   1     -10.074  16.350  65.343  1.00  0.00    -0.100 C  
ATOM      4  HZ1 LYS A   1     -10.796  17.315  63.664  1.00  0.00     0.000 HD 
ENDROOT
BRANCH   3   5
ATOM      5  CD  LYS A   1     -10.603  15.513  66.511  1.00  0.00    -0.307 C  
BRANCH   5   6
ATOM      6  CG  LYS A   1     -10.280  14.023  66.348  1.00  0.00    -0.293 C  
BRANCH   6   7
ATOM      7  CB  LYS A   1     -10.321  13.582  64.884  1.00  0.00    -0.395 C  
BRANCH   7   8
ATOM      8  CA  LYS A   1     -11.277  12.404  64.642  1.00  0.00    -0.312 C  
ATOM      9  N   LYS A   1     -12.036  12.042  65.876  1.00  0.00    -0.519 NA 
ATOM     10  C   LYS A   1     -10.455  11.177  64.220  1.00  0.00    -0.362 C  
ATOM     11  OXT LYS A   1     -10.006  10.976  63.102  1.00  0.00    -0.324 OA 
ATOM     12  O   LYS A   1     -10.258  10.338  65.273  1.00  0.00    -0.307 OA 
ATOM     13  H1  LYS A   1     -12.670  11.260  65.715  1.00  0.00     0.000 HD 
ATOM     14  H2  LYS A   1     -12.529  12.849  66.258  1.00  0.00     0.000 HD 
ENDBRANCH   7   8
ENDBRANCH   6   7
ENDBRANCH   5   6
ENDBRANCH   3   5
TORSDOF 4
ENDMDL
MODEL       83
REMARK 921   NORMALIZED FREE ENERGY PREDICTED BY IDOCK:   -3.00 KCAL/MOL
REMARK 922        TOTAL FREE ENERGY PREDICTED BY IDOCK:   -4.21 KCAL/MOL
REMARK 923 INTER-LIGAND FREE ENERGY PREDICTED BY IDOCK:   -4.14 KCAL/MOL
REMARK 924 INTRA-LIGAND FREE ENERGY PREDICTED BY IDOCK:   -0.06 KCAL/MOL
REMARK 927      BINDING AFFINITY PREDICTED BY RF-SCORE:    0.00 PKD
ROOT
ATOM      1  NZ  LYS A   1     -10.712   7.958  68.672  1.00  0.00    -0.397 NA 
ATOM      2  HZ2 LYS A   1     -11.071   7.388  67.906  1.00  0.00     0.000 HD 
ATOM      3  CE  LYS A   1     -10.088   9.182  68.179  1.00  0.00    -0.189 C  
ATOM      4  HZ1 LYS A   1     -10.077   7.424  69.267  1.00  0.00     0.000 HD 
ENDROOT
BRANCH   3   5
ATOM      5  CD  LYS A   1     -11.041   9.982  67.287  1.00  0.00    -0.116 C  
BRANCH   5   6
ATOM      6  CG  LYS A   1     -10.426  11.308  66.825  1.00  0.00    -0.291 C  
BRANCH   6   7
ATOM      7  CB  LYS A   1     -11.470  12.246  66.218  1.00  0.00    -0.435 C  
BRANCH   7   8
ATOM      8  CA  LYS A   1     -11.145  12.645  64.771  1.00  0.00    -0.300 C  
ATOM      9  N   LYS A   1     -10.244  13.835  64.712  1.00  0.00    -0.588 NA 
ATOM     10  C   LYS A   1     -12.452  13.012  64.052  1.00  0.00    -0.292 C  
ATOM     11  OXT LYS A   1     -13.257  12.214  63.597  1.00  0.00    -0.770 OA 
ATOM     12  O   LYS A   1     -12.622  14.361  64.010  1.00  0.00    -0.764 OA 
ATOM     13  H1  LYS A   1     -10.028  14.100  63.752  1.00  0.00     0.000 HD 
ATOM     14  H2  LYS A   1      -9.394  13.683  65.256  1.00  0.00     0.000 HD 
ENDBRANCH   7   8
ENDBRANCH   6   7
ENDBRANCH   5   6
ENDBRANCH   3   5
TORSDOF 4
ENDMDL
MODEL       84
REMARK 921   NORMALIZED FREE ENERGY PREDICTED BY IDOCK:   -2.99 KCAL/MOL
REMARK 922        TOTAL FREE ENERGY PREDICTED BY IDOCK:   -4.19 KCAL/MOL
REMARK 923 INTER-LIGAND FREE ENERGY PREDICTED BY IDOCK:   -4.10 KCAL/MOL
REMARK 924 INTRA-LIGAND FREE ENERGY PREDICTED BY IDOCK:   -0.09 KCAL/MOL
REMARK 927      BINDING AFFINITY PREDICTED BY RF-SCORE:    0.00 PKD
ROOT
ATOM      1  NZ  LYS A   1     -11.641   9.554  70.785  1.00  0.00    -0.291 NA 
ATOM      2  HZ2 LYS A   1     -10.656   9.447  71.028  1.00  0.00     0.000 HD 
ATOM      3  CE  LYS A   1     -11.936  10.914  70.345  1.00  0.00    -0.362 C  
ATOM      4  HZ1 LYS A   1     -12.247   9.266  71.554  1.00  0.00     0.000 HD 
ENDROOT
BRANCH   3   5
ATOM      5  CD  LYS A   1     -11.026  11.345  69.192  1.00  0.00    -0.289 C  
BRANCH   5   6
ATOM      6  CG  LYS A   1     -11.730  11.253  67.833  1.00  0.00    -0.289 C  
BRANCH   6   7
ATOM      7  CB  LYS A   1     -11.500  12.502  66.981  1.00  0.00    -0.419 C  
BRANCH   7   8
ATOM      8  CA  LYS A   1     -11.168  12.174  65.518  1.00  0.00    -0.334 C  
ATOM      9  N   LYS A   1      -9.890  12.810  65.082  1.00  0.00    -0.480 NA 
ATOM     10  C   LYS A   1     -12.291  12.718  64.621  1.00  0.00    -0.459 C  
ATOM     11  OXT LYS A   1     -13.375  12.184  64.441  1.00  0.00    -0.740 OA 
ATOM     12  O   LYS A   1     -11.935  13.907  64.063  1.00  0.00    -0.439 OA 
ATOM     13  H1  LYS A   1      -9.669  12.592  64.111  1.00  0.00     0.000 HD 
ATOM     14  H2  LYS A   1      -9.120  12.559  65.703  1.00  0.00     0.000 HD 
ENDBRANCH   7   8
ENDBRANCH   6   7
ENDBRANCH   5   6
ENDBRANCH   3   5
TORSDOF 4
ENDMDL
MODEL       85
REMARK 921   NORMALIZED FREE ENERGY PREDICTED BY IDOCK:   -2.96 KCAL/MOL
REMARK 922        TOTAL FREE ENERGY PREDICTED BY IDOCK:   -4.16 KCAL/MOL
REMARK 923 INTER-LIGAND FREE ENERGY PREDICTED BY IDOCK:   -3.73 KCAL/MOL
REMARK 924 INTRA-LIGAND FREE ENERGY PREDICTED BY IDOCK:   -0.43 KCAL/MOL
REMARK 927      BINDING AFFINITY PREDICTED BY RF-SCORE:    0.00 PKD
ROOT
ATOM      1  NZ  LYS A   1      -9.221  16.419  68.939  1.00  0.00    -0.251 NA 
ATOM      2  HZ2 LYS A   1      -9.410  16.897  69.820  1.00  0.00     0.000 HD 
ATOM      3  CE  LYS A   1     -10.374  16.474  68.046  1.00  0.00    -0.294 C  
ATOM      4  HZ1 LYS A   1      -8.910  15.460  69.095  1.00  0.00     0.000 HD 
ENDROOT
BRANCH   3   5
ATOM      5  CD  LYS A   1     -10.841  17.913  67.812  1.00  0.00    -0.237 C  
BRANCH   5   6
ATOM      6  CG  LYS A   1      -9.960  18.933  68.543  1.00  0.00    -0.463 C  
BRANCH   6   7
ATOM      7  CB  LYS A   1      -9.433  20.016  67.600  1.00  0.00    -0.498 C  
BRANCH   7   8
ATOM      8  CA  LYS A   1      -7.899  20.040  67.518  1.00  0.00    -0.301 C  
ATOM      9  N   LYS A   1      -7.391  21.342  66.993  1.00  0.00    -0.834 NA 
ATOM     10  C   LYS A   1      -7.437  18.935  66.556  1.00  0.00    -0.240 C  
ATOM     11  OXT LYS A   1      -7.352  17.748  66.830  1.00  0.00    -0.181 OA 
ATOM     12  O   LYS A   1      -7.156  19.446  65.327  1.00  0.00    -0.427 OA 
ATOM     13  H1  LYS A   1      -6.373  21.358  66.938  1.00  0.00     0.000 HD 
ATOM     14  H2  LYS A   1      -7.746  22.127  67.540  1.00  0.00     0.000 HD 
ENDBRANCH   7   8
ENDBRANCH   6   7
ENDBRANCH   5   6
ENDBRANCH   3   5
TORSDOF 4
ENDMDL
MODEL       86
REMARK 921   NORMALIZED FREE ENERGY PREDICTED BY IDOCK:   -2.96 KCAL/MOL
REMARK 922        TOTAL FREE ENERGY PREDICTED BY IDOCK:   -4.15 KCAL/MOL
REMARK 923 INTER-LIGAND FREE ENERGY PREDICTED BY IDOCK:   -3.74 KCAL/MOL
REMARK 924 INTRA-LIGAND FREE ENERGY PREDICTED BY IDOCK:   -0.41 KCAL/MOL
REMARK 927      BINDING AFFINITY PREDICTED BY RF-SCORE:    0.00 PKD
ROOT
ATOM      1  NZ  LYS A   1     -10.934  18.238  65.061  1.00  0.00    -0.476 NA 
ATOM      2  HZ2 LYS A   1     -11.795  17.767  65.341  1.00  0.00     0.000 HD 
ATOM      3  CE  LYS A   1     -10.717  19.455  65.836  1.00  0.00    -0.407 C  
ATOM      4  HZ1 LYS A   1     -10.920  18.421  64.058  1.00  0.00     0.000 HD 
ENDROOT
BRANCH   3   5
ATOM      5  CD  LYS A   1     -10.737  19.179  67.341  1.00  0.00    -0.578 C  
BRANCH   5   6
ATOM      6  CG  LYS A   1      -9.540  19.808  68.062  1.00  0.00    -0.489 C  
BRANCH   6   7
ATOM      7  CB  LYS A   1      -8.485  18.767  68.440  1.00  0.00    -0.374 C  
BRANCH   7   8
ATOM      8  CA  LYS A   1      -8.794  17.372  67.877  1.00  0.00    -0.237 C  
ATOM      9  N   LYS A   1      -8.626  16.307  68.910  1.00  0.00    -0.249 NA 
ATOM     10  C   LYS A   1      -7.817  17.072  66.731  1.00  0.00    -0.239 C  
ATOM     11  OXT LYS A   1      -7.912  17.496  65.590  1.00  0.00    -0.512 OA 
ATOM     12  O   LYS A   1      -6.794  16.282  67.158  1.00  0.00    -0.176 OA 
ATOM     13  H1  LYS A   1      -8.831  15.380  68.536  1.00  0.00     0.000 HD 
ATOM     14  H2  LYS A   1      -9.184  16.504  69.741  1.00  0.00     0.000 HD 
ENDBRANCH   7   8
ENDBRANCH   6   7
ENDBRANCH   5   6
ENDBRANCH   3   5
TORSDOF 4
ENDMDL
MODEL       87
REMARK 921   NORMALIZED FREE ENERGY PREDICTED BY IDOCK:   -2.95 KCAL/MOL
REMARK 922        TOTAL FREE ENERGY PREDICTED BY IDOCK:   -4.13 KCAL/MOL
REMARK 923 INTER-LIGAND FREE ENERGY PREDICTED BY IDOCK:   -3.70 KCAL/MOL
REMARK 924 INTRA-LIGAND FREE ENERGY PREDICTED BY IDOCK:   -0.44 KCAL/MOL
REMARK 927      BINDING AFFINITY PREDICTED BY RF-SCORE:    0.00 PKD
ROOT
ATOM      1  NZ  LYS A   1      -7.957  18.756  65.708  1.00  0.00    -0.451 NA 
ATOM      2  HZ2 LYS A   1      -8.305  18.747  64.749  1.00  0.00     0.000 HD 
ATOM      3  CE  LYS A   1      -8.541  19.851  66.476  1.00  0.00    -0.341 C  
ATOM      4  HZ1 LYS A   1      -6.938  18.777  65.734  1.00  0.00     0.000 HD 
ENDROOT
BRANCH   3   5
ATOM      5  CD  LYS A   1     -10.070  19.818  66.437  1.00  0.00    -0.600 C  
BRANCH   5   6
ATOM      6  CG  LYS A   1     -10.681  19.588  67.824  1.00  0.00    -0.487 C  
BRANCH   6   7
ATOM      7  CB  LYS A   1      -9.908  18.540  68.626  1.00  0.00    -0.419 C  
BRANCH   7   8
ATOM      8  CA  LYS A   1     -10.549  17.145  68.559  1.00  0.00    -0.361 C  
ATOM      9  N   LYS A   1     -10.940  16.648  69.911  1.00  0.00    -0.416 NA 
ATOM     10  C   LYS A   1      -9.527  16.158  67.975  1.00  0.00    -0.211 C  
ATOM     11  OXT LYS A   1      -9.259  16.035  66.790  1.00  0.00    -0.214 OA 
ATOM     12  O   LYS A   1      -8.923  15.442  68.962  1.00  0.00    -0.197 OA 
ATOM     13  H1  LYS A   1     -11.365  15.722  69.867  1.00  0.00     0.000 HD 
ATOM     14  H2  LYS A   1     -11.548  17.314  70.390  1.00  0.00     0.000 HD 
ENDBRANCH   7   8
ENDBRANCH   6   7
ENDBRANCH   5   6
ENDBRANCH   3   5
TORSDOF 4
ENDMDL
MODEL       88
REMARK 921   NORMALIZED FREE ENERGY PREDICTED BY IDOCK:   -2.94 KCAL/MOL
REMARK 922        TOTAL FREE ENERGY PREDICTED BY IDOCK:   -4.13 KCAL/MOL
REMARK 923 INTER-LIGAND FREE ENERGY PREDICTED BY IDOCK:   -3.84 KCAL/MOL
REMARK 924 INTRA-LIGAND FREE ENERGY PREDICTED BY IDOCK:   -0.29 KCAL/MOL
REMARK 927      BINDING AFFINITY PREDICTED BY RF-SCORE:    0.00 PKD
ROOT
ATOM      1  NZ  LYS A   1     -12.982  14.448  70.007  1.00  0.00    -0.462 NA 
ATOM      2  HZ2 LYS A   1     -12.753  13.857  70.806  1.00  0.00     0.000 HD 
ATOM      3  CE  LYS A   1     -11.853  14.560  69.088  1.00  0.00    -0.319 C  
ATOM      4  HZ1 LYS A   1     -13.318  15.364  70.304  1.00  0.00     0.000 HD 
ENDROOT
BRANCH   3   5
ATOM      5  CD  LYS A   1     -11.349  13.185  68.641  1.00  0.00    -0.327 C  
BRANCH   5   6
ATOM      6  CG  LYS A   1     -11.633  12.918  67.159  1.00  0.00    -0.421 C  
BRANCH   6   7
ATOM      7  CB  LYS A   1     -12.156  14.162  66.439  1.00  0.00    -0.475 C  
BRANCH   7   8
ATOM      8  CA  LYS A   1     -11.236  14.624  65.299  1.00  0.00    -0.358 C  
ATOM      9  N   LYS A   1     -10.365  13.516  64.805  1.00  0.00    -0.502 NA 
ATOM     10  C   LYS A   1     -10.320  15.741  65.822  1.00  0.00    -0.369 C  
ATOM     11  OXT LYS A   1     -10.642  16.911  65.966  1.00  0.00    -0.304 OA 
ATOM     12  O   LYS A   1      -9.091  15.254  66.139  1.00  0.00    -0.307 OA 
ATOM     13  H1  LYS A   1      -9.755  13.822  64.048  1.00  0.00     0.000 HD 
ATOM     14  H2  LYS A   1     -10.919  12.703  64.531  1.00  0.00     0.000 HD 
ENDBRANCH   7   8
ENDBRANCH   6   7
ENDBRANCH   5   6
ENDBRANCH   3   5
TORSDOF 4
ENDMDL
MODEL       89
REMARK 921   NORMALIZED FREE ENERGY PREDICTED BY IDOCK:   -2.93 KCAL/MOL
REMARK 922        TOTAL FREE ENERGY PREDICTED BY IDOCK:   -4.12 KCAL/MOL
REMARK 923 INTER-LIGAND FREE ENERGY PREDICTED BY IDOCK:   -3.98 KCAL/MOL
REMARK 924 INTRA-LIGAND FREE ENERGY PREDICTED BY IDOCK:   -0.14 KCAL/MOL
REMARK 927      BINDING AFFINITY PREDICTED BY RF-SCORE:    0.00 PKD
ROOT
ATOM      1  NZ  LYS A   1     -11.611  16.581  64.061  1.00  0.00    -1.544 NA 
ATOM      2  HZ2 LYS A   1     -11.023  17.364  63.772  1.00  0.00     0.000 HD 
ATOM      3  CE  LYS A   1     -10.846  15.588  64.808  1.00  0.00    -0.363 C  
ATOM      4  HZ1 LYS A   1     -12.093  16.165  63.264  1.00  0.00     0.000 HD 
ENDROOT
BRANCH   3   5
ATOM      5  CD  LYS A   1     -10.123  16.213  66.003  1.00  0.00    -0.372 C  
BRANCH   5   6
ATOM      6  CG  LYS A   1     -10.040  17.739  65.897  1.00  0.00    -0.183 C  
BRANCH   6   7
ATOM      7  CB  LYS A   1      -8.957  18.321  66.807  1.00  0.00    -0.289 C  
BRANCH   7   8
ATOM      8  CA  LYS A   1      -7.540  17.887  66.402  1.00  0.00    -0.273 C  
ATOM      9  N   LYS A   1      -6.802  17.267  67.542  1.00  0.00    -0.147 NA 
ATOM     10  C   LYS A   1      -6.752  19.126  65.952  1.00  0.00    -0.251 C  
ATOM     11  OXT LYS A   1      -6.843  19.666  64.860  1.00  0.00    -0.384 OA 
ATOM     12  O   LYS A   1      -5.944  19.577  66.950  1.00  0.00    -0.174 OA 
ATOM     13  H1  LYS A   1      -5.862  16.978  67.273  1.00  0.00     0.000 HD 
ATOM     14  H2  LYS A   1      -7.328  16.491  67.946  1.00  0.00     0.000 HD 
ENDBRANCH   7   8
ENDBRANCH   6   7
ENDBRANCH   5   6
ENDBRANCH   3   5
TORSDOF 4
ENDMDL
MODEL       90
REMARK 921   NORMALIZED FREE ENERGY PREDICTED BY IDOCK:   -2.93 KCAL/MOL
REMARK 922        TOTAL FREE ENERGY PREDICTED BY IDOCK:   -4.12 KCAL/MOL
REMARK 923 INTER-LIGAND FREE ENERGY PREDICTED BY IDOCK:   -3.96 KCAL/MOL
REMARK 924 INTRA-LIGAND FREE ENERGY PREDICTED BY IDOCK:   -0.15 KCAL/MOL
REMARK 927      BINDING AFFINITY PREDICTED BY RF-SCORE:    0.00 PKD
ROOT
ATOM      1  NZ  LYS A   1     -11.051   5.661  66.123  1.00  0.00    -0.756 NA 
ATOM      2  HZ2 LYS A   1     -11.041   6.641  65.837  1.00  0.00     0.000 HD 
ATOM      3  CE  LYS A   1     -10.531   5.497  67.477  1.00  0.00    -0.204 C  
ATOM      4  HZ1 LYS A   1     -10.554   5.073  65.454  1.00  0.00     0.000 HD 
ENDROOT
BRANCH   3   5
ATOM      5  CD  LYS A   1     -11.278   6.379  68.481  1.00  0.00    -0.321 C  
BRANCH   5   6
ATOM      6  CG  LYS A   1     -10.861   6.091  69.927  1.00  0.00    -0.434 C  
BRANCH   6   7
ATOM      7  CB  LYS A   1     -11.794   6.760  70.938  1.00  0.00    -0.438 C  
BRANCH   7   8
ATOM      8  CA  LYS A   1     -11.084   7.822  71.793  1.00  0.00    -0.245 C  
ATOM      9  N   LYS A   1     -11.663   7.906  73.167  1.00  0.00    -0.621 NA 
ATOM     10  C   LYS A   1     -11.260   9.194  71.125  1.00  0.00    -0.325 C  
ATOM     11  OXT LYS A   1     -10.617   9.606  70.172  1.00  0.00    -0.231 OA 
ATOM     12  O   LYS A   1     -12.262   9.899  71.719  1.00  0.00    -0.389 OA 
ATOM     13  H1  LYS A   1     -11.192   8.611  73.734  1.00  0.00     0.000 HD 
ATOM     14  H2  LYS A   1     -11.660   6.996  73.627  1.00  0.00     0.000 HD 
ENDBRANCH   7   8
ENDBRANCH   6   7
ENDBRANCH   5   6
ENDBRANCH   3   5
TORSDOF 4
ENDMDL
MODEL       91
REMARK 921   NORMALIZED FREE ENERGY PREDICTED BY IDOCK:   -2.90 KCAL/MOL
REMARK 922        TOTAL FREE ENERGY PREDICTED BY IDOCK:   -4.08 KCAL/MOL
REMARK 923 INTER-LIGAND FREE ENERGY PREDICTED BY IDOCK:   -3.93 KCAL/MOL
REMARK 924 INTRA-LIGAND FREE ENERGY PREDICTED BY IDOCK:   -0.15 KCAL/MOL
REMARK 927      BINDING AFFINITY PREDICTED BY RF-SCORE:    0.00 PKD
ROOT
ATOM      1  NZ  LYS A   1     -11.525   6.662  67.393  1.00  0.00    -0.740 NA 
ATOM      2  HZ2 LYS A   1     -10.990   7.486  67.121  1.00  0.00     0.000 HD 
ATOM      3  CE  LYS A   1     -10.783   5.832  68.337  1.00  0.00    -0.209 C  
ATOM      4  HZ1 LYS A   1     -11.826   6.128  66.577  1.00  0.00     0.000 HD 
ENDROOT
BRANCH   3   5
ATOM      5  CD  LYS A   1     -10.333   6.634  69.561  1.00  0.00    -0.232 C  
BRANCH   5   6
ATOM      6  CG  LYS A   1     -11.518   7.217  70.340  1.00  0.00    -0.317 C  
BRANCH   6   7
ATOM      7  CB  LYS A   1     -11.273   8.667  70.758  1.00  0.00    -0.298 C  
BRANCH   7   8
ATOM      8  CA  LYS A   1     -11.761   8.968  72.183  1.00  0.00    -0.296 C  
ATOM      9  N   LYS A   1     -11.825   7.734  73.021  1.00  0.00    -0.631 NA 
ATOM     10  C   LYS A   1     -13.178   9.557  72.108  1.00  0.00    -0.451 C  
ATOM     11  OXT LYS A   1     -13.450  10.714  71.825  1.00  0.00    -0.329 OA 
ATOM     12  O   LYS A   1     -14.114   8.605  72.370  1.00  0.00    -0.422 OA 
ATOM     13  H1  LYS A   1     -12.149   7.933  73.967  1.00  0.00     0.000 HD 
ATOM     14  H2  LYS A   1     -10.929   7.245  73.030  1.00  0.00     0.000 HD 
ENDBRANCH   7   8
ENDBRANCH   6   7
ENDBRANCH   5   6
ENDBRANCH   3   5
TORSDOF 4
ENDMDL
MODEL       92
REMARK 921   NORMALIZED FREE ENERGY PREDICTED BY IDOCK:   -2.87 KCAL/MOL
REMARK 922        TOTAL FREE ENERGY PREDICTED BY IDOCK:   -4.04 KCAL/MOL
REMARK 923 INTER-LIGAND FREE ENERGY PREDICTED BY IDOCK:   -3.24 KCAL/MOL
REMARK 924 INTRA-LIGAND FREE ENERGY PREDICTED BY IDOCK:   -0.81 KCAL/MOL
REMARK 927      BINDING AFFINITY PREDICTED BY RF-SCORE:    0.00 PKD
ROOT
ATOM      1  NZ  LYS A   1     -12.998   7.326  70.856  1.00  0.00    -0.598 NA 
ATOM      2  HZ2 LYS A   1     -12.349   7.640  70.134  1.00  0.00     0.000 HD 
ATOM      3  CE  LYS A   1     -12.299   6.639  71.938  1.00  0.00    -0.318 C  
ATOM      4  HZ1 LYS A   1     -13.742   6.750  70.463  1.00  0.00     0.000 HD 
ENDROOT
BRANCH   3   5
ATOM      5  CD  LYS A   1     -11.182   7.503  72.529  1.00  0.00    -0.381 C  
BRANCH   5   6
ATOM      6  CG  LYS A   1     -11.121   8.892  71.883  1.00  0.00    -0.442 C  
BRANCH   6   7
ATOM      7  CB  LYS A   1      -9.806   9.121  71.135  1.00  0.00    -0.371 C  
BRANCH   7   8
ATOM      8  CA  LYS A   1      -9.982   9.139  69.609  1.00  0.00    -0.190 C  
ATOM      9  N   LYS A   1     -11.390   9.441  69.216  1.00  0.00    -0.440 NA 
ATOM     10  C   LYS A   1      -9.628   7.752  69.053  1.00  0.00    -0.155 C  
ATOM     11  OXT LYS A   1      -8.496   7.332  68.866  1.00  0.00    -0.125 OA 
ATOM     12  O   LYS A   1     -10.751   7.021  68.817  1.00  0.00    -0.215 OA 
ATOM     13  H1  LYS A   1     -11.507   9.453  68.203  1.00  0.00     0.000 HD 
ATOM     14  H2  LYS A   1     -11.715  10.312  69.638  1.00  0.00     0.000 HD 
ENDBRANCH   7   8
ENDBRANCH   6   7
ENDBRANCH   5   6
ENDBRANCH   3   5
TORSDOF 4
ENDMDL
MODEL       93
REMARK 921   NORMALIZED FREE ENERGY PREDICTED BY IDOCK:   -2.84 KCAL/MOL
REMARK 922        TOTAL FREE ENERGY PREDICTED BY IDOCK:   -4.01 KCAL/MOL
REMARK 923 INTER-LIGAND FREE ENERGY PREDICTED BY IDOCK:   -3.86 KCAL/MOL
REMARK 924 INTRA-LIGAND FREE ENERGY PREDICTED BY IDOCK:   -0.15 KCAL/MOL
REMARK 927      BINDING AFFINITY PREDICTED BY RF-SCORE:    0.00 PKD
ROOT
ATOM      1  NZ  LYS A   1      -9.007  17.281  68.249  1.00  0.00    -0.254 NA 
ATOM      2  HZ2 LYS A   1      -8.784  16.376  67.836  1.00  0.00     0.000 HD 
ATOM      3  CE  LYS A   1     -10.437  17.409  68.512  1.00  0.00    -0.370 C  
ATOM      4  HZ1 LYS A   1      -8.659  18.049  67.673  1.00  0.00     0.000 HD 
ENDROOT
BRANCH   3   5
ATOM      5  CD  LYS A   1     -10.958  16.258  69.376  1.00  0.00    -0.337 C  
BRANCH   5   6
ATOM      6  CG  LYS A   1     -11.898  15.330  68.600  1.00  0.00    -0.329 C  
BRANCH   6   7
ATOM      7  CB  LYS A   1     -11.135  14.388  67.667  1.00  0.00    -0.311 C  
BRANCH   7   8
ATOM      8  CA  LYS A   1     -11.911  14.064  66.381  1.00  0.00    -0.418 C  
ATOM      9  N   LYS A   1     -12.044  12.592  66.169  1.00  0.00    -0.615 NA 
ATOM     10  C   LYS A   1     -11.146  14.643  65.181  1.00  0.00    -0.377 C  
ATOM     11  OXT LYS A   1     -11.158  15.813  64.831  1.00  0.00    -0.422 OA 
ATOM     12  O   LYS A   1     -10.415  13.678  64.559  1.00  0.00    -0.430 OA 
ATOM     13  H1  LYS A   1     -12.558  12.376  65.316  1.00  0.00     0.000 HD 
ATOM     14  H2  LYS A   1     -12.462  12.136  66.981  1.00  0.00     0.000 HD 
ENDBRANCH   7   8
ENDBRANCH   6   7
ENDBRANCH   5   6
ENDBRANCH   3   5
TORSDOF 4
ENDMDL
MODEL       94
REMARK 921   NORMALIZED FREE ENERGY PREDICTED BY IDOCK:   -2.83 KCAL/MOL
REMARK 922        TOTAL FREE ENERGY PREDICTED BY IDOCK:   -3.99 KCAL/MOL
REMARK 923 INTER-LIGAND FREE ENERGY PREDICTED BY IDOCK:   -4.04 KCAL/MOL
REMARK 924 INTRA-LIGAND FREE ENERGY PREDICTED BY IDOCK:    0.05 KCAL/MOL
REMARK 927      BINDING AFFINITY PREDICTED BY RF-SCORE:    0.00 PKD
ROOT
ATOM      1  NZ  LYS A   1     -11.203   5.527  66.106  1.00  0.00    -0.761 NA 
ATOM      2  HZ2 LYS A   1     -12.098   5.071  66.284  1.00  0.00     0.000 HD 
ATOM      3  CE  LYS A   1     -10.915   6.547  67.109  1.00  0.00    -0.408 C  
ATOM      4  HZ1 LYS A   1     -11.161   5.906  65.159  1.00  0.00     0.000 HD 
ENDROOT
BRANCH   3   5
ATOM      5  CD  LYS A   1     -10.978   5.978  68.528  1.00  0.00    -0.350 C  
BRANCH   5   6
ATOM      6  CG  LYS A   1     -11.150   7.075  69.585  1.00  0.00    -0.254 C  
BRANCH   6   7
ATOM      7  CB  LYS A   1     -11.992   6.603  70.772  1.00  0.00    -0.412 C  
BRANCH   7   8
ATOM      8  CA  LYS A   1     -12.353   7.742  71.738  1.00  0.00    -0.317 C  
ATOM      9  N   LYS A   1     -13.232   8.761  71.091  1.00  0.00    -0.528 NA 
ATOM     10  C   LYS A   1     -11.061   8.449  72.176  1.00  0.00    -0.345 C  
ATOM     11  OXT LYS A   1     -10.286   8.042  73.027  1.00  0.00    -0.315 OA 
ATOM     12  O   LYS A   1     -10.867   9.592  71.464  1.00  0.00    -0.355 OA 
ATOM     13  H1  LYS A   1     -13.472   9.517  71.732  1.00  0.00     0.000 HD 
ATOM     14  H2  LYS A   1     -14.068   8.331  70.694  1.00  0.00     0.000 HD 
ENDBRANCH   7   8
ENDBRANCH   6   7
ENDBRANCH   5   6
ENDBRANCH   3   5
TORSDOF 4
ENDMDL
MODEL       95
REMARK 921   NORMALIZED FREE ENERGY PREDICTED BY IDOCK:   -2.83 KCAL/MOL
REMARK 922        TOTAL FREE ENERGY PREDICTED BY IDOCK:   -3.99 KCAL/MOL
REMARK 923 INTER-LIGAND FREE ENERGY PREDICTED BY IDOCK:   -4.05 KCAL/MOL
REMARK 924 INTRA-LIGAND FREE ENERGY PREDICTED BY IDOCK:    0.06 KCAL/MOL
REMARK 927      BINDING AFFINITY PREDICTED BY RF-SCORE:    0.00 PKD
ROOT
ATOM      1  NZ  LYS A   1      -9.392   9.578  63.024  1.00  0.00    -0.527 NA 
ATOM      2  HZ2 LYS A   1     -10.235   9.085  62.730  1.00  0.00     0.000 HD 
ATOM      3  CE  LYS A   1      -9.704  10.911  63.530  1.00  0.00    -0.342 C  
ATOM      4  HZ1 LYS A   1      -8.700   9.611  62.276  1.00  0.00     0.000 HD 
ENDROOT
BRANCH   3   5
ATOM      5  CD  LYS A   1     -10.742  10.862  64.653  1.00  0.00    -0.254 C  
BRANCH   5   6
ATOM      6  CG  LYS A   1     -12.009  11.651  64.306  1.00  0.00    -0.182 C  
BRANCH   6   7
ATOM      7  CB  LYS A   1     -11.695  12.936  63.539  1.00  0.00    -0.576 C  
BRANCH   7   8
ATOM      8  CA  LYS A   1     -11.498  14.149  64.461  1.00  0.00    -0.372 C  
ATOM      9  N   LYS A   1     -10.097  14.239  64.970  1.00  0.00    -0.549 NA 
ATOM     10  C   LYS A   1     -12.429  14.005  65.674  1.00  0.00    -0.504 C  
ATOM     11  OXT LYS A   1     -13.624  14.257  65.683  1.00  0.00    -0.394 OA 
ATOM     12  O   LYS A   1     -11.752  13.525  66.753  1.00  0.00    -0.350 OA 
ATOM     13  H1  LYS A   1      -9.967  15.043  65.582  1.00  0.00     0.000 HD 
ATOM     14  H2  LYS A   1      -9.423  14.241  64.204  1.00  0.00     0.000 HD 
ENDBRANCH   7   8
ENDBRANCH   6   7
ENDBRANCH   5   6
ENDBRANCH   3   5
TORSDOF 4
ENDMDL
MODEL       96
REMARK 921   NORMALIZED FREE ENERGY PREDICTED BY IDOCK:   -2.82 KCAL/MOL
REMARK 922        TOTAL FREE ENERGY PREDICTED BY IDOCK:   -3.98 KCAL/MOL
REMARK 923 INTER-LIGAND FREE ENERGY PREDICTED BY IDOCK:   -3.25 KCAL/MOL
REMARK 924 INTRA-LIGAND FREE ENERGY PREDICTED BY IDOCK:   -0.73 KCAL/MOL
REMARK 927      BINDING AFFINITY PREDICTED BY RF-SCORE:    0.00 PKD
ROOT
ATOM      1  NZ  LYS A   1     -13.494   9.154  71.708  1.00  0.00    -0.393 NA 
ATOM      2  HZ2 LYS A   1     -12.894   8.486  71.222  1.00  0.00     0.000 HD 
ATOM      3  CE  LYS A   1     -12.843  10.453  71.842  1.00  0.00    -0.415 C  
ATOM      4  HZ1 LYS A   1     -13.801   8.790  72.610  1.00  0.00     0.000 HD 
ENDROOT
BRANCH   3   5
ATOM      5  CD  LYS A   1     -12.383  10.998  70.488  1.00  0.00    -0.462 C  
BRANCH   5   6
ATOM      6  CG  LYS A   1     -11.485  10.007  69.739  1.00  0.00    -0.240 C  
BRANCH   6   7
ATOM      7  CB  LYS A   1     -10.147   9.793  70.448  1.00  0.00    -0.313 C  
BRANCH   7   8
ATOM      8  CA  LYS A   1      -9.899   8.325  70.827  1.00  0.00    -0.179 C  
ATOM      9  N   LYS A   1     -11.043   7.450  70.435  1.00  0.00    -0.262 NA 
ATOM     10  C   LYS A   1      -9.736   8.228  72.352  1.00  0.00    -0.303 C  
ATOM     11  OXT LYS A   1      -8.723   8.506  72.975  1.00  0.00    -0.343 OA 
ATOM     12  O   LYS A   1     -10.892   7.813  72.939  1.00  0.00    -0.339 OA 
ATOM     13  H1  LYS A   1     -10.879   6.475  70.686  1.00  0.00     0.000 HD 
ATOM     14  H2  LYS A   1     -11.260   7.546  69.442  1.00  0.00     0.000 HD 
ENDBRANCH   7   8
ENDBRANCH   6   7
ENDBRANCH   5   6
ENDBRANCH   3   5
TORSDOF 4
ENDMDL
MODEL       97
REMARK 921   NORMALIZED FREE ENERGY PREDICTED BY IDOCK:   -2.80 KCAL/MOL
REMARK 922        TOTAL FREE ENERGY PREDICTED BY IDOCK:   -3.96 KCAL/MOL
REMARK 923 INTER-LIGAND FREE ENERGY PREDICTED BY IDOCK:   -3.89 KCAL/MOL
REMARK 924 INTRA-LIGAND FREE ENERGY PREDICTED BY IDOCK:   -0.08 KCAL/MOL
REMARK 927      BINDING AFFINITY PREDICTED BY RF-SCORE:    0.00 PKD
ROOT
ATOM      1  NZ  LYS A   1     -13.244  15.137  70.494  1.00  0.00    -0.676 NA 
ATOM      2  HZ2 LYS A   1     -13.830  14.887  69.697  1.00  0.00     0.000 HD 
ATOM      3  CE  LYS A   1     -13.205  14.064  71.483  1.00  0.00    -0.359 C  
ATOM      4  HZ1 LYS A   1     -13.537  16.021  70.909  1.00  0.00     0.000 HD 
ENDROOT
BRANCH   3   5
ATOM      5  CD  LYS A   1     -12.764  12.736  70.860  1.00  0.00    -0.277 C  
BRANCH   5   6
ATOM      6  CG  LYS A   1     -13.135  11.534  71.735  1.00  0.00    -0.503 C  
BRANCH   6   7
ATOM      7  CB  LYS A   1     -12.717  10.208  71.097  1.00  0.00    -0.494 C  
BRANCH   7   8
ATOM      8  CA  LYS A   1     -11.297  10.248  70.514  1.00  0.00    -0.341 C  
ATOM      9  N   LYS A   1     -11.306  10.164  69.023  1.00  0.00    -0.428 NA 
ATOM     10  C   LYS A   1     -10.509   9.041  71.046  1.00  0.00    -0.269 C  
ATOM     11  OXT LYS A   1      -9.997   8.961  72.152  1.00  0.00    -0.322 OA 
ATOM     12  O   LYS A   1     -10.475   8.039  70.126  1.00  0.00    -0.215 OA 
ATOM     13  H1  LYS A   1     -10.363  10.191  68.636  1.00  0.00     0.000 HD 
ATOM     14  H2  LYS A   1     -11.896  10.890  68.615  1.00  0.00     0.000 HD 
ENDBRANCH   7   8
ENDBRANCH   6   7
ENDBRANCH   5   6
ENDBRANCH   3   5
TORSDOF 4
ENDMDL
MODEL       98
REMARK 921   NORMALIZED FREE ENERGY PREDICTED BY IDOCK:   -2.79 KCAL/MOL
REMARK 922        TOTAL FREE ENERGY PREDICTED BY IDOCK:   -3.94 KCAL/MOL
REMARK 923 INTER-LIGAND FREE ENERGY PREDICTED BY IDOCK:   -3.56 KCAL/MOL
REMARK 924 INTRA-LIGAND FREE ENERGY PREDICTED BY IDOCK:   -0.38 KCAL/MOL
REMARK 927      BINDING AFFINITY PREDICTED BY RF-SCORE:    0.00 PKD
ROOT
ATOM      1  NZ  LYS A   1      -9.087  10.253  69.742  1.00  0.00    -0.398 NA 
ATOM      2  HZ2 LYS A   1      -8.814  11.064  70.298  1.00  0.00     0.000 HD 
ATOM      3  CE  LYS A   1     -10.170   9.511  70.380  1.00  0.00    -0.279 C  
ATOM      4  HZ1 LYS A   1      -8.287   9.653  69.541  1.00  0.00     0.000 HD 
ENDROOT
BRANCH   3   5
ATOM      5  CD  LYS A   1     -11.371  10.411  70.682  1.00  0.00    -0.411 C  
BRANCH   5   6
ATOM      6  CG  LYS A   1     -12.038  10.935  69.406  1.00  0.00    -0.362 C  
BRANCH   6   7
ATOM      7  CB  LYS A   1     -11.901  12.452  69.266  1.00  0.00    -0.361 C  
BRANCH   7   8
ATOM      8  CA  LYS A   1     -10.920  12.863  68.159  1.00  0.00    -0.248 C  
ATOM      9  N   LYS A   1      -9.603  13.293  68.715  1.00  0.00    -0.410 NA 
ATOM     10  C   LYS A   1     -11.513  14.052  67.387  1.00  0.00    -0.348 C  
ATOM     11  OXT LYS A   1     -12.375  13.977  66.525  1.00  0.00    -0.457 OA 
ATOM     12  O   LYS A   1     -10.972  15.226  67.811  1.00  0.00    -0.293 OA 
ATOM     13  H1  LYS A   1      -8.951  13.567  67.979  1.00  0.00     0.000 HD 
ATOM     14  H2  LYS A   1      -9.202  12.574  69.318  1.00  0.00     0.000 HD 
ENDBRANCH   7   8
ENDBRANCH   6   7
ENDBRANCH   5   6
ENDBRANCH   3   5
TORSDOF 4
ENDMDL
MODEL       99
REMARK 921   NORMALIZED FREE ENERGY PREDICTED BY IDOCK:   -2.79 KCAL/MOL
REMARK 922        TOTAL FREE ENERGY PREDICTED BY IDOCK:   -3.94 KCAL/MOL
REMARK 923 INTER-LIGAND FREE ENERGY PREDICTED BY IDOCK:   -3.80 KCAL/MOL
REMARK 924 INTRA-LIGAND FREE ENERGY PREDICTED BY IDOCK:   -0.13 KCAL/MOL
REMARK 927      BINDING AFFINITY PREDICTED BY RF-SCORE:    0.00 PKD
ROOT
ATOM      1  NZ  LYS A   1      -7.107  16.303  66.935  1.00  0.00    -0.222 NA 
ATOM      2  HZ2 LYS A   1      -7.245  15.443  66.404  1.00  0.00     0.000 HD 
ATOM      3  CE  LYS A   1      -8.043  17.342  66.517  1.00  0.00    -0.278 C  
ATOM      4  HZ1 LYS A   1      -6.140  16.623  66.881  1.00  0.00     0.000 HD 
ENDROOT
BRANCH   3   5
ATOM      5  CD  LYS A   1      -9.494  16.862  66.598  1.00  0.00    -0.282 C  
BRANCH   5   6
ATOM      6  CG  LYS A   1      -9.796  15.754  65.582  1.00  0.00    -0.357 C  
BRANCH   6   7
ATOM      7  CB  LYS A   1     -10.173  14.437  66.262  1.00  0.00    -0.307 C  
BRANCH   7   8
ATOM      8  CA  LYS A   1     -11.691  14.208  66.319  1.00  0.00    -0.390 C  
ATOM      9  N   LYS A   1     -12.232  14.411  67.695  1.00  0.00    -0.623 NA 
ATOM     10  C   LYS A   1     -11.988  12.757  65.909  1.00  0.00    -0.449 C  
ATOM     11  OXT LYS A   1     -12.020  12.338  64.762  1.00  0.00    -0.379 OA 
ATOM     12  O   LYS A   1     -12.187  11.974  67.003  1.00  0.00    -0.516 OA 
ATOM     13  H1  LYS A   1     -13.240  14.259  67.733  1.00  0.00     0.000 HD 
ATOM     14  H2  LYS A   1     -11.981  15.331  68.060  1.00  0.00     0.000 HD 
ENDBRANCH   7   8
ENDBRANCH   6   7
ENDBRANCH   5   6
ENDBRANCH   3   5
TORSDOF 4
ENDMDL
MODEL      100
REMARK 921   NORMALIZED FREE ENERGY PREDICTED BY IDOCK:   -2.78 KCAL/MOL
REMARK 922        TOTAL FREE ENERGY PREDICTED BY IDOCK:   -3.93 KCAL/MOL
REMARK 923 INTER-LIGAND FREE ENERGY PREDICTED BY IDOCK:   -3.47 KCAL/MOL
REMARK 924 INTRA-LIGAND FREE ENERGY PREDICTED BY IDOCK:   -0.47 KCAL/MOL
REMARK 927      BINDING AFFINITY PREDICTED BY RF-SCORE:    0.00 PKD
ROOT
ATOM      1  NZ  LYS A   1     -11.139   7.520  67.811  1.00  0.00    -0.495 NA 
ATOM      2  HZ2 LYS A   1     -12.138   7.724  67.762  1.00  0.00     0.000 HD 
ATOM      3  CE  LYS A   1     -10.361   8.729  68.059  1.00  0.00    -0.220 C  
ATOM      4  HZ1 LYS A   1     -10.818   7.030  66.976  1.00  0.00     0.000 HD 
ENDROOT
BRANCH   3   5
ATOM      5  CD  LYS A   1     -10.842   9.464  69.312  1.00  0.00    -0.190 C  
BRANCH   5   6
ATOM      6  CG  LYS A   1      -9.921   9.226  70.514  1.00  0.00    -0.307 C  
BRANCH   6   7
ATOM      7  CB  LYS A   1     -10.708   8.916  71.789  1.00  0.00    -0.432 C  
BRANCH   7   8
ATOM      8  CA  LYS A   1     -12.038   8.201  71.510  1.00  0.00    -0.298 C  
ATOM      9  N   LYS A   1     -13.024   8.413  72.611  1.00  0.00    -0.621 NA 
ATOM     10  C   LYS A   1     -11.776   6.691  71.401  1.00  0.00    -0.324 C  
ATOM     11  OXT LYS A   1     -11.323   6.120  70.421  1.00  0.00    -0.352 OA 
ATOM     12  O   LYS A   1     -12.088   6.058  72.564  1.00  0.00    -0.230 OA 
ATOM     13  H1  LYS A   1     -13.907   7.938  72.426  1.00  0.00     0.000 HD 
ATOM     14  H2  LYS A   1     -13.168   9.406  72.794  1.00  0.00     0.000 HD 
ENDBRANCH   7   8
ENDBRANCH   6   7
ENDBRANCH   5   6
ENDBRANCH   3   5
TORSDOF 4
ENDMDL
MODEL      101
REMARK 921   NORMALIZED FREE ENERGY PREDICTED BY IDOCK:   -2.77 KCAL/MOL
REMARK 922        TOTAL FREE ENERGY PREDICTED BY IDOCK:   -3.92 KCAL/MOL
REMARK 923 INTER-LIGAND FREE ENERGY PREDICTED BY IDOCK:   -3.86 KCAL/MOL
REMARK 924 INTRA-LIGAND FREE ENERGY PREDICTED BY IDOCK:   -0.06 KCAL/MOL
REMARK 927      BINDING AFFINITY PREDICTED BY RF-SCORE:    0.00 PKD
ROOT
ATOM      1  NZ  LYS A   1     -12.453  10.784  68.726  1.00  0.00    -0.721 NA 
ATOM      2  HZ2 LYS A   1     -12.373   9.768  68.768  1.00  0.00     0.000 HD 
ATOM      3  CE  LYS A   1     -11.189  11.432  69.060  1.00  0.00    -0.256 C  
ATOM      4  HZ1 LYS A   1     -13.216  11.121  69.313  1.00  0.00     0.000 HD 
ENDROOT
BRANCH   3   5
ATOM      5  CD  LYS A   1     -10.044  10.926  68.179  1.00  0.00    -0.190 C  
BRANCH   5   6
ATOM      6  CG  LYS A   1     -10.536   9.986  67.073  1.00  0.00    -0.302 C  
BRANCH   6   7
ATOM      7  CB  LYS A   1     -10.169  10.498  65.679  1.00  0.00    -0.315 C  
BRANCH   7   8
ATOM      8  CA  LYS A   1     -10.681  11.921  65.412  1.00  0.00    -0.283 C  
ATOM      9  N   LYS A   1     -12.052  12.131  65.962  1.00  0.00    -0.586 NA 
ATOM     10  C   LYS A   1     -10.746  12.148  63.893  1.00  0.00    -0.407 C  
ATOM     11  OXT LYS A   1      -9.793  12.410  63.175  1.00  0.00    -0.314 OA 
ATOM     12  O   LYS A   1     -12.015  11.988  63.432  1.00  0.00    -0.484 OA 
ATOM     13  H1  LYS A   1     -12.392  13.076  65.785  1.00  0.00     0.000 HD 
ATOM     14  H2  LYS A   1     -12.092  11.903  66.956  1.00  0.00     0.000 HD 
ENDBRANCH   7   8
ENDBRANCH   6   7
ENDBRANCH   5   6
ENDBRANCH   3   5
TORSDOF 4
ENDMDL
MODEL      102
REMARK 921   NORMALIZED FREE ENERGY PREDICTED BY IDOCK:   -2.77 KCAL/MOL
REMARK 922        TOTAL FREE ENERGY PREDICTED BY IDOCK:   -3.92 KCAL/MOL
REMARK 923 INTER-LIGAND FREE ENERGY PREDICTED BY IDOCK:   -3.20 KCAL/MOL
REMARK 924 INTRA-LIGAND FREE ENERGY PREDICTED BY IDOCK:   -0.72 KCAL/MOL
REMARK 927      BINDING AFFINITY PREDICTED BY RF-SCORE:    0.00 PKD
ROOT
ATOM      1  NZ  LYS A   1     -12.457  14.203  66.872  1.00  0.00    -0.549 NA 
ATOM      2  HZ2 LYS A   1     -12.363  15.105  66.407  1.00  0.00     0.000 HD 
ATOM      3  CE  LYS A   1     -11.810  13.140  66.109  1.00  0.00    -0.401 C  
ATOM      4  HZ1 LYS A   1     -13.434  13.985  67.069  1.00  0.00     0.000 HD 
ENDROOT
BRANCH   3   5
ATOM      5  CD  LYS A   1     -10.344  13.467  65.815  1.00  0.00    -0.296 C  
BRANCH   5   6
ATOM      6  CG  LYS A   1      -9.459  13.332  67.059  1.00  0.00    -0.243 C  
BRANCH   6   7
ATOM      7  CB  LYS A   1      -8.839  14.668  67.473  1.00  0.00    -0.191 C  
BRANCH   7   8
ATOM      8  CA  LYS A   1      -9.396  15.198  68.803  1.00  0.00    -0.200 C  
ATOM      9  N   LYS A   1     -10.397  14.264  69.398  1.00  0.00    -0.430 NA 
ATOM     10  C   LYS A   1     -10.101  16.539  68.545  1.00  0.00    -0.255 C  
ATOM     11  OXT LYS A   1      -9.544  17.617  68.408  1.00  0.00    -0.285 OA 
ATOM     12  O   LYS A   1     -11.448  16.370  68.458  1.00  0.00    -0.351 OA 
ATOM     13  H1  LYS A   1     -10.767  14.616  70.280  1.00  0.00     0.000 HD 
ATOM     14  H2  LYS A   1     -10.012  13.325  69.504  1.00  0.00     0.000 HD 
ENDBRANCH   7   8
ENDBRANCH   6   7
ENDBRANCH   5   6
ENDBRANCH   3   5
TORSDOF 4
ENDMDL
MODEL      103
REMARK 921   NORMALIZED FREE ENERGY PREDICTED BY IDOCK:   -2.75 KCAL/MOL
REMARK 922        TOTAL FREE ENERGY PREDICTED BY IDOCK:   -3.90 KCAL/MOL
REMARK 923 INTER-LIGAND FREE ENERGY PREDICTED BY IDOCK:   -3.74 KCAL/MOL
REMARK 924 INTRA-LIGAND FREE ENERGY PREDICTED BY IDOCK:   -0.15 KCAL/MOL
REMARK 927      BINDING AFFINITY PREDICTED BY RF-SCORE:    0.00 PKD
ROOT
ATOM      1  NZ  LYS A   1      -7.651  11.921  66.542  1.00  0.00    -0.373 NA 
ATOM      2  HZ2 LYS A   1      -6.758  12.350  66.301  1.00  0.00     0.000 HD 
ATOM      3  CE  LYS A   1      -8.474  12.820  67.345  1.00  0.00    -0.191 C  
ATOM      4  HZ1 LYS A   1      -7.519  11.019  67.002  1.00  0.00     0.000 HD 
ENDROOT
BRANCH   3   5
ATOM      5  CD  LYS A   1      -8.673  14.172  66.655  1.00  0.00    -0.073 C  
BRANCH   5   6
ATOM      6  CG  LYS A   1     -10.152  14.481  66.400  1.00  0.00    -0.293 C  
BRANCH   6   7
ATOM      7  CB  LYS A   1     -10.501  14.435  64.912  1.00  0.00    -0.448 C  
BRANCH   7   8
ATOM      8  CA  LYS A   1     -11.703  13.528  64.608  1.00  0.00    -0.381 C  
ATOM      9  N   LYS A   1     -12.951  14.023  65.261  1.00  0.00    -0.767 NA 
ATOM     10  C   LYS A   1     -11.414  12.122  65.154  1.00  0.00    -0.323 C  
ATOM     11  OXT LYS A   1     -10.710  11.283  64.613  1.00  0.00    -0.321 OA 
ATOM     12  O   LYS A   1     -12.026  11.931  66.354  1.00  0.00    -0.572 OA 
ATOM     13  H1  LYS A   1     -13.749  13.421  65.060  1.00  0.00     0.000 HD 
ATOM     14  H2  LYS A   1     -13.144  14.992  65.008  1.00  0.00     0.000 HD 
ENDBRANCH   7   8
ENDBRANCH   6   7
ENDBRANCH   5   6
ENDBRANCH   3   5
TORSDOF 4
ENDMDL
MODEL      104
REMARK 921   NORMALIZED FREE ENERGY PREDICTED BY IDOCK:   -2.72 KCAL/MOL
REMARK 922        TOTAL FREE ENERGY PREDICTED BY IDOCK:   -3.86 KCAL/MOL
REMARK 923 INTER-LIGAND FREE ENERGY PREDICTED BY IDOCK:   -3.45 KCAL/MOL
REMARK 924 INTRA-LIGAND FREE ENERGY PREDICTED BY IDOCK:   -0.40 KCAL/MOL
REMARK 927      BINDING AFFINITY PREDICTED BY RF-SCORE:    0.00 PKD
ROOT
ATOM      1  NZ  LYS A   1     -10.493   5.271  70.181  1.00  0.00    -0.286 NA 
ATOM      2  HZ2 LYS A   1     -11.076   6.107  70.124  1.00  0.00     0.000 HD 
ATOM      3  CE  LYS A   1      -9.264   5.528  70.924  1.00  0.00    -0.151 C  
ATOM      4  HZ1 LYS A   1     -10.300   4.889  69.255  1.00  0.00     0.000 HD 
ENDROOT
BRANCH   3   5
ATOM      5  CD  LYS A   1      -9.553   6.102  72.314  1.00  0.00    -0.162 C  
BRANCH   5   6
ATOM      6  CG  LYS A   1      -9.850   7.605  72.270  1.00  0.00    -0.229 C  
BRANCH   6   7
ATOM      7  CB  LYS A   1     -11.252   7.930  72.788  1.00  0.00    -0.466 C  
BRANCH   7   8
ATOM      8  CA  LYS A   1     -12.323   7.875  71.689  1.00  0.00    -0.315 C  
ATOM      9  N   LYS A   1     -11.756   8.192  70.344  1.00  0.00    -0.474 NA 
ATOM     10  C   LYS A   1     -13.406   8.920  71.998  1.00  0.00    -0.421 C  
ATOM     11  OXT LYS A   1     -14.307   8.785  72.811  1.00  0.00    -0.569 OA 
ATOM     12  O   LYS A   1     -13.217  10.048  71.262  1.00  0.00    -0.381 OA 
ATOM     13  H1  LYS A   1     -12.466   8.155  69.614  1.00  0.00     0.000 HD 
ATOM     14  H2  LYS A   1     -10.964   7.586  70.123  1.00  0.00     0.000 HD 
ENDBRANCH   7   8
ENDBRANCH   6   7
ENDBRANCH   5   6
ENDBRANCH   3   5
TORSDOF 4
ENDMDL
MODEL      105
REMARK 921   NORMALIZED FREE ENERGY PREDICTED BY IDOCK:   -2.71 KCAL/MOL
REMARK 922        TOTAL FREE ENERGY PREDICTED BY IDOCK:   -3.85 KCAL/MOL
REMARK 923 INTER-LIGAND FREE ENERGY PREDICTED BY IDOCK:   -3.49 KCAL/MOL
REMARK 924 INTRA-LIGAND FREE ENERGY PREDICTED BY IDOCK:   -0.36 KCAL/MOL
REMARK 927      BINDING AFFINITY PREDICTED BY RF-SCORE:    0.00 PKD
ROOT
ATOM      1  NZ  LYS A   1     -12.087  10.918  68.292  1.00  0.00    -0.810 NA 
ATOM      2  HZ2 LYS A   1     -11.373  11.039  67.574  1.00  0.00     0.000 HD 
ATOM      3  CE  LYS A   1     -11.793  11.719  69.476  1.00  0.00    -0.337 C  
ATOM      4  HZ1 LYS A   1     -12.216   9.933  68.526  1.00  0.00     0.000 HD 
ENDROOT
BRANCH   3   5
ATOM      5  CD  LYS A   1     -11.601  13.196  69.126  1.00  0.00    -0.368 C  
BRANCH   5   6
ATOM      6  CG  LYS A   1     -11.875  13.481  67.645  1.00  0.00    -0.399 C  
BRANCH   6   7
ATOM      7  CB  LYS A   1     -10.716  14.224  66.978  1.00  0.00    -0.290 C  
BRANCH   7   8
ATOM      8  CA  LYS A   1     -10.227  13.538  65.694  1.00  0.00    -0.296 C  
ATOM      9  N   LYS A   1     -11.339  13.320  64.722  1.00  0.00    -0.315 NA 
ATOM     10  C   LYS A   1      -9.647  12.162  66.058  1.00  0.00    -0.231 C  
ATOM     11  OXT LYS A   1      -8.536  11.963  66.526  1.00  0.00    -0.183 OA 
ATOM     12  O   LYS A   1     -10.551  11.174  65.817  1.00  0.00    -0.259 OA 
ATOM     13  H1  LYS A   1     -11.014  12.864  63.870  1.00  0.00     0.000 HD 
ATOM     14  H2  LYS A   1     -11.826  14.192  64.515  1.00  0.00     0.000 HD 
ENDBRANCH   7   8
ENDBRANCH   6   7
ENDBRANCH   5   6
ENDBRANCH   3   5
TORSDOF 4
ENDMDL
MODEL      106
REMARK 921   NORMALIZED FREE ENERGY PREDICTED BY IDOCK:   -2.71 KCAL/MOL
REMARK 922        TOTAL FREE ENERGY PREDICTED BY IDOCK:   -3.85 KCAL/MOL
REMARK 923 INTER-LIGAND FREE ENERGY PREDICTED BY IDOCK:   -3.74 KCAL/MOL
REMARK 924 INTRA-LIGAND FREE ENERGY PREDICTED BY IDOCK:   -0.11 KCAL/MOL
REMARK 927      BINDING AFFINITY PREDICTED BY RF-SCORE:    0.00 PKD
ROOT
ATOM      1  NZ  LYS A   1     -14.105   8.939  73.148  1.00  0.00    -1.225 NA 
ATOM      2  HZ2 LYS A   1     -13.494   8.814  73.956  1.00  0.00     0.000 HD 
ATOM      3  CE  LYS A   1     -13.507   9.836  72.164  1.00  0.00    -0.399 C  
ATOM      4  HZ1 LYS A   1     -15.034   9.253  73.429  1.00  0.00     0.000 HD 
ENDROOT
BRANCH   3   5
ATOM      5  CD  LYS A   1     -12.113   9.365  71.742  1.00  0.00    -0.454 C  
BRANCH   5   6
ATOM      6  CG  LYS A   1     -11.686   8.089  72.475  1.00  0.00    -0.446 C  
BRANCH   6   7
ATOM      7  CB  LYS A   1     -10.180   7.844  72.374  1.00  0.00    -0.327 C  
BRANCH   7   8
ATOM      8  CA  LYS A   1      -9.824   6.698  71.415  1.00  0.00    -0.179 C  
ATOM      9  N   LYS A   1     -11.036   6.129  70.755  1.00  0.00    -0.303 NA 
ATOM     10  C   LYS A   1      -9.156   5.570  72.217  1.00  0.00    -0.142 C  
ATOM     11  OXT LYS A   1      -7.991   5.557  72.583  1.00  0.00    -0.101 OA 
ATOM     12  O   LYS A   1     -10.046   4.582  72.501  1.00  0.00    -0.163 OA 
ATOM     13  H1  LYS A   1     -10.801   5.368  70.118  1.00  0.00     0.000 HD 
ATOM     14  H2  LYS A   1     -11.576   6.855  70.282  1.00  0.00     0.000 HD 
ENDBRANCH   7   8
ENDBRANCH   6   7
ENDBRANCH   5   6
ENDBRANCH   3   5
TORSDOF 4
ENDMDL
MODEL      107
REMARK 921   NORMALIZED FREE ENERGY PREDICTED BY IDOCK:   -2.71 KCAL/MOL
REMARK 922        TOTAL FREE ENERGY PREDICTED BY IDOCK:   -3.85 KCAL/MOL
REMARK 923 INTER-LIGAND FREE ENERGY PREDICTED BY IDOCK:   -3.20 KCAL/MOL
REMARK 924 INTRA-LIGAND FREE ENERGY PREDICTED BY IDOCK:   -0.65 KCAL/MOL
REMARK 927      BINDING AFFINITY PREDICTED BY RF-SCORE:    0.00 PKD
ROOT
ATOM      1  NZ  LYS A   1     -11.771  14.654  65.738  1.00  0.00    -0.335 NA 
ATOM      2  HZ2 LYS A   1     -11.409  15.015  64.855  1.00  0.00     0.000 HD 
ATOM      3  CE  LYS A   1     -10.865  13.673  66.325  1.00  0.00    -0.282 C  
ATOM      4  HZ1 LYS A   1     -12.713  14.279  65.627  1.00  0.00     0.000 HD 
ENDROOT
BRANCH   3   5
ATOM      5  CD  LYS A   1      -9.452  14.238  66.491  1.00  0.00    -0.306 C  
BRANCH   5   6
ATOM      6  CG  LYS A   1      -9.256  14.919  67.850  1.00  0.00    -0.183 C  
BRANCH   6   7
ATOM      7  CB  LYS A   1      -8.577  16.283  67.717  1.00  0.00    -0.175 C  
BRANCH   7   8
ATOM      8  CA  LYS A   1      -9.578  17.449  67.692  1.00  0.00    -0.261 C  
ATOM      9  N   LYS A   1     -10.965  16.996  68.008  1.00  0.00    -0.324 NA 
ATOM     10  C   LYS A   1      -9.595  18.057  66.281  1.00  0.00    -0.238 C  
ATOM     11  OXT LYS A   1      -8.762  18.831  65.834  1.00  0.00    -0.471 OA 
ATOM     12  O   LYS A   1     -10.656  17.597  65.566  1.00  0.00    -0.622 OA 
ATOM     13  H1  LYS A   1     -11.630  17.769  67.992  1.00  0.00     0.000 HD 
ATOM     14  H2  LYS A   1     -10.999  16.497  68.898  1.00  0.00     0.000 HD 
ENDBRANCH   7   8
ENDBRANCH   6   7
ENDBRANCH   5   6
ENDBRANCH   3   5
TORSDOF 4
ENDMDL
MODEL      108
REMARK 921   NORMALIZED FREE ENERGY PREDICTED BY IDOCK:   -2.70 KCAL/MOL
REMARK 922        TOTAL FREE ENERGY PREDICTED BY IDOCK:   -3.83 KCAL/MOL
REMARK 923 INTER-LIGAND FREE ENERGY PREDICTED BY IDOCK:   -3.75 KCAL/MOL
REMARK 924 INTRA-LIGAND FREE ENERGY PREDICTED BY IDOCK:   -0.08 KCAL/MOL
REMARK 927      BINDING AFFINITY PREDICTED BY RF-SCORE:    0.00 PKD
ROOT
ATOM      1  NZ  LYS A   1      -6.692  18.715  65.178  1.00  0.00    -0.522 NA 
ATOM      2  HZ2 LYS A   1      -6.871  19.658  64.834  1.00  0.00     0.000 HD 
ATOM      3  CE  LYS A   1      -7.014  18.595  66.597  1.00  0.00    -0.209 C  
ATOM      4  HZ1 LYS A   1      -5.734  18.423  64.983  1.00  0.00     0.000 HD 
ENDROOT
BRANCH   3   5
ATOM      5  CD  LYS A   1      -8.451  19.033  66.889  1.00  0.00    -0.302 C  
BRANCH   5   6
ATOM      6  CG  LYS A   1      -9.470  18.302  66.008  1.00  0.00    -0.038 C  
BRANCH   6   7
ATOM      7  CB  LYS A   1      -9.444  16.789  66.233  1.00  0.00    -0.314 C  
BRANCH   7   8
ATOM      8  CA  LYS A   1     -10.841  16.152  66.166  1.00  0.00    -0.138 C  
ATOM      9  N   LYS A   1     -10.924  14.910  66.991  1.00  0.00    -0.320 NA 
ATOM     10  C   LYS A   1     -11.142  15.769  64.709  1.00  0.00    -0.400 C  
ATOM     11  OXT LYS A   1     -11.508  16.539  63.836  1.00  0.00    -1.145 OA 
ATOM     12  O   LYS A   1     -10.917  14.443  64.499  1.00  0.00    -0.363 OA 
ATOM     13  H1  LYS A   1     -11.851  14.487  66.947  1.00  0.00     0.000 HD 
ATOM     14  H2  LYS A   1     -10.641  15.085  67.955  1.00  0.00     0.000 HD 
ENDBRANCH   7   8
ENDBRANCH   6   7
ENDBRANCH   5   6
ENDBRANCH   3   5
TORSDOF 4
ENDMDL
MODEL      109
REMARK 921   NORMALIZED FREE ENERGY PREDICTED BY IDOCK:   -2.69 KCAL/MOL
REMARK 922        TOTAL FREE ENERGY PREDICTED BY IDOCK:   -3.82 KCAL/MOL
REMARK 923 INTER-LIGAND FREE ENERGY PREDICTED BY IDOCK:   -4.07 KCAL/MOL
REMARK 924 INTRA-LIGAND FREE ENERGY PREDICTED BY IDOCK:    0.24 KCAL/MOL
REMARK 927      BINDING AFFINITY PREDICTED BY RF-SCORE:    0.00 PKD
ROOT
ATOM      1  NZ  LYS A   1      -6.715  13.987  67.117  1.00  0.00    -0.386 NA 
ATOM      2  HZ2 LYS A   1      -6.294  14.546  67.859  1.00  0.00     0.000 HD 
ATOM      3  CE  LYS A   1      -7.968  13.379  67.553  1.00  0.00    -0.183 C  
ATOM      4  HZ1 LYS A   1      -6.062  13.290  66.760  1.00  0.00     0.000 HD 
ENDROOT
BRANCH   3   5
ATOM      5  CD  LYS A   1      -8.949  14.425  68.089  1.00  0.00    -0.185 C  
BRANCH   5   6
ATOM      6  CG  LYS A   1     -10.248  14.470  67.278  1.00  0.00    -0.255 C  
BRANCH   6   7
ATOM      7  CB  LYS A   1     -10.554  15.876  66.758  1.00  0.00    -0.309 C  
BRANCH   7   8
ATOM      8  CA  LYS A   1     -10.449  15.984  65.230  1.00  0.00    -0.358 C  
ATOM      9  N   LYS A   1     -11.209  17.155  64.702  1.00  0.00    -0.959 NA 
ATOM     10  C   LYS A   1     -11.046  14.716  64.601  1.00  0.00    -0.334 C  
ATOM     11  OXT LYS A   1     -10.482  13.636  64.512  1.00  0.00    -0.430 OA 
ATOM     12  O   LYS A   1     -12.318  14.939  64.173  1.00  0.00    -0.668 OA 
ATOM     13  H1  LYS A   1     -11.139  17.227  63.687  1.00  0.00     0.000 HD 
ATOM     14  H2  LYS A   1     -10.918  18.021  65.156  1.00  0.00     0.000 HD 
ENDBRANCH   7   8
ENDBRANCH   6   7
ENDBRANCH   5   6
ENDBRANCH   3   5
TORSDOF 4
ENDMDL
MODEL      110
REMARK 921   NORMALIZED FREE ENERGY PREDICTED BY IDOCK:   -2.69 KCAL/MOL
REMARK 922        TOTAL FREE ENERGY PREDICTED BY IDOCK:   -3.82 KCAL/MOL
REMARK 923 INTER-LIGAND FREE ENERGY PREDICTED BY IDOCK:   -3.07 KCAL/MOL
REMARK 924 INTRA-LIGAND FREE ENERGY PREDICTED BY IDOCK:   -0.75 KCAL/MOL
REMARK 927      BINDING AFFINITY PREDICTED BY RF-SCORE:    0.00 PKD
ROOT
ATOM      1  NZ  LYS A   1     -10.406  18.435  68.832  1.00  0.00    -0.454 NA 
ATOM      2  HZ2 LYS A   1      -9.467  18.833  68.793  1.00  0.00     0.000 HD 
ATOM      3  CE  LYS A   1     -10.548  17.314  67.909  1.00  0.00    -0.384 C  
ATOM      4  HZ1 LYS A   1     -11.119  19.148  68.672  1.00  0.00     0.000 HD 
ENDROOT
BRANCH   3   5
ATOM      5  CD  LYS A   1      -9.479  16.245  68.149  1.00  0.00    -0.215 C  
BRANCH   5   6
ATOM      6  CG  LYS A   1      -8.165  16.844  68.662  1.00  0.00    -0.254 C  
BRANCH   6   7
ATOM      7  CB  LYS A   1      -7.267  17.324  67.521  1.00  0.00    -0.180 C  
BRANCH   7   8
ATOM      8  CA  LYS A   1      -6.998  18.836  67.568  1.00  0.00    -0.202 C  
ATOM      9  N   LYS A   1      -7.582  19.466  68.789  1.00  0.00    -0.356 NA 
ATOM     10  C   LYS A   1      -7.652  19.493  66.343  1.00  0.00    -0.281 C  
ATOM     11  OXT LYS A   1      -7.191  19.499  65.212  1.00  0.00    -0.415 OA 
ATOM     12  O   LYS A   1      -8.846  20.056  66.672  1.00  0.00    -0.329 OA 
ATOM     13  H1  LYS A   1      -7.404  20.470  68.820  1.00  0.00     0.000 HD 
ATOM     14  H2  LYS A   1      -7.255  19.004  69.638  1.00  0.00     0.000 HD 
ENDBRANCH   7   8
ENDBRANCH   6   7
ENDBRANCH   5   6
ENDBRANCH   3   5
TORSDOF 4
ENDMDL
MODEL      111
REMARK 921   NORMALIZED FREE ENERGY PREDICTED BY IDOCK:   -2.68 KCAL/MOL
REMARK 922        TOTAL FREE ENERGY PREDICTED BY IDOCK:   -3.80 KCAL/MOL
REMARK 923 INTER-LIGAND FREE ENERGY PREDICTED BY IDOCK:   -3.69 KCAL/MOL
REMARK 924 INTRA-LIGAND FREE ENERGY PREDICTED BY IDOCK:   -0.11 KCAL/MOL
REMARK 927      BINDING AFFINITY PREDICTED BY RF-SCORE:    0.00 PKD
ROOT
ATOM      1  NZ  LYS A   1     -13.306  15.040  73.265  1.00  0.00    -0.536 NA 
ATOM      2  HZ2 LYS A   1     -12.361  15.424  73.248  1.00  0.00     0.000 HD 
ATOM      3  CE  LYS A   1     -13.754  14.668  71.927  1.00  0.00    -0.419 C  
ATOM      4  HZ1 LYS A   1     -13.959  15.680  73.718  1.00  0.00     0.000 HD 
ENDROOT
BRANCH   3   5
ATOM      5  CD  LYS A   1     -12.774  13.708  71.249  1.00  0.00    -0.443 C  
BRANCH   5   6
ATOM      6  CG  LYS A   1     -12.292  14.234  69.892  1.00  0.00    -0.377 C  
BRANCH   6   7
ATOM      7  CB  LYS A   1     -11.282  13.291  69.236  1.00  0.00    -0.266 C  
BRANCH   7   8
ATOM      8  CA  LYS A   1     -11.892  11.934  68.855  1.00  0.00    -0.307 C  
ATOM      9  N   LYS A   1     -11.271  10.812  69.620  1.00  0.00    -0.269 NA 
ATOM     10  C   LYS A   1     -11.640  11.679  67.361  1.00  0.00    -0.254 C  
ATOM     11  OXT LYS A   1     -12.279  12.166  66.442  1.00  0.00    -0.592 OA 
ATOM     12  O   LYS A   1     -10.576  10.850  67.182  1.00  0.00    -0.227 OA 
ATOM     13  H1  LYS A   1     -11.675   9.910  69.367  1.00  0.00     0.000 HD 
ATOM     14  H2  LYS A   1     -11.324  10.974  70.626  1.00  0.00     0.000 HD 
ENDBRANCH   7   8
ENDBRANCH   6   7
ENDBRANCH   5   6
ENDBRANCH   3   5
TORSDOF 4
ENDMDL
MODEL      112
REMARK 921   NORMALIZED FREE ENERGY PREDICTED BY IDOCK:   -2.67 KCAL/MOL
REMARK 922        TOTAL FREE ENERGY PREDICTED BY IDOCK:   -3.79 KCAL/MOL
REMARK 923 INTER-LIGAND FREE ENERGY PREDICTED BY IDOCK:   -3.39 KCAL/MOL
REMARK 924 INTRA-LIGAND FREE ENERGY PREDICTED BY IDOCK:   -0.40 KCAL/MOL
REMARK 927      BINDING AFFINITY PREDICTED BY RF-SCORE:    0.00 PKD
ROOT
ATOM      1  NZ  LYS A   1     -11.403   4.374  64.971  1.00  0.00    -1.102 NA 
ATOM      2  HZ2 LYS A   1     -11.427   5.271  65.456  1.00  0.00     0.000 HD 
ATOM      3  CE  LYS A   1     -10.062   4.067  64.484  1.00  0.00    -0.200 C  
ATOM      4  HZ1 LYS A   1     -12.094   4.338  64.221  1.00  0.00     0.000 HD 
ENDROOT
BRANCH   3   5
ATOM      5  CD  LYS A   1      -9.026   4.120  65.610  1.00  0.00    -0.130 C  
BRANCH   5   6
ATOM      6  CG  LYS A   1      -9.669   3.995  66.995  1.00  0.00    -0.214 C  
BRANCH   6   7
ATOM      7  CB  LYS A   1      -9.443   5.244  67.849  1.00  0.00    -0.146 C  
BRANCH   7   8
ATOM      8  CA  LYS A   1     -10.754   5.898  68.310  1.00  0.00    -0.243 C  
ATOM      9  N   LYS A   1     -11.503   6.506  67.170  1.00  0.00    -0.745 NA 
ATOM     10  C   LYS A   1     -10.425   7.020  69.306  1.00  0.00    -0.210 C  
ATOM     11  OXT LYS A   1     -10.149   6.862  70.485  1.00  0.00    -0.187 OA 
ATOM     12  O   LYS A   1     -10.450   8.235  68.694  1.00  0.00    -0.211 OA 
ATOM     13  H1  LYS A   1     -12.373   6.940  67.476  1.00  0.00     0.000 HD 
ATOM     14  H2  LYS A   1     -11.668   5.824  66.429  1.00  0.00     0.000 HD 
ENDBRANCH   7   8
ENDBRANCH   6   7
ENDBRANCH   5   6
ENDBRANCH   3   5
TORSDOF 4
ENDMDL
MODEL      113
REMARK 921   NORMALIZED FREE ENERGY PREDICTED BY IDOCK:   -2.66 KCAL/MOL
REMARK 922        TOTAL FREE ENERGY PREDICTED BY IDOCK:   -3.79 KCAL/MOL
REMARK 923 INTER-LIGAND FREE ENERGY PREDICTED BY IDOCK:   -3.38 KCAL/MOL
REMARK 924 INTRA-LIGAND FREE ENERGY PREDICTED BY IDOCK:   -0.41 KCAL/MOL
REMARK 927      BINDING AFFINITY PREDICTED BY RF-SCORE:    0.00 PKD
ROOT
ATOM      1  NZ  LYS A   1     -11.026  11.654  69.567  1.00  0.00    -0.444 NA 
ATOM      2  HZ2 LYS A   1     -11.936  11.322  69.248  1.00  0.00     0.000 HD 
ATOM      3  CE  LYS A   1      -9.963  10.720  69.208  1.00  0.00    -0.159 C  
ATOM      4  HZ1 LYS A   1     -11.032  11.852  70.568  1.00  0.00     0.000 HD 
ENDROOT
BRANCH   3   5
ATOM      5  CD  LYS A   1      -9.955  10.423  67.707  1.00  0.00    -0.203 C  
BRANCH   5   6
ATOM      6  CG  LYS A   1     -11.191  10.986  66.997  1.00  0.00    -0.255 C  
BRANCH   6   7
ATOM      7  CB  LYS A   1     -10.830  12.085  65.997  1.00  0.00    -0.329 C  
BRANCH   7   8
ATOM      8  CA  LYS A   1     -11.322  13.474  66.434  1.00  0.00    -0.316 C  
ATOM      9  N   LYS A   1     -12.384  13.384  67.479  1.00  0.00    -0.219 NA 
ATOM     10  C   LYS A   1     -11.924  14.191  65.215  1.00  0.00    -0.381 C  
ATOM     11  OXT LYS A   1     -11.286  14.750  64.337  1.00  0.00    -0.313 OA 
ATOM     12  O   LYS A   1     -13.282  14.101  65.220  1.00  0.00    -0.760 OA 
ATOM     13  H1  LYS A   1     -12.711  14.305  67.768  1.00  0.00     0.000 HD 
ATOM     14  H2  LYS A   1     -12.072  12.832  68.279  1.00  0.00     0.000 HD 
ENDBRANCH   7   8
ENDBRANCH   6   7
ENDBRANCH   5   6
ENDBRANCH   3   5
TORSDOF 4
ENDMDL
MODEL      114
REMARK 921   NORMALIZED FREE ENERGY PREDICTED BY IDOCK:   -2.66 KCAL/MOL
REMARK 922        TOTAL FREE ENERGY PREDICTED BY IDOCK:   -3.78 KCAL/MOL
REMARK 923 INTER-LIGAND FREE ENERGY PREDICTED BY IDOCK:   -3.71 KCAL/MOL
REMARK 924 INTRA-LIGAND FREE ENERGY PREDICTED BY IDOCK:   -0.07 KCAL/MOL
REMARK 927      BINDING AFFINITY PREDICTED BY RF-SCORE:    0.00 PKD
ROOT
ATOM      1  NZ  LYS A   1     -13.154  15.772  72.354  1.00  0.00    -0.457 NA 
ATOM      2  HZ2 LYS A   1     -12.350  16.332  72.640  1.00  0.00     0.000 HD 
ATOM      3  CE  LYS A   1     -13.150  15.532  70.915  1.00  0.00    -0.448 C  
ATOM      4  HZ1 LYS A   1     -14.030  16.194  72.664  1.00  0.00     0.000 HD 
ENDROOT
BRANCH   3   5
ATOM      5  CD  LYS A   1     -11.836  14.899  70.451  1.00  0.00    -0.352 C  
BRANCH   5   6
ATOM      6  CG  LYS A   1     -10.801  15.950  70.035  1.00  0.00    -0.356 C  
BRANCH   6   7
ATOM      7  CB  LYS A   1     -11.040  16.461  68.613  1.00  0.00    -0.352 C  
BRANCH   7   8
ATOM      8  CA  LYS A   1      -9.743  16.877  67.902  1.00  0.00    -0.254 C  
ATOM      9  N   LYS A   1      -9.192  18.151  68.451  1.00  0.00    -0.300 NA 
ATOM     10  C   LYS A   1     -10.044  17.100  66.412  1.00  0.00    -0.320 C  
ATOM     11  OXT LYS A   1     -10.161  16.219  65.574  1.00  0.00    -0.477 OA 
ATOM     12  O   LYS A   1     -10.197  18.424  66.140  1.00  0.00    -0.396 OA 
ATOM     13  H1  LYS A   1      -8.331  18.427  67.979  1.00  0.00     0.000 HD 
ATOM     14  H2  LYS A   1      -9.060  18.093  69.461  1.00  0.00     0.000 HD 
ENDBRANCH   7   8
ENDBRANCH   6   7
ENDBRANCH   5   6
ENDBRANCH   3   5
TORSDOF 4
ENDMDL
MODEL      115
REMARK 921   NORMALIZED FREE ENERGY PREDICTED BY IDOCK:   -2.65 KCAL/MOL
REMARK 922        TOTAL FREE ENERGY PREDICTED BY IDOCK:   -3.77 KCAL/MOL
REMARK 923 INTER-LIGAND FREE ENERGY PREDICTED BY IDOCK:   -3.66 KCAL/MOL
REMARK 924 INTRA-LIGAND FREE ENERGY PREDICTED BY IDOCK:   -0.11 KCAL/MOL
REMARK 927      BINDING AFFINITY PREDICTED BY RF-SCORE:    0.00 PKD
ROOT
ATOM      1  NZ  LYS A   1      -8.479  17.245  65.922  1.00  0.00    -0.542 NA 
ATOM      2  HZ2 LYS A   1      -9.069  17.945  65.471  1.00  0.00     0.000 HD 
ATOM      3  CE  LYS A   1      -9.251  16.401  66.827  1.00  0.00    -0.237 C  
ATOM      4  HZ1 LYS A   1      -7.684  17.676  66.394  1.00  0.00     0.000 HD 
ENDROOT
BRANCH   3   5
ATOM      5  CD  LYS A   1     -10.443  15.754  66.119  1.00  0.00    -0.326 C  
BRANCH   5   6
ATOM      6  CG  LYS A   1     -11.399  15.067  67.101  1.00  0.00    -0.323 C  
BRANCH   6   7
ATOM      7  CB  LYS A   1     -11.495  15.819  68.430  1.00  0.00    -0.367 C  
BRANCH   7   8
ATOM      8  CA  LYS A   1     -11.437  14.886  69.649  1.00  0.00    -0.294 C  
ATOM      9  N   LYS A   1     -12.180  13.613  69.411  1.00  0.00    -0.302 NA 
ATOM     10  C   LYS A   1     -12.091  15.593  70.846  1.00  0.00    -0.407 C  
ATOM     11  OXT LYS A   1     -11.562  16.448  71.539  1.00  0.00    -0.437 OA 
ATOM     12  O   LYS A   1     -13.369  15.163  71.025  1.00  0.00    -0.424 OA 
ATOM     13  H1  LYS A   1     -12.141  12.994  70.220  1.00  0.00     0.000 HD 
ATOM     14  H2  LYS A   1     -11.850  13.143  68.567  1.00  0.00     0.000 HD 
ENDBRANCH   7   8
ENDBRANCH   6   7
ENDBRANCH   5   6
ENDBRANCH   3   5
TORSDOF 4
ENDMDL
MODEL      116
REMARK 921   NORMALIZED FREE ENERGY PREDICTED BY IDOCK:   -2.64 KCAL/MOL
REMARK 922        TOTAL FREE ENERGY PREDICTED BY IDOCK:   -3.76 KCAL/MOL
REMARK 923 INTER-LIGAND FREE ENERGY PREDICTED BY IDOCK:   -3.65 KCAL/MOL
REMARK 924 INTRA-LIGAND FREE ENERGY PREDICTED BY IDOCK:   -0.11 KCAL/MOL
REMARK 927      BINDING AFFINITY PREDICTED BY RF-SCORE:    0.00 PKD
ROOT
ATOM      1  NZ  LYS A   1     -12.902  14.440  70.222  1.00  0.00    -0.490 NA 
ATOM      2  HZ2 LYS A   1     -12.482  14.170  71.112  1.00  0.00     0.000 HD 
ATOM      3  CE  LYS A   1     -12.028  14.113  69.100  1.00  0.00    -0.349 C  
ATOM      4  HZ1 LYS A   1     -13.166  15.426  70.220  1.00  0.00     0.000 HD 
ENDROOT
BRANCH   3   5
ATOM      5  CD  LYS A   1     -11.632  12.634  69.105  1.00  0.00    -0.374 C  
BRANCH   5   6
ATOM      6  CG  LYS A   1     -12.284  11.863  70.258  1.00  0.00    -0.353 C  
BRANCH   6   7
ATOM      7  CB  LYS A   1     -11.940  10.373  70.221  1.00  0.00    -0.387 C  
BRANCH   7   8
ATOM      8  CA  LYS A   1     -11.682   9.785  71.616  1.00  0.00    -0.318 C  
ATOM      9  N   LYS A   1     -10.532   8.834  71.614  1.00  0.00    -0.289 NA 
ATOM     10  C   LYS A   1     -12.930   9.010  72.066  1.00  0.00    -0.407 C  
ATOM     11  OXT LYS A   1     -13.948   9.510  72.520  1.00  0.00    -0.370 OA 
ATOM     12  O   LYS A   1     -12.772   7.674  71.864  1.00  0.00    -0.312 OA 
ATOM     13  H1  LYS A   1     -10.360   8.443  72.541  1.00  0.00     0.000 HD 
ATOM     14  H2  LYS A   1      -9.691   9.269  71.233  1.00  0.00     0.000 HD 
ENDBRANCH   7   8
ENDBRANCH   6   7
ENDBRANCH   5   6
ENDBRANCH   3   5
TORSDOF 4
ENDMDL
MODEL      117
REMARK 921   NORMALIZED FREE ENERGY PREDICTED BY IDOCK:   -2.64 KCAL/MOL
REMARK 922        TOTAL FREE ENERGY PREDICTED BY IDOCK:   -3.76 KCAL/MOL
REMARK 923 INTER-LIGAND FREE ENERGY PREDICTED BY IDOCK:   -3.55 KCAL/MOL
REMARK 924 INTRA-LIGAND FREE ENERGY PREDICTED BY IDOCK:   -0.21 KCAL/MOL
REMARK 927      BINDING AFFINITY PREDICTED BY RF-SCORE:    0.00 PKD
ROOT
ATOM      1  NZ  LYS A   1     -12.173  10.512  68.591  1.00  0.00    -0.762 NA 
ATOM      2  HZ2 LYS A   1     -12.561   9.569  68.606  1.00  0.00     0.000 HD 
ATOM      3  CE  LYS A   1     -12.085  11.073  69.936  1.00  0.00    -0.361 C  
ATOM      4  HZ1 LYS A   1     -12.697  11.121  67.962  1.00  0.00     0.000 HD 
ENDROOT
BRANCH   3   5
ATOM      5  CD  LYS A   1     -11.298  10.160  70.879  1.00  0.00    -0.420 C  
BRANCH   5   6
ATOM      6  CG  LYS A   1     -12.176   9.587  71.997  1.00  0.00    -0.370 C  
BRANCH   6   7
ATOM      7  CB  LYS A   1     -12.564   8.131  71.735  1.00  0.00    -0.360 C  
BRANCH   7   8
ATOM      8  CA  LYS A   1     -11.389   7.283  71.224  1.00  0.00    -0.264 C  
ATOM      9  N   LYS A   1     -11.808   6.356  70.131  1.00  0.00    -0.469 NA 
ATOM     10  C   LYS A   1     -10.853   6.429  72.383  1.00  0.00    -0.236 C  
ATOM     11  OXT LYS A   1     -10.113   6.825  73.270  1.00  0.00    -0.181 OA 
ATOM     12  O   LYS A   1     -11.335   5.159  72.315  1.00  0.00    -0.126 OA 
ATOM     13  H1  LYS A   1     -11.029   5.793  69.792  1.00  0.00     0.000 HD 
ATOM     14  H2  LYS A   1     -12.261   6.861  69.369  1.00  0.00     0.000 HD 
ENDBRANCH   7   8
ENDBRANCH   6   7
ENDBRANCH   5   6
ENDBRANCH   3   5
TORSDOF 4
ENDMDL
MODEL      118
REMARK 921   NORMALIZED FREE ENERGY PREDICTED BY IDOCK:   -2.63 KCAL/MOL
REMARK 922        TOTAL FREE ENERGY PREDICTED BY IDOCK:   -3.75 KCAL/MOL
REMARK 923 INTER-LIGAND FREE ENERGY PREDICTED BY IDOCK:   -3.59 KCAL/MOL
REMARK 924 INTRA-LIGAND FREE ENERGY PREDICTED BY IDOCK:   -0.16 KCAL/MOL
REMARK 927      BINDING AFFINITY PREDICTED BY RF-SCORE:    0.00 PKD
ROOT
ATOM      1  NZ  LYS A   1     -12.481  10.708  69.257  1.00  0.00    -0.711 NA 
ATOM      2  HZ2 LYS A   1     -12.848   9.801  68.968  1.00  0.00     0.000 HD 
ATOM      3  CE  LYS A   1     -12.628  10.908  70.695  1.00  0.00    -0.346 C  
ATOM      4  HZ1 LYS A   1     -12.907  11.468  68.725  1.00  0.00     0.000 HD 
ENDROOT
BRANCH   3   5
ATOM      5  CD  LYS A   1     -11.989   9.769  71.493  1.00  0.00    -0.488 C  
BRANCH   5   6
ATOM      6  CG  LYS A   1     -10.569   9.451  71.012  1.00  0.00    -0.400 C  
BRANCH   6   7
ATOM      7  CB  LYS A   1     -10.062   8.115  71.558  1.00  0.00    -0.243 C  
BRANCH   7   8
ATOM      8  CA  LYS A   1     -10.723   7.724  72.888  1.00  0.00    -0.385 C  
ATOM      9  N   LYS A   1      -9.717   7.549  73.978  1.00  0.00    -0.399 NA 
ATOM     10  C   LYS A   1     -11.453   6.385  72.705  1.00  0.00    -0.139 C  
ATOM     11  OXT LYS A   1     -12.546   6.240  72.179  1.00  0.00    -0.257 OA 
ATOM     12  O   LYS A   1     -10.705   5.354  73.184  1.00  0.00    -0.222 OA 
ATOM     13  H1  LYS A   1     -10.155   7.290  74.861  1.00  0.00     0.000 HD 
ATOM     14  H2  LYS A   1      -9.135   8.381  74.082  1.00  0.00     0.000 HD 
ENDBRANCH   7   8
ENDBRANCH   6   7
ENDBRANCH   5   6
ENDBRANCH   3   5
TORSDOF 4
ENDMDL
MODEL      119
REMARK 921   NORMALIZED FREE ENERGY PREDICTED BY IDOCK:   -2.62 KCAL/MOL
REMARK 922        TOTAL FREE ENERGY PREDICTED BY IDOCK:   -3.74 KCAL/MOL
REMARK 923 INTER-LIGAND FREE ENERGY PREDICTED BY IDOCK:   -3.58 KCAL/MOL
REMARK 924 INTRA-LIGAND FREE ENERGY PREDICTED BY IDOCK:   -0.15 KCAL/MOL
REMARK 927      BINDING AFFINITY PREDICTED BY RF-SCORE:    0.00 PKD
ROOT
ATOM      1  NZ  LYS A   1     -10.630  19.185  68.231  1.00  0.00    -0.402 NA 
ATOM      2  HZ2 LYS A   1     -11.524  19.087  68.712  1.00  0.00     0.000 HD 
ATOM      3  CE  LYS A   1      -9.857  17.948  68.287  1.00  0.00    -0.348 C  
ATOM      4  HZ1 LYS A   1     -10.099  19.978  68.591  1.00  0.00     0.000 HD 
ENDROOT
BRANCH   3   5
ATOM      5  CD  LYS A   1     -10.654  16.758  67.746  1.00  0.00    -0.341 C  
BRANCH   5   6
ATOM      6  CG  LYS A   1     -10.614  15.555  68.695  1.00  0.00    -0.243 C  
BRANCH   6   7
ATOM      7  CB  LYS A   1     -11.838  14.653  68.532  1.00  0.00    -0.346 C  
BRANCH   7   8
ATOM      8  CA  LYS A   1     -11.467  13.185  68.273  1.00  0.00    -0.314 C  
ATOM      9  N   LYS A   1     -10.127  12.843  68.835  1.00  0.00    -0.431 NA 
ATOM     10  C   LYS A   1     -11.414  12.947  66.756  1.00  0.00    -0.340 C  
ATOM     11  OXT LYS A   1     -12.382  12.777  66.031  1.00  0.00    -0.547 OA 
ATOM     12  O   LYS A   1     -10.131  12.980  66.304  1.00  0.00    -0.270 OA 
ATOM     13  H1  LYS A   1      -9.881  11.868  68.663  1.00  0.00     0.000 HD 
ATOM     14  H2  LYS A   1     -10.072  13.070  69.828  1.00  0.00     0.000 HD 
ENDBRANCH   7   8
ENDBRANCH   6   7
ENDBRANCH   5   6
ENDBRANCH   3   5
TORSDOF 4
ENDMDL
MODEL      120
REMARK 921   NORMALIZED FREE ENERGY PREDICTED BY IDOCK:   -2.62 KCAL/MOL
REMARK 922        TOTAL FREE ENERGY PREDICTED BY IDOCK:   -3.74 KCAL/MOL
REMARK 923 INTER-LIGAND FREE ENERGY PREDICTED BY IDOCK:   -3.61 KCAL/MOL
REMARK 924 INTRA-LIGAND FREE ENERGY PREDICTED BY IDOCK:   -0.12 KCAL/MOL
REMARK 927      BINDING AFFINITY PREDICTED BY RF-SCORE:    0.00 PKD
ROOT
ATOM      1  NZ  LYS A   1      -9.330  10.263  69.667  1.00  0.00    -0.368 NA 
ATOM      2  HZ2 LYS A   1      -8.893  10.886  70.347  1.00  0.00     0.000 HD 
ATOM      3  CE  LYS A   1     -10.599   9.741  70.163  1.00  0.00    -0.285 C  
ATOM      4  HZ1 LYS A   1      -8.697   9.514  69.388  1.00  0.00     0.000 HD 
ENDROOT
BRANCH   3   5
ATOM      5  CD  LYS A   1     -11.549  10.866  70.581  1.00  0.00    -0.341 C  
BRANCH   5   6
ATOM      6  CG  LYS A   1     -12.024  11.698  69.384  1.00  0.00    -0.381 C  
BRANCH   6   7
ATOM      7  CB  LYS A   1     -11.478  13.126  69.424  1.00  0.00    -0.321 C  
BRANCH   7   8
ATOM      8  CA  LYS A   1     -11.186  13.692  68.026  1.00  0.00    -0.267 C  
ATOM      9  N   LYS A   1     -12.354  14.438  67.473  1.00  0.00    -0.600 NA 
ATOM     10  C   LYS A   1     -10.880  12.527  67.073  1.00  0.00    -0.254 C  
ATOM     11  OXT LYS A   1      -9.816  11.933  66.999  1.00  0.00    -0.190 OA 
ATOM     12  O   LYS A   1     -11.973  12.210  66.327  1.00  0.00    -0.605 OA 
ATOM     13  H1  LYS A   1     -12.160  14.814  66.545  1.00  0.00     0.000 HD 
ATOM     14  H2  LYS A   1     -12.664  15.170  68.113  1.00  0.00     0.000 HD 
ENDBRANCH   7   8
ENDBRANCH   6   7
ENDBRANCH   5   6
ENDBRANCH   3   5
TORSDOF 4
ENDMDL
MODEL      121
REMARK 921   NORMALIZED FREE ENERGY PREDICTED BY IDOCK:   -2.62 KCAL/MOL
REMARK 922        TOTAL FREE ENERGY PREDICTED BY IDOCK:   -3.73 KCAL/MOL
REMARK 923 INTER-LIGAND FREE ENERGY PREDICTED BY IDOCK:   -3.60 KCAL/MOL
REMARK 924 INTRA-LIGAND FREE ENERGY PREDICTED BY IDOCK:   -0.13 KCAL/MOL
REMARK 927      BINDING AFFINITY PREDICTED BY RF-SCORE:    0.00 PKD
ROOT
ATOM      1  NZ  LYS A   1     -12.450  14.120  63.817  1.00  0.00    -1.009 NA 
ATOM      2  HZ2 LYS A   1     -11.601  14.030  63.259  1.00  0.00     0.000 HD 
ATOM      3  CE  LYS A   1     -12.573  13.029  64.778  1.00  0.00    -0.397 C  
ATOM      4  HZ1 LYS A   1     -13.277  14.198  63.226  1.00  0.00     0.000 HD 
ENDROOT
BRANCH   3   5
ATOM      5  CD  LYS A   1     -11.332  12.913  65.665  1.00  0.00    -0.344 C  
BRANCH   5   6
ATOM      6  CG  LYS A   1     -10.796  11.478  65.728  1.00  0.00    -0.319 C  
BRANCH   6   7
ATOM      7  CB  LYS A   1     -10.485  10.919  64.339  1.00  0.00    -0.403 C  
BRANCH   7   8
ATOM      8  CA  LYS A   1      -8.988  10.647  64.126  1.00  0.00    -0.198 C  
ATOM      9  N   LYS A   1      -8.501  11.204  62.830  1.00  0.00    -0.457 NA 
ATOM     10  C   LYS A   1      -8.759   9.128  64.099  1.00  0.00    -0.141 C  
ATOM     11  OXT LYS A   1      -8.699   8.403  65.080  1.00  0.00    -0.154 OA 
ATOM     12  O   LYS A   1      -8.659   8.675  62.820  1.00  0.00    -0.178 OA 
ATOM     13  H1  LYS A   1      -7.507  11.024  62.688  1.00  0.00     0.000 HD 
ATOM     14  H2  LYS A   1      -8.713  12.199  62.751  1.00  0.00     0.000 HD 
ENDBRANCH   7   8
ENDBRANCH   6   7
ENDBRANCH   5   6
ENDBRANCH   3   5
TORSDOF 4
ENDMDL
MODEL      122
REMARK 921   NORMALIZED FREE ENERGY PREDICTED BY IDOCK:   -2.61 KCAL/MOL
REMARK 922        TOTAL FREE ENERGY PREDICTED BY IDOCK:   -3.72 KCAL/MOL
REMARK 923 INTER-LIGAND FREE ENERGY PREDICTED BY IDOCK:   -3.61 KCAL/MOL
REMARK 924 INTRA-LIGAND FREE ENERGY PREDICTED BY IDOCK:   -0.12 KCAL/MOL
REMARK 927      BINDING AFFINITY PREDICTED BY RF-SCORE:    0.00 PKD
ROOT
ATOM      1  NZ  LYS A   1     -11.049   5.422  66.195  1.00  0.00    -0.784 NA 
ATOM      2  HZ2 LYS A   1     -10.165   5.002  65.906  1.00  0.00     0.000 HD 
ATOM      3  CE  LYS A   1     -10.853   6.387  67.272  1.00  0.00    -0.385 C  
ATOM      4  HZ1 LYS A   1     -11.734   4.709  66.448  1.00  0.00     0.000 HD 
ENDROOT
BRANCH   3   5
ATOM      5  CD  LYS A   1      -9.825   7.456  66.892  1.00  0.00    -0.284 C  
BRANCH   5   6
ATOM      6  CG  LYS A   1     -10.440   8.860  66.843  1.00  0.00    -0.304 C  
BRANCH   6   7
ATOM      7  CB  LYS A   1      -9.552   9.901  67.526  1.00  0.00    -0.183 C  
BRANCH   7   8
ATOM      8  CA  LYS A   1     -10.357  11.024  68.197  1.00  0.00    -0.182 C  
ATOM      9  N   LYS A   1     -11.805  10.679  68.309  1.00  0.00    -0.786 NA 
ATOM     10  C   LYS A   1     -10.243  12.295  67.342  1.00  0.00    -0.203 C  
ATOM     11  OXT LYS A   1      -9.289  13.057  67.330  1.00  0.00    -0.195 OA 
ATOM     12  O   LYS A   1     -11.346  12.456  66.562  1.00  0.00    -0.300 OA 
ATOM     13  H1  LYS A   1     -12.340  11.424  68.755  1.00  0.00     0.000 HD 
ATOM     14  H2  LYS A   1     -11.939   9.788  68.789  1.00  0.00     0.000 HD 
ENDBRANCH   7   8
ENDBRANCH   6   7
ENDBRANCH   5   6
ENDBRANCH   3   5
TORSDOF 4
ENDMDL
MODEL      123
REMARK 921   NORMALIZED FREE ENERGY PREDICTED BY IDOCK:   -2.61 KCAL/MOL
REMARK 922        TOTAL FREE ENERGY PREDICTED BY IDOCK:   -3.72 KCAL/MOL
REMARK 923 INTER-LIGAND FREE ENERGY PREDICTED BY IDOCK:   -3.47 KCAL/MOL
REMARK 924 INTRA-LIGAND FREE ENERGY PREDICTED BY IDOCK:   -0.25 KCAL/MOL
REMARK 927      BINDING AFFINITY PREDICTED BY RF-SCORE:    0.00 PKD
ROOT
ATOM      1  NZ  LYS A   1     -10.318  18.285  69.056  1.00  0.00    -0.449 NA 
ATOM      2  HZ2 LYS A   1      -9.388  18.500  69.417  1.00  0.00     0.000 HD 
ATOM      3  CE  LYS A   1     -10.279  17.168  68.117  1.00  0.00    -0.332 C  
ATOM      4  HZ1 LYS A   1     -10.756  19.109  68.643  1.00  0.00     0.000 HD 
ENDROOT
BRANCH   3   5
ATOM      5  CD  LYS A   1      -9.623  15.932  68.736  1.00  0.00    -0.219 C  
BRANCH   5   6
ATOM      6  CG  LYS A   1      -8.803  15.137  67.713  1.00  0.00    -0.171 C  
BRANCH   6   7
ATOM      7  CB  LYS A   1      -9.158  13.650  67.723  1.00  0.00    -0.199 C  
BRANCH   7   8
ATOM      8  CA  LYS A   1      -9.921  13.210  66.464  1.00  0.00    -0.268 C  
ATOM      9  N   LYS A   1      -9.702  14.150  65.325  1.00  0.00    -0.567 NA 
ATOM     10  C   LYS A   1     -11.425  13.194  66.776  1.00  0.00    -0.343 C  
ATOM     11  OXT LYS A   1     -12.014  12.310  67.379  1.00  0.00    -0.530 OA 
ATOM     12  O   LYS A   1     -12.029  14.323  66.315  1.00  0.00    -0.396 OA 
ATOM     13  H1  LYS A   1     -10.208  13.859  64.489  1.00  0.00     0.000 HD 
ATOM     14  H2  LYS A   1      -8.708  14.275  65.133  1.00  0.00     0.000 HD 
ENDBRANCH   7   8
ENDBRANCH   6   7
ENDBRANCH   5   6
ENDBRANCH   3   5
TORSDOF 4
ENDMDL
MODEL      124
REMARK 921   NORMALIZED FREE ENERGY PREDICTED BY IDOCK:   -2.60 KCAL/MOL
REMARK 922        TOTAL FREE ENERGY PREDICTED BY IDOCK:   -3.71 KCAL/MOL
REMARK 923 INTER-LIGAND FREE ENERGY PREDICTED BY IDOCK:   -3.52 KCAL/MOL
REMARK 924 INTRA-LIGAND FREE ENERGY PREDICTED BY IDOCK:   -0.19 KCAL/MOL
REMARK 927      BINDING AFFINITY PREDICTED BY RF-SCORE:    0.00 PKD
ROOT
ATOM      1  NZ  LYS A   1     -11.610  10.130  68.127  1.00  0.00    -0.672 NA 
ATOM      2  HZ2 LYS A   1     -12.467  10.662  68.279  1.00  0.00     0.000 HD 
ATOM      3  CE  LYS A   1     -10.866  10.639  66.978  1.00  0.00    -0.238 C  
ATOM      4  HZ1 LYS A   1     -11.801   9.132  68.040  1.00  0.00     0.000 HD 
ENDROOT
BRANCH   3   5
ATOM      5  CD  LYS A   1     -10.579  12.137  67.109  1.00  0.00    -0.254 C  
BRANCH   5   6
ATOM      6  CG  LYS A   1     -11.779  12.995  66.694  1.00  0.00    -0.438 C  
BRANCH   6   7
ATOM      7  CB  LYS A   1     -12.018  14.156  67.661  1.00  0.00    -0.405 C  
BRANCH   7   8
ATOM      8  CA  LYS A   1     -10.940  14.257  68.750  1.00  0.00    -0.255 C  
ATOM      9  N   LYS A   1     -11.481  13.921  70.101  1.00  0.00    -0.482 NA 
ATOM     10  C   LYS A   1     -10.420  15.702  68.800  1.00  0.00    -0.225 C  
ATOM     11  OXT LYS A   1      -9.611  16.190  68.026  1.00  0.00    -0.217 OA 
ATOM     12  O   LYS A   1     -11.005  16.394  69.815  1.00  0.00    -0.338 OA 
ATOM     13  H1  LYS A   1     -10.765  13.988  70.824  1.00  0.00     0.000 HD 
ATOM     14  H2  LYS A   1     -11.927  13.003  70.103  1.00  0.00     0.000 HD 
ENDBRANCH   7   8
ENDBRANCH   6   7
ENDBRANCH   5   6
ENDBRANCH   3   5
TORSDOF 4
ENDMDL
MODEL      125
REMARK 921   NORMALIZED FREE ENERGY PREDICTED BY IDOCK:   -2.60 KCAL/MOL
REMARK 922        TOTAL FREE ENERGY PREDICTED BY IDOCK:   -3.71 KCAL/MOL
REMARK 923 INTER-LIGAND FREE ENERGY PREDICTED BY IDOCK:   -3.61 KCAL/MOL
REMARK 924 INTRA-LIGAND FREE ENERGY PREDICTED BY IDOCK:   -0.10 KCAL/MOL
REMARK 927      BINDING AFFINITY PREDICTED BY RF-SCORE:    0.00 PKD
ROOT
ATOM      1  NZ  LYS A   1      -8.174  17.222  65.872  1.00  0.00    -0.543 NA 
ATOM      2  HZ2 LYS A   1      -8.665  18.086  65.641  1.00  0.00     0.000 HD 
ATOM      3  CE  LYS A   1      -8.701  16.621  67.093  1.00  0.00    -0.195 C  
ATOM      4  HZ1 LYS A   1      -7.166  17.371  65.930  1.00  0.00     0.000 HD 
ENDROOT
BRANCH   3   5
ATOM      5  CD  LYS A   1     -10.213  16.396  67.006  1.00  0.00    -0.282 C  
BRANCH   5   6
ATOM      6  CG  LYS A   1     -10.564  14.953  66.627  1.00  0.00    -0.305 C  
BRANCH   6   7
ATOM      7  CB  LYS A   1     -10.597  14.031  67.847  1.00  0.00    -0.246 C  
BRANCH   7   8
ATOM      8  CA  LYS A   1     -12.024  13.719  68.321  1.00  0.00    -0.357 C  
ATOM      9  N   LYS A   1     -12.453  14.626  69.426  1.00  0.00    -0.572 NA 
ATOM     10  C   LYS A   1     -12.065  12.279  68.856  1.00  0.00    -0.126 C  
ATOM     11  OXT LYS A   1     -12.128  11.270  68.169  1.00  0.00    -0.635 OA 
ATOM     12  O   LYS A   1     -11.991  12.262  70.214  1.00  0.00    -0.344 OA 
ATOM     13  H1  LYS A   1     -13.401  14.419  69.741  1.00  0.00     0.000 HD 
ATOM     14  H2  LYS A   1     -12.356  15.607  69.159  1.00  0.00     0.000 HD 
ENDBRANCH   7   8
ENDBRANCH   6   7
ENDBRANCH   5   6
ENDBRANCH   3   5
TORSDOF 4
ENDMDL
MODEL      126
REMARK 921   NORMALIZED FREE ENERGY PREDICTED BY IDOCK:   -2.60 KCAL/MOL
REMARK 922        TOTAL FREE ENERGY PREDICTED BY IDOCK:   -3.71 KCAL/MOL
REMARK 923 INTER-LIGAND FREE ENERGY PREDICTED BY IDOCK:   -3.60 KCAL/MOL
REMARK 924 INTRA-LIGAND FREE ENERGY PREDICTED BY IDOCK:   -0.11 KCAL/MOL
REMARK 927      BINDING AFFINITY PREDICTED BY RF-SCORE:    0.00 PKD
ROOT
ATOM      1  NZ  LYS A   1     -11.147   5.664  66.214  1.00  0.00    -0.772 NA 
ATOM      2  HZ2 LYS A   1     -10.307   5.109  66.050  1.00  0.00     0.000 HD 
ATOM      3  CE  LYS A   1     -10.917   6.692  67.225  1.00  0.00    -0.385 C  
ATOM      4  HZ1 LYS A   1     -11.943   5.072  66.453  1.00  0.00     0.000 HD 
ENDROOT
BRANCH   3   5
ATOM      5  CD  LYS A   1      -9.723   7.580  66.866  1.00  0.00    -0.272 C  
BRANCH   5   6
ATOM      6  CG  LYS A   1     -10.151   9.006  66.500  1.00  0.00    -0.354 C  
BRANCH   6   7
ATOM      7  CB  LYS A   1      -9.388   9.541  65.287  1.00  0.00    -0.317 C  
BRANCH   7   8
ATOM      8  CA  LYS A   1      -9.412  11.075  65.197  1.00  0.00    -0.228 C  
ATOM      9  N   LYS A   1     -10.173  11.686  66.327  1.00  0.00    -0.220 NA 
ATOM     10  C   LYS A   1     -10.108  11.483  63.889  1.00  0.00    -0.345 C  
ATOM     11  OXT LYS A   1      -9.593  11.477  62.782  1.00  0.00    -0.358 OA 
ATOM     12  O   LYS A   1     -11.403  11.831  64.116  1.00  0.00    -0.351 OA 
ATOM     13  H1  LYS A   1     -10.189  12.704  66.267  1.00  0.00     0.000 HD 
ATOM     14  H2  LYS A   1      -9.812  11.373  67.229  1.00  0.00     0.000 HD 
ENDBRANCH   7   8
ENDBRANCH   6   7
ENDBRANCH   5   6
ENDBRANCH   3   5
TORSDOF 4
ENDMDL
MODEL      127
REMARK 921   NORMALIZED FREE ENERGY PREDICTED BY IDOCK:   -2.58 KCAL/MOL
REMARK 922        TOTAL FREE ENERGY PREDICTED BY IDOCK:   -3.69 KCAL/MOL
REMARK 923 INTER-LIGAND FREE ENERGY PREDICTED BY IDOCK:   -3.61 KCAL/MOL
REMARK 924 INTRA-LIGAND FREE ENERGY PREDICTED BY IDOCK:   -0.08 KCAL/MOL
REMARK 927      BINDING AFFINITY PREDICTED BY RF-SCORE:    0.00 PKD
ROOT
ATOM      1  NZ  LYS A   1     -11.537  16.272  63.821  1.00  0.00    -1.482 NA 
ATOM      2  HZ2 LYS A   1     -11.476  15.253  63.799  1.00  0.00     0.000 HD 
ATOM      3  CE  LYS A   1     -11.270  16.792  65.158  1.00  0.00     0.076 C  
ATOM      4  HZ1 LYS A   1     -12.434  16.599  63.461  1.00  0.00     0.000 HD 
ENDROOT
BRANCH   3   5
ATOM      5  CD  LYS A   1      -9.924  16.302  65.697  1.00  0.00    -0.306 C  
BRANCH   5   6
ATOM      6  CG  LYS A   1      -9.672  16.766  67.136  1.00  0.00    -0.251 C  
BRANCH   6   7
ATOM      7  CB  LYS A   1      -8.429  17.650  67.247  1.00  0.00    -0.225 C  
BRANCH   7   8
ATOM      8  CA  LYS A   1      -8.622  18.832  68.209  1.00  0.00    -0.327 C  
ATOM      9  N   LYS A   1      -9.109  20.052  67.500  1.00  0.00    -0.345 NA 
ATOM     10  C   LYS A   1      -7.268  19.173  68.851  1.00  0.00    -0.341 C  
ATOM     11  OXT LYS A   1      -6.752  18.569  69.779  1.00  0.00    -0.120 OA 
ATOM     12  O   LYS A   1      -6.688  20.235  68.229  1.00  0.00    -0.288 OA 
ATOM     13  H1  LYS A   1      -9.236  20.837  68.138  1.00  0.00     0.000 HD 
ATOM     14  H2  LYS A   1      -9.961  19.859  66.973  1.00  0.00     0.000 HD 
ENDBRANCH   7   8
ENDBRANCH   6   7
ENDBRANCH   5   6
ENDBRANCH   3   5
TORSDOF 4
ENDMDL
MODEL      128
REMARK 921   NORMALIZED FREE ENERGY PREDICTED BY IDOCK:   -2.57 KCAL/MOL
REMARK 922        TOTAL FREE ENERGY PREDICTED BY IDOCK:   -3.67 KCAL/MOL
REMARK 923 INTER-LIGAND FREE ENERGY PREDICTED BY IDOCK:   -3.54 KCAL/MOL
REMARK 924 INTRA-LIGAND FREE ENERGY PREDICTED BY IDOCK:   -0.13 KCAL/MOL
REMARK 927      BINDING AFFINITY PREDICTED BY RF-SCORE:    0.00 PKD
ROOT
ATOM      1  NZ  LYS A   1     -11.400   5.832  72.315  1.00  0.00    -0.288 NA 
ATOM      2  HZ2 LYS A   1     -11.876   5.782  73.216  1.00  0.00     0.000 HD 
ATOM      3  CE  LYS A   1     -11.939   6.906  71.486  1.00  0.00    -0.344 C  
ATOM      4  HZ1 LYS A   1     -11.423   4.934  71.831  1.00  0.00     0.000 HD 
ENDROOT
BRANCH   3   5
ATOM      5  CD  LYS A   1     -11.903   8.253  72.212  1.00  0.00    -0.451 C  
BRANCH   5   6
ATOM      6  CG  LYS A   1     -10.814   9.180  71.660  1.00  0.00    -0.442 C  
BRANCH   6   7
ATOM      7  CB  LYS A   1     -10.945   9.385  70.150  1.00  0.00    -0.282 C  
BRANCH   7   8
ATOM      8  CA  LYS A   1     -11.541  10.752  69.782  1.00  0.00    -0.317 C  
ATOM      9  N   LYS A   1     -13.011  10.669  69.532  1.00  0.00    -0.477 NA 
ATOM     10  C   LYS A   1     -10.874  11.253  68.492  1.00  0.00    -0.205 C  
ATOM     11  OXT LYS A   1      -9.771  11.773  68.421  1.00  0.00    -0.194 OA 
ATOM     12  O   LYS A   1     -11.666  11.016  67.411  1.00  0.00    -0.539 OA 
ATOM     13  H1  LYS A   1     -13.407  11.576  69.288  1.00  0.00     0.000 HD 
ATOM     14  H2  LYS A   1     -13.499  10.251  70.324  1.00  0.00     0.000 HD 
ENDBRANCH   7   8
ENDBRANCH   6   7
ENDBRANCH   5   6
ENDBRANCH   3   5
TORSDOF 4
ENDMDL
MODEL      129
REMARK 921   NORMALIZED FREE ENERGY PREDICTED BY IDOCK:   -2.57 KCAL/MOL
REMARK 922        TOTAL FREE ENERGY PREDICTED BY IDOCK:   -3.67 KCAL/MOL
REMARK 923 INTER-LIGAND FREE ENERGY PREDICTED BY IDOCK:   -3.69 KCAL/MOL
REMARK 924 INTRA-LIGAND FREE ENERGY PREDICTED BY IDOCK:    0.03 KCAL/MOL
REMARK 927      BINDING AFFINITY PREDICTED BY RF-SCORE:    0.00 PKD
ROOT
ATOM      1  NZ  LYS A   1      -9.839  14.267  69.168  1.00  0.00    -0.419 NA 
ATOM      2  HZ2 LYS A   1      -9.461  14.803  69.949  1.00  0.00     0.000 HD 
ATOM      3  CE  LYS A   1     -11.283  14.440  69.054  1.00  0.00    -0.264 C  
ATOM      4  HZ1 LYS A   1      -9.581  13.282  69.233  1.00  0.00     0.000 HD 
ENDROOT
BRANCH   3   5
ATOM      5  CD  LYS A   1     -11.670  15.918  68.956  1.00  0.00    -0.377 C  
BRANCH   5   6
ATOM      6  CG  LYS A   1     -10.455  16.844  69.077  1.00  0.00    -0.341 C  
BRANCH   6   7
ATOM      7  CB  LYS A   1      -9.875  17.213  67.711  1.00  0.00    -0.274 C  
BRANCH   7   8
ATOM      8  CA  LYS A   1     -10.636  18.360  67.029  1.00  0.00    -0.366 C  
ATOM      9  N   LYS A   1     -10.568  18.265  65.541  1.00  0.00    -0.576 NA 
ATOM     10  C   LYS A   1      -9.998  19.695  67.444  1.00  0.00    -0.385 C  
ATOM     11  OXT LYS A   1     -10.185  20.270  68.505  1.00  0.00    -0.352 OA 
ATOM     12  O   LYS A   1      -9.158  20.152  66.476  1.00  0.00    -0.341 OA 
ATOM     13  H1  LYS A   1     -11.073  19.027  65.088  1.00  0.00     0.000 HD 
ATOM     14  H2  LYS A   1     -10.893  17.356  65.211  1.00  0.00     0.000 HD 
ENDBRANCH   7   8
ENDBRANCH   6   7
ENDBRANCH   5   6
ENDBRANCH   3   5
TORSDOF 4
ENDMDL
MODEL      130
REMARK 921   NORMALIZED FREE ENERGY PREDICTED BY IDOCK:   -2.54 KCAL/MOL
REMARK 922        TOTAL FREE ENERGY PREDICTED BY IDOCK:   -3.63 KCAL/MOL
REMARK 923 INTER-LIGAND FREE ENERGY PREDICTED BY IDOCK:   -3.45 KCAL/MOL
REMARK 924 INTRA-LIGAND FREE ENERGY PREDICTED BY IDOCK:   -0.19 KCAL/MOL
REMARK 927      BINDING AFFINITY PREDICTED BY RF-SCORE:    0.00 PKD
ROOT
ATOM      1  NZ  LYS A   1     -11.950  10.711  68.234  1.00  0.00    -0.814 NA 
ATOM      2  HZ2 LYS A   1     -12.637  10.921  68.958  1.00  0.00     0.000 HD 
ATOM      3  CE  LYS A   1     -11.780  11.835  67.319  1.00  0.00    -0.217 C  
ATOM      4  HZ1 LYS A   1     -12.184   9.852  67.736  1.00  0.00     0.000 HD 
ENDROOT
BRANCH   3   5
ATOM      5  CD  LYS A   1     -11.428  13.124  68.067  1.00  0.00    -0.346 C  
BRANCH   5   6
ATOM      6  CG  LYS A   1      -9.914  13.305  68.227  1.00  0.00    -0.236 C  
BRANCH   6   7
ATOM      7  CB  LYS A   1      -9.507  14.780  68.218  1.00  0.00    -0.207 C  
BRANCH   7   8
ATOM      8  CA  LYS A   1     -10.697  15.726  67.995  1.00  0.00    -0.296 C  
ATOM      9  N   LYS A   1     -10.500  16.594  66.797  1.00  0.00    -0.288 NA 
ATOM     10  C   LYS A   1     -10.836  16.643  69.220  1.00  0.00    -0.310 C  
ATOM     11  OXT LYS A   1     -11.350  16.330  70.284  1.00  0.00    -0.355 OA 
ATOM     12  O   LYS A   1     -10.280  17.861  68.981  1.00  0.00    -0.378 OA 
ATOM     13  H1  LYS A   1     -11.289  17.222  66.650  1.00  0.00     0.000 HD 
ATOM     14  H2  LYS A   1     -10.307  16.038  65.964  1.00  0.00     0.000 HD 
ENDBRANCH   7   8
ENDBRANCH   6   7
ENDBRANCH   5   6
ENDBRANCH   3   5
TORSDOF 4
ENDMDL
MODEL      131
REMARK 921   NORMALIZED FREE ENERGY PREDICTED BY IDOCK:   -2.54 KCAL/MOL
REMARK 922        TOTAL FREE ENERGY PREDICTED BY IDOCK:   -3.63 KCAL/MOL
REMARK 923 INTER-LIGAND FREE ENERGY PREDICTED BY IDOCK:   -3.21 KCAL/MOL
REMARK 924 INTRA-LIGAND FREE ENERGY PREDICTED BY IDOCK:   -0.43 KCAL/MOL
REMARK 927      BINDING AFFINITY PREDICTED BY RF-SCORE:    0.00 PKD
ROOT
ATOM      1  NZ  LYS A   1      -9.277   6.274  69.971  1.00  0.00    -0.151 NA 
ATOM      2  HZ2 LYS A   1     -10.081   6.887  69.830  1.00  0.00     0.000 HD 
ATOM      3  CE  LYS A   1      -8.311   6.868  70.889  1.00  0.00    -0.130 C  
ATOM      4  HZ1 LYS A   1      -8.845   6.018  69.083  1.00  0.00     0.000 HD 
ENDROOT
BRANCH   3   5
ATOM      5  CD  LYS A   1      -8.959   7.253  72.221  1.00  0.00    -0.150 C  
BRANCH   5   6
ATOM      6  CG  LYS A   1      -9.785   8.539  72.114  1.00  0.00    -0.387 C  
BRANCH   6   7
ATOM      7  CB  LYS A   1     -11.269   8.296  72.393  1.00  0.00    -0.451 C  
BRANCH   7   8
ATOM      8  CA  LYS A   1     -12.171   8.699  71.217  1.00  0.00    -0.281 C  
ATOM      9  N   LYS A   1     -11.521   8.430  69.900  1.00  0.00    -0.444 NA 
ATOM     10  C   LYS A   1     -12.453  10.207  71.302  1.00  0.00    -0.406 C  
ATOM     11  OXT LYS A   1     -13.269  10.734  72.042  1.00  0.00    -0.484 OA 
ATOM     12  O   LYS A   1     -11.644  10.900  70.456  1.00  0.00    -0.322 OA 
ATOM     13  H1  LYS A   1     -12.120   8.698  69.120  1.00  0.00     0.000 HD 
ATOM     14  H2  LYS A   1     -11.224   7.457  69.825  1.00  0.00     0.000 HD 
ENDBRANCH   7   8
ENDBRANCH   6   7
ENDBRANCH   5   6
ENDBRANCH   3   5
TORSDOF 4
ENDMDL
MODEL      132
REMARK 921   NORMALIZED FREE ENERGY PREDICTED BY IDOCK:   -2.54 KCAL/MOL
REMARK 922        TOTAL FREE ENERGY PREDICTED BY IDOCK:   -3.63 KCAL/MOL
REMARK 923 INTER-LIGAND FREE ENERGY PREDICTED BY IDOCK:   -3.49 KCAL/MOL
REMARK 924 INTRA-LIGAND FREE ENERGY PREDICTED BY IDOCK:   -0.14 KCAL/MOL
REMARK 927      BINDING AFFINITY PREDICTED BY RF-SCORE:    0.00 PKD
ROOT
ATOM      1  NZ  LYS A   1     -10.718   7.925  68.885  1.00  0.00    -0.393 NA 
ATOM      2  HZ2 LYS A   1     -10.998   7.793  67.913  1.00  0.00     0.000 HD 
ATOM      3  CE  LYS A   1     -10.296   9.299  69.136  1.00  0.00    -0.211 C  
ATOM      4  HZ1 LYS A   1     -10.000   7.254  69.159  1.00  0.00     0.000 HD 
ENDROOT
BRANCH   3   5
ATOM      5  CD  LYS A   1     -11.373  10.305  68.724  1.00  0.00    -0.226 C  
BRANCH   5   6
ATOM      6  CG  LYS A   1     -10.949  11.753  68.999  1.00  0.00    -0.276 C  
BRANCH   6   7
ATOM      7  CB  LYS A   1     -11.889  12.762  68.338  1.00  0.00    -0.353 C  
BRANCH   7   8
ATOM      8  CA  LYS A   1     -11.243  13.489  67.149  1.00  0.00    -0.305 C  
ATOM      9  N   LYS A   1     -11.385  14.971  67.259  1.00  0.00    -0.344 NA 
ATOM     10  C   LYS A   1     -11.945  13.046  65.856  1.00  0.00    -0.435 C  
ATOM     11  OXT LYS A   1     -11.739  12.000  65.261  1.00  0.00    -0.333 OA 
ATOM     12  O   LYS A   1     -12.864  13.969  65.462  1.00  0.00    -0.615 OA 
ATOM     13  H1  LYS A   1     -10.956  15.454  66.470  1.00  0.00     0.000 HD 
ATOM     14  H2  LYS A   1     -11.019  15.314  68.148  1.00  0.00     0.000 HD 
ENDBRANCH   7   8
ENDBRANCH   6   7
ENDBRANCH   5   6
ENDBRANCH   3   5
TORSDOF 4
ENDMDL
MODEL      133
REMARK 921   NORMALIZED FREE ENERGY PREDICTED BY IDOCK:   -2.53 KCAL/MOL
REMARK 922        TOTAL FREE ENERGY PREDICTED BY IDOCK:   -3.63 KCAL/MOL
REMARK 923 INTER-LIGAND FREE ENERGY PREDICTED BY IDOCK:   -3.38 KCAL/MOL
REMARK 924 INTRA-LIGAND FREE ENERGY PREDICTED BY IDOCK:   -0.24 KCAL/MOL
REMARK 927      BINDING AFFINITY PREDICTED BY RF-SCORE:    0.00 PKD
ROOT
ATOM      1  NZ  LYS A   1     -12.466  10.821  69.047  1.00  0.00    -0.728 NA 
ATOM      2  HZ2 LYS A   1     -13.375  10.640  68.621  1.00  0.00     0.000 HD 
ATOM      3  CE  LYS A   1     -12.562  10.891  70.501  1.00  0.00    -0.324 C  
ATOM      4  HZ1 LYS A   1     -12.033  11.659  68.657  1.00  0.00     0.000 HD 
ENDROOT
BRANCH   3   5
ATOM      5  CD  LYS A   1     -13.212   9.635  71.086  1.00  0.00    -0.373 C  
BRANCH   5   6
ATOM      6  CG  LYS A   1     -12.365   9.010  72.201  1.00  0.00    -0.442 C  
BRANCH   6   7
ATOM      7  CB  LYS A   1     -11.820   7.636  71.808  1.00  0.00    -0.324 C  
BRANCH   7   8
ATOM      8  CA  LYS A   1     -11.371   7.569  70.340  1.00  0.00    -0.233 C  
ATOM      9  N   LYS A   1     -11.351   6.167  69.829  1.00  0.00    -0.426 NA 
ATOM     10  C   LYS A   1      -9.945   8.129  70.231  1.00  0.00    -0.189 C  
ATOM     11  OXT LYS A   1      -9.648   9.313  70.215  1.00  0.00    -0.200 OA 
ATOM     12  O   LYS A   1      -9.030   7.122  70.185  1.00  0.00    -0.145 OA 
ATOM     13  H1  LYS A   1     -11.053   6.122  68.854  1.00  0.00     0.000 HD 
ATOM     14  H2  LYS A   1     -12.253   5.710  69.963  1.00  0.00     0.000 HD 
ENDBRANCH   7   8
ENDBRANCH   6   7
ENDBRANCH   5   6
ENDBRANCH   3   5
TORSDOF 4
ENDMDL
MODEL      134
REMARK 921   NORMALIZED FREE ENERGY PREDICTED BY IDOCK:   -2.52 KCAL/MOL
REMARK 922        TOTAL FREE ENERGY PREDICTED BY IDOCK:   -3.61 KCAL/MOL
REMARK 923 INTER-LIGAND FREE ENERGY PREDICTED BY IDOCK:   -3.26 KCAL/MOL
REMARK 924 INTRA-LIGAND FREE ENERGY PREDICTED BY IDOCK:   -0.35 KCAL/MOL
REMARK 927      BINDING AFFINITY PREDICTED BY RF-SCORE:    0.00 PKD
ROOT
ATOM      1  NZ  LYS A   1     -12.345  10.735  68.637  1.00  0.00    -0.786 NA 
ATOM      2  HZ2 LYS A   1     -12.811   9.859  68.877  1.00  0.00     0.000 HD 
ATOM      3  CE  LYS A   1     -10.903  10.552  68.510  1.00  0.00    -0.234 C  
ATOM      4  HZ1 LYS A   1     -12.574  11.473  69.303  1.00  0.00     0.000 HD 
ENDROOT
BRANCH   3   5
ATOM      5  CD  LYS A   1     -10.559   9.444  67.510  1.00  0.00    -0.333 C  
BRANCH   5   6
ATOM      6  CG  LYS A   1     -10.512   8.062  68.170  1.00  0.00    -0.222 C  
BRANCH   6   7
ATOM      7  CB  LYS A   1     -10.179   8.147  69.660  1.00  0.00    -0.205 C  
BRANCH   7   8
ATOM      8  CA  LYS A   1     -11.184   7.390  70.541  1.00  0.00    -0.274 C  
ATOM      9  N   LYS A   1     -12.383   8.223  70.856  1.00  0.00    -0.493 NA 
ATOM     10  C   LYS A   1     -10.504   7.027  71.870  1.00  0.00    -0.200 C  
ATOM     11  OXT LYS A   1      -9.733   6.095  72.040  1.00  0.00    -0.154 OA 
ATOM     12  O   LYS A   1     -10.850   7.907  72.849  1.00  0.00    -0.362 OA 
ATOM     13  H1  LYS A   1     -13.051   7.721  71.441  1.00  0.00     0.000 HD 
ATOM     14  H2  LYS A   1     -12.824   8.574  70.005  1.00  0.00     0.000 HD 
ENDBRANCH   7   8
ENDBRANCH   6   7
ENDBRANCH   5   6
ENDBRANCH   3   5
TORSDOF 4
ENDMDL
MODEL      135
REMARK 921   NORMALIZED FREE ENERGY PREDICTED BY IDOCK:   -2.52 KCAL/MOL
REMARK 922        TOTAL FREE ENERGY PREDICTED BY IDOCK:   -3.61 KCAL/MOL
REMARK 923 INTER-LIGAND FREE ENERGY PREDICTED BY IDOCK:   -3.24 KCAL/MOL
REMARK 924 INTRA-LIGAND FREE ENERGY PREDICTED BY IDOCK:   -0.37 KCAL/MOL
REMARK 927      BINDING AFFINITY PREDICTED BY RF-SCORE:    0.00 PKD
ROOT
ATOM      1  NZ  LYS A   1     -11.735  12.249  63.084  1.00  0.00    -0.721 NA 
ATOM      2  HZ2 LYS A   1     -10.829  12.023  63.496  1.00  0.00     0.000 HD 
ATOM      3  CE  LYS A   1     -12.604  12.920  64.046  1.00  0.00    -0.246 C  
ATOM      4  HZ1 LYS A   1     -12.180  11.422  62.687  1.00  0.00     0.000 HD 
ENDROOT
BRANCH   3   5
ATOM      5  CD  LYS A   1     -11.935  14.162  64.642  1.00  0.00    -0.459 C  
BRANCH   5   6
ATOM      6  CG  LYS A   1     -11.846  14.095  66.170  1.00  0.00    -0.420 C  
BRANCH   6   7
ATOM      7  CB  LYS A   1     -11.093  12.853  66.649  1.00  0.00    -0.316 C  
BRANCH   7   8
ATOM      8  CA  LYS A   1      -9.581  12.933  66.384  1.00  0.00    -0.252 C  
ATOM      9  N   LYS A   1      -9.168  12.050  65.254  1.00  0.00    -0.427 NA 
ATOM     10  C   LYS A   1      -8.833  12.466  67.642  1.00  0.00    -0.177 C  
ATOM     11  OXT LYS A   1      -8.641  13.140  68.643  1.00  0.00    -0.095 OA 
ATOM     12  O   LYS A   1      -8.427  11.174  67.515  1.00  0.00    -0.123 OA 
ATOM     13  H1  LYS A   1      -8.165  12.102  65.079  1.00  0.00     0.000 HD 
ATOM     14  H2  LYS A   1      -9.704  12.252  64.410  1.00  0.00     0.000 HD 
ENDBRANCH   7   8
ENDBRANCH   6   7
ENDBRANCH   5   6
ENDBRANCH   3   5
TORSDOF 4
ENDMDL
MODEL      136
REMARK 921   NORMALIZED FREE ENERGY PREDICTED BY IDOCK:   -2.51 KCAL/MOL
REMARK 922        TOTAL FREE ENERGY PREDICTED BY IDOCK:   -3.60 KCAL/MOL
REMARK 923 INTER-LIGAND FREE ENERGY PREDICTED BY IDOCK:   -3.12 KCAL/MOL
REMARK 924 INTRA-LIGAND FREE ENERGY PREDICTED BY IDOCK:   -0.48 KCAL/MOL
REMARK 927      BINDING AFFINITY PREDICTED BY RF-SCORE:    0.00 PKD
ROOT
ATOM      1  NZ  LYS A   1     -12.781  11.238  71.355  1.00  0.00    -0.406 NA 
ATOM      2  HZ2 LYS A   1     -13.696  10.980  70.985  1.00  0.00     0.000 HD 
ATOM      3  CE  LYS A   1     -11.725  11.003  70.375  1.00  0.00    -0.343 C  
ATOM      4  HZ1 LYS A   1     -12.589  10.765  72.238  1.00  0.00     0.000 HD 
ENDROOT
BRANCH   3   5
ATOM      5  CD  LYS A   1     -12.014  11.714  69.050  1.00  0.00    -0.368 C  
BRANCH   5   6
ATOM      6  CG  LYS A   1     -11.177  12.987  68.882  1.00  0.00    -0.326 C  
BRANCH   6   7
ATOM      7  CB  LYS A   1     -12.047  14.216  68.616  1.00  0.00    -0.320 C  
BRANCH   7   8
ATOM      8  CA  LYS A   1     -12.060  15.204  69.792  1.00  0.00    -0.319 C  
ATOM      9  N   LYS A   1     -10.754  15.225  70.515  1.00  0.00    -0.484 NA 
ATOM     10  C   LYS A   1     -13.142  14.768  70.793  1.00  0.00    -0.336 C  
ATOM     11  OXT LYS A   1     -14.340  14.973  70.674  1.00  0.00     0.102 OA 
ATOM     12  O   LYS A   1     -12.594  14.086  71.834  1.00  0.00    -0.317 OA 
ATOM     13  H1  LYS A   1     -10.763  15.880  71.296  1.00  0.00     0.000 HD 
ATOM     14  H2  LYS A   1      -9.981  15.417  69.877  1.00  0.00     0.000 HD 
ENDBRANCH   7   8
ENDBRANCH   6   7
ENDBRANCH   5   6
ENDBRANCH   3   5
TORSDOF 4
ENDMDL
MODEL      137
REMARK 921   NORMALIZED FREE ENERGY PREDICTED BY IDOCK:   -2.51 KCAL/MOL
REMARK 922        TOTAL FREE ENERGY PREDICTED BY IDOCK:   -3.59 KCAL/MOL
REMARK 923 INTER-LIGAND FREE ENERGY PREDICTED BY IDOCK:   -3.06 KCAL/MOL
REMARK 924 INTRA-LIGAND FREE ENERGY PREDICTED BY IDOCK:   -0.53 KCAL/MOL
REMARK 927      BINDING AFFINITY PREDICTED BY RF-SCORE:    0.00 PKD
ROOT
ATOM      1  NZ  LYS A   1     -12.999  10.493  69.710  1.00  0.00    -0.537 NA 
ATOM      2  HZ2 LYS A   1     -13.101   9.747  69.022  1.00  0.00     0.000 HD 
ATOM      3  CE  LYS A   1     -13.106   9.980  71.072  1.00  0.00    -0.356 C  
ATOM      4  HZ1 LYS A   1     -13.661  11.250  69.539  1.00  0.00     0.000 HD 
ENDROOT
BRANCH   3   5
ATOM      5  CD  LYS A   1     -12.112   8.845  71.328  1.00  0.00    -0.360 C  
BRANCH   5   6
ATOM      6  CG  LYS A   1     -10.661   9.339  71.348  1.00  0.00    -0.432 C  
BRANCH   6   7
ATOM      7  CB  LYS A   1      -9.747   8.475  70.477  1.00  0.00    -0.202 C  
BRANCH   7   8
ATOM      8  CA  LYS A   1      -9.219   9.222  69.243  1.00  0.00    -0.152 C  
ATOM      9  N   LYS A   1      -9.284  10.703  69.420  1.00  0.00    -0.395 NA 
ATOM     10  C   LYS A   1     -10.092   8.856  68.032  1.00  0.00    -0.195 C  
ATOM     11  OXT LYS A   1     -10.005   7.826  67.382  1.00  0.00    -0.162 OA 
ATOM     12  O   LYS A   1     -11.012   9.828  67.785  1.00  0.00    -0.274 OA 
ATOM     13  H1  LYS A   1      -8.934  11.199  68.600  1.00  0.00     0.000 HD 
ATOM     14  H2  LYS A   1      -8.798  10.997  70.268  1.00  0.00     0.000 HD 
ENDBRANCH   7   8
ENDBRANCH   6   7
ENDBRANCH   5   6
ENDBRANCH   3   5
TORSDOF 4
ENDMDL
MODEL      138
REMARK 921   NORMALIZED FREE ENERGY PREDICTED BY IDOCK:   -2.50 KCAL/MOL
REMARK 922        TOTAL FREE ENERGY PREDICTED BY IDOCK:   -3.59 KCAL/MOL
REMARK 923 INTER-LIGAND FREE ENERGY PREDICTED BY IDOCK:   -3.46 KCAL/MOL
REMARK 924 INTRA-LIGAND FREE ENERGY PREDICTED BY IDOCK:   -0.13 KCAL/MOL
REMARK 927      BINDING AFFINITY PREDICTED BY RF-SCORE:    0.00 PKD
ROOT
ATOM      1  NZ  LYS A   1     -11.327   4.380  65.007  1.00  0.00    -1.102 NA 
ATOM      2  HZ2 LYS A   1     -12.272   4.545  65.355  1.00  0.00     0.000 HD 
ATOM      3  CE  LYS A   1     -10.347   5.188  65.725  1.00  0.00    -0.049 C  
ATOM      4  HZ1 LYS A   1     -11.271   4.526  63.999  1.00  0.00     0.000 HD 
ENDROOT
BRANCH   3   5
ATOM      5  CD  LYS A   1     -10.431   4.969  67.237  1.00  0.00    -0.151 C  
BRANCH   5   6
ATOM      6  CG  LYS A   1     -10.786   6.255  67.991  1.00  0.00    -0.409 C  
BRANCH   6   7
ATOM      7  CB  LYS A   1     -10.770   7.481  67.076  1.00  0.00    -0.367 C  
BRANCH   7   8
ATOM      8  CA  LYS A   1     -10.092   8.699  67.722  1.00  0.00    -0.211 C  
ATOM      9  N   LYS A   1     -10.455   8.837  69.163  1.00  0.00    -0.224 NA 
ATOM     10  C   LYS A   1     -10.562   9.969  66.996  1.00  0.00    -0.212 C  
ATOM     11  OXT LYS A   1     -10.139  10.368  65.922  1.00  0.00    -0.247 OA 
ATOM     12  O   LYS A   1     -11.547  10.593  67.697  1.00  0.00    -0.492 OA 
ATOM     13  H1  LYS A   1     -10.005   9.646  69.592  1.00  0.00     0.000 HD 
ATOM     14  H2  LYS A   1     -10.252   7.982  69.681  1.00  0.00     0.000 HD 
ENDBRANCH   7   8
ENDBRANCH   6   7
ENDBRANCH   5   6
ENDBRANCH   3   5
TORSDOF 4
ENDMDL
MODEL      139
REMARK 921   NORMALIZED FREE ENERGY PREDICTED BY IDOCK:   -2.50 KCAL/MOL
REMARK 922        TOTAL FREE ENERGY PREDICTED BY IDOCK:   -3.58 KCAL/MOL
REMARK 923 INTER-LIGAND FREE ENERGY PREDICTED BY IDOCK:   -3.43 KCAL/MOL
REMARK 924 INTRA-LIGAND FREE ENERGY PREDICTED BY IDOCK:   -0.14 KCAL/MOL
REMARK 927      BINDING AFFINITY PREDICTED BY RF-SCORE:    0.00 PKD
ROOT
ATOM      1  NZ  LYS A   1     -11.575   8.486  70.016  1.00  0.00    -0.451 NA 
ATOM      2  HZ2 LYS A   1     -12.099   8.185  69.193  1.00  0.00     0.000 HD 
ATOM      3  CE  LYS A   1     -10.805   9.695  69.744  1.00  0.00    -0.250 C  
ATOM      4  HZ1 LYS A   1     -10.985   7.735  70.375  1.00  0.00     0.000 HD 
ENDROOT
BRANCH   3   5
ATOM      5  CD  LYS A   1     -11.691  10.821  69.205  1.00  0.00    -0.368 C  
BRANCH   5   6
ATOM      6  CG  LYS A   1     -10.964  11.683  68.167  1.00  0.00    -0.275 C  
BRANCH   6   7
ATOM      7  CB  LYS A   1     -10.783  13.126  68.643  1.00  0.00    -0.274 C  
BRANCH   7   8
ATOM      8  CA  LYS A   1     -12.107  13.900  68.716  1.00  0.00    -0.309 C  
ATOM      9  N   LYS A   1     -12.125  15.061  67.778  1.00  0.00    -0.474 NA 
ATOM     10  C   LYS A   1     -12.283  14.448  70.141  1.00  0.00    -0.341 C  
ATOM     11  OXT LYS A   1     -12.666  13.803  71.105  1.00  0.00    -0.337 OA 
ATOM     12  O   LYS A   1     -11.923  15.758  70.206  1.00  0.00    -0.357 OA 
ATOM     13  H1  LYS A   1     -13.004  15.576  67.827  1.00  0.00     0.000 HD 
ATOM     14  H2  LYS A   1     -11.918  14.769  66.822  1.00  0.00     0.000 HD 
ENDBRANCH   7   8
ENDBRANCH   6   7
ENDBRANCH   5   6
ENDBRANCH   3   5
TORSDOF 4
ENDMDL
MODEL      140
REMARK 921   NORMALIZED FREE ENERGY PREDICTED BY IDOCK:   -2.49 KCAL/MOL
REMARK 922        TOTAL FREE ENERGY PREDICTED BY IDOCK:   -3.58 KCAL/MOL
REMARK 923 INTER-LIGAND FREE ENERGY PREDICTED BY IDOCK:   -3.46 KCAL/MOL
REMARK 924 INTRA-LIGAND FREE ENERGY PREDICTED BY IDOCK:   -0.12 KCAL/MOL
REMARK 927      BINDING AFFINITY PREDICTED BY RF-SCORE:    0.00 PKD
ROOT
ATOM      1  NZ  LYS A   1      -7.694  15.610  66.421  1.00  0.00    -0.177 NA 
ATOM      2  HZ2 LYS A   1      -7.650  14.776  65.835  1.00  0.00     0.000 HD 
ATOM      3  CE  LYS A   1      -8.985  16.279  66.298  1.00  0.00    -0.331 C  
ATOM      4  HZ1 LYS A   1      -6.920  16.244  66.223  1.00  0.00     0.000 HD 
ENDROOT
BRANCH   3   5
ATOM      5  CD  LYS A   1     -10.146  15.327  66.595  1.00  0.00    -0.268 C  
BRANCH   5   6
ATOM      6  CG  LYS A   1     -10.266  14.214  65.548  1.00  0.00    -0.371 C  
BRANCH   6   7
ATOM      7  CB  LYS A   1      -9.951  12.837  66.133  1.00  0.00    -0.272 C  
BRANCH   7   8
ATOM      8  CA  LYS A   1     -11.082  11.821  65.910  1.00  0.00    -0.302 C  
ATOM      9  N   LYS A   1     -12.408  12.490  65.762  1.00  0.00    -0.626 NA 
ATOM     10  C   LYS A   1     -11.160  10.891  67.131  1.00  0.00    -0.240 C  
ATOM     11  OXT LYS A   1     -10.421   9.943  67.347  1.00  0.00    -0.232 OA 
ATOM     12  O   LYS A   1     -12.155  11.278  67.974  1.00  0.00    -0.638 OA 
ATOM     13  H1  LYS A   1     -13.159  11.816  65.614  1.00  0.00     0.000 HD 
ATOM     14  H2  LYS A   1     -12.389  13.193  65.022  1.00  0.00     0.000 HD 
ENDBRANCH   7   8
ENDBRANCH   6   7
ENDBRANCH   5   6
ENDBRANCH   3   5
TORSDOF 4
ENDMDL
MODEL      141
REMARK 921   NORMALIZED FREE ENERGY PREDICTED BY IDOCK:   -2.49 KCAL/MOL
REMARK 922        TOTAL FREE ENERGY PREDICTED BY IDOCK:   -3.58 KCAL/MOL
REMARK 923 INTER-LIGAND FREE ENERGY PREDICTED BY IDOCK:   -3.37 KCAL/MOL
REMARK 924 INTRA-LIGAND FREE ENERGY PREDICTED BY IDOCK:   -0.21 KCAL/MOL
REMARK 927      BINDING AFFINITY PREDICTED BY RF-SCORE:    0.00 PKD
ROOT
ATOM      1  NZ  LYS A   1      -9.000  14.823  69.586  1.00  0.00    -0.422 NA 
ATOM      2  HZ2 LYS A   1      -8.170  14.655  70.155  1.00  0.00     0.000 HD 
ATOM      3  CE  LYS A   1      -9.020  16.186  69.063  1.00  0.00    -0.247 C  
ATOM      4  HZ1 LYS A   1      -9.854  14.604  70.099  1.00  0.00     0.000 HD 
ENDROOT
BRANCH   3   5
ATOM      5  CD  LYS A   1      -7.738  16.514  68.293  1.00  0.00    -0.176 C  
BRANCH   5   6
ATOM      6  CG  LYS A   1      -7.082  17.808  68.785  1.00  0.00    -0.263 C  
BRANCH   6   7
ATOM      7  CB  LYS A   1      -7.972  19.030  68.552  1.00  0.00    -0.381 C  
BRANCH   7   8
ATOM      8  CA  LYS A   1      -8.293  19.261  67.068  1.00  0.00    -0.278 C  
ATOM      9  N   LYS A   1      -7.740  20.557  66.575  1.00  0.00    -0.506 NA 
ATOM     10  C   LYS A   1      -9.819  19.305  66.892  1.00  0.00    -0.342 C  
ATOM     11  OXT LYS A   1     -10.555  18.332  66.847  1.00  0.00    -0.379 OA 
ATOM     12  O   LYS A   1     -10.263  20.589  66.821  1.00  0.00    -0.372 OA 
ATOM     13  H1  LYS A   1      -7.953  20.710  65.590  1.00  0.00     0.000 HD 
ATOM     14  H2  LYS A   1      -6.737  20.625  66.754  1.00  0.00     0.000 HD 
ENDBRANCH   7   8
ENDBRANCH   6   7
ENDBRANCH   5   6
ENDBRANCH   3   5
TORSDOF 4
ENDMDL
MODEL      142
REMARK 921   NORMALIZED FREE ENERGY PREDICTED BY IDOCK:   -2.49 KCAL/MOL
REMARK 922        TOTAL FREE ENERGY PREDICTED BY IDOCK:   -3.57 KCAL/MOL
REMARK 923 INTER-LIGAND FREE ENERGY PREDICTED BY IDOCK:   -3.31 KCAL/MOL
REMARK 924 INTRA-LIGAND FREE ENERGY PREDICTED BY IDOCK:   -0.26 KCAL/MOL
REMARK 927      BINDING AFFINITY PREDICTED BY RF-SCORE:    0.00 PKD
ROOT
ATOM      1  NZ  LYS A   1      -5.988  19.070  64.082  1.00  0.00    -0.444 NA 
ATOM      2  HZ2 LYS A   1      -6.720  19.699  64.413  1.00  0.00     0.000 HD 
ATOM      3  CE  LYS A   1      -5.293  18.430  65.194  1.00  0.00    -0.165 C  
ATOM      4  HZ1 LYS A   1      -5.340  19.549  63.457  1.00  0.00     0.000 HD 
ENDROOT
BRANCH   3   5
ATOM      5  CD  LYS A   1      -6.266  17.711  66.132  1.00  0.00    -0.268 C  
BRANCH   5   6
ATOM      6  CG  LYS A   1      -6.238  18.290  67.551  1.00  0.00    -0.185 C  
BRANCH   6   7
ATOM      7  CB  LYS A   1      -7.307  19.364  67.755  1.00  0.00    -0.288 C  
BRANCH   7   8
ATOM      8  CA  LYS A   1      -8.612  19.058  67.003  1.00  0.00    -0.293 C  
ATOM      9  N   LYS A   1      -8.971  20.149  66.049  1.00  0.00    -0.576 NA 
ATOM     10  C   LYS A   1      -9.754  18.932  68.023  1.00  0.00    -0.337 C  
ATOM     11  OXT LYS A   1      -9.982  17.951  68.713  1.00  0.00    -0.359 OA 
ATOM     12  O   LYS A   1     -10.478  20.083  68.086  1.00  0.00    -0.396 OA 
ATOM     13  H1  LYS A   1      -9.837  19.946  65.550  1.00  0.00     0.000 HD 
ATOM     14  H2  LYS A   1      -8.206  20.343  65.402  1.00  0.00     0.000 HD 
ENDBRANCH   7   8
ENDBRANCH   6   7
ENDBRANCH   5   6
ENDBRANCH   3   5
TORSDOF 4
ENDMDL
MODEL      143
REMARK 921   NORMALIZED FREE ENERGY PREDICTED BY IDOCK:   -2.49 KCAL/MOL
REMARK 922        TOTAL FREE ENERGY PREDICTED BY IDOCK:   -3.57 KCAL/MOL
REMARK 923 INTER-LIGAND FREE ENERGY PREDICTED BY IDOCK:   -3.40 KCAL/MOL
REMARK 924 INTRA-LIGAND FREE ENERGY PREDICTED BY IDOCK:   -0.17 KCAL/MOL
REMARK 927      BINDING AFFINITY PREDICTED BY RF-SCORE:    0.00 PKD
ROOT
ATOM      1  NZ  LYS A   1      -5.686  18.778  68.256  1.00  0.00    -0.189 NA 
ATOM      2  HZ2 LYS A   1      -5.285  18.534  67.351  1.00  0.00     0.000 HD 
ATOM      3  CE  LYS A   1      -7.030  18.230  68.409  1.00  0.00    -0.245 C  
ATOM      4  HZ1 LYS A   1      -5.670  19.786  68.411  1.00  0.00     0.000 HD 
ENDROOT
BRANCH   3   5
ATOM      5  CD  LYS A   1      -7.054  16.717  68.177  1.00  0.00    -0.157 C  
BRANCH   5   6
ATOM      6  CG  LYS A   1      -7.888  16.331  66.951  1.00  0.00    -0.278 C  
BRANCH   6   7
ATOM      7  CB  LYS A   1      -8.523  17.551  66.280  1.00  0.00    -0.247 C  
BRANCH   7   8
ATOM      8  CA  LYS A   1     -10.056  17.557  66.382  1.00  0.00    -0.345 C  
ATOM      9  N   LYS A   1     -10.696  16.996  65.156  1.00  0.00    -0.664 NA 
ATOM     10  C   LYS A   1     -10.536  19.008  66.539  1.00  0.00    -0.410 C  
ATOM     11  OXT LYS A   1     -10.516  19.652  67.576  1.00  0.00    -0.422 OA 
ATOM     12  O   LYS A   1     -10.968  19.508  65.350  1.00  0.00    -0.447 OA 
ATOM     13  H1  LYS A   1     -11.714  17.000  65.223  1.00  0.00     0.000 HD 
ATOM     14  H2  LYS A   1     -10.342  16.062  64.946  1.00  0.00     0.000 HD 
ENDBRANCH   7   8
ENDBRANCH   6   7
ENDBRANCH   5   6
ENDBRANCH   3   5
TORSDOF 4
ENDMDL
MODEL      144
REMARK 921   NORMALIZED FREE ENERGY PREDICTED BY IDOCK:   -2.49 KCAL/MOL
REMARK 922        TOTAL FREE ENERGY PREDICTED BY IDOCK:   -3.57 KCAL/MOL
REMARK 923 INTER-LIGAND FREE ENERGY PREDICTED BY IDOCK:   -3.34 KCAL/MOL
REMARK 924 INTRA-LIGAND FREE ENERGY PREDICTED BY IDOCK:   -0.23 KCAL/MOL
REMARK 927      BINDING AFFINITY PREDICTED BY RF-SCORE:    0.00 PKD
ROOT
ATOM      1  NZ  LYS A   1     -10.308  17.916  69.046  1.00  0.00    -0.420 NA 
ATOM      2  HZ2 LYS A   1     -10.401  18.820  69.510  1.00  0.00     0.000 HD 
ATOM      3  CE  LYS A   1     -10.769  17.979  67.662  1.00  0.00    -0.344 C  
ATOM      4  HZ1 LYS A   1     -10.782  17.179  69.568  1.00  0.00     0.000 HD 
ENDROOT
BRANCH   3   5
ATOM      5  CD  LYS A   1     -10.057  19.085  66.879  1.00  0.00    -0.437 C  
BRANCH   5   6
ATOM      6  CG  LYS A   1      -9.246  20.012  67.792  1.00  0.00    -0.435 C  
BRANCH   6   7
ATOM      7  CB  LYS A   1      -7.980  20.529  67.107  1.00  0.00    -0.361 C  
BRANCH   7   8
ATOM      8  CA  LYS A   1      -6.732  19.704  67.458  1.00  0.00    -0.214 C  
ATOM      9  N   LYS A   1      -6.627  18.472  66.621  1.00  0.00    -0.181 NA 
ATOM     10  C   LYS A   1      -6.825  19.265  68.928  1.00  0.00    -0.331 C  
ATOM     11  OXT LYS A   1      -6.569  19.968  69.893  1.00  0.00    -0.350 OA 
ATOM     12  O   LYS A   1      -7.265  17.982  69.025  1.00  0.00    -0.264 OA 
ATOM     13  H1  LYS A   1      -5.799  17.924  66.854  1.00  0.00     0.000 HD 
ATOM     14  H2  LYS A   1      -6.657  18.696  65.626  1.00  0.00     0.000 HD 
ENDBRANCH   7   8
ENDBRANCH   6   7
ENDBRANCH   5   6
ENDBRANCH   3   5
TORSDOF 4
ENDMDL
MODEL      145
REMARK 921   NORMALIZED FREE ENERGY PREDICTED BY IDOCK:   -2.47 KCAL/MOL
REMARK 922        TOTAL FREE ENERGY PREDICTED BY IDOCK:   -3.55 KCAL/MOL
REMARK 923 INTER-LIGAND FREE ENERGY PREDICTED BY IDOCK:   -3.39 KCAL/MOL
REMARK 924 INTRA-LIGAND FREE ENERGY PREDICTED BY IDOCK:   -0.16 KCAL/MOL
REMARK 927      BINDING AFFINITY PREDICTED BY RF-SCORE:    0.00 PKD
ROOT
ATOM      1  NZ  LYS A   1     -10.442  13.455  68.766  1.00  0.00    -0.360 NA 
ATOM      2  HZ2 LYS A   1      -9.492  13.795  68.614  1.00  0.00     0.000 HD 
ATOM      3  CE  LYS A   1     -11.416  14.243  68.017  1.00  0.00    -0.314 C  
ATOM      4  HZ1 LYS A   1     -10.670  13.420  69.760  1.00  0.00     0.000 HD 
ENDROOT
BRANCH   3   5
ATOM      5  CD  LYS A   1     -11.074  14.296  66.526  1.00  0.00    -0.323 C  
BRANCH   5   6
ATOM      6  CG  LYS A   1      -9.858  15.184  66.241  1.00  0.00    -0.317 C  
BRANCH   6   7
ATOM      7  CB  LYS A   1     -10.259  16.628  65.938  1.00  0.00    -0.358 C  
BRANCH   7   8
ATOM      8  CA  LYS A   1      -9.366  17.657  66.647  1.00  0.00    -0.278 C  
ATOM      9  N   LYS A   1      -8.326  17.001  67.494  1.00  0.00    -0.187 NA 
ATOM     10  C   LYS A   1     -10.241  18.522  67.567  1.00  0.00    -0.385 C  
ATOM     11  OXT LYS A   1     -10.941  19.456  67.206  1.00  0.00    -0.491 OA 
ATOM     12  O   LYS A   1     -10.163  18.094  68.856  1.00  0.00    -0.379 OA 
ATOM     13  H1  LYS A   1      -7.734  17.684  67.965  1.00  0.00     0.000 HD 
ATOM     14  H2  LYS A   1      -7.771  16.338  66.952  1.00  0.00     0.000 HD 
ENDBRANCH   7   8
ENDBRANCH   6   7
ENDBRANCH   5   6
ENDBRANCH   3   5
TORSDOF 4
ENDMDL
MODEL      146
REMARK 921   NORMALIZED FREE ENERGY PREDICTED BY IDOCK:   -2.46 KCAL/MOL
REMARK 922        TOTAL FREE ENERGY PREDICTED BY IDOCK:   -3.53 KCAL/MOL
REMARK 923 INTER-LIGAND FREE ENERGY PREDICTED BY IDOCK:   -3.52 KCAL/MOL
REMARK 924 INTRA-LIGAND FREE ENERGY PREDICTED BY IDOCK:   -0.01 KCAL/MOL
REMARK 927      BINDING AFFINITY PREDICTED BY RF-SCORE:    0.00 PKD
ROOT
ATOM      1  NZ  LYS A   1     -10.183  20.247  65.878  1.00  0.00    -0.536 NA 
ATOM      2  HZ2 LYS A   1     -10.819  20.890  66.350  1.00  0.00     0.000 HD 
ATOM      3  CE  LYS A   1      -9.363  19.511  66.834  1.00  0.00    -0.346 C  
ATOM      4  HZ1 LYS A   1      -9.612  20.731  65.184  1.00  0.00     0.000 HD 
ENDROOT
BRANCH   3   5
ATOM      5  CD  LYS A   1     -10.220  18.785  67.874  1.00  0.00    -0.448 C  
BRANCH   5   6
ATOM      6  CG  LYS A   1      -9.823  17.313  68.027  1.00  0.00    -0.284 C  
BRANCH   6   7
ATOM      7  CB  LYS A   1     -11.036  16.411  68.261  1.00  0.00    -0.355 C  
BRANCH   7   8
ATOM      8  CA  LYS A   1     -11.000  15.131  67.413  1.00  0.00    -0.314 C  
ATOM      9  N   LYS A   1     -12.336  14.466  67.353  1.00  0.00    -0.600 NA 
ATOM     10  C   LYS A   1     -10.013  14.141  68.051  1.00  0.00    -0.226 C  
ATOM     11  OXT LYS A   1      -8.797  14.186  67.943  1.00  0.00    -0.165 OA 
ATOM     12  O   LYS A   1     -10.670  13.208  68.791  1.00  0.00    -0.249 OA 
ATOM     13  H1  LYS A   1     -12.312  13.616  66.790  1.00  0.00     0.000 HD 
ATOM     14  H2  LYS A   1     -13.056  15.110  67.024  1.00  0.00     0.000 HD 
ENDBRANCH   7   8
ENDBRANCH   6   7
ENDBRANCH   5   6
ENDBRANCH   3   5
TORSDOF 4
ENDMDL
MODEL      147
REMARK 921   NORMALIZED FREE ENERGY PREDICTED BY IDOCK:   -2.46 KCAL/MOL
REMARK 922        TOTAL FREE ENERGY PREDICTED BY IDOCK:   -3.53 KCAL/MOL
REMARK 923 INTER-LIGAND FREE ENERGY PREDICTED BY IDOCK:   -3.43 KCAL/MOL
REMARK 924 INTRA-LIGAND FREE ENERGY PREDICTED BY IDOCK:   -0.10 KCAL/MOL
REMARK 927      BINDING AFFINITY PREDICTED BY RF-SCORE:    0.00 PKD
ROOT
ATOM      1  NZ  LYS A   1      -8.920  12.869  66.265  1.00  0.00    -0.439 NA 
ATOM      2  HZ2 LYS A   1      -7.953  13.115  66.053  1.00  0.00     0.000 HD 
ATOM      3  CE  LYS A   1      -9.214  13.044  67.684  1.00  0.00    -0.200 C  
ATOM      4  HZ1 LYS A   1      -9.143  11.926  65.947  1.00  0.00     0.000 HD 
ENDROOT
BRANCH   3   5
ATOM      5  CD  LYS A   1      -8.880  14.459  68.161  1.00  0.00    -0.180 C  
BRANCH   5   6
ATOM      6  CG  LYS A   1      -9.140  15.512  67.079  1.00  0.00    -0.250 C  
BRANCH   6   7
ATOM      7  CB  LYS A   1      -9.670  16.822  67.665  1.00  0.00    -0.251 C  
BRANCH   7   8
ATOM      8  CA  LYS A   1      -9.166  18.061  66.910  1.00  0.00    -0.269 C  
ATOM      9  N   LYS A   1      -8.571  19.070  67.835  1.00  0.00    -0.293 NA 
ATOM     10  C   LYS A   1     -10.354  18.724  66.196  1.00  0.00    -0.448 C  
ATOM     11  OXT LYS A   1     -10.847  18.347  65.144  1.00  0.00    -0.630 OA 
ATOM     12  O   LYS A   1     -10.818  19.786  66.908  1.00  0.00    -0.472 OA 
ATOM     13  H1  LYS A   1      -8.236  19.893  67.335  1.00  0.00     0.000 HD 
ATOM     14  H2  LYS A   1      -7.834  18.659  68.409  1.00  0.00     0.000 HD 
ENDBRANCH   7   8
ENDBRANCH   6   7
ENDBRANCH   5   6
ENDBRANCH   3   5
TORSDOF 4
ENDMDL
MODEL      148
REMARK 921   NORMALIZED FREE ENERGY PREDICTED BY IDOCK:   -2.44 KCAL/MOL
REMARK 922        TOTAL FREE ENERGY PREDICTED BY IDOCK:   -3.51 KCAL/MOL
REMARK 923 INTER-LIGAND FREE ENERGY PREDICTED BY IDOCK:   -3.07 KCAL/MOL
REMARK 924 INTRA-LIGAND FREE ENERGY PREDICTED BY IDOCK:   -0.44 KCAL/MOL
REMARK 927      BINDING AFFINITY PREDICTED BY RF-SCORE:    0.00 PKD
ROOT
ATOM      1  NZ  LYS A   1      -9.625  13.303  68.945  1.00  0.00    -0.404 NA 
ATOM      2  HZ2 LYS A   1      -9.669  13.853  69.803  1.00  0.00     0.000 HD 
ATOM      3  CE  LYS A   1     -10.954  12.878  68.516  1.00  0.00    -0.259 C  
ATOM      4  HZ1 LYS A   1      -8.989  12.511  69.043  1.00  0.00     0.000 HD 
ENDROOT
BRANCH   3   5
ATOM      5  CD  LYS A   1     -11.907  14.066  68.368  1.00  0.00    -0.397 C  
BRANCH   5   6
ATOM      6  CG  LYS A   1     -11.304  15.365  68.915  1.00  0.00    -0.322 C  
BRANCH   6   7
ATOM      7  CB  LYS A   1     -11.030  16.383  67.807  1.00  0.00    -0.261 C  
BRANCH   7   8
ATOM      8  CA  LYS A   1      -9.659  17.062  67.946  1.00  0.00    -0.249 C  
ATOM      9  N   LYS A   1      -9.711  18.503  67.558  1.00  0.00    -0.294 NA 
ATOM     10  C   LYS A   1      -8.662  16.361  67.010  1.00  0.00    -0.199 C  
ATOM     11  OXT LYS A   1      -8.102  15.300  67.239  1.00  0.00    -0.168 OA 
ATOM     12  O   LYS A   1      -8.498  17.067  65.859  1.00  0.00    -0.519 OA 
ATOM     13  H1  LYS A   1      -8.801  18.954  67.650  1.00  0.00     0.000 HD 
ATOM     14  H2  LYS A   1     -10.428  19.003  68.085  1.00  0.00     0.000 HD 
ENDBRANCH   7   8
ENDBRANCH   6   7
ENDBRANCH   5   6
ENDBRANCH   3   5
TORSDOF 4
ENDMDL
MODEL      149
REMARK 921   NORMALIZED FREE ENERGY PREDICTED BY IDOCK:   -2.44 KCAL/MOL
REMARK 922        TOTAL FREE ENERGY PREDICTED BY IDOCK:   -3.51 KCAL/MOL
REMARK 923 INTER-LIGAND FREE ENERGY PREDICTED BY IDOCK:   -3.40 KCAL/MOL
REMARK 924 INTRA-LIGAND FREE ENERGY PREDICTED BY IDOCK:   -0.11 KCAL/MOL
REMARK 927      BINDING AFFINITY PREDICTED BY RF-SCORE:    0.00 PKD
ROOT
ATOM      1  NZ  LYS A   1     -11.251  15.243  64.684  1.00  0.00    -0.623 NA 
ATOM      2  HZ2 LYS A   1     -10.819  14.527  64.099  1.00  0.00     0.000 HD 
ATOM      3  CE  LYS A   1     -11.432  14.773  66.054  1.00  0.00    -0.316 C  
ATOM      4  HZ1 LYS A   1     -12.127  15.576  64.281  1.00  0.00     0.000 HD 
ENDROOT
BRANCH   3   5
ATOM      5  CD  LYS A   1     -10.117  14.274  66.659  1.00  0.00    -0.274 C  
BRANCH   5   6
ATOM      6  CG  LYS A   1     -10.346  13.346  67.857  1.00  0.00    -0.238 C  
BRANCH   6   7
ATOM      7  CB  LYS A   1      -9.875  11.918  67.576  1.00  0.00    -0.194 C  
BRANCH   7   8
ATOM      8  CA  LYS A   1     -11.016  10.990  67.132  1.00  0.00    -0.283 C  
ATOM      9  N   LYS A   1     -12.127  10.959  68.130  1.00  0.00    -0.790 NA 
ATOM     10  C   LYS A   1     -10.469   9.561  66.996  1.00  0.00    -0.232 C  
ATOM     11  OXT LYS A   1      -9.824   9.137  66.050  1.00  0.00    -0.277 OA 
ATOM     12  O   LYS A   1     -10.770   8.818  68.096  1.00  0.00    -0.177 OA 
ATOM     13  H1  LYS A   1     -12.884  10.343  67.835  1.00  0.00     0.000 HD 
ATOM     14  H2  LYS A   1     -12.470  11.898  68.333  1.00  0.00     0.000 HD 
ENDBRANCH   7   8
ENDBRANCH   6   7
ENDBRANCH   5   6
ENDBRANCH   3   5
TORSDOF 4
ENDMDL
MODEL      150
REMARK 921   NORMALIZED FREE ENERGY PREDICTED BY IDOCK:   -2.44 KCAL/MOL
REMARK 922        TOTAL FREE ENERGY PREDICTED BY IDOCK:   -3.51 KCAL/MOL
REMARK 923 INTER-LIGAND FREE ENERGY PREDICTED BY IDOCK:   -3.36 KCAL/MOL
REMARK 924 INTRA-LIGAND FREE ENERGY PREDICTED BY IDOCK:   -0.15 KCAL/MOL
REMARK 927      BINDING AFFINITY PREDICTED BY RF-SCORE:    0.00 PKD
ROOT
ATOM      1  NZ  LYS A   1      -8.302  12.985  66.724  1.00  0.00    -0.417 NA 
ATOM      2  HZ2 LYS A   1      -7.878  13.426  67.541  1.00  0.00     0.000 HD 
ATOM      3  CE  LYS A   1      -9.676  12.574  66.994  1.00  0.00    -0.213 C  
ATOM      4  HZ1 LYS A   1      -7.735  12.207  66.386  1.00  0.00     0.000 HD 
ENDROOT
BRANCH   3   5
ATOM      5  CD  LYS A   1     -10.526  13.742  67.502  1.00  0.00    -0.245 C  
BRANCH   5   6
ATOM      6  CG  LYS A   1     -11.157  13.448  68.867  1.00  0.00    -0.307 C  
BRANCH   6   7
ATOM      7  CB  LYS A   1     -11.944  12.137  68.867  1.00  0.00    -0.296 C  
BRANCH   7   8
ATOM      8  CA  LYS A   1     -11.566  11.213  70.035  1.00  0.00    -0.338 C  
ATOM      9  N   LYS A   1     -11.287   9.821  69.574  1.00  0.00    -0.419 NA 
ATOM     10  C   LYS A   1     -12.743  11.153  71.021  1.00  0.00    -0.378 C  
ATOM     11  OXT LYS A   1     -13.015  12.007  71.851  1.00  0.00    -0.400 OA 
ATOM     12  O   LYS A   1     -13.478  10.024  70.832  1.00  0.00    -0.352 OA 
ATOM     13  H1  LYS A   1     -11.036   9.208  70.349  1.00  0.00     0.000 HD 
ATOM     14  H2  LYS A   1     -10.574   9.808  68.844  1.00  0.00     0.000 HD 
ENDBRANCH   7   8
ENDBRANCH   6   7
ENDBRANCH   5   6
ENDBRANCH   3   5
TORSDOF 4
ENDMDL
MODEL      151
REMARK 921   NORMALIZED FREE ENERGY PREDICTED BY IDOCK:   -2.44 KCAL/MOL
REMARK 922        TOTAL FREE ENERGY PREDICTED BY IDOCK:   -3.51 KCAL/MOL
REMARK 923 INTER-LIGAND FREE ENERGY PREDICTED BY IDOCK:   -3.34 KCAL/MOL
REMARK 924 INTRA-LIGAND FREE ENERGY PREDICTED BY IDOCK:   -0.17 KCAL/MOL
REMARK 927      BINDING AFFINITY PREDICTED BY RF-SCORE:    0.00 PKD
ROOT
ATOM      1  NZ  LYS A   1      -8.848  19.666  66.032  1.00  0.00    -0.410 NA 
ATOM      2  HZ2 LYS A   1      -9.199  20.218  66.814  1.00  0.00     0.000 HD 
ATOM      3  CE  LYS A   1      -8.469  18.322  66.456  1.00  0.00    -0.268 C  
ATOM      4  HZ1 LYS A   1      -8.081  20.141  65.555  1.00  0.00     0.000 HD 
ENDROOT
BRANCH   3   5
ATOM      5  CD  LYS A   1      -9.619  17.608  67.170  1.00  0.00    -0.278 C  
BRANCH   5   6
ATOM      6  CG  LYS A   1      -9.123  16.681  68.285  1.00  0.00    -0.218 C  
BRANCH   6   7
ATOM      7  CB  LYS A   1      -9.844  15.332  68.275  1.00  0.00    -0.218 C  
BRANCH   7   8
ATOM      8  CA  LYS A   1     -11.236  15.404  67.630  1.00  0.00    -0.311 C  
ATOM      9  N   LYS A   1     -12.318  15.083  68.607  1.00  0.00    -0.589 NA 
ATOM     10  C   LYS A   1     -11.310  14.374  66.493  1.00  0.00    -0.350 C  
ATOM     11  OXT LYS A   1     -10.841  14.518  65.375  1.00  0.00    -0.315 OA 
ATOM     12  O   LYS A   1     -11.949  13.244  66.902  1.00  0.00    -0.383 OA 
ATOM     13  H1  LYS A   1     -13.243  15.130  68.179  1.00  0.00     0.000 HD 
ATOM     14  H2  LYS A   1     -12.261  15.678  69.434  1.00  0.00     0.000 HD 
ENDBRANCH   7   8
ENDBRANCH   6   7
ENDBRANCH   5   6
ENDBRANCH   3   5
TORSDOF 4
ENDMDL
MODEL      152
REMARK 921   NORMALIZED FREE ENERGY PREDICTED BY IDOCK:   -2.44 KCAL/MOL
REMARK 922        TOTAL FREE ENERGY PREDICTED BY IDOCK:   -3.51 KCAL/MOL
REMARK 923 INTER-LIGAND FREE ENERGY PREDICTED BY IDOCK:   -3.48 KCAL/MOL
REMARK 924 INTRA-LIGAND FREE ENERGY PREDICTED BY IDOCK:   -0.03 KCAL/MOL
REMARK 927      BINDING AFFINITY PREDICTED BY RF-SCORE:    0.00 PKD
ROOT
ATOM      1  NZ  LYS A   1      -6.593  13.244  67.296  1.00  0.00    -0.442 NA 
ATOM      2  HZ2 LYS A   1      -5.984  14.026  67.536  1.00  0.00     0.000 HD 
ATOM      3  CE  LYS A   1      -7.996  13.570  67.531  1.00  0.00    -0.181 C  
ATOM      4  HZ1 LYS A   1      -6.316  12.393  67.786  1.00  0.00     0.000 HD 
ENDROOT
BRANCH   3   5
ATOM      5  CD  LYS A   1      -8.412  14.846  66.795  1.00  0.00    -0.215 C  
BRANCH   5   6
ATOM      6  CG  LYS A   1      -7.788  16.102  67.416  1.00  0.00    -0.180 C  
BRANCH   6   7
ATOM      7  CB  LYS A   1      -8.318  17.384  66.773  1.00  0.00    -0.276 C  
BRANCH   7   8
ATOM      8  CA  LYS A   1      -9.849  17.494  66.831  1.00  0.00    -0.302 C  
ATOM      9  N   LYS A   1     -10.477  17.215  65.506  1.00  0.00    -0.619 NA 
ATOM     10  C   LYS A   1     -10.228  18.926  67.238  1.00  0.00    -0.390 C  
ATOM     11  OXT LYS A   1     -10.204  19.369  68.376  1.00  0.00    -0.405 OA 
ATOM     12  O   LYS A   1     -10.573  19.665  66.149  1.00  0.00    -0.472 OA 
ATOM     13  H1  LYS A   1     -11.493  17.288  65.545  1.00  0.00     0.000 HD 
ATOM     14  H2  LYS A   1     -10.183  16.309  65.139  1.00  0.00     0.000 HD 
ENDBRANCH   7   8
ENDBRANCH   6   7
ENDBRANCH   5   6
ENDBRANCH   3   5
TORSDOF 4
ENDMDL
MODEL      153
REMARK 921   NORMALIZED FREE ENERGY PREDICTED BY IDOCK:   -2.44 KCAL/MOL
REMARK 922        TOTAL FREE ENERGY PREDICTED BY IDOCK:   -3.51 KCAL/MOL
REMARK 923 INTER-LIGAND FREE ENERGY PREDICTED BY IDOCK:   -3.48 KCAL/MOL
REMARK 924 INTRA-LIGAND FREE ENERGY PREDICTED BY IDOCK:   -0.03 KCAL/MOL
REMARK 927      BINDING AFFINITY PREDICTED BY RF-SCORE:    0.00 PKD
ROOT
ATOM      1  NZ  LYS A   1      -8.263   7.125  63.052  1.00  0.00    -0.330 NA 
ATOM      2  HZ2 LYS A   1      -9.235   6.845  63.182  1.00  0.00     0.000 HD 
ATOM      3  CE  LYS A   1      -8.110   8.574  63.136  1.00  0.00    -0.165 C  
ATOM      4  HZ1 LYS A   1      -7.882   6.755  62.181  1.00  0.00     0.000 HD 
ENDROOT
BRANCH   3   5
ATOM      5  CD  LYS A   1      -8.681   9.128  64.443  1.00  0.00    -0.184 C  
BRANCH   5   6
ATOM      6  CG  LYS A   1      -9.480  10.418  64.226  1.00  0.00    -0.349 C  
BRANCH   6   7
ATOM      7  CB  LYS A   1     -10.520  10.643  65.325  1.00  0.00    -0.264 C  
BRANCH   7   8
ATOM      8  CA  LYS A   1     -10.996  12.101  65.407  1.00  0.00    -0.302 C  
ATOM      9  N   LYS A   1     -11.643  12.401  66.718  1.00  0.00    -0.390 NA 
ATOM     10  C   LYS A   1     -12.037  12.346  64.304  1.00  0.00    -0.433 C  
ATOM     11  OXT LYS A   1     -11.786  12.548  63.126  1.00  0.00    -0.430 OA 
ATOM     12  O   LYS A   1     -13.300  12.279  64.804  1.00  0.00    -0.631 OA 
ATOM     13  H1  LYS A   1     -11.959  13.369  66.773  1.00  0.00     0.000 HD 
ATOM     14  H2  LYS A   1     -11.028  12.166  67.498  1.00  0.00     0.000 HD 
ENDBRANCH   7   8
ENDBRANCH   6   7
ENDBRANCH   5   6
ENDBRANCH   3   5
TORSDOF 4
ENDMDL
MODEL      154
REMARK 921   NORMALIZED FREE ENERGY PREDICTED BY IDOCK:   -2.43 KCAL/MOL
REMARK 922        TOTAL FREE ENERGY PREDICTED BY IDOCK:   -3.50 KCAL/MOL
REMARK 923 INTER-LIGAND FREE ENERGY PREDICTED BY IDOCK:   -3.38 KCAL/MOL
REMARK 924 INTRA-LIGAND FREE ENERGY PREDICTED BY IDOCK:   -0.12 KCAL/MOL
REMARK 927      BINDING AFFINITY PREDICTED BY RF-SCORE:    0.00 PKD
ROOT
ATOM      1  NZ  LYS A   1      -6.034  11.843  66.411  1.00  0.00    -0.496 NA 
ATOM      2  HZ2 LYS A   1      -6.462  11.384  65.607  1.00  0.00     0.000 HD 
ATOM      3  CE  LYS A   1      -7.009  12.075  67.472  1.00  0.00    -0.130 C  
ATOM      4  HZ1 LYS A   1      -5.560  12.704  66.139  1.00  0.00     0.000 HD 
ENDROOT
BRANCH   3   5
ATOM      5  CD  LYS A   1      -7.720  10.783  67.881  1.00  0.00    -0.100 C  
BRANCH   5   6
ATOM      6  CG  LYS A   1      -9.230  10.980  68.051  1.00  0.00    -0.159 C  
BRANCH   6   7
ATOM      7  CB  LYS A   1      -9.726  12.250  67.357  1.00  0.00    -0.185 C  
BRANCH   7   8
ATOM      8  CA  LYS A   1     -11.232  12.485  67.547  1.00  0.00    -0.291 C  
ATOM      9  N   LYS A   1     -11.974  11.204  67.735  1.00  0.00    -0.652 NA 
ATOM     10  C   LYS A   1     -11.789  13.168  66.288  1.00  0.00    -0.401 C  
ATOM     11  OXT LYS A   1     -11.689  14.356  66.025  1.00  0.00    -0.364 OA 
ATOM     12  O   LYS A   1     -12.394  12.264  65.472  1.00  0.00    -0.602 OA 
ATOM     13  H1  LYS A   1     -12.974  11.359  67.861  1.00  0.00     0.000 HD 
ATOM     14  H2  LYS A   1     -11.584  10.658  68.504  1.00  0.00     0.000 HD 
ENDBRANCH   7   8
ENDBRANCH   6   7
ENDBRANCH   5   6
ENDBRANCH   3   5
TORSDOF 4
ENDMDL
MODEL      155
REMARK 921   NORMALIZED FREE ENERGY PREDICTED BY IDOCK:   -2.42 KCAL/MOL
REMARK 922        TOTAL FREE ENERGY PREDICTED BY IDOCK:   -3.49 KCAL/MOL
REMARK 923 INTER-LIGAND FREE ENERGY PREDICTED BY IDOCK:   -2.78 KCAL/MOL
REMARK 924 INTRA-LIGAND FREE ENERGY PREDICTED BY IDOCK:   -0.71 KCAL/MOL
REMARK 927      BINDING AFFINITY PREDICTED BY RF-SCORE:    0.00 PKD
ROOT
ATOM      1  NZ  LYS A   1      -9.840  18.779  68.736  1.00  0.00    -0.383 NA 
ATOM      2  HZ2 LYS A   1      -9.227  17.995  68.962  1.00  0.00     0.000 HD 
ATOM      3  CE  LYS A   1      -9.333  19.539  67.597  1.00  0.00    -0.316 C  
ATOM      4  HZ1 LYS A   1      -9.995  19.376  69.548  1.00  0.00     0.000 HD 
ENDROOT
BRANCH   3   5
ATOM      5  CD  LYS A   1      -9.100  18.643  66.378  1.00  0.00    -0.288 C  
BRANCH   5   6
ATOM      6  CG  LYS A   1     -10.363  17.876  65.972  1.00  0.00    -0.318 C  
BRANCH   6   7
ATOM      7  CB  LYS A   1     -10.107  16.374  65.842  1.00  0.00    -0.370 C  
BRANCH   7   8
ATOM      8  CA  LYS A   1     -10.580  15.579  67.069  1.00  0.00    -0.311 C  
ATOM      9  N   LYS A   1     -11.361  16.430  68.015  1.00  0.00    -0.235 NA 
ATOM     10  C   LYS A   1      -9.349  15.051  67.822  1.00  0.00    -0.186 C  
ATOM     11  OXT LYS A   1      -8.691  14.072  67.505  1.00  0.00    -0.176 OA 
ATOM     12  O   LYS A   1      -9.056  15.841  68.890  1.00  0.00    -0.194 OA 
ATOM     13  H1  LYS A   1     -11.675  15.903  68.829  1.00  0.00     0.000 HD 
ATOM     14  H2  LYS A   1     -12.143  16.887  67.544  1.00  0.00     0.000 HD 
ENDBRANCH   7   8
ENDBRANCH   6   7
ENDBRANCH   5   6
ENDBRANCH   3   5
TORSDOF 4
ENDMDL
MODEL      156
REMARK 921   NORMALIZED FREE ENERGY PREDICTED BY IDOCK:   -2.42 KCAL/MOL
REMARK 922        TOTAL FREE ENERGY PREDICTED BY IDOCK:   -3.48 KCAL/MOL
REMARK 923 INTER-LIGAND FREE ENERGY PREDICTED BY IDOCK:   -3.38 KCAL/MOL
REMARK 924 INTRA-LIGAND FREE ENERGY PREDICTED BY IDOCK:   -0.10 KCAL/MOL
REMARK 927      BINDING AFFINITY PREDICTED BY RF-SCORE:    0.00 PKD
ROOT
ATOM      1  NZ  LYS A   1     -12.196  12.378  66.006  1.00  0.00    -0.624 NA 
ATOM      2  HZ2 LYS A   1     -12.077  13.154  65.354  1.00  0.00     0.000 HD 
ATOM      3  CE  LYS A   1     -10.911  11.789  66.371  1.00  0.00    -0.294 C  
ATOM      4  HZ1 LYS A   1     -12.841  11.679  65.639  1.00  0.00     0.000 HD 
ENDROOT
BRANCH   3   5
ATOM      5  CD  LYS A   1      -9.943  12.838  66.922  1.00  0.00    -0.232 C  
BRANCH   5   6
ATOM      6  CG  LYS A   1     -10.008  14.154  66.139  1.00  0.00    -0.328 C  
BRANCH   6   7
ATOM      7  CB  LYS A   1      -8.891  15.118  66.540  1.00  0.00    -0.312 C  
BRANCH   7   8
ATOM      8  CA  LYS A   1      -9.368  16.574  66.647  1.00  0.00    -0.256 C  
ATOM      9  N   LYS A   1      -8.493  17.504  65.873  1.00  0.00    -0.542 NA 
ATOM     10  C   LYS A   1      -9.321  17.005  68.121  1.00  0.00    -0.254 C  
ATOM     11  OXT LYS A   1     -10.155  16.723  68.968  1.00  0.00    -0.257 OA 
ATOM     12  O   LYS A   1      -8.198  17.728  68.381  1.00  0.00    -0.281 OA 
ATOM     13  H1  LYS A   1      -8.810  18.471  65.944  1.00  0.00     0.000 HD 
ATOM     14  H2  LYS A   1      -8.410  17.211  64.899  1.00  0.00     0.000 HD 
ENDBRANCH   7   8
ENDBRANCH   6   7
ENDBRANCH   5   6
ENDBRANCH   3   5
TORSDOF 4
ENDMDL
MODEL      157
REMARK 921   NORMALIZED FREE ENERGY PREDICTED BY IDOCK:   -2.41 KCAL/MOL
REMARK 922        TOTAL FREE ENERGY PREDICTED BY IDOCK:   -3.47 KCAL/MOL
REMARK 923 INTER-LIGAND FREE ENERGY PREDICTED BY IDOCK:   -3.29 KCAL/MOL
REMARK 924 INTRA-LIGAND FREE ENERGY PREDICTED BY IDOCK:   -0.18 KCAL/MOL
REMARK 927      BINDING AFFINITY PREDICTED BY RF-SCORE:    0.00 PKD
ROOT
ATOM      1  NZ  LYS A   1     -11.433   6.573  67.436  1.00  0.00    -0.731 NA 
ATOM      2  HZ2 LYS A   1     -11.547   7.490  67.868  1.00  0.00     0.000 HD 
ATOM      3  CE  LYS A   1     -10.377   5.804  68.088  1.00  0.00    -0.212 C  
ATOM      4  HZ1 LYS A   1     -11.274   6.653  66.431  1.00  0.00     0.000 HD 
ENDROOT
BRANCH   3   5
ATOM      5  CD  LYS A   1     -10.615   5.684  69.596  1.00  0.00    -0.401 C  
BRANCH   5   6
ATOM      6  CG  LYS A   1     -11.603   6.736  70.112  1.00  0.00    -0.397 C  
BRANCH   6   7
ATOM      7  CB  LYS A   1     -11.645   6.784  71.640  1.00  0.00    -0.336 C  
BRANCH   7   8
ATOM      8  CA  LYS A   1     -10.852   5.644  72.296  1.00  0.00    -0.242 C  
ATOM      9  N   LYS A   1     -11.704   4.827  73.209  1.00  0.00    -0.394 NA 
ATOM     10  C   LYS A   1      -9.714   6.249  73.133  1.00  0.00    -0.159 C  
ATOM     11  OXT LYS A   1      -8.654   6.665  72.692  1.00  0.00    -0.124 OA 
ATOM     12  O   LYS A   1     -10.052   6.294  74.451  1.00  0.00    -0.294 OA 
ATOM     13  H1  LYS A   1     -11.178   4.070  73.644  1.00  0.00     0.000 HD 
ATOM     14  H2  LYS A   1     -12.532   4.475  72.727  1.00  0.00     0.000 HD 
ENDBRANCH   7   8
ENDBRANCH   6   7
ENDBRANCH   5   6
ENDBRANCH   3   5
TORSDOF 4
ENDMDL
MODEL      158
REMARK 921   NORMALIZED FREE ENERGY PREDICTED BY IDOCK:   -2.40 KCAL/MOL
REMARK 922        TOTAL FREE ENERGY PREDICTED BY IDOCK:   -3.46 KCAL/MOL
REMARK 923 INTER-LIGAND FREE ENERGY PREDICTED BY IDOCK:   -3.32 KCAL/MOL
REMARK 924 INTRA-LIGAND FREE ENERGY PREDICTED BY IDOCK:   -0.14 KCAL/MOL
REMARK 927      BINDING AFFINITY PREDICTED BY RF-SCORE:    0.00 PKD
ROOT
ATOM      1  NZ  LYS A   1     -12.378  14.110  66.808  1.00  0.00    -0.554 NA 
ATOM      2  HZ2 LYS A   1     -13.163  14.608  67.228  1.00  0.00     0.000 HD 
ATOM      3  CE  LYS A   1     -11.175  14.937  66.783  1.00  0.00    -0.338 C  
ATOM      4  HZ1 LYS A   1     -12.614  13.759  65.879  1.00  0.00     0.000 HD 
ENDROOT
BRANCH   3   5
ATOM      5  CD  LYS A   1     -10.822  15.463  68.176  1.00  0.00    -0.285 C  
BRANCH   5   6
ATOM      6  CG  LYS A   1     -10.672  16.988  68.199  1.00  0.00    -0.374 C  
BRANCH   6   7
ATOM      7  CB  LYS A   1      -9.209  17.421  68.296  1.00  0.00    -0.271 C  
BRANCH   7   8
ATOM      8  CA  LYS A   1      -8.780  18.340  67.141  1.00  0.00    -0.256 C  
ATOM      9  N   LYS A   1      -8.496  17.570  65.894  1.00  0.00    -0.542 NA 
ATOM     10  C   LYS A   1      -7.491  19.073  67.544  1.00  0.00    -0.231 C  
ATOM     11  OXT LYS A   1      -7.430  20.049  68.275  1.00  0.00    -0.295 OA 
ATOM     12  O   LYS A   1      -6.399  18.472  66.998  1.00  0.00    -0.176 OA 
ATOM     13  H1  LYS A   1      -8.211  18.180  65.128  1.00  0.00     0.000 HD 
ATOM     14  H2  LYS A   1      -9.290  16.987  65.630  1.00  0.00     0.000 HD 
ENDBRANCH   7   8
ENDBRANCH   6   7
ENDBRANCH   5   6
ENDBRANCH   3   5
TORSDOF 4
ENDMDL
MODEL      159
REMARK 921   NORMALIZED FREE ENERGY PREDICTED BY IDOCK:   -2.39 KCAL/MOL
REMARK 922        TOTAL FREE ENERGY PREDICTED BY IDOCK:   -3.45 KCAL/MOL
REMARK 923 INTER-LIGAND FREE ENERGY PREDICTED BY IDOCK:   -3.35 KCAL/MOL
REMARK 924 INTRA-LIGAND FREE ENERGY PREDICTED BY IDOCK:   -0.10 KCAL/MOL
REMARK 927      BINDING AFFINITY PREDICTED BY RF-SCORE:    0.00 PKD
ROOT
ATOM      1  NZ  LYS A   1     -11.169   8.266  72.511  1.00  0.00    -0.380 NA 
ATOM      2  HZ2 LYS A   1     -11.971   7.660  72.337  1.00  0.00     0.000 HD 
ATOM      3  CE  LYS A   1     -11.077   9.326  71.512  1.00  0.00    -0.373 C  
ATOM      4  HZ1 LYS A   1     -10.303   7.730  72.572  1.00  0.00     0.000 HD 
ENDROOT
BRANCH   3   5
ATOM      5  CD  LYS A   1     -12.376  10.131  71.420  1.00  0.00    -0.515 C  
BRANCH   5   6
ATOM      6  CG  LYS A   1     -12.363  11.120  70.249  1.00  0.00    -0.397 C  
BRANCH   6   7
ATOM      7  CB  LYS A   1     -11.434  10.665  69.122  1.00  0.00    -0.349 C  
BRANCH   7   8
ATOM      8  CA  LYS A   1     -11.002  11.818  68.203  1.00  0.00    -0.228 C  
ATOM      9  N   LYS A   1     -11.954  12.011  67.069  1.00  0.00    -0.606 NA 
ATOM     10  C   LYS A   1      -9.625  11.487  67.607  1.00  0.00    -0.171 C  
ATOM     11  OXT LYS A   1      -8.556  11.614  68.183  1.00  0.00    -0.145 OA 
ATOM     12  O   LYS A   1      -9.747  10.998  66.344  1.00  0.00    -0.191 OA 
ATOM     13  H1  LYS A   1     -11.668  12.776  66.459  1.00  0.00     0.000 HD 
ATOM     14  H2  LYS A   1     -12.909  12.141  67.404  1.00  0.00     0.000 HD 
ENDBRANCH   7   8
ENDBRANCH   6   7
ENDBRANCH   5   6
ENDBRANCH   3   5
TORSDOF 4
ENDMDL
MODEL      160
REMARK 921   NORMALIZED FREE ENERGY PREDICTED BY IDOCK:   -2.39 KCAL/MOL
REMARK 922        TOTAL FREE ENERGY PREDICTED BY IDOCK:   -3.45 KCAL/MOL
REMARK 923 INTER-LIGAND FREE ENERGY PREDICTED BY IDOCK:   -3.27 KCAL/MOL
REMARK 924 INTRA-LIGAND FREE ENERGY PREDICTED BY IDOCK:   -0.18 KCAL/MOL
REMARK 927      BINDING AFFINITY PREDICTED BY RF-SCORE:    0.00 PKD
ROOT
ATOM      1  NZ  LYS A   1      -9.739  19.325  67.576  1.00  0.00    -0.312 NA 
ATOM      2  HZ2 LYS A   1      -8.932  19.527  66.986  1.00  0.00     0.000 HD 
ATOM      3  CE  LYS A   1     -10.704  18.475  66.886  1.00  0.00    -0.287 C  
ATOM      4  HZ1 LYS A   1     -10.171  20.183  67.921  1.00  0.00     0.000 HD 
ENDROOT
BRANCH   3   5
ATOM      5  CD  LYS A   1     -10.055  17.189  66.368  1.00  0.00    -0.326 C  
BRANCH   5   6
ATOM      6  CG  LYS A   1     -10.691  16.705  65.060  1.00  0.00    -0.171 C  
BRANCH   6   7
ATOM      7  CB  LYS A   1     -11.064  15.222  65.116  1.00  0.00    -0.412 C  
BRANCH   7   8
ATOM      8  CA  LYS A   1     -10.391  14.481  66.281  1.00  0.00    -0.294 C  
ATOM      9  N   LYS A   1      -9.573  13.326  65.806  1.00  0.00    -0.481 NA 
ATOM     10  C   LYS A   1     -11.481  13.932  67.214  1.00  0.00    -0.344 C  
ATOM     11  OXT LYS A   1     -12.092  14.582  68.048  1.00  0.00    -0.297 OA 
ATOM     12  O   LYS A   1     -11.707  12.612  66.973  1.00  0.00    -0.344 OA 
ATOM     13  H1  LYS A   1      -9.127  12.833  66.580  1.00  0.00     0.000 HD 
ATOM     14  H2  LYS A   1      -8.890  13.617  65.107  1.00  0.00     0.000 HD 
ENDBRANCH   7   8
ENDBRANCH   6   7
ENDBRANCH   5   6
ENDBRANCH   3   5
TORSDOF 4
ENDMDL
MODEL      161
REMARK 921   NORMALIZED FREE ENERGY PREDICTED BY IDOCK:   -2.38 KCAL/MOL
REMARK 922        TOTAL FREE ENERGY PREDICTED BY IDOCK:   -3.44 KCAL/MOL
REMARK 923 INTER-LIGAND FREE ENERGY PREDICTED BY IDOCK:   -3.26 KCAL/MOL
REMARK 924 INTRA-LIGAND FREE ENERGY PREDICTED BY IDOCK:   -0.18 KCAL/MOL
REMARK 927      BINDING AFFINITY PREDICTED BY RF-SCORE:    0.00 PKD
ROOT
ATOM      1  NZ  LYS A   1     -11.437  16.351  70.715  1.00  0.00    -0.548 NA 
ATOM      2  HZ2 LYS A   1     -10.734  15.761  71.159  1.00  0.00     0.000 HD 
ATOM      3  CE  LYS A   1     -11.189  16.490  69.283  1.00  0.00    -0.213 C  
ATOM      4  HZ1 LYS A   1     -11.507  17.258  71.175  1.00  0.00     0.000 HD 
ENDROOT
BRANCH   3   5
ATOM      5  CD  LYS A   1     -11.085  15.128  68.593  1.00  0.00    -0.276 C  
BRANCH   5   6
ATOM      6  CG  LYS A   1     -12.250  14.202  68.959  1.00  0.00    -0.274 C  
BRANCH   6   7
ATOM      7  CB  LYS A   1     -11.771  12.906  69.615  1.00  0.00    -0.367 C  
BRANCH   7   8
ATOM      8  CA  LYS A   1     -11.804  11.705  68.657  1.00  0.00    -0.308 C  
ATOM      9  N   LYS A   1     -12.421  10.504  69.294  1.00  0.00    -0.717 NA 
ATOM     10  C   LYS A   1     -10.362  11.341  68.269  1.00  0.00    -0.183 C  
ATOM     11  OXT LYS A   1      -9.686  11.922  67.435  1.00  0.00    -0.182 OA 
ATOM     12  O   LYS A   1      -9.912  10.289  69.005  1.00  0.00    -0.191 OA 
ATOM     13  H1  LYS A   1     -12.442   9.706  68.659  1.00  0.00     0.000 HD 
ATOM     14  H2  LYS A   1     -13.350  10.713  69.659  1.00  0.00     0.000 HD 
ENDBRANCH   7   8
ENDBRANCH   6   7
ENDBRANCH   5   6
ENDBRANCH   3   5
TORSDOF 4
ENDMDL
MODEL      162
REMARK 921   NORMALIZED FREE ENERGY PREDICTED BY IDOCK:   -2.38 KCAL/MOL
REMARK 922        TOTAL FREE ENERGY PREDICTED BY IDOCK:   -3.43 KCAL/MOL
REMARK 923 INTER-LIGAND FREE ENERGY PREDICTED BY IDOCK:   -3.34 KCAL/MOL
REMARK 924 INTRA-LIGAND FREE ENERGY PREDICTED BY IDOCK:   -0.10 KCAL/MOL
REMARK 927      BINDING AFFINITY PREDICTED BY RF-SCORE:    0.00 PKD
ROOT
ATOM      1  NZ  LYS A   1      -9.215   3.427  71.039  1.00  0.00    -0.114 NA 
ATOM      2  HZ2 LYS A   1      -9.661   3.277  71.945  1.00  0.00     0.000 HD 
ATOM      3  CE  LYS A   1      -9.896   4.467  70.276  1.00  0.00    -0.229 C  
ATOM      4  HZ1 LYS A   1      -9.144   2.557  70.512  1.00  0.00     0.000 HD 
ENDROOT
BRANCH   3   5
ATOM      5  CD  LYS A   1     -10.002   5.773  71.068  1.00  0.00    -0.243 C  
BRANCH   5   6
ATOM      6  CG  LYS A   1     -11.390   6.412  70.948  1.00  0.00    -0.398 C  
BRANCH   6   7
ATOM      7  CB  LYS A   1     -11.310   7.897  70.589  1.00  0.00    -0.267 C  
BRANCH   7   8
ATOM      8  CA  LYS A   1     -11.393   8.814  71.818  1.00  0.00    -0.339 C  
ATOM      9  N   LYS A   1     -12.053   8.136  72.973  1.00  0.00    -0.617 NA 
ATOM     10  C   LYS A   1     -12.233  10.049  71.459  1.00  0.00    -0.405 C  
ATOM     11  OXT LYS A   1     -11.836  11.017  70.828  1.00  0.00    -0.329 OA 
ATOM     12  O   LYS A   1     -13.509   9.918  71.913  1.00  0.00    -0.397 OA 
ATOM     13  H1  LYS A   1     -12.109   8.745  73.790  1.00  0.00     0.000 HD 
ATOM     14  H2  LYS A   1     -11.591   7.254  73.198  1.00  0.00     0.000 HD 
ENDBRANCH   7   8
ENDBRANCH   6   7
ENDBRANCH   5   6
ENDBRANCH   3   5
TORSDOF 4
ENDMDL
MODEL      163
REMARK 921   NORMALIZED FREE ENERGY PREDICTED BY IDOCK:   -2.38 KCAL/MOL
REMARK 922        TOTAL FREE ENERGY PREDICTED BY IDOCK:   -3.43 KCAL/MOL
REMARK 923 INTER-LIGAND FREE ENERGY PREDICTED BY IDOCK:   -3.33 KCAL/MOL
REMARK 924 INTRA-LIGAND FREE ENERGY PREDICTED BY IDOCK:   -0.11 KCAL/MOL
REMARK 927      BINDING AFFINITY PREDICTED BY RF-SCORE:    0.00 PKD
ROOT
ATOM      1  NZ  LYS A   1     -12.968  13.940  64.970  1.00  0.00    -0.752 NA 
ATOM      2  HZ2 LYS A   1     -12.463  14.607  64.386  1.00  0.00     0.000 HD 
ATOM      3  CE  LYS A   1     -12.418  12.594  64.840  1.00  0.00    -0.494 C  
ATOM      4  HZ1 LYS A   1     -13.969  13.958  64.775  1.00  0.00     0.000 HD 
ENDROOT
BRANCH   3   5
ATOM      5  CD  LYS A   1     -10.915  12.567  65.133  1.00  0.00    -0.332 C  
BRANCH   5   6
ATOM      6  CG  LYS A   1     -10.389  11.141  65.329  1.00  0.00    -0.336 C  
BRANCH   6   7
ATOM      7  CB  LYS A   1      -9.497  11.022  66.566  1.00  0.00    -0.211 C  
BRANCH   7   8
ATOM      8  CA  LYS A   1     -10.241  10.459  67.787  1.00  0.00    -0.193 C  
ATOM      9  N   LYS A   1      -9.696  10.998  69.067  1.00  0.00    -0.342 NA 
ATOM     10  C   LYS A   1     -10.069   8.932  67.810  1.00  0.00    -0.210 C  
ATOM     11  OXT LYS A   1     -10.695   8.138  67.126  1.00  0.00    -0.316 OA 
ATOM     12  O   LYS A   1      -9.091   8.567  68.684  1.00  0.00    -0.139 OA 
ATOM     13  H1  LYS A   1     -10.190  10.624  69.878  1.00  0.00     0.000 HD 
ATOM     14  H2  LYS A   1      -9.697  12.019  69.070  1.00  0.00     0.000 HD 
ENDBRANCH   7   8
ENDBRANCH   6   7
ENDBRANCH   5   6
ENDBRANCH   3   5
TORSDOF 4
ENDMDL
MODEL      164
REMARK 921   NORMALIZED FREE ENERGY PREDICTED BY IDOCK:   -2.37 KCAL/MOL
REMARK 922        TOTAL FREE ENERGY PREDICTED BY IDOCK:   -3.42 KCAL/MOL
REMARK 923 INTER-LIGAND FREE ENERGY PREDICTED BY IDOCK:   -3.02 KCAL/MOL
REMARK 924 INTRA-LIGAND FREE ENERGY PREDICTED BY IDOCK:   -0.40 KCAL/MOL
REMARK 927      BINDING AFFINITY PREDICTED BY RF-SCORE:    0.00 PKD
ROOT
ATOM      1  NZ  LYS A   1      -8.000   5.293  72.973  1.00  0.00    -0.101 NA 
ATOM      2  HZ2 LYS A   1      -7.642   4.568  73.594  1.00  0.00     0.000 HD 
ATOM      3  CE  LYS A   1      -9.044   4.774  72.094  1.00  0.00    -0.127 C  
ATOM      4  HZ1 LYS A   1      -7.248   5.735  72.444  1.00  0.00     0.000 HD 
ENDROOT
BRANCH   3   5
ATOM      5  CD  LYS A   1     -10.173   4.112  72.888  1.00  0.00    -0.228 C  
BRANCH   5   6
ATOM      6  CG  LYS A   1     -11.373   5.046  73.078  1.00  0.00    -0.374 C  
BRANCH   6   7
ATOM      7  CB  LYS A   1     -11.297   6.273  72.169  1.00  0.00    -0.343 C  
BRANCH   7   8
ATOM      8  CA  LYS A   1     -11.275   7.595  72.951  1.00  0.00    -0.372 C  
ATOM      9  N   LYS A   1     -12.560   8.344  72.813  1.00  0.00    -0.613 NA 
ATOM     10  C   LYS A   1     -10.153   8.484  72.391  1.00  0.00    -0.295 C  
ATOM     11  OXT LYS A   1      -8.965   8.371  72.650  1.00  0.00    -0.228 OA 
ATOM     12  O   LYS A   1     -10.652   9.412  71.531  1.00  0.00    -0.341 OA 
ATOM     13  H1  LYS A   1     -12.545   9.221  73.332  1.00  0.00     0.000 HD 
ATOM     14  H2  LYS A   1     -13.356   7.766  73.082  1.00  0.00     0.000 HD 
ENDBRANCH   7   8
ENDBRANCH   6   7
ENDBRANCH   5   6
ENDBRANCH   3   5
TORSDOF 4
ENDMDL
MODEL      165
REMARK 921   NORMALIZED FREE ENERGY PREDICTED BY IDOCK:   -2.37 KCAL/MOL
REMARK 922        TOTAL FREE ENERGY PREDICTED BY IDOCK:   -3.42 KCAL/MOL
REMARK 923 INTER-LIGAND FREE ENERGY PREDICTED BY IDOCK:   -3.26 KCAL/MOL
REMARK 924 INTRA-LIGAND FREE ENERGY PREDICTED BY IDOCK:   -0.16 KCAL/MOL
REMARK 927      BINDING AFFINITY PREDICTED BY RF-SCORE:    0.00 PKD
ROOT
ATOM      1  NZ  LYS A   1      -6.240  12.584  66.837  1.00  0.00    -0.494 NA 
ATOM      2  HZ2 LYS A   1      -5.834  13.421  67.257  1.00  0.00     0.000 HD 
ATOM      3  CE  LYS A   1      -7.548  12.284  67.408  1.00  0.00    -0.159 C  
ATOM      4  HZ1 LYS A   1      -5.606  11.788  66.906  1.00  0.00     0.000 HD 
ENDROOT
BRANCH   3   5
ATOM      5  CD  LYS A   1      -8.499  13.479  67.303  1.00  0.00    -0.200 C  
BRANCH   5   6
ATOM      6  CG  LYS A   1      -7.977  14.703  68.062  1.00  0.00    -0.137 C  
BRANCH   6   7
ATOM      7  CB  LYS A   1      -8.702  15.986  67.652  1.00  0.00    -0.180 C  
BRANCH   7   8
ATOM      8  CA  LYS A   1      -8.655  16.240  66.137  1.00  0.00    -0.307 C  
ATOM      9  N   LYS A   1      -7.892  17.479  65.805  1.00  0.00    -0.518 NA 
ATOM     10  C   LYS A   1     -10.091  16.422  65.621  1.00  0.00    -0.286 C  
ATOM     11  OXT LYS A   1     -10.881  15.519  65.394  1.00  0.00    -0.353 OA 
ATOM     12  O   LYS A   1     -10.391  17.741  65.473  1.00  0.00    -0.623 OA 
ATOM     13  H1  LYS A   1      -7.861  17.648  64.800  1.00  0.00     0.000 HD 
ATOM     14  H2  LYS A   1      -6.954  17.456  66.207  1.00  0.00     0.000 HD 
ENDBRANCH   7   8
ENDBRANCH   6   7
ENDBRANCH   5   6
ENDBRANCH   3   5
TORSDOF 4
ENDMDL
MODEL      166
REMARK 921   NORMALIZED FREE ENERGY PREDICTED BY IDOCK:   -2.35 KCAL/MOL
REMARK 922        TOTAL FREE ENERGY PREDICTED BY IDOCK:   -3.40 KCAL/MOL
REMARK 923 INTER-LIGAND FREE ENERGY PREDICTED BY IDOCK:   -3.30 KCAL/MOL
REMARK 924 INTRA-LIGAND FREE ENERGY PREDICTED BY IDOCK:   -0.09 KCAL/MOL
REMARK 927      BINDING AFFINITY PREDICTED BY RF-SCORE:    0.00 PKD
ROOT
ATOM      1  NZ  LYS A   1     -11.049   5.953  66.507  1.00  0.00    -0.760 NA 
ATOM      2  HZ2 LYS A   1     -10.155   5.589  66.175  1.00  0.00     0.000 HD 
ATOM      3  CE  LYS A   1     -10.872   6.828  67.661  1.00  0.00    -0.289 C  
ATOM      4  HZ1 LYS A   1     -11.707   5.198  66.703  1.00  0.00     0.000 HD 
ENDROOT
BRANCH   3   5
ATOM      5  CD  LYS A   1      -9.884   7.960  67.366  1.00  0.00    -0.237 C  
BRANCH   5   6
ATOM      6  CG  LYS A   1     -10.566   9.333  67.344  1.00  0.00    -0.324 C  
BRANCH   6   7
ATOM      7  CB  LYS A   1      -9.783  10.350  66.512  1.00  0.00    -0.241 C  
BRANCH   7   8
ATOM      8  CA  LYS A   1      -9.983  11.795  66.994  1.00  0.00    -0.204 C  
ATOM      9  N   LYS A   1     -10.094  11.875  68.481  1.00  0.00    -0.226 NA 
ATOM     10  C   LYS A   1     -11.290  12.340  66.397  1.00  0.00    -0.354 C  
ATOM     11  OXT LYS A   1     -11.428  12.755  65.257  1.00  0.00    -0.304 OA 
ATOM     12  O   LYS A   1     -12.302  12.275  67.303  1.00  0.00    -0.363 OA 
ATOM     13  H1  LYS A   1     -10.227  12.834  68.801  1.00  0.00     0.000 HD 
ATOM     14  H2  LYS A   1      -9.291  11.439  68.936  1.00  0.00     0.000 HD 
ENDBRANCH   7   8
ENDBRANCH   6   7
ENDBRANCH   5   6
ENDBRANCH   3   5
TORSDOF 4
ENDMDL
MODEL      167
REMARK 921   NORMALIZED FREE ENERGY PREDICTED BY IDOCK:   -2.34 KCAL/MOL
REMARK 922        TOTAL FREE ENERGY PREDICTED BY IDOCK:   -3.39 KCAL/MOL
REMARK 923 INTER-LIGAND FREE ENERGY PREDICTED BY IDOCK:   -3.35 KCAL/MOL
REMARK 924 INTRA-LIGAND FREE ENERGY PREDICTED BY IDOCK:   -0.04 KCAL/MOL
REMARK 927      BINDING AFFINITY PREDICTED BY RF-SCORE:    0.00 PKD
ROOT
ATOM      1  NZ  LYS A   1     -12.869  13.871  64.589  1.00  0.00    -0.656 NA 
ATOM      2  HZ2 LYS A   1     -12.301  14.309  63.863  1.00  0.00     0.000 HD 
ATOM      3  CE  LYS A   1     -12.534  12.460  64.747  1.00  0.00    -0.401 C  
ATOM      4  HZ1 LYS A   1     -13.865  14.005  64.413  1.00  0.00     0.000 HD 
ENDROOT
BRANCH   3   5
ATOM      5  CD  LYS A   1     -11.039  12.259  65.011  1.00  0.00    -0.359 C  
BRANCH   5   6
ATOM      6  CG  LYS A   1     -10.733  10.872  65.586  1.00  0.00    -0.178 C  
BRANCH   6   7
ATOM      7  CB  LYS A   1      -9.543  10.897  66.546  1.00  0.00    -0.224 C  
BRANCH   7   8
ATOM      8  CA  LYS A   1      -9.929  10.524  67.985  1.00  0.00    -0.155 C  
ATOM      9  N   LYS A   1     -10.575   9.180  68.057  1.00  0.00    -0.355 NA 
ATOM     10  C   LYS A   1     -10.937  11.557  68.511  1.00  0.00    -0.223 C  
ATOM     11  OXT LYS A   1     -10.657  12.671  68.929  1.00  0.00    -0.212 OA 
ATOM     12  O   LYS A   1     -12.209  11.082  68.426  1.00  0.00    -0.586 OA 
ATOM     13  H1  LYS A   1     -10.831   8.933  69.013  1.00  0.00     0.000 HD 
ATOM     14  H2  LYS A   1      -9.986   8.463  67.633  1.00  0.00     0.000 HD 
ENDBRANCH   7   8
ENDBRANCH   6   7
ENDBRANCH   5   6
ENDBRANCH   3   5
TORSDOF 4
ENDMDL
MODEL      168
REMARK 921   NORMALIZED FREE ENERGY PREDICTED BY IDOCK:   -2.34 KCAL/MOL
REMARK 922        TOTAL FREE ENERGY PREDICTED BY IDOCK:   -3.38 KCAL/MOL
REMARK 923 INTER-LIGAND FREE ENERGY PREDICTED BY IDOCK:   -3.05 KCAL/MOL
REMARK 924 INTRA-LIGAND FREE ENERGY PREDICTED BY IDOCK:   -0.33 KCAL/MOL
REMARK 927      BINDING AFFINITY PREDICTED BY RF-SCORE:    0.00 PKD
ROOT
ATOM      1  NZ  LYS A   1     -10.378  12.976  68.920  1.00  0.00    -0.431 NA 
ATOM      2  HZ2 LYS A   1      -9.479  13.313  68.573  1.00  0.00     0.000 HD 
ATOM      3  CE  LYS A   1     -11.490  13.623  68.232  1.00  0.00    -0.313 C  
ATOM      4  HZ1 LYS A   1     -10.449  13.080  69.932  1.00  0.00     0.000 HD 
ENDROOT
BRANCH   3   5
ATOM      5  CD  LYS A   1     -11.384  13.466  66.713  1.00  0.00    -0.353 C  
BRANCH   5   6
ATOM      6  CG  LYS A   1     -10.985  14.774  66.022  1.00  0.00    -0.328 C  
BRANCH   6   7
ATOM      7  CB  LYS A   1     -10.241  15.720  66.966  1.00  0.00    -0.280 C  
BRANCH   7   8
ATOM      8  CA  LYS A   1      -8.715  15.631  66.819  1.00  0.00    -0.271 C  
ATOM      9  N   LYS A   1      -8.073  15.035  68.027  1.00  0.00    -0.125 NA 
ATOM     10  C   LYS A   1      -8.151  17.050  66.641  1.00  0.00    -0.262 C  
ATOM     11  OXT LYS A   1      -8.162  17.691  65.602  1.00  0.00    -0.501 OA 
ATOM     12  O   LYS A   1      -7.653  17.525  67.815  1.00  0.00    -0.187 OA 
ATOM     13  H1  LYS A   1      -7.060  14.976  67.930  1.00  0.00     0.000 HD 
ATOM     14  H2  LYS A   1      -8.479  14.125  68.251  1.00  0.00     0.000 HD 
ENDBRANCH   7   8
ENDBRANCH   6   7
ENDBRANCH   5   6
ENDBRANCH   3   5
TORSDOF 4
ENDMDL
MODEL      169
REMARK 921   NORMALIZED FREE ENERGY PREDICTED BY IDOCK:   -2.33 KCAL/MOL
REMARK 922        TOTAL FREE ENERGY PREDICTED BY IDOCK:   -3.38 KCAL/MOL
REMARK 923 INTER-LIGAND FREE ENERGY PREDICTED BY IDOCK:   -3.22 KCAL/MOL
REMARK 924 INTRA-LIGAND FREE ENERGY PREDICTED BY IDOCK:   -0.15 KCAL/MOL
REMARK 927      BINDING AFFINITY PREDICTED BY RF-SCORE:    0.00 PKD
ROOT
ATOM      1  NZ  LYS A   1      -8.065   5.538  68.629  1.00  0.00    -0.101 NA 
ATOM      2  HZ2 LYS A   1      -8.840   5.702  67.985  1.00  0.00     0.000 HD 
ATOM      3  CE  LYS A   1      -8.423   5.903  69.996  1.00  0.00    -0.126 C  
ATOM      4  HZ1 LYS A   1      -7.218   6.016  68.320  1.00  0.00     0.000 HD 
ENDROOT
BRANCH   3   5
ATOM      5  CD  LYS A   1      -9.694   5.185  70.458  1.00  0.00    -0.260 C  
BRANCH   5   6
ATOM      6  CG  LYS A   1     -10.932   5.638  69.676  1.00  0.00    -0.292 C  
BRANCH   6   7
ATOM      7  CB  LYS A   1     -11.388   7.040  70.082  1.00  0.00    -0.321 C  
BRANCH   7   8
ATOM      8  CA  LYS A   1     -12.287   7.039  71.328  1.00  0.00    -0.383 C  
ATOM      9  N   LYS A   1     -13.707   7.350  70.989  1.00  0.00    -0.613 NA 
ATOM     10  C   LYS A   1     -11.789   8.120  72.300  1.00  0.00    -0.382 C  
ATOM     11  OXT LYS A   1     -10.833   8.010  73.052  1.00  0.00    -0.368 OA 
ATOM     12  O   LYS A   1     -12.540   9.249  72.196  1.00  0.00    -0.374 OA 
ATOM     13  H1  LYS A   1     -14.303   7.349  71.816  1.00  0.00     0.000 HD 
ATOM     14  H2  LYS A   1     -14.064   6.718  70.272  1.00  0.00     0.000 HD 
ENDBRANCH   7   8
ENDBRANCH   6   7
ENDBRANCH   5   6
ENDBRANCH   3   5
TORSDOF 4
ENDMDL
MODEL      170
REMARK 921   NORMALIZED FREE ENERGY PREDICTED BY IDOCK:   -2.33 KCAL/MOL
REMARK 922        TOTAL FREE ENERGY PREDICTED BY IDOCK:   -3.37 KCAL/MOL
REMARK 923 INTER-LIGAND FREE ENERGY PREDICTED BY IDOCK:   -3.13 KCAL/MOL
REMARK 924 INTRA-LIGAND FREE ENERGY PREDICTED BY IDOCK:   -0.24 KCAL/MOL
REMARK 927      BINDING AFFINITY PREDICTED BY RF-SCORE:    0.00 PKD
ROOT
ATOM      1  NZ  LYS A   1     -11.315  15.408  64.244  1.00  0.00    -0.718 NA 
ATOM      2  HZ2 LYS A   1     -11.086  14.557  63.731  1.00  0.00     0.000 HD 
ATOM      3  CE  LYS A   1     -11.221  15.203  65.686  1.00  0.00    -0.296 C  
ATOM      4  HZ1 LYS A   1     -12.230  15.771  63.973  1.00  0.00     0.000 HD 
ENDROOT
BRANCH   3   5
ATOM      5  CD  LYS A   1      -9.848  14.660  66.091  1.00  0.00    -0.334 C  
BRANCH   5   6
ATOM      6  CG  LYS A   1      -9.943  13.625  67.217  1.00  0.00    -0.240 C  
BRANCH   6   7
ATOM      7  CB  LYS A   1      -9.297  12.294  66.832  1.00  0.00    -0.210 C  
BRANCH   7   8
ATOM      8  CA  LYS A   1     -10.327  11.191  66.544  1.00  0.00    -0.243 C  
ATOM      9  N   LYS A   1      -9.902   9.874  67.102  1.00  0.00    -0.178 NA 
ATOM     10  C   LYS A   1     -10.469  11.031  65.022  1.00  0.00    -0.277 C  
ATOM     11  OXT LYS A   1     -11.121  11.761  64.291  1.00  0.00    -0.324 OA 
ATOM     12  O   LYS A   1      -9.740   9.973  64.575  1.00  0.00    -0.310 OA 
ATOM     13  H1  LYS A   1     -10.585   9.142  66.911  1.00  0.00     0.000 HD 
ATOM     14  H2  LYS A   1      -9.700   9.942  68.100  1.00  0.00     0.000 HD 
ENDBRANCH   7   8
ENDBRANCH   6   7
ENDBRANCH   5   6
ENDBRANCH   3   5
TORSDOF 4
ENDMDL
MODEL      171
REMARK 921   NORMALIZED FREE ENERGY PREDICTED BY IDOCK:   -2.32 KCAL/MOL
REMARK 922        TOTAL FREE ENERGY PREDICTED BY IDOCK:   -3.36 KCAL/MOL
REMARK 923 INTER-LIGAND FREE ENERGY PREDICTED BY IDOCK:   -3.24 KCAL/MOL
REMARK 924 INTRA-LIGAND FREE ENERGY PREDICTED BY IDOCK:   -0.12 KCAL/MOL
REMARK 927      BINDING AFFINITY PREDICTED BY RF-SCORE:    0.00 PKD
ROOT
ATOM      1  NZ  LYS A   1     -10.225  10.518  69.709  1.00  0.00    -0.409 NA 
ATOM      2  HZ2 LYS A   1     -11.050  10.355  70.287  1.00  0.00     0.000 HD 
ATOM      3  CE  LYS A   1     -10.520  10.322  68.293  1.00  0.00    -0.199 C  
ATOM      4  HZ1 LYS A   1      -9.438   9.945  70.014  1.00  0.00     0.000 HD 
ENDROOT
BRANCH   3   5
ATOM      5  CD  LYS A   1     -11.700  11.182  67.836  1.00  0.00    -0.260 C  
BRANCH   5   6
ATOM      6  CG  LYS A   1     -11.325  12.114  66.679  1.00  0.00    -0.405 C  
BRANCH   6   7
ATOM      7  CB  LYS A   1     -11.966  13.495  66.821  1.00  0.00    -0.453 C  
BRANCH   7   8
ATOM      8  CA  LYS A   1     -10.965  14.642  66.617  1.00  0.00    -0.323 C  
ATOM      9  N   LYS A   1      -9.613  14.138  66.232  1.00  0.00    -0.364 NA 
ATOM     10  C   LYS A   1     -10.819  15.412  67.938  1.00  0.00    -0.300 C  
ATOM     11  OXT LYS A   1     -11.606  16.244  68.364  1.00  0.00    -0.327 OA 
ATOM     12  O   LYS A   1      -9.697  15.026  68.605  1.00  0.00    -0.204 OA 
ATOM     13  H1  LYS A   1      -8.948  14.899  66.097  1.00  0.00     0.000 HD 
ATOM     14  H2  LYS A   1      -9.662  13.537  65.409  1.00  0.00     0.000 HD 
ENDBRANCH   7   8
ENDBRANCH   6   7
ENDBRANCH   5   6
ENDBRANCH   3   5
TORSDOF 4
ENDMDL
MODEL      172
REMARK 921   NORMALIZED FREE ENERGY PREDICTED BY IDOCK:   -2.30 KCAL/MOL
REMARK 922        TOTAL FREE ENERGY PREDICTED BY IDOCK:   -3.34 KCAL/MOL
REMARK 923 INTER-LIGAND FREE ENERGY PREDICTED BY IDOCK:   -3.23 KCAL/MOL
REMARK 924 INTRA-LIGAND FREE ENERGY PREDICTED BY IDOCK:   -0.11 KCAL/MOL
REMARK 927      BINDING AFFINITY PREDICTED BY RF-SCORE:    0.00 PKD
ROOT
ATOM      1  NZ  LYS A   1     -10.356  11.308  69.199  1.00  0.00    -0.368 NA 
ATOM      2  HZ2 LYS A   1     -10.795  11.569  68.317  1.00  0.00     0.000 HD 
ATOM      3  CE  LYS A   1      -9.646  10.038  69.085  1.00  0.00    -0.210 C  
ATOM      4  HZ1 LYS A   1     -11.033  11.294  69.962  1.00  0.00     0.000 HD 
ENDROOT
BRANCH   3   5
ATOM      5  CD  LYS A   1      -8.630  10.059  67.940  1.00  0.00    -0.121 C  
BRANCH   5   6
ATOM      6  CG  LYS A   1      -8.986  11.095  66.868  1.00  0.00    -0.164 C  
BRANCH   6   7
ATOM      7  CB  LYS A   1      -9.528  10.444  65.595  1.00  0.00    -0.262 C  
BRANCH   7   8
ATOM      8  CA  LYS A   1     -10.550  11.326  64.862  1.00  0.00    -0.300 C  
ATOM      9  N   LYS A   1      -9.910  12.141  63.788  1.00  0.00    -0.576 NA 
ATOM     10  C   LYS A   1     -11.183  12.295  65.872  1.00  0.00    -0.340 C  
ATOM     11  OXT LYS A   1     -12.070  12.014  66.663  1.00  0.00    -0.615 OA 
ATOM     12  O   LYS A   1     -10.602  13.523  65.796  1.00  0.00    -0.274 OA 
ATOM     13  H1  LYS A   1     -10.588  12.727  63.301  1.00  0.00     0.000 HD 
ATOM     14  H2  LYS A   1      -9.390  11.553  63.135  1.00  0.00     0.000 HD 
ENDBRANCH   7   8
ENDBRANCH   6   7
ENDBRANCH   5   6
ENDBRANCH   3   5
TORSDOF 4
ENDMDL
MODEL      173
REMARK 921   NORMALIZED FREE ENERGY PREDICTED BY IDOCK:   -2.29 KCAL/MOL
REMARK 922        TOTAL FREE ENERGY PREDICTED BY IDOCK:   -3.33 KCAL/MOL
REMARK 923 INTER-LIGAND FREE ENERGY PREDICTED BY IDOCK:   -3.34 KCAL/MOL
REMARK 924 INTRA-LIGAND FREE ENERGY PREDICTED BY IDOCK:    0.01 KCAL/MOL
REMARK 927      BINDING AFFINITY PREDICTED BY RF-SCORE:    0.00 PKD
ROOT
ATOM      1  NZ  LYS A   1     -11.429   6.696  67.445  1.00  0.00    -0.740 NA 
ATOM      2  HZ2 LYS A   1     -12.314   7.203  67.423  1.00  0.00     0.000 HD 
ATOM      3  CE  LYS A   1     -10.334   7.515  66.937  1.00  0.00    -0.309 C  
ATOM      4  HZ1 LYS A   1     -11.497   5.807  66.949  1.00  0.00     0.000 HD 
ENDROOT
BRANCH   3   5
ATOM      5  CD  LYS A   1     -10.232   8.849  67.682  1.00  0.00    -0.296 C  
BRANCH   5   6
ATOM      6  CG  LYS A   1      -9.827   8.664  69.148  1.00  0.00    -0.185 C  
BRANCH   6   7
ATOM      7  CB  LYS A   1     -11.029   8.737  70.091  1.00  0.00    -0.236 C  
BRANCH   7   8
ATOM      8  CA  LYS A   1     -10.627   8.980  71.554  1.00  0.00    -0.345 C  
ATOM      9  N   LYS A   1      -9.287   8.400  71.865  1.00  0.00    -0.219 NA 
ATOM     10  C   LYS A   1     -11.656   8.302  72.470  1.00  0.00    -0.385 C  
ATOM     11  OXT LYS A   1     -12.757   8.749  72.752  1.00  0.00    -0.331 OA 
ATOM     12  O   LYS A   1     -11.194   7.102  72.915  1.00  0.00    -0.291 OA 
ATOM     13  H1  LYS A   1      -9.020   8.561  72.836  1.00  0.00     0.000 HD 
ATOM     14  H2  LYS A   1      -8.575   8.745  71.222  1.00  0.00     0.000 HD 
ENDBRANCH   7   8
ENDBRANCH   6   7
ENDBRANCH   5   6
ENDBRANCH   3   5
TORSDOF 4
ENDMDL
MODEL      174
REMARK 921   NORMALIZED FREE ENERGY PREDICTED BY IDOCK:   -2.22 KCAL/MOL
REMARK 922        TOTAL FREE ENERGY PREDICTED BY IDOCK:   -3.23 KCAL/MOL
REMARK 923 INTER-LIGAND FREE ENERGY PREDICTED BY IDOCK:   -2.81 KCAL/MOL
REMARK 924 INTRA-LIGAND FREE ENERGY PREDICTED BY IDOCK:   -0.43 KCAL/MOL
REMARK 927      BINDING AFFINITY PREDICTED BY RF-SCORE:    0.00 PKD
ROOT
ATOM      1  NZ  LYS A   1      -8.953   7.163  73.108  1.00  0.00    -0.128 NA 
ATOM      2  HZ2 LYS A   1      -8.736   8.099  73.452  1.00  0.00     0.000 HD 
ATOM      3  CE  LYS A   1     -10.323   6.781  73.433  1.00  0.00    -0.294 C  
ATOM      4  HZ1 LYS A   1      -8.279   6.476  73.446  1.00  0.00     0.000 HD 
ENDROOT
BRANCH   3   5
ATOM      5  CD  LYS A   1     -11.334   7.811  72.924  1.00  0.00    -0.406 C  
BRANCH   5   6
ATOM      6  CG  LYS A   1     -10.720   8.766  71.895  1.00  0.00    -0.429 C  
BRANCH   6   7
ATOM      7  CB  LYS A   1     -11.357   8.611  70.514  1.00  0.00    -0.241 C  
BRANCH   7   8
ATOM      8  CA  LYS A   1     -10.345   8.208  69.431  1.00  0.00    -0.218 C  
ATOM      9  N   LYS A   1     -10.744   8.710  68.083  1.00  0.00    -0.441 NA 
ATOM     10  C   LYS A   1     -10.280   6.675  69.359  1.00  0.00    -0.183 C  
ATOM     11  OXT LYS A   1      -9.664   5.955  70.131  1.00  0.00    -0.160 OA 
ATOM     12  O   LYS A   1     -11.032   6.204  68.328  1.00  0.00    -0.307 OA 
ATOM     13  H1  LYS A   1     -10.072   8.443  67.364  1.00  0.00     0.000 HD 
ATOM     14  H2  LYS A   1     -10.895   9.720  68.093  1.00  0.00     0.000 HD 
ENDBRANCH   7   8
ENDBRANCH   6   7
ENDBRANCH   5   6
ENDBRANCH   3   5
TORSDOF 4
ENDMDL
MODEL      175
REMARK 921   NORMALIZED FREE ENERGY PREDICTED BY IDOCK:   -2.22 KCAL/MOL
REMARK 922        TOTAL FREE ENERGY PREDICTED BY IDOCK:   -3.23 KCAL/MOL
REMARK 923 INTER-LIGAND FREE ENERGY PREDICTED BY IDOCK:   -3.34 KCAL/MOL
REMARK 924 INTRA-LIGAND FREE ENERGY PREDICTED BY IDOCK:    0.11 KCAL/MOL
REMARK 927      BINDING AFFINITY PREDICTED BY RF-SCORE:    0.00 PKD
ROOT
ATOM      1  NZ  LYS A   1      -6.321  19.112  64.746  1.00  0.00    -0.466 NA 
ATOM      2  HZ2 LYS A   1      -6.325  20.129  64.671  1.00  0.00     0.000 HD 
ATOM      3  CE  LYS A   1      -5.865  18.677  66.062  1.00  0.00    -0.168 C  
ATOM      4  HZ1 LYS A   1      -5.773  18.686  63.997  1.00  0.00     0.000 HD 
ENDROOT
BRANCH   3   5
ATOM      5  CD  LYS A   1      -6.687  19.315  67.185  1.00  0.00    -0.204 C  
BRANCH   5   6
ATOM      6  CG  LYS A   1      -8.193  19.249  66.910  1.00  0.00    -0.296 C  
BRANCH   6   7
ATOM      7  CB  LYS A   1      -8.672  17.815  66.672  1.00  0.00    -0.281 C  
BRANCH   7   8
ATOM      8  CA  LYS A   1     -10.196  17.667  66.793  1.00  0.00    -0.335 C  
ATOM      9  N   LYS A   1     -10.605  16.240  66.949  1.00  0.00    -0.299 NA 
ATOM     10  C   LYS A   1     -10.849  18.204  65.510  1.00  0.00     0.165 C  
ATOM     11  OXT LYS A   1     -11.036  19.383  65.251  1.00  0.00    -0.457 OA 
ATOM     12  O   LYS A   1     -11.174  17.187  64.668  1.00  0.00    -1.003 OA 
ATOM     13  H1  LYS A   1     -11.617  16.141  67.029  1.00  0.00     0.000 HD 
ATOM     14  H2  LYS A   1     -10.126  15.800  67.735  1.00  0.00     0.000 HD 
ENDBRANCH   7   8
ENDBRANCH   6   7
ENDBRANCH   5   6
ENDBRANCH   3   5
TORSDOF 4
ENDMDL
MODEL      176
REMARK 921   NORMALIZED FREE ENERGY PREDICTED BY IDOCK:   -2.21 KCAL/MOL
REMARK 922        TOTAL FREE ENERGY PREDICTED BY IDOCK:   -3.23 KCAL/MOL
REMARK 923 INTER-LIGAND FREE ENERGY PREDICTED BY IDOCK:   -3.22 KCAL/MOL
REMARK 924 INTRA-LIGAND FREE ENERGY PREDICTED BY IDOCK:   -0.00 KCAL/MOL
REMARK 927      BINDING AFFINITY PREDICTED BY RF-SCORE:    0.00 PKD
ROOT
ATOM      1  NZ  LYS A   1      -9.821  13.893  69.323  1.00  0.00    -0.394 NA 
ATOM      2  HZ2 LYS A   1      -9.590  13.734  68.342  1.00  0.00     0.000 HD 
ATOM      3  CE  LYS A   1     -10.173  15.288  69.567  1.00  0.00    -0.260 C  
ATOM      4  HZ1 LYS A   1      -9.069  13.581  69.938  1.00  0.00     0.000 HD 
ENDROOT
BRANCH   3   5
ATOM      5  CD  LYS A   1     -11.302  15.756  68.645  1.00  0.00    -0.369 C  
BRANCH   5   6
ATOM      6  CG  LYS A   1     -11.303  15.010  67.306  1.00  0.00    -0.337 C  
BRANCH   6   7
ATOM      7  CB  LYS A   1     -12.295  13.846  67.297  1.00  0.00    -0.201 C  
BRANCH   7   8
ATOM      8  CA  LYS A   1     -11.754  12.606  66.570  1.00  0.00    -0.400 C  
ATOM      9  N   LYS A   1     -11.303  11.553  67.527  1.00  0.00    -0.364 NA 
ATOM     10  C   LYS A   1     -10.540  13.020  65.722  1.00  0.00    -0.277 C  
ATOM     11  OXT LYS A   1     -10.591  13.572  64.635  1.00  0.00    -0.387 OA 
ATOM     12  O   LYS A   1      -9.377  12.715  66.359  1.00  0.00    -0.235 OA 
ATOM     13  H1  LYS A   1     -10.943  10.730  67.044  1.00  0.00     0.000 HD 
ATOM     14  H2  LYS A   1     -12.045  11.305  68.182  1.00  0.00     0.000 HD 
ENDBRANCH   7   8
ENDBRANCH   6   7
ENDBRANCH   5   6
ENDBRANCH   3   5
TORSDOF 4
ENDMDL
MODEL      177
REMARK 921   NORMALIZED FREE ENERGY PREDICTED BY IDOCK:   -2.20 KCAL/MOL
REMARK 922        TOTAL FREE ENERGY PREDICTED BY IDOCK:   -3.21 KCAL/MOL
REMARK 923 INTER-LIGAND FREE ENERGY PREDICTED BY IDOCK:   -3.13 KCAL/MOL
REMARK 924 INTRA-LIGAND FREE ENERGY PREDICTED BY IDOCK:   -0.08 KCAL/MOL
REMARK 927      BINDING AFFINITY PREDICTED BY RF-SCORE:    0.00 PKD
ROOT
ATOM      1  NZ  LYS A   1      -8.708   6.762  69.319  1.00  0.00    -0.134 NA 
ATOM      2  HZ2 LYS A   1      -9.652   6.394  69.434  1.00  0.00     0.000 HD 
ATOM      3  CE  LYS A   1      -8.542   8.032  70.017  1.00  0.00    -0.134 C  
ATOM      4  HZ1 LYS A   1      -8.456   6.837  68.333  1.00  0.00     0.000 HD 
ENDROOT
BRANCH   3   5
ATOM      5  CD  LYS A   1      -8.920   7.918  71.496  1.00  0.00    -0.167 C  
BRANCH   5   6
ATOM      6  CG  LYS A   1     -10.315   8.483  71.783  1.00  0.00    -0.354 C  
BRANCH   6   7
ATOM      7  CB  LYS A   1     -10.632   9.702  70.915  1.00  0.00    -0.386 C  
BRANCH   7   8
ATOM      8  CA  LYS A   1     -12.110   9.772  70.501  1.00  0.00    -0.168 C  
ATOM      9  N   LYS A   1     -12.318  10.677  69.333  1.00  0.00    -0.663 NA 
ATOM     10  C   LYS A   1     -12.928  10.328  71.677  1.00  0.00    -0.465 C  
ATOM     11  OXT LYS A   1     -13.285   9.691  72.655  1.00  0.00    -0.296 OA 
ATOM     12  O   LYS A   1     -13.186  11.653  71.505  1.00  0.00    -0.363 OA 
ATOM     13  H1  LYS A   1     -13.299  10.724  69.058  1.00  0.00     0.000 HD 
ATOM     14  H2  LYS A   1     -11.724  10.411  68.547  1.00  0.00     0.000 HD 
ENDBRANCH   7   8
ENDBRANCH   6   7
ENDBRANCH   5   6
ENDBRANCH   3   5
TORSDOF 4
ENDMDL
MODEL      178
REMARK 921   NORMALIZED FREE ENERGY PREDICTED BY IDOCK:   -2.19 KCAL/MOL
REMARK 922        TOTAL FREE ENERGY PREDICTED BY IDOCK:   -3.20 KCAL/MOL
REMARK 923 INTER-LIGAND FREE ENERGY PREDICTED BY IDOCK:   -2.46 KCAL/MOL
REMARK 924 INTRA-LIGAND FREE ENERGY PREDICTED BY IDOCK:   -0.74 KCAL/MOL
REMARK 927      BINDING AFFINITY PREDICTED BY RF-SCORE:    0.00 PKD
ROOT
ATOM      1  NZ  LYS A   1     -10.136  17.649  68.155  1.00  0.00    -0.326 NA 
ATOM      2  HZ2 LYS A   1      -9.152  17.603  68.422  1.00  0.00     0.000 HD 
ATOM      3  CE  LYS A   1     -10.291  17.763  66.708  1.00  0.00    -0.343 C  
ATOM      4  HZ1 LYS A   1     -10.621  18.400  68.647  1.00  0.00     0.000 HD 
ENDROOT
BRANCH   3   5
ATOM      5  CD  LYS A   1      -9.564  16.636  65.971  1.00  0.00    -0.298 C  
BRANCH   5   6
ATOM      6  CG  LYS A   1      -8.753  15.749  66.923  1.00  0.00    -0.274 C  
BRANCH   6   7
ATOM      7  CB  LYS A   1      -7.257  16.063  66.867  1.00  0.00    -0.212 C  
BRANCH   7   8
ATOM      8  CA  LYS A   1      -6.697  16.546  68.213  1.00  0.00    -0.137 C  
ATOM      9  N   LYS A   1      -7.669  16.334  69.327  1.00  0.00    -0.225 NA 
ATOM     10  C   LYS A   1      -6.412  18.053  68.121  1.00  0.00    -0.191 C  
ATOM     11  OXT LYS A   1      -5.433  18.557  67.592  1.00  0.00    -0.157 OA 
ATOM     12  O   LYS A   1      -7.418  18.773  68.685  1.00  0.00    -0.295 OA 
ATOM     13  H1  LYS A   1      -7.298  16.654  70.221  1.00  0.00     0.000 HD 
ATOM     14  H2  LYS A   1      -7.970  15.360  69.376  1.00  0.00     0.000 HD 
ENDBRANCH   7   8
ENDBRANCH   6   7
ENDBRANCH   5   6
ENDBRANCH   3   5
TORSDOF 4
ENDMDL
MODEL      179
REMARK 921   NORMALIZED FREE ENERGY PREDICTED BY IDOCK:   -2.18 KCAL/MOL
REMARK 922        TOTAL FREE ENERGY PREDICTED BY IDOCK:   -3.19 KCAL/MOL
REMARK 923 INTER-LIGAND FREE ENERGY PREDICTED BY IDOCK:   -3.12 KCAL/MOL
REMARK 924 INTRA-LIGAND FREE ENERGY PREDICTED BY IDOCK:   -0.08 KCAL/MOL
REMARK 927      BINDING AFFINITY PREDICTED BY RF-SCORE:    0.00 PKD
ROOT
ATOM      1  NZ  LYS A   1     -11.682  14.784  66.614  1.00  0.00    -0.329 NA 
ATOM      2  HZ2 LYS A   1     -12.219  14.814  65.748  1.00  0.00     0.000 HD 
ATOM      3  CE  LYS A   1     -11.905  13.535  67.336  1.00  0.00    -0.384 C  
ATOM      4  HZ1 LYS A   1     -11.873  15.597  67.200  1.00  0.00     0.000 HD 
ENDROOT
BRANCH   3   5
ATOM      5  CD  LYS A   1     -11.617  12.315  66.457  1.00  0.00    -0.440 C  
BRANCH   5   6
ATOM      6  CG  LYS A   1     -10.502  11.435  67.034  1.00  0.00    -0.271 C  
BRANCH   6   7
ATOM      7  CB  LYS A   1     -11.029  10.087  67.527  1.00  0.00    -0.276 C  
BRANCH   7   8
ATOM      8  CA  LYS A   1     -10.008   8.951  67.367  1.00  0.00    -0.209 C  
ATOM      9  N   LYS A   1      -9.809   8.581  65.934  1.00  0.00    -0.463 NA 
ATOM     10  C   LYS A   1     -10.529   7.708  68.104  1.00  0.00    -0.181 C  
ATOM     11  OXT LYS A   1     -10.469   7.522  69.309  1.00  0.00    -0.210 OA 
ATOM     12  O   LYS A   1     -11.104   6.834  67.234  1.00  0.00    -0.358 OA 
ATOM     13  H1  LYS A   1      -9.131   7.827  65.827  1.00  0.00     0.000 HD 
ATOM     14  H2  LYS A   1      -9.552   9.394  65.373  1.00  0.00     0.000 HD 
ENDBRANCH   7   8
ENDBRANCH   6   7
ENDBRANCH   5   6
ENDBRANCH   3   5
TORSDOF 4
ENDMDL
MODEL      180
REMARK 921   NORMALIZED FREE ENERGY PREDICTED BY IDOCK:   -2.18 KCAL/MOL
REMARK 922        TOTAL FREE ENERGY PREDICTED BY IDOCK:   -3.19 KCAL/MOL
REMARK 923 INTER-LIGAND FREE ENERGY PREDICTED BY IDOCK:   -3.07 KCAL/MOL
REMARK 924 INTRA-LIGAND FREE ENERGY PREDICTED BY IDOCK:   -0.12 KCAL/MOL
REMARK 927      BINDING AFFINITY PREDICTED BY RF-SCORE:    0.00 PKD
ROOT
ATOM      1  NZ  LYS A   1      -8.666  14.072  66.686  1.00  0.00    -0.444 NA 
ATOM      2  HZ2 LYS A   1      -8.348  14.422  65.782  1.00  0.00     0.000 HD 
ATOM      3  CE  LYS A   1      -8.304  14.983  67.767  1.00  0.00    -0.150 C  
ATOM      4  HZ1 LYS A   1      -8.324  13.126  66.860  1.00  0.00     0.000 HD 
ENDROOT
BRANCH   3   5
ATOM      5  CD  LYS A   1      -8.818  16.401  67.507  1.00  0.00    -0.187 C  
BRANCH   5   6
ATOM      6  CG  LYS A   1      -8.830  17.256  68.779  1.00  0.00    -0.233 C  
BRANCH   6   7
ATOM      7  CB  LYS A   1      -8.655  18.745  68.474  1.00  0.00    -0.378 C  
BRANCH   7   8
ATOM      8  CA  LYS A   1      -7.267  19.079  67.907  1.00  0.00    -0.236 C  
ATOM      9  N   LYS A   1      -6.361  19.641  68.952  1.00  0.00    -0.272 NA 
ATOM     10  C   LYS A   1      -7.423  20.137  66.805  1.00  0.00    -0.279 C  
ATOM     11  OXT LYS A   1      -7.782  19.917  65.658  1.00  0.00    -0.326 OA 
ATOM     12  O   LYS A   1      -7.136  21.380  67.279  1.00  0.00    -0.565 OA 
ATOM     13  H1  LYS A   1      -5.439  19.863  68.577  1.00  0.00     0.000 HD 
ATOM     14  H2  LYS A   1      -6.293  19.019  69.759  1.00  0.00     0.000 HD 
ENDBRANCH   7   8
ENDBRANCH   6   7
ENDBRANCH   5   6
ENDBRANCH   3   5
TORSDOF 4
ENDMDL
MODEL      181
REMARK 921   NORMALIZED FREE ENERGY PREDICTED BY IDOCK:   -2.18 KCAL/MOL
REMARK 922        TOTAL FREE ENERGY PREDICTED BY IDOCK:   -3.19 KCAL/MOL
REMARK 923 INTER-LIGAND FREE ENERGY PREDICTED BY IDOCK:   -3.12 KCAL/MOL
REMARK 924 INTRA-LIGAND FREE ENERGY PREDICTED BY IDOCK:   -0.07 KCAL/MOL
REMARK 927      BINDING AFFINITY PREDICTED BY RF-SCORE:    0.00 PKD
ROOT
ATOM      1  NZ  LYS A   1     -11.171  14.387  70.106  1.00  0.00    -0.455 NA 
ATOM      2  HZ2 LYS A   1     -10.259  14.013  70.371  1.00  0.00     0.000 HD 
ATOM      3  CE  LYS A   1     -11.103  15.821  69.846  1.00  0.00    -0.331 C  
ATOM      4  HZ1 LYS A   1     -11.882  14.163  70.802  1.00  0.00     0.000 HD 
ENDROOT
BRANCH   3   5
ATOM      5  CD  LYS A   1     -10.037  16.157  68.800  1.00  0.00    -0.237 C  
BRANCH   5   6
ATOM      6  CG  LYS A   1     -10.501  17.248  67.829  1.00  0.00    -0.371 C  
BRANCH   6   7
ATOM      7  CB  LYS A   1      -9.326  18.034  67.243  1.00  0.00    -0.256 C  
BRANCH   7   8
ATOM      8  CA  LYS A   1      -9.010  19.313  68.033  1.00  0.00    -0.316 C  
ATOM      9  N   LYS A   1      -9.935  20.429  67.676  1.00  0.00    -0.410 NA 
ATOM     10  C   LYS A   1      -7.581  19.763  67.696  1.00  0.00    -0.282 C  
ATOM     11  OXT LYS A   1      -6.559  19.284  68.163  1.00  0.00    -0.229 OA 
ATOM     12  O   LYS A   1      -7.591  20.762  66.772  1.00  0.00    -0.233 OA 
ATOM     13  H1  LYS A   1      -9.726  21.279  68.200  1.00  0.00     0.000 HD 
ATOM     14  H2  LYS A   1     -10.911  20.153  67.790  1.00  0.00     0.000 HD 
ENDBRANCH   7   8
ENDBRANCH   6   7
ENDBRANCH   5   6
ENDBRANCH   3   5
TORSDOF 4
ENDMDL
MODEL      182
REMARK 921   NORMALIZED FREE ENERGY PREDICTED BY IDOCK:   -2.18 KCAL/MOL
REMARK 922        TOTAL FREE ENERGY PREDICTED BY IDOCK:   -3.19 KCAL/MOL
REMARK 923 INTER-LIGAND FREE ENERGY PREDICTED BY IDOCK:   -2.93 KCAL/MOL
REMARK 924 INTRA-LIGAND FREE ENERGY PREDICTED BY IDOCK:   -0.26 KCAL/MOL
REMARK 927      BINDING AFFINITY PREDICTED BY RF-SCORE:    0.00 PKD
ROOT
ATOM      1  NZ  LYS A   1     -12.492  10.082  70.174  1.00  0.00    -0.513 NA 
ATOM      2  HZ2 LYS A   1     -13.269   9.616  69.705  1.00  0.00     0.000 HD 
ATOM      3  CE  LYS A   1     -12.531   9.863  71.616  1.00  0.00    -0.415 C  
ATOM      4  HZ1 LYS A   1     -12.461  11.076  69.944  1.00  0.00     0.000 HD 
ENDROOT
BRANCH   3   5
ATOM      5  CD  LYS A   1     -12.577   8.372  71.961  1.00  0.00    -0.400 C  
BRANCH   5   6
ATOM      6  CG  LYS A   1     -11.439   7.959  72.901  1.00  0.00    -0.357 C  
BRANCH   6   7
ATOM      7  CB  LYS A   1     -10.455   7.001  72.228  1.00  0.00    -0.234 C  
BRANCH   7   8
ATOM      8  CA  LYS A   1      -9.013   7.528  72.228  1.00  0.00    -0.133 C  
ATOM      9  N   LYS A   1      -8.781   8.513  73.326  1.00  0.00    -0.348 NA 
ATOM     10  C   LYS A   1      -8.746   8.243  70.895  1.00  0.00    -0.146 C  
ATOM     11  OXT LYS A   1      -8.490   7.692  69.835  1.00  0.00    -0.133 OA 
ATOM     12  O   LYS A   1      -8.862   9.592  71.034  1.00  0.00    -0.246 OA 
ATOM     13  H1  LYS A   1      -7.824   8.863  73.327  1.00  0.00     0.000 HD 
ATOM     14  H2  LYS A   1      -9.034   8.122  74.235  1.00  0.00     0.000 HD 
ENDBRANCH   7   8
ENDBRANCH   6   7
ENDBRANCH   5   6
ENDBRANCH   3   5
TORSDOF 4
ENDMDL
MODEL      183
REMARK 921   NORMALIZED FREE ENERGY PREDICTED BY IDOCK:   -2.17 KCAL/MOL
REMARK 922        TOTAL FREE ENERGY PREDICTED BY IDOCK:   -3.18 KCAL/MOL
REMARK 923 INTER-LIGAND FREE ENERGY PREDICTED BY IDOCK:   -3.24 KCAL/MOL
REMARK 924 INTRA-LIGAND FREE ENERGY PREDICTED BY IDOCK:    0.06 KCAL/MOL
REMARK 927      BINDING AFFINITY PREDICTED BY RF-SCORE:    0.00 PKD
ROOT
ATOM      1  NZ  LYS A   1     -10.596   8.966  67.915  1.00  0.00    -0.387 NA 
ATOM      2  HZ2 LYS A   1     -10.815   9.217  66.951  1.00  0.00     0.000 HD 
ATOM      3  CE  LYS A   1     -10.368  10.151  68.736  1.00  0.00    -0.194 C  
ATOM      4  HZ1 LYS A   1      -9.809   8.318  67.961  1.00  0.00     0.000 HD 
ENDROOT
BRANCH   3   5
ATOM      5  CD  LYS A   1     -11.549  11.122  68.667  1.00  0.00    -0.383 C  
BRANCH   5   6
ATOM      6  CG  LYS A   1     -11.094  12.582  68.561  1.00  0.00    -0.297 C  
BRANCH   6   7
ATOM      7  CB  LYS A   1     -12.186  13.485  67.985  1.00  0.00    -0.158 C  
BRANCH   7   8
ATOM      8  CA  LYS A   1     -11.945  13.848  66.512  1.00  0.00    -0.439 C  
ATOM      9  N   LYS A   1     -12.391  12.761  65.591  1.00  0.00    -0.594 NA 
ATOM     10  C   LYS A   1     -10.438  14.057  66.293  1.00  0.00    -0.286 C  
ATOM     11  OXT LYS A   1      -9.813  15.064  66.590  1.00  0.00    -0.238 OA 
ATOM     12  O   LYS A   1      -9.868  12.951  65.744  1.00  0.00    -0.264 OA 
ATOM     13  H1  LYS A   1     -12.231  13.001  64.614  1.00  0.00     0.000 HD 
ATOM     14  H2  LYS A   1     -13.367  12.511  65.758  1.00  0.00     0.000 HD 
ENDBRANCH   7   8
ENDBRANCH   6   7
ENDBRANCH   5   6
ENDBRANCH   3   5
TORSDOF 4
ENDMDL
MODEL      184
REMARK 921   NORMALIZED FREE ENERGY PREDICTED BY IDOCK:   -2.15 KCAL/MOL
REMARK 922        TOTAL FREE ENERGY PREDICTED BY IDOCK:   -3.15 KCAL/MOL
REMARK 923 INTER-LIGAND FREE ENERGY PREDICTED BY IDOCK:   -3.29 KCAL/MOL
REMARK 924 INTRA-LIGAND FREE ENERGY PREDICTED BY IDOCK:    0.13 KCAL/MOL
REMARK 927      BINDING AFFINITY PREDICTED BY RF-SCORE:    0.00 PKD
ROOT
ATOM      1  NZ  LYS A   1      -8.038  17.684  65.764  1.00  0.00    -0.538 NA 
ATOM      2  HZ2 LYS A   1      -8.650  18.483  65.594  1.00  0.00     0.000 HD 
ATOM      3  CE  LYS A   1      -8.738  16.620  66.476  1.00  0.00    -0.282 C  
ATOM      4  HZ1 LYS A   1      -7.186  17.966  66.250  1.00  0.00     0.000 HD 
ENDROOT
BRANCH   3   5
ATOM      5  CD  LYS A   1     -10.016  16.198  65.748  1.00  0.00    -0.370 C  
BRANCH   5   6
ATOM      6  CG  LYS A   1     -10.896  15.280  66.604  1.00  0.00    -0.310 C  
BRANCH   6   7
ATOM      7  CB  LYS A   1     -10.971  15.749  68.058  1.00  0.00    -0.330 C  
BRANCH   7   8
ATOM      8  CA  LYS A   1     -10.658  14.630  69.063  1.00  0.00    -0.247 C  
ATOM      9  N   LYS A   1      -9.260  14.720  69.577  1.00  0.00    -0.416 NA 
ATOM     10  C   LYS A   1     -10.812  13.273  68.358  1.00  0.00    -0.258 C  
ATOM     11  OXT LYS A   1     -11.871  12.707  68.136  1.00  0.00    -0.329 OA 
ATOM     12  O   LYS A   1      -9.601  12.784  67.978  1.00  0.00    -0.204 OA 
ATOM     13  H1  LYS A   1      -9.052  13.977  70.244  1.00  0.00     0.000 HD 
ATOM     14  H2  LYS A   1      -9.069  15.640  69.975  1.00  0.00     0.000 HD 
ENDBRANCH   7   8
ENDBRANCH   6   7
ENDBRANCH   5   6
ENDBRANCH   3   5
TORSDOF 4
ENDMDL
MODEL      185
REMARK 921   NORMALIZED FREE ENERGY PREDICTED BY IDOCK:   -2.15 KCAL/MOL
REMARK 922        TOTAL FREE ENERGY PREDICTED BY IDOCK:   -3.15 KCAL/MOL
REMARK 923 INTER-LIGAND FREE ENERGY PREDICTED BY IDOCK:   -3.05 KCAL/MOL
REMARK 924 INTRA-LIGAND FREE ENERGY PREDICTED BY IDOCK:   -0.10 KCAL/MOL
REMARK 927      BINDING AFFINITY PREDICTED BY RF-SCORE:    0.00 PKD
ROOT
ATOM      1  NZ  LYS A   1      -9.249   2.086  71.869  1.00  0.00    -0.082 NA 
ATOM      2  HZ2 LYS A   1     -10.047   1.556  72.220  1.00  0.00     0.000 HD 
ATOM      3  CE  LYS A   1      -9.669   3.351  71.275  1.00  0.00    -0.157 C  
ATOM      4  HZ1 LYS A   1      -8.691   1.532  71.220  1.00  0.00     0.000 HD 
ENDROOT
BRANCH   3   5
ATOM      5  CD  LYS A   1     -10.506   4.183  72.250  1.00  0.00    -0.141 C  
BRANCH   5   6
ATOM      6  CG  LYS A   1     -10.602   5.653  71.825  1.00  0.00    -0.296 C  
BRANCH   6   7
ATOM      7  CB  LYS A   1     -11.902   6.305  72.297  1.00  0.00    -0.326 C  
BRANCH   7   8
ATOM      8  CA  LYS A   1     -12.524   7.229  71.239  1.00  0.00    -0.366 C  
ATOM      9  N   LYS A   1     -11.667   7.338  70.022  1.00  0.00    -0.528 NA 
ATOM     10  C   LYS A   1     -12.671   8.637  71.837  1.00  0.00    -0.366 C  
ATOM     11  OXT LYS A   1     -13.557   8.995  72.597  1.00  0.00    -0.465 OA 
ATOM     12  O   LYS A   1     -11.655   9.446  71.430  1.00  0.00    -0.323 OA 
ATOM     13  H1  LYS A   1     -12.080   7.951  69.320  1.00  0.00     0.000 HD 
ATOM     14  H2  LYS A   1     -11.456   6.418  69.634  1.00  0.00     0.000 HD 
ENDBRANCH   7   8
ENDBRANCH   6   7
ENDBRANCH   5   6
ENDBRANCH   3   5
TORSDOF 4
ENDMDL
MODEL      186
REMARK 921   NORMALIZED FREE ENERGY PREDICTED BY IDOCK:   -2.13 KCAL/MOL
REMARK 922        TOTAL FREE ENERGY PREDICTED BY IDOCK:   -3.13 KCAL/MOL
REMARK 923 INTER-LIGAND FREE ENERGY PREDICTED BY IDOCK:   -2.58 KCAL/MOL
REMARK 924 INTRA-LIGAND FREE ENERGY PREDICTED BY IDOCK:   -0.55 KCAL/MOL
REMARK 927      BINDING AFFINITY PREDICTED BY RF-SCORE:    0.00 PKD
ROOT
ATOM      1  NZ  LYS A   1     -11.405   4.322  64.891  1.00  0.00    -1.051 NA 
ATOM      2  HZ2 LYS A   1     -11.195   5.315  64.989  1.00  0.00     0.000 HD 
ATOM      3  CE  LYS A   1     -10.737   3.748  63.727  1.00  0.00    -0.232 C  
ATOM      4  HZ1 LYS A   1     -12.412   4.155  64.868  1.00  0.00     0.000 HD 
ENDROOT
BRANCH   3   5
ATOM      5  CD  LYS A   1      -9.227   3.999  63.762  1.00  0.00    -0.138 C  
BRANCH   5   6
ATOM      6  CG  LYS A   1      -8.824   4.953  64.892  1.00  0.00    -0.152 C  
BRANCH   6   7
ATOM      7  CB  LYS A   1      -7.852   4.300  65.876  1.00  0.00    -0.094 C  
BRANCH   7   8
ATOM      8  CA  LYS A   1      -8.495   4.000  67.239  1.00  0.00    -0.100 C  
ATOM      9  N   LYS A   1      -9.601   3.004  67.124  1.00  0.00    -0.396 NA 
ATOM     10  C   LYS A   1      -9.090   5.299  67.803  1.00  0.00    -0.110 C  
ATOM     11  OXT LYS A   1      -8.458   6.187  68.354  1.00  0.00    -0.113 OA 
ATOM     12  O   LYS A   1     -10.431   5.355  67.582  1.00  0.00    -0.196 OA 
ATOM     13  H1  LYS A   1     -10.028   2.805  68.029  1.00  0.00     0.000 HD 
ATOM     14  H2  LYS A   1      -9.285   2.149  66.666  1.00  0.00     0.000 HD 
ENDBRANCH   7   8
ENDBRANCH   6   7
ENDBRANCH   5   6
ENDBRANCH   3   5
TORSDOF 4
ENDMDL
MODEL      187
REMARK 921   NORMALIZED FREE ENERGY PREDICTED BY IDOCK:   -2.11 KCAL/MOL
REMARK 922        TOTAL FREE ENERGY PREDICTED BY IDOCK:   -3.10 KCAL/MOL
REMARK 923 INTER-LIGAND FREE ENERGY PREDICTED BY IDOCK:   -3.15 KCAL/MOL
REMARK 924 INTRA-LIGAND FREE ENERGY PREDICTED BY IDOCK:    0.05 KCAL/MOL
REMARK 927      BINDING AFFINITY PREDICTED BY RF-SCORE:    0.00 PKD
ROOT
ATOM      1  NZ  LYS A   1      -9.481   9.433  64.744  1.00  0.00    -0.446 NA 
ATOM      2  HZ2 LYS A   1     -10.029   8.691  64.307  1.00  0.00     0.000 HD 
ATOM      3  CE  LYS A   1      -9.951   9.714  66.097  1.00  0.00    -0.276 C  
ATOM      4  HZ1 LYS A   1      -9.466  10.274  64.168  1.00  0.00     0.000 HD 
ENDROOT
BRANCH   3   5
ATOM      5  CD  LYS A   1      -9.973   8.451  66.962  1.00  0.00    -0.323 C  
BRANCH   5   6
ATOM      6  CG  LYS A   1     -10.441   8.737  68.393  1.00  0.00    -0.220 C  
BRANCH   6   7
ATOM      7  CB  LYS A   1     -10.164   7.564  69.335  1.00  0.00    -0.204 C  
BRANCH   7   8
ATOM      8  CA  LYS A   1     -10.849   7.719  70.700  1.00  0.00    -0.237 C  
ATOM      9  N   LYS A   1     -12.337   7.729  70.578  1.00  0.00    -0.471 NA 
ATOM     10  C   LYS A   1     -10.421   9.058  71.320  1.00  0.00    -0.311 C  
ATOM     11  OXT LYS A   1      -9.360   9.269  71.886  1.00  0.00    -0.299 OA 
ATOM     12  O   LYS A   1     -11.376  10.008  71.132  1.00  0.00    -0.360 OA 
ATOM     13  H1  LYS A   1     -12.792   7.832  71.484  1.00  0.00     0.000 HD 
ATOM     14  H2  LYS A   1     -12.674   6.902  70.084  1.00  0.00     0.000 HD 
ENDBRANCH   7   8
ENDBRANCH   6   7
ENDBRANCH   5   6
ENDBRANCH   3   5
TORSDOF 4
ENDMDL
MODEL      188
REMARK 921   NORMALIZED FREE ENERGY PREDICTED BY IDOCK:   -2.10 KCAL/MOL
REMARK 922        TOTAL FREE ENERGY PREDICTED BY IDOCK:   -3.10 KCAL/MOL
REMARK 923 INTER-LIGAND FREE ENERGY PREDICTED BY IDOCK:   -3.44 KCAL/MOL
REMARK 924 INTRA-LIGAND FREE ENERGY PREDICTED BY IDOCK:    0.35 KCAL/MOL
REMARK 927      BINDING AFFINITY PREDICTED BY RF-SCORE:    0.00 PKD
ROOT
ATOM      1  NZ  LYS A   1      -7.452  10.395  69.980  1.00  0.00    -0.295 NA 
ATOM      2  HZ2 LYS A   1      -7.423  10.554  70.987  1.00  0.00     0.000 HD 
ATOM      3  CE  LYS A   1      -8.593   9.566  69.605  1.00  0.00    -0.183 C  
ATOM      4  HZ1 LYS A   1      -6.573  10.004  69.640  1.00  0.00     0.000 HD 
ENDROOT
BRANCH   3   5
ATOM      5  CD  LYS A   1      -9.911  10.154  70.115  1.00  0.00    -0.108 C  
BRANCH   5   6
ATOM      6  CG  LYS A   1     -10.854   9.075  70.659  1.00  0.00    -0.295 C  
BRANCH   6   7
ATOM      7  CB  LYS A   1     -11.914   9.657  71.596  1.00  0.00    -0.470 C  
BRANCH   7   8
ATOM      8  CA  LYS A   1     -12.991  10.462  70.852  1.00  0.00    -0.387 C  
ATOM      9  N   LYS A   1     -12.728  10.517  69.384  1.00  0.00    -0.614 NA 
ATOM     10  C   LYS A   1     -12.987  11.904  71.383  1.00  0.00    -0.284 C  
ATOM     11  OXT LYS A   1     -13.502  12.276  72.426  1.00  0.00    -0.467 OA 
ATOM     12  O   LYS A   1     -12.299  12.728  70.547  1.00  0.00    -0.339 OA 
ATOM     13  H1  LYS A   1     -13.443  11.051  68.890  1.00  0.00     0.000 HD 
ATOM     14  H2  LYS A   1     -12.625   9.581  68.990  1.00  0.00     0.000 HD 
ENDBRANCH   7   8
ENDBRANCH   6   7
ENDBRANCH   5   6
ENDBRANCH   3   5
TORSDOF 4
ENDMDL
MODEL      189
REMARK 921   NORMALIZED FREE ENERGY PREDICTED BY IDOCK:   -2.10 KCAL/MOL
REMARK 922        TOTAL FREE ENERGY PREDICTED BY IDOCK:   -3.10 KCAL/MOL
REMARK 923 INTER-LIGAND FREE ENERGY PREDICTED BY IDOCK:   -2.92 KCAL/MOL
REMARK 924 INTRA-LIGAND FREE ENERGY PREDICTED BY IDOCK:   -0.17 KCAL/MOL
REMARK 927      BINDING AFFINITY PREDICTED BY RF-SCORE:    0.00 PKD
ROOT
ATOM      1  NZ  LYS A   1     -11.255   8.758  71.589  1.00  0.00    -0.298 NA 
ATOM      2  HZ2 LYS A   1     -11.937   8.093  71.224  1.00  0.00     0.000 HD 
ATOM      3  CE  LYS A   1     -10.903   9.762  70.590  1.00  0.00    -0.329 C  
ATOM      4  HZ1 LYS A   1     -10.429   8.283  71.953  1.00  0.00     0.000 HD 
ENDROOT
BRANCH   3   5
ATOM      5  CD  LYS A   1     -12.143  10.476  70.045  1.00  0.00    -0.351 C  
BRANCH   5   6
ATOM      6  CG  LYS A   1     -11.799  11.454  68.916  1.00  0.00    -0.413 C  
BRANCH   6   7
ATOM      7  CB  LYS A   1     -11.009  10.782  67.793  1.00  0.00    -0.354 C  
BRANCH   7   8
ATOM      8  CA  LYS A   1      -9.859  11.653  67.267  1.00  0.00    -0.187 C  
ATOM      9  N   LYS A   1      -9.559  12.791  68.187  1.00  0.00    -0.220 NA 
ATOM     10  C   LYS A   1     -10.265  12.244  65.908  1.00  0.00    -0.249 C  
ATOM     11  OXT LYS A   1     -10.234  11.651  64.841  1.00  0.00    -0.246 OA 
ATOM     12  O   LYS A   1     -10.700  13.526  66.046  1.00  0.00    -0.275 OA 
ATOM     13  H1  LYS A   1      -8.795  13.370  67.838  1.00  0.00     0.000 HD 
ATOM     14  H2  LYS A   1      -9.374  12.463  69.135  1.00  0.00     0.000 HD 
ENDBRANCH   7   8
ENDBRANCH   6   7
ENDBRANCH   5   6
ENDBRANCH   3   5
TORSDOF 4
ENDMDL
MODEL      190
REMARK 921   NORMALIZED FREE ENERGY PREDICTED BY IDOCK:   -2.10 KCAL/MOL
REMARK 922        TOTAL FREE ENERGY PREDICTED BY IDOCK:   -3.10 KCAL/MOL
REMARK 923 INTER-LIGAND FREE ENERGY PREDICTED BY IDOCK:   -2.98 KCAL/MOL
REMARK 924 INTRA-LIGAND FREE ENERGY PREDICTED BY IDOCK:   -0.11 KCAL/MOL
REMARK 927      BINDING AFFINITY PREDICTED BY RF-SCORE:    0.00 PKD
ROOT
ATOM      1  NZ  LYS A   1      -8.367   7.069  68.742  1.00  0.00    -0.121 NA 
ATOM      2  HZ2 LYS A   1      -9.204   6.610  69.101  1.00  0.00     0.000 HD 
ATOM      3  CE  LYS A   1      -8.604   7.656  67.427  1.00  0.00    -0.125 C  
ATOM      4  HZ1 LYS A   1      -7.569   6.434  68.733  1.00  0.00     0.000 HD 
ENDROOT
BRANCH   3   5
ATOM      5  CD  LYS A   1      -9.801   8.610  67.441  1.00  0.00    -0.249 C  
BRANCH   5   6
ATOM      6  CG  LYS A   1      -9.422  10.009  67.940  1.00  0.00    -0.159 C  
BRANCH   6   7
ATOM      7  CB  LYS A   1      -9.961  10.284  69.344  1.00  0.00    -0.254 C  
BRANCH   7   8
ATOM      8  CA  LYS A   1     -11.460   9.978  69.479  1.00  0.00    -0.120 C  
ATOM      9  N   LYS A   1     -12.285  10.827  68.568  1.00  0.00    -0.822 NA 
ATOM     10  C   LYS A   1     -11.900  10.275  70.921  1.00  0.00    -0.377 C  
ATOM     11  OXT LYS A   1     -11.717   9.543  71.882  1.00  0.00    -0.374 OA 
ATOM     12  O   LYS A   1     -12.504  11.491  71.005  1.00  0.00    -0.380 OA 
ATOM     13  H1  LYS A   1     -13.280  10.624  68.657  1.00  0.00     0.000 HD 
ATOM     14  H2  LYS A   1     -11.973  10.743  67.600  1.00  0.00     0.000 HD 
ENDBRANCH   7   8
ENDBRANCH   6   7
ENDBRANCH   5   6
ENDBRANCH   3   5
TORSDOF 4
ENDMDL
MODEL      191
REMARK 921   NORMALIZED FREE ENERGY PREDICTED BY IDOCK:   -2.10 KCAL/MOL
REMARK 922        TOTAL FREE ENERGY PREDICTED BY IDOCK:   -3.09 KCAL/MOL
REMARK 923 INTER-LIGAND FREE ENERGY PREDICTED BY IDOCK:   -3.17 KCAL/MOL
REMARK 924 INTRA-LIGAND FREE ENERGY PREDICTED BY IDOCK:    0.08 KCAL/MOL
REMARK 927      BINDING AFFINITY PREDICTED BY RF-SCORE:    0.00 PKD
ROOT
ATOM      1  NZ  LYS A   1     -12.147  10.967  68.261  1.00  0.00    -0.788 NA 
ATOM      2  HZ2 LYS A   1     -11.468  11.090  67.508  1.00  0.00     0.000 HD 
ATOM      3  CE  LYS A   1     -11.873  11.867  69.377  1.00  0.00    -0.327 C  
ATOM      4  HZ1 LYS A   1     -12.194   9.994  68.563  1.00  0.00     0.000 HD 
ENDROOT
BRANCH   3   5
ATOM      5  CD  LYS A   1     -11.803  13.327  68.922  1.00  0.00    -0.367 C  
BRANCH   5   6
ATOM      6  CG  LYS A   1     -12.235  13.501  67.462  1.00  0.00    -0.247 C  
BRANCH   6   7
ATOM      7  CB  LYS A   1     -11.517  14.669  66.785  1.00  0.00    -0.371 C  
BRANCH   7   8
ATOM      8  CA  LYS A   1     -10.050  14.355  66.452  1.00  0.00    -0.286 C  
ATOM      9  N   LYS A   1      -9.720  12.919  66.695  1.00  0.00    -0.248 NA 
ATOM     10  C   LYS A   1      -9.144  15.204  67.357  1.00  0.00    -0.191 C  
ATOM     11  OXT LYS A   1      -8.877  16.383  67.186  1.00  0.00    -0.186 OA 
ATOM     12  O   LYS A   1      -8.690  14.474  68.412  1.00  0.00    -0.163 OA 
ATOM     13  H1  LYS A   1      -8.747  12.711  66.475  1.00  0.00     0.000 HD 
ATOM     14  H2  LYS A   1     -10.356  12.302  66.190  1.00  0.00     0.000 HD 
ENDBRANCH   7   8
ENDBRANCH   6   7
ENDBRANCH   5   6
ENDBRANCH   3   5
TORSDOF 4
ENDMDL
MODEL      192
REMARK 921   NORMALIZED FREE ENERGY PREDICTED BY IDOCK:   -2.10 KCAL/MOL
REMARK 922        TOTAL FREE ENERGY PREDICTED BY IDOCK:   -3.09 KCAL/MOL
REMARK 923 INTER-LIGAND FREE ENERGY PREDICTED BY IDOCK:   -2.94 KCAL/MOL
REMARK 924 INTRA-LIGAND FREE ENERGY PREDICTED BY IDOCK:   -0.15 KCAL/MOL
REMARK 927      BINDING AFFINITY PREDICTED BY RF-SCORE:    0.00 PKD
ROOT
ATOM      1  NZ  LYS A   1     -11.457   6.412  67.118  1.00  0.00    -0.708 NA 
ATOM      2  HZ2 LYS A   1     -11.380   7.412  67.305  1.00  0.00     0.000 HD 
ATOM      3  CE  LYS A   1     -10.373   5.668  67.753  1.00  0.00    -0.206 C  
ATOM      4  HZ1 LYS A   1     -11.508   6.223  66.117  1.00  0.00     0.000 HD 
ENDROOT
BRANCH   3   5
ATOM      5  CD  LYS A   1     -10.296   5.952  69.255  1.00  0.00    -0.312 C  
BRANCH   5   6
ATOM      6  CG  LYS A   1     -10.148   4.669  70.080  1.00  0.00    -0.283 C  
BRANCH   6   7
ATOM      7  CB  LYS A   1     -10.008   4.959  71.575  1.00  0.00    -0.260 C  
BRANCH   7   8
ATOM      8  CA  LYS A   1      -9.586   6.408  71.865  1.00  0.00    -0.151 C  
ATOM      9  N   LYS A   1      -8.342   6.470  72.688  1.00  0.00    -0.117 NA 
ATOM     10  C   LYS A   1     -10.707   7.101  72.656  1.00  0.00    -0.268 C  
ATOM     11  OXT LYS A   1     -11.737   7.551  72.178  1.00  0.00    -0.284 OA 
ATOM     12  O   LYS A   1     -10.418   7.127  73.985  1.00  0.00    -0.353 OA 
ATOM     13  H1  LYS A   1      -8.062   7.432  72.880  1.00  0.00     0.000 HD 
ATOM     14  H2  LYS A   1      -7.584   5.942  72.255  1.00  0.00     0.000 HD 
ENDBRANCH   7   8
ENDBRANCH   6   7
ENDBRANCH   5   6
ENDBRANCH   3   5
TORSDOF 4
ENDMDL
MODEL      193
REMARK 921   NORMALIZED FREE ENERGY PREDICTED BY IDOCK:   -2.09 KCAL/MOL
REMARK 922        TOTAL FREE ENERGY PREDICTED BY IDOCK:   -3.08 KCAL/MOL
REMARK 923 INTER-LIGAND FREE ENERGY PREDICTED BY IDOCK:   -2.66 KCAL/MOL
REMARK 924 INTRA-LIGAND FREE ENERGY PREDICTED BY IDOCK:   -0.42 KCAL/MOL
REMARK 927      BINDING AFFINITY PREDICTED BY RF-SCORE:    0.00 PKD
ROOT
ATOM      1  NZ  LYS A   1      -9.360   7.913  72.502  1.00  0.00    -0.176 NA 
ATOM      2  HZ2 LYS A   1      -9.600   8.742  71.959  1.00  0.00     0.000 HD 
ATOM      3  CE  LYS A   1     -10.493   7.452  73.299  1.00  0.00    -0.374 C  
ATOM      4  HZ1 LYS A   1      -8.533   8.072  73.079  1.00  0.00     0.000 HD 
ENDROOT
BRANCH   3   5
ATOM      5  CD  LYS A   1     -11.732   7.212  72.433  1.00  0.00    -0.261 C  
BRANCH   5   6
ATOM      6  CG  LYS A   1     -11.511   7.632  70.976  1.00  0.00    -0.294 C  
BRANCH   6   7
ATOM      7  CB  LYS A   1     -11.715   6.469  70.004  1.00  0.00    -0.388 C  
BRANCH   7   8
ATOM      8  CA  LYS A   1     -10.457   6.149  69.183  1.00  0.00    -0.251 C  
ATOM      9  N   LYS A   1      -9.222   6.687  69.827  1.00  0.00    -0.146 NA 
ATOM     10  C   LYS A   1     -10.588   6.806  67.800  1.00  0.00    -0.249 C  
ATOM     11  OXT LYS A   1     -11.244   6.368  66.868  1.00  0.00    -0.368 OA 
ATOM     12  O   LYS A   1      -9.892   7.974  67.748  1.00  0.00    -0.151 OA 
ATOM     13  H1  LYS A   1      -8.386   6.475  69.282  1.00  0.00     0.000 HD 
ATOM     14  H2  LYS A   1      -9.131   6.358  70.788  1.00  0.00     0.000 HD 
ENDBRANCH   7   8
ENDBRANCH   6   7
ENDBRANCH   5   6
ENDBRANCH   3   5
TORSDOF 4
ENDMDL
MODEL      194
REMARK 921   NORMALIZED FREE ENERGY PREDICTED BY IDOCK:   -2.09 KCAL/MOL
REMARK 922        TOTAL FREE ENERGY PREDICTED BY IDOCK:   -3.07 KCAL/MOL
REMARK 923 INTER-LIGAND FREE ENERGY PREDICTED BY IDOCK:   -3.11 KCAL/MOL
REMARK 924 INTRA-LIGAND FREE ENERGY PREDICTED BY IDOCK:    0.03 KCAL/MOL
REMARK 927      BINDING AFFINITY PREDICTED BY RF-SCORE:    0.00 PKD
ROOT
ATOM      1  NZ  LYS A   1      -8.731  17.318  67.621  1.00  0.00    -0.217 NA 
ATOM      2  HZ2 LYS A   1      -8.076  17.275  68.403  1.00  0.00     0.000 HD 
ATOM      3  CE  LYS A   1      -8.294  16.474  66.514  1.00  0.00    -0.292 C  
ATOM      4  HZ1 LYS A   1      -8.891  18.281  67.322  1.00  0.00     0.000 HD 
ENDROOT
BRANCH   3   5
ATOM      5  CD  LYS A   1      -8.055  15.031  66.963  1.00  0.00    -0.225 C  
BRANCH   5   6
ATOM      6  CG  LYS A   1      -9.288  14.146  66.750  1.00  0.00    -0.295 C  
BRANCH   6   7
ATOM      7  CB  LYS A   1      -9.682  13.393  68.021  1.00  0.00    -0.222 C  
BRANCH   7   8
ATOM      8  CA  LYS A   1     -11.200  13.195  68.152  1.00  0.00    -0.271 C  
ATOM      9  N   LYS A   1     -11.694  12.096  67.271  1.00  0.00    -0.521 NA 
ATOM     10  C   LYS A   1     -11.907  14.491  67.726  1.00  0.00    -0.357 C  
ATOM     11  OXT LYS A   1     -12.030  15.490  68.417  1.00  0.00    -0.296 OA 
ATOM     12  O   LYS A   1     -12.363  14.398  66.447  1.00  0.00    -0.409 OA 
ATOM     13  H1  LYS A   1     -12.702  11.964  67.357  1.00  0.00     0.000 HD 
ATOM     14  H2  LYS A   1     -11.190  11.226  67.444  1.00  0.00     0.000 HD 
ENDBRANCH   7   8
ENDBRANCH   6   7
ENDBRANCH   5   6
ENDBRANCH   3   5
TORSDOF 4
ENDMDL
MODEL      195
REMARK 921   NORMALIZED FREE ENERGY PREDICTED BY IDOCK:   -2.08 KCAL/MOL
REMARK 922        TOTAL FREE ENERGY PREDICTED BY IDOCK:   -3.07 KCAL/MOL
REMARK 923 INTER-LIGAND FREE ENERGY PREDICTED BY IDOCK:   -2.94 KCAL/MOL
REMARK 924 INTRA-LIGAND FREE ENERGY PREDICTED BY IDOCK:   -0.13 KCAL/MOL
REMARK 927      BINDING AFFINITY PREDICTED BY RF-SCORE:    0.00 PKD
ROOT
ATOM      1  NZ  LYS A   1      -7.206  10.149  68.780  1.00  0.00    -0.078 NA 
ATOM      2  HZ2 LYS A   1      -8.049  10.586  68.406  1.00  0.00     0.000 HD 
ATOM      3  CE  LYS A   1      -7.286   9.993  70.229  1.00  0.00    -0.147 C  
ATOM      4  HZ1 LYS A   1      -6.368  10.659  68.501  1.00  0.00     0.000 HD 
ENDROOT
BRANCH   3   5
ATOM      5  CD  LYS A   1      -8.544   9.228  70.647  1.00  0.00    -0.270 C  
BRANCH   5   6
ATOM      6  CG  LYS A   1      -9.755   9.584  69.778  1.00  0.00    -0.234 C  
BRANCH   6   7
ATOM      7  CB  LYS A   1     -11.021   8.854  70.228  1.00  0.00    -0.266 C  
BRANCH   7   8
ATOM      8  CA  LYS A   1     -11.498   9.290  71.622  1.00  0.00    -0.398 C  
ATOM      9  N   LYS A   1     -11.635   8.129  72.550  1.00  0.00    -0.399 NA 
ATOM     10  C   LYS A   1     -12.880   9.949  71.488  1.00  0.00    -0.421 C  
ATOM     11  OXT LYS A   1     -13.085  11.094  71.116  1.00  0.00    -0.331 OA 
ATOM     12  O   LYS A   1     -13.869   9.074  71.814  1.00  0.00    -0.397 OA 
ATOM     13  H1  LYS A   1     -11.952   8.418  73.475  1.00  0.00     0.000 HD 
ATOM     14  H2  LYS A   1     -10.769   7.593  72.605  1.00  0.00     0.000 HD 
ENDBRANCH   7   8
ENDBRANCH   6   7
ENDBRANCH   5   6
ENDBRANCH   3   5
TORSDOF 4
ENDMDL
MODEL      196
REMARK 921   NORMALIZED FREE ENERGY PREDICTED BY IDOCK:   -2.07 KCAL/MOL
REMARK 922        TOTAL FREE ENERGY PREDICTED BY IDOCK:   -3.06 KCAL/MOL
REMARK 923 INTER-LIGAND FREE ENERGY PREDICTED BY IDOCK:   -2.86 KCAL/MOL
REMARK 924 INTRA-LIGAND FREE ENERGY PREDICTED BY IDOCK:   -0.19 KCAL/MOL
REMARK 927      BINDING AFFINITY PREDICTED BY RF-SCORE:    0.00 PKD
ROOT
ATOM      1  NZ  LYS A   1      -7.044  13.212  66.982  1.00  0.00    -0.379 NA 
ATOM      2  HZ2 LYS A   1      -6.650  13.931  67.589  1.00  0.00     0.000 HD 
ATOM      3  CE  LYS A   1      -8.472  13.035  67.226  1.00  0.00    -0.199 C  
ATOM      4  HZ1 LYS A   1      -6.535  12.332  67.068  1.00  0.00     0.000 HD 
ENDROOT
BRANCH   3   5
ATOM      5  CD  LYS A   1      -9.236  14.355  67.096  1.00  0.00    -0.230 C  
BRANCH   5   6
ATOM      6  CG  LYS A   1      -8.824  15.371  68.168  1.00  0.00    -0.170 C  
BRANCH   6   7
ATOM      7  CB  LYS A   1      -9.514  15.106  69.507  1.00  0.00    -0.151 C  
BRANCH   7   8
ATOM      8  CA  LYS A   1     -11.028  15.362  69.459  1.00  0.00    -0.275 C  
ATOM      9  N   LYS A   1     -11.460  16.335  70.506  1.00  0.00    -0.493 NA 
ATOM     10  C   LYS A   1     -11.763  14.038  69.719  1.00  0.00    -0.313 C  
ATOM     11  OXT LYS A   1     -11.939  13.153  68.896  1.00  0.00    -0.309 OA 
ATOM     12  O   LYS A   1     -12.177  13.957  71.012  1.00  0.00    -0.344 OA 
ATOM     13  H1  LYS A   1     -12.465  16.505  70.475  1.00  0.00     0.000 HD 
ATOM     14  H2  LYS A   1     -10.934  17.207  70.442  1.00  0.00     0.000 HD 
ENDBRANCH   7   8
ENDBRANCH   6   7
ENDBRANCH   5   6
ENDBRANCH   3   5
TORSDOF 4
ENDMDL
MODEL      197
REMARK 921   NORMALIZED FREE ENERGY PREDICTED BY IDOCK:   -2.07 KCAL/MOL
REMARK 922        TOTAL FREE ENERGY PREDICTED BY IDOCK:   -3.05 KCAL/MOL
REMARK 923 INTER-LIGAND FREE ENERGY PREDICTED BY IDOCK:   -3.40 KCAL/MOL
REMARK 924 INTRA-LIGAND FREE ENERGY PREDICTED BY IDOCK:    0.35 KCAL/MOL
REMARK 927      BINDING AFFINITY PREDICTED BY RF-SCORE:    0.00 PKD
ROOT
ATOM      1  NZ  LYS A   1      -8.728  17.613  65.910  1.00  0.00    -0.520 NA 
ATOM      2  HZ2 LYS A   1      -9.335  18.425  65.797  1.00  0.00     0.000 HD 
ATOM      3  CE  LYS A   1      -9.024  16.894  67.145  1.00  0.00    -0.206 C  
ATOM      4  HZ1 LYS A   1      -7.743  17.873  65.852  1.00  0.00     0.000 HD 
ENDROOT
BRANCH   3   5
ATOM      5  CD  LYS A   1     -10.502  16.503  67.231  1.00  0.00    -0.304 C  
BRANCH   5   6
ATOM      6  CG  LYS A   1     -10.761  15.093  66.688  1.00  0.00    -0.310 C  
BRANCH   6   7
ATOM      7  CB  LYS A   1     -10.618  14.024  67.772  1.00  0.00    -0.244 C  
BRANCH   7   8
ATOM      8  CA  LYS A   1     -11.614  12.866  67.604  1.00  0.00    -0.355 C  
ATOM      9  N   LYS A   1     -11.025  11.561  68.027  1.00  0.00    -0.215 NA 
ATOM     10  C   LYS A   1     -11.992  12.751  66.119  1.00  0.00    -0.414 C  
ATOM     11  OXT LYS A   1     -12.797  13.460  65.536  1.00  0.00    -0.521 OA 
ATOM     12  O   LYS A   1     -11.283  11.759  65.513  1.00  0.00    -0.309 OA 
ATOM     13  H1  LYS A   1     -11.686  10.793  67.914  1.00  0.00     0.000 HD 
ATOM     14  H2  LYS A   1     -10.667  11.608  68.981  1.00  0.00     0.000 HD 
ENDBRANCH   7   8
ENDBRANCH   6   7
ENDBRANCH   5   6
ENDBRANCH   3   5
TORSDOF 4
ENDMDL
MODEL      198
REMARK 921   NORMALIZED FREE ENERGY PREDICTED BY IDOCK:   -2.06 KCAL/MOL
REMARK 922        TOTAL FREE ENERGY PREDICTED BY IDOCK:   -3.04 KCAL/MOL
REMARK 923 INTER-LIGAND FREE ENERGY PREDICTED BY IDOCK:   -2.66 KCAL/MOL
REMARK 924 INTRA-LIGAND FREE ENERGY PREDICTED BY IDOCK:   -0.38 KCAL/MOL
REMARK 927      BINDING AFFINITY PREDICTED BY RF-SCORE:    0.00 PKD
ROOT
ATOM      1  NZ  LYS A   1     -11.716  11.017  67.818  1.00  0.00    -0.614 NA 
ATOM      2  HZ2 LYS A   1     -11.773  10.005  67.707  1.00  0.00     0.000 HD 
ATOM      3  CE  LYS A   1     -10.330  11.463  67.919  1.00  0.00    -0.182 C  
ATOM      4  HZ1 LYS A   1     -12.274  11.337  68.609  1.00  0.00     0.000 HD 
ENDROOT
BRANCH   3   5
ATOM      5  CD  LYS A   1      -9.493  10.983  66.731  1.00  0.00    -0.203 C  
BRANCH   5   6
ATOM      6  CG  LYS A   1     -10.150   9.810  65.995  1.00  0.00    -0.322 C  
BRANCH   6   7
ATOM      7  CB  LYS A   1      -9.274   8.557  66.013  1.00  0.00    -0.262 C  
BRANCH   7   8
ATOM      8  CA  LYS A   1      -9.924   7.384  66.762  1.00  0.00    -0.230 C  
ATOM      9  N   LYS A   1     -10.962   7.850  67.729  1.00  0.00    -0.498 NA 
ATOM     10  C   LYS A   1      -8.840   6.643  67.559  1.00  0.00    -0.116 C  
ATOM     11  OXT LYS A   1      -8.045   5.839  67.096  1.00  0.00    -0.102 OA 
ATOM     12  O   LYS A   1      -8.854   7.021  68.866  1.00  0.00    -0.131 OA 
ATOM     13  H1  LYS A   1     -11.394   7.071  68.226  1.00  0.00     0.000 HD 
ATOM     14  H2  LYS A   1     -11.663   8.432  67.269  1.00  0.00     0.000 HD 
ENDBRANCH   7   8
ENDBRANCH   6   7
ENDBRANCH   5   6
ENDBRANCH   3   5
TORSDOF 4
ENDMDL
MODEL      199
REMARK 921   NORMALIZED FREE ENERGY PREDICTED BY IDOCK:   -2.06 KCAL/MOL
REMARK 922        TOTAL FREE ENERGY PREDICTED BY IDOCK:   -3.04 KCAL/MOL
REMARK 923 INTER-LIGAND FREE ENERGY PREDICTED BY IDOCK:   -2.92 KCAL/MOL
REMARK 924 INTRA-LIGAND FREE ENERGY PREDICTED BY IDOCK:   -0.12 KCAL/MOL
REMARK 927      BINDING AFFINITY PREDICTED BY RF-SCORE:    0.00 PKD
ROOT
ATOM      1  NZ  LYS A   1      -9.396  17.490  65.958  1.00  0.00    -0.510 NA 
ATOM      2  HZ2 LYS A   1      -9.493  17.643  64.954  1.00  0.00     0.000 HD 
ATOM      3  CE  LYS A   1     -10.252  16.400  66.416  1.00  0.00    -0.316 C  
ATOM      4  HZ1 LYS A   1      -9.564  18.348  66.483  1.00  0.00     0.000 HD 
ENDROOT
BRANCH   3   5
ATOM      5  CD  LYS A   1      -9.999  15.113  65.628  1.00  0.00    -0.387 C  
BRANCH   5   6
ATOM      6  CG  LYS A   1      -9.664  13.929  66.543  1.00  0.00    -0.303 C  
BRANCH   6   7
ATOM      7  CB  LYS A   1     -10.884  13.045  66.809  1.00  0.00    -0.285 C  
BRANCH   7   8
ATOM      8  CA  LYS A   1     -10.837  12.364  68.185  1.00  0.00    -0.221 C  
ATOM      9  N   LYS A   1      -9.696  12.856  69.011  1.00  0.00    -0.361 NA 
ATOM     10  C   LYS A   1     -10.651  10.852  67.983  1.00  0.00    -0.202 C  
ATOM     11  OXT LYS A   1     -11.534  10.064  67.679  1.00  0.00    -0.192 OA 
ATOM     12  O   LYS A   1      -9.350  10.495  68.158  1.00  0.00    -0.142 OA 
ATOM     13  H1  LYS A   1      -9.665  12.404  69.924  1.00  0.00     0.000 HD 
ATOM     14  H2  LYS A   1      -9.714  13.873  69.101  1.00  0.00     0.000 HD 
ENDBRANCH   7   8
ENDBRANCH   6   7
ENDBRANCH   5   6
ENDBRANCH   3   5
TORSDOF 4
ENDMDL
MODEL      200
REMARK 921   NORMALIZED FREE ENERGY PREDICTED BY IDOCK:   -2.05 KCAL/MOL
REMARK 922        TOTAL FREE ENERGY PREDICTED BY IDOCK:   -3.04 KCAL/MOL
REMARK 923 INTER-LIGAND FREE ENERGY PREDICTED BY IDOCK:   -2.80 KCAL/MOL
REMARK 924 INTRA-LIGAND FREE ENERGY PREDICTED BY IDOCK:   -0.24 KCAL/MOL
REMARK 927      BINDING AFFINITY PREDICTED BY RF-SCORE:    0.00 PKD
ROOT
ATOM      1  NZ  LYS A   1     -13.674   7.329  72.295  1.00  0.00    -0.508 NA 
ATOM      2  HZ2 LYS A   1     -13.170   7.659  73.118  1.00  0.00     0.000 HD 
ATOM      3  CE  LYS A   1     -14.132   8.442  71.469  1.00  0.00    -0.373 C  
ATOM      4  HZ1 LYS A   1     -14.443   6.710  72.553  1.00  0.00     0.000 HD 
ENDROOT
BRANCH   3   5
ATOM      5  CD  LYS A   1     -12.978   9.371  71.082  1.00  0.00    -0.307 C  
BRANCH   5   6
ATOM      6  CG  LYS A   1     -11.757   9.189  71.991  1.00  0.00    -0.384 C  
BRANCH   6   7
ATOM      7  CB  LYS A   1     -10.505   8.803  71.202  1.00  0.00    -0.315 C  
BRANCH   7   8
ATOM      8  CA  LYS A   1     -10.825   8.265  69.799  1.00  0.00    -0.185 C  
ATOM      9  N   LYS A   1     -10.307   6.878  69.605  1.00  0.00    -0.199 NA 
ATOM     10  C   LYS A   1     -10.150   9.168  68.756  1.00  0.00    -0.197 C  
ATOM     11  OXT LYS A   1     -10.570  10.251  68.379  1.00  0.00    -0.191 OA 
ATOM     12  O   LYS A   1      -8.988   8.615  68.314  1.00  0.00    -0.141 OA 
ATOM     13  H1  LYS A   1     -10.519   6.520  68.674  1.00  0.00     0.000 HD 
ATOM     14  H2  LYS A   1     -10.649   6.249  70.332  1.00  0.00     0.000 HD 
ENDBRANCH   7   8
ENDBRANCH   6   7
ENDBRANCH   5   6
ENDBRANCH   3   5
TORSDOF 4
ENDMDL
MODEL      201
REMARK 921   NORMALIZED FREE ENERGY PREDICTED BY IDOCK:   -2.05 KCAL/MOL
REMARK 922        TOTAL FREE ENERGY PREDICTED BY IDOCK:   -3.03 KCAL/MOL
REMARK 923 INTER-LIGAND FREE ENERGY PREDICTED BY IDOCK:   -2.95 KCAL/MOL
REMARK 924 INTRA-LIGAND FREE ENERGY PREDICTED BY IDOCK:   -0.07 KCAL/MOL
REMARK 927      BINDING AFFINITY PREDICTED BY RF-SCORE:    0.00 PKD
ROOT
ATOM      1  NZ  LYS A   1      -9.262   9.794  67.179  1.00  0.00    -0.137 NA 
ATOM      2  HZ2 LYS A   1      -8.366  10.140  67.521  1.00  0.00     0.000 HD 
ATOM      3  CE  LYS A   1     -10.349  10.710  67.510  1.00  0.00    -0.214 C  
ATOM      4  HZ1 LYS A   1      -9.449   8.849  67.517  1.00  0.00     0.000 HD 
ENDROOT
BRANCH   3   5
ATOM      5  CD  LYS A   1     -10.068  12.127  67.004  1.00  0.00    -0.219 C  
BRANCH   5   6
ATOM      6  CG  LYS A   1     -11.093  13.142  67.522  1.00  0.00    -0.296 C  
BRANCH   6   7
ATOM      7  CB  LYS A   1     -11.066  13.259  69.047  1.00  0.00    -0.291 C  
BRANCH   7   8
ATOM      8  CA  LYS A   1     -12.128  14.226  69.591  1.00  0.00    -0.346 C  
ATOM      9  N   LYS A   1     -11.674  15.647  69.519  1.00  0.00    -0.351 NA 
ATOM     10  C   LYS A   1     -12.393  13.893  71.067  1.00  0.00    -0.376 C  
ATOM     11  OXT LYS A   1     -13.094  12.978  71.471  1.00  0.00    -0.373 OA 
ATOM     12  O   LYS A   1     -11.714  14.741  71.886  1.00  0.00    -0.348 OA 
ATOM     13  H1  LYS A   1     -12.379  16.289  69.880  1.00  0.00     0.000 HD 
ATOM     14  H2  LYS A   1     -11.392  15.899  68.571  1.00  0.00     0.000 HD 
ENDBRANCH   7   8
ENDBRANCH   6   7
ENDBRANCH   5   6
ENDBRANCH   3   5
TORSDOF 4
ENDMDL
MODEL      202
REMARK 921   NORMALIZED FREE ENERGY PREDICTED BY IDOCK:   -2.03 KCAL/MOL
REMARK 922        TOTAL FREE ENERGY PREDICTED BY IDOCK:   -3.00 KCAL/MOL
REMARK 923 INTER-LIGAND FREE ENERGY PREDICTED BY IDOCK:   -2.65 KCAL/MOL
REMARK 924 INTRA-LIGAND FREE ENERGY PREDICTED BY IDOCK:   -0.35 KCAL/MOL
REMARK 927      BINDING AFFINITY PREDICTED BY RF-SCORE:    0.00 PKD
ROOT
ATOM      1  NZ  LYS A   1     -11.780  11.002  67.861  1.00  0.00    -0.618 NA 
ATOM      2  HZ2 LYS A   1     -11.756   9.988  67.965  1.00  0.00     0.000 HD 
ATOM      3  CE  LYS A   1     -10.435  11.568  67.855  1.00  0.00    -0.184 C  
ATOM      4  HZ1 LYS A   1     -12.369  11.436  68.572  1.00  0.00     0.000 HD 
ENDROOT
BRANCH   3   5
ATOM      5  CD  LYS A   1      -9.552  10.918  66.787  1.00  0.00    -0.210 C  
BRANCH   5   6
ATOM      6  CG  LYS A   1     -10.037   9.514  66.411  1.00  0.00    -0.328 C  
BRANCH   6   7
ATOM      7  CB  LYS A   1      -9.060   8.427  66.863  1.00  0.00    -0.179 C  
BRANCH   7   8
ATOM      8  CA  LYS A   1      -9.594   7.597  68.040  1.00  0.00    -0.145 C  
ATOM      9  N   LYS A   1     -11.058   7.332  67.914  1.00  0.00    -0.505 NA 
ATOM     10  C   LYS A   1      -9.370   8.382  69.342  1.00  0.00    -0.154 C  
ATOM     11  OXT LYS A   1      -8.312   8.463  69.946  1.00  0.00    -0.119 OA 
ATOM     12  O   LYS A   1     -10.511   9.012  69.732  1.00  0.00    -0.207 OA 
ATOM     13  H1  LYS A   1     -11.413   6.781  68.696  1.00  0.00     0.000 HD 
ATOM     14  H2  LYS A   1     -11.281   6.895  67.020  1.00  0.00     0.000 HD 
ENDBRANCH   7   8
ENDBRANCH   6   7
ENDBRANCH   5   6
ENDBRANCH   3   5
TORSDOF 4
ENDMDL
MODEL      203
REMARK 921   NORMALIZED FREE ENERGY PREDICTED BY IDOCK:   -2.02 KCAL/MOL
REMARK 922        TOTAL FREE ENERGY PREDICTED BY IDOCK:   -2.99 KCAL/MOL
REMARK 923 INTER-LIGAND FREE ENERGY PREDICTED BY IDOCK:   -2.84 KCAL/MOL
REMARK 924 INTRA-LIGAND FREE ENERGY PREDICTED BY IDOCK:   -0.15 KCAL/MOL
REMARK 927      BINDING AFFINITY PREDICTED BY RF-SCORE:    0.00 PKD
ROOT
ATOM      1  NZ  LYS A   1      -9.283   8.563  65.265  1.00  0.00    -0.430 NA 
ATOM      2  HZ2 LYS A   1      -9.091   7.589  65.029  1.00  0.00     0.000 HD 
ATOM      3  CE  LYS A   1      -9.727   8.697  66.649  1.00  0.00    -0.247 C  
ATOM      4  HZ1 LYS A   1      -9.948   8.980  64.613  1.00  0.00     0.000 HD 
ENDROOT
BRANCH   3   5
ATOM      5  CD  LYS A   1      -8.729   8.072  67.626  1.00  0.00    -0.126 C  
BRANCH   5   6
ATOM      6  CG  LYS A   1      -9.327   7.885  69.025  1.00  0.00    -0.151 C  
BRANCH   6   7
ATOM      7  CB  LYS A   1     -10.544   8.782  69.255  1.00  0.00    -0.210 C  
BRANCH   7   8
ATOM      8  CA  LYS A   1     -10.431   9.627  70.533  1.00  0.00    -0.303 C  
ATOM      9  N   LYS A   1      -9.163   9.351  71.270  1.00  0.00    -0.312 NA 
ATOM     10  C   LYS A   1     -11.601   9.276  71.465  1.00  0.00    -0.382 C  
ATOM     11  OXT LYS A   1     -12.744   9.691  71.353  1.00  0.00    -0.328 OA 
ATOM     12  O   LYS A   1     -11.207   8.404  72.432  1.00  0.00    -0.353 OA 
ATOM     13  H1  LYS A   1      -9.087   9.912  72.119  1.00  0.00     0.000 HD 
ATOM     14  H2  LYS A   1      -8.349   9.477  70.668  1.00  0.00     0.000 HD 
ENDBRANCH   7   8
ENDBRANCH   6   7
ENDBRANCH   5   6
ENDBRANCH   3   5
TORSDOF 4
ENDMDL
MODEL      204
REMARK 921   NORMALIZED FREE ENERGY PREDICTED BY IDOCK:   -2.01 KCAL/MOL
REMARK 922        TOTAL FREE ENERGY PREDICTED BY IDOCK:   -2.99 KCAL/MOL
REMARK 923 INTER-LIGAND FREE ENERGY PREDICTED BY IDOCK:   -2.87 KCAL/MOL
REMARK 924 INTRA-LIGAND FREE ENERGY PREDICTED BY IDOCK:   -0.12 KCAL/MOL
REMARK 927      BINDING AFFINITY PREDICTED BY RF-SCORE:    0.00 PKD
ROOT
ATOM      1  NZ  LYS A   1     -10.974   8.505  67.514  1.00  0.00    -0.466 NA 
ATOM      2  HZ2 LYS A   1     -11.664   8.908  66.880  1.00  0.00     0.000 HD 
ATOM      3  CE  LYS A   1      -9.903   9.451  67.807  1.00  0.00    -0.170 C  
ATOM      4  HZ1 LYS A   1     -10.609   7.622  67.154  1.00  0.00     0.000 HD 
ENDROOT
BRANCH   3   5
ATOM      5  CD  LYS A   1     -10.450  10.775  68.346  1.00  0.00    -0.207 C  
BRANCH   5   6
ATOM      6  CG  LYS A   1     -10.942  10.653  69.792  1.00  0.00    -0.340 C  
BRANCH   6   7
ATOM      7  CB  LYS A   1     -12.265  11.387  70.013  1.00  0.00    -0.377 C  
BRANCH   7   8
ATOM      8  CA  LYS A   1     -12.306  12.157  71.342  1.00  0.00     0.034 C  
ATOM      9  N   LYS A   1     -13.512  11.809  72.150  1.00  0.00    -0.523 NA 
ATOM     10  C   LYS A   1     -12.363  13.663  71.040  1.00  0.00    -0.354 C  
ATOM     11  OXT LYS A   1     -11.410  14.358  70.725  1.00  0.00    -0.163 OA 
ATOM     12  O   LYS A   1     -13.636  14.131  71.140  1.00  0.00    -0.301 OA 
ATOM     13  H1  LYS A   1     -13.539  12.320  73.031  1.00  0.00     0.000 HD 
ATOM     14  H2  LYS A   1     -13.578  10.802  72.302  1.00  0.00     0.000 HD 
ENDBRANCH   7   8
ENDBRANCH   6   7
ENDBRANCH   5   6
ENDBRANCH   3   5
TORSDOF 4
ENDMDL
MODEL      205
REMARK 921   NORMALIZED FREE ENERGY PREDICTED BY IDOCK:   -2.01 KCAL/MOL
REMARK 922        TOTAL FREE ENERGY PREDICTED BY IDOCK:   -2.98 KCAL/MOL
REMARK 923 INTER-LIGAND FREE ENERGY PREDICTED BY IDOCK:   -2.88 KCAL/MOL
REMARK 924 INTRA-LIGAND FREE ENERGY PREDICTED BY IDOCK:   -0.11 KCAL/MOL
REMARK 927      BINDING AFFINITY PREDICTED BY RF-SCORE:    0.00 PKD
ROOT
ATOM      1  NZ  LYS A   1     -13.349  13.870  65.486  1.00  0.00    -0.633 NA 
ATOM      2  HZ2 LYS A   1     -13.923  14.224  66.251  1.00  0.00     0.000 HD 
ATOM      3  CE  LYS A   1     -11.966  14.320  65.606  1.00  0.00    -0.386 C  
ATOM      4  HZ1 LYS A   1     -13.747  14.113  64.578  1.00  0.00     0.000 HD 
ENDROOT
BRANCH   3   5
ATOM      5  CD  LYS A   1     -11.369  13.954  66.968  1.00  0.00    -0.343 C  
BRANCH   5   6
ATOM      6  CG  LYS A   1      -9.948  14.501  67.143  1.00  0.00    -0.252 C  
BRANCH   6   7
ATOM      7  CB  LYS A   1      -9.341  14.105  68.490  1.00  0.00    -0.191 C  
BRANCH   7   8
ATOM      8  CA  LYS A   1      -9.117  15.307  69.420  1.00  0.00    -0.228 C  
ATOM      9  N   LYS A   1      -9.980  16.466  69.049  1.00  0.00    -0.254 NA 
ATOM     10  C   LYS A   1      -7.652  15.757  69.304  1.00  0.00    -0.224 C  
ATOM     11  OXT LYS A   1      -6.701  15.221  69.851  1.00  0.00    -0.173 OA 
ATOM     12  O   LYS A   1      -7.538  16.830  68.475  1.00  0.00    -0.194 OA 
ATOM     13  H1  LYS A   1      -9.831  17.264  69.666  1.00  0.00     0.000 HD 
ATOM     14  H2  LYS A   1     -10.965  16.200  69.016  1.00  0.00     0.000 HD 
ENDBRANCH   7   8
ENDBRANCH   6   7
ENDBRANCH   5   6
ENDBRANCH   3   5
TORSDOF 4
ENDMDL
MODEL      206
REMARK 921   NORMALIZED FREE ENERGY PREDICTED BY IDOCK:   -2.01 KCAL/MOL
REMARK 922        TOTAL FREE ENERGY PREDICTED BY IDOCK:   -2.98 KCAL/MOL
REMARK 923 INTER-LIGAND FREE ENERGY PREDICTED BY IDOCK:   -2.90 KCAL/MOL
REMARK 924 INTRA-LIGAND FREE ENERGY PREDICTED BY IDOCK:   -0.08 KCAL/MOL
REMARK 927      BINDING AFFINITY PREDICTED BY RF-SCORE:    0.00 PKD
ROOT
ATOM      1  NZ  LYS A   1     -10.438  13.469  68.813  1.00  0.00    -0.346 NA 
ATOM      2  HZ2 LYS A   1      -9.484  13.824  68.884  1.00  0.00     0.000 HD 
ATOM      3  CE  LYS A   1     -11.324  14.448  68.191  1.00  0.00    -0.294 C  
ATOM      4  HZ1 LYS A   1     -10.790  13.164  69.721  1.00  0.00     0.000 HD 
ENDROOT
BRANCH   3   5
ATOM      5  CD  LYS A   1     -10.796  14.904  66.829  1.00  0.00    -0.320 C  
BRANCH   5   6
ATOM      6  CG  LYS A   1      -9.551  15.789  66.958  1.00  0.00    -0.236 C  
BRANCH   6   7
ATOM      7  CB  LYS A   1      -9.910  17.264  67.141  1.00  0.00    -0.269 C  
BRANCH   7   8
ATOM      8  CA  LYS A   1      -9.202  17.906  68.344  1.00  0.00    -0.286 C  
ATOM      9  N   LYS A   1      -9.924  19.119  68.831  1.00  0.00    -0.461 NA 
ATOM     10  C   LYS A   1      -7.792  18.340  67.916  1.00  0.00    -0.249 C  
ATOM     11  OXT LYS A   1      -6.826  17.601  67.808  1.00  0.00    -0.174 OA 
ATOM     12  O   LYS A   1      -7.757  19.671  67.639  1.00  0.00    -0.261 OA 
ATOM     13  H1  LYS A   1      -9.454  19.545  69.630  1.00  0.00     0.000 HD 
ATOM     14  H2  LYS A   1     -10.900  18.910  69.042  1.00  0.00     0.000 HD 
ENDBRANCH   7   8
ENDBRANCH   6   7
ENDBRANCH   5   6
ENDBRANCH   3   5
TORSDOF 4
ENDMDL
MODEL      207
REMARK 921   NORMALIZED FREE ENERGY PREDICTED BY IDOCK:   -2.00 KCAL/MOL
REMARK 922        TOTAL FREE ENERGY PREDICTED BY IDOCK:   -2.96 KCAL/MOL
REMARK 923 INTER-LIGAND FREE ENERGY PREDICTED BY IDOCK:   -2.68 KCAL/MOL
REMARK 924 INTRA-LIGAND FREE ENERGY PREDICTED BY IDOCK:   -0.28 KCAL/MOL
REMARK 927      BINDING AFFINITY PREDICTED BY RF-SCORE:    0.00 PKD
ROOT
ATOM      1  NZ  LYS A   1      -8.571  14.311  67.924  1.00  0.00    -0.161 NA 
ATOM      2  HZ2 LYS A   1      -7.718  13.763  67.810  1.00  0.00     0.000 HD 
ATOM      3  CE  LYS A   1      -8.272  15.720  68.155  1.00  0.00    -0.141 C  
ATOM      4  HZ1 LYS A   1      -9.165  13.926  68.659  1.00  0.00     0.000 HD 
ENDROOT
BRANCH   3   5
ATOM      5  CD  LYS A   1      -7.381  16.297  67.052  1.00  0.00    -0.264 C  
BRANCH   5   6
ATOM      6  CG  LYS A   1      -8.197  16.885  65.895  1.00  0.00     0.013 C  
BRANCH   6   7
ATOM      7  CB  LYS A   1      -9.476  17.567  66.383  1.00  0.00    -0.276 C  
BRANCH   7   8
ATOM      8  CA  LYS A   1      -9.355  19.098  66.432  1.00  0.00    -0.348 C  
ATOM      9  N   LYS A   1      -8.124  19.580  65.739  1.00  0.00    -0.422 NA 
ATOM     10  C   LYS A   1      -9.269  19.541  67.901  1.00  0.00    -0.328 C  
ATOM     11  OXT LYS A   1     -10.216  19.643  68.666  1.00  0.00    -0.433 OA 
ATOM     12  O   LYS A   1      -7.980  19.783  68.261  1.00  0.00    -0.321 OA 
ATOM     13  H1  LYS A   1      -8.043  20.596  65.771  1.00  0.00     0.000 HD 
ATOM     14  H2  LYS A   1      -8.078  19.234  64.780  1.00  0.00     0.000 HD 
ENDBRANCH   7   8
ENDBRANCH   6   7
ENDBRANCH   5   6
ENDBRANCH   3   5
TORSDOF 4
ENDMDL
MODEL      208
REMARK 921   NORMALIZED FREE ENERGY PREDICTED BY IDOCK:   -2.00 KCAL/MOL
REMARK 922        TOTAL FREE ENERGY PREDICTED BY IDOCK:   -2.96 KCAL/MOL
REMARK 923 INTER-LIGAND FREE ENERGY PREDICTED BY IDOCK:   -2.94 KCAL/MOL
REMARK 924 INTRA-LIGAND FREE ENERGY PREDICTED BY IDOCK:   -0.02 KCAL/MOL
REMARK 927      BINDING AFFINITY PREDICTED BY RF-SCORE:    0.00 PKD
ROOT
ATOM      1  NZ  LYS A   1      -8.841   2.126  73.127  1.00  0.00    -0.066 NA 
ATOM      2  HZ2 LYS A   1      -9.149   1.324  73.676  1.00  0.00     0.000 HD 
ATOM      3  CE  LYS A   1      -9.947   2.717  72.381  1.00  0.00    -0.165 C  
ATOM      4  HZ1 LYS A   1      -8.061   1.882  72.516  1.00  0.00     0.000 HD 
ENDROOT
BRANCH   3   5
ATOM      5  CD  LYS A   1     -11.116   3.084  73.299  1.00  0.00    -0.232 C  
BRANCH   5   6
ATOM      6  CG  LYS A   1     -11.455   4.577  73.237  1.00  0.00    -0.314 C  
BRANCH   6   7
ATOM      7  CB  LYS A   1     -10.300   5.406  72.673  1.00  0.00    -0.246 C  
BRANCH   7   8
ATOM      8  CA  LYS A   1     -10.748   6.784  72.163  1.00  0.00    -0.220 C  
ATOM      9  N   LYS A   1     -11.368   7.603  73.246  1.00  0.00    -0.619 NA 
ATOM     10  C   LYS A   1     -11.801   6.586  71.062  1.00  0.00    -0.330 C  
ATOM     11  OXT LYS A   1     -11.566   6.290  69.901  1.00  0.00    -0.435 OA 
ATOM     12  O   LYS A   1     -13.058   6.756  71.556  1.00  0.00    -0.310 OA 
ATOM     13  H1  LYS A   1     -11.666   8.518  72.907  1.00  0.00     0.000 HD 
ATOM     14  H2  LYS A   1     -10.745   7.689  74.049  1.00  0.00     0.000 HD 
ENDBRANCH   7   8
ENDBRANCH   6   7
ENDBRANCH   5   6
ENDBRANCH   3   5
TORSDOF 4
ENDMDL
MODEL      209
REMARK 921   NORMALIZED FREE ENERGY PREDICTED BY IDOCK:   -1.97 KCAL/MOL
REMARK 922        TOTAL FREE ENERGY PREDICTED BY IDOCK:   -2.93 KCAL/MOL
REMARK 923 INTER-LIGAND FREE ENERGY PREDICTED BY IDOCK:   -2.77 KCAL/MOL
REMARK 924 INTRA-LIGAND FREE ENERGY PREDICTED BY IDOCK:   -0.16 KCAL/MOL
REMARK 927      BINDING AFFINITY PREDICTED BY RF-SCORE:    0.00 PKD
ROOT
ATOM      1  NZ  LYS A   1     -11.055   5.629  66.107  1.00  0.00    -0.756 NA 
ATOM      2  HZ2 LYS A   1     -11.032   6.628  65.901  1.00  0.00     0.000 HD 
ATOM      3  CE  LYS A   1     -10.539   5.349  67.444  1.00  0.00    -0.153 C  
ATOM      4  HZ1 LYS A   1     -10.564   5.090  65.393  1.00  0.00     0.000 HD 
ENDROOT
BRANCH   3   5
ATOM      5  CD  LYS A   1     -11.276   6.157  68.515  1.00  0.00    -0.241 C  
BRANCH   5   6
ATOM      6  CG  LYS A   1     -10.311   6.885  69.457  1.00  0.00    -0.224 C  
BRANCH   6   7
ATOM      7  CB  LYS A   1     -10.962   8.100  70.120  1.00  0.00    -0.223 C  
BRANCH   7   8
ATOM      8  CA  LYS A   1     -10.306   9.427  69.709  1.00  0.00    -0.223 C  
ATOM      9  N   LYS A   1     -10.381  10.445  70.798  1.00  0.00    -0.113 NA 
ATOM     10  C   LYS A   1     -11.051   9.991  68.489  1.00  0.00    -0.167 C  
ATOM     11  OXT LYS A   1     -10.903   9.619  67.335  1.00  0.00    -0.274 OA 
ATOM     12  O   LYS A   1     -11.936  10.954  68.862  1.00  0.00    -0.395 OA 
ATOM     13  H1  LYS A   1      -9.946  11.326  70.525  1.00  0.00     0.000 HD 
ATOM     14  H2  LYS A   1      -9.984  10.088  71.668  1.00  0.00     0.000 HD 
ENDBRANCH   7   8
ENDBRANCH   6   7
ENDBRANCH   5   6
ENDBRANCH   3   5
TORSDOF 4
ENDMDL
MODEL      210
REMARK 921   NORMALIZED FREE ENERGY PREDICTED BY IDOCK:   -1.95 KCAL/MOL
REMARK 922        TOTAL FREE ENERGY PREDICTED BY IDOCK:   -2.90 KCAL/MOL
REMARK 923 INTER-LIGAND FREE ENERGY PREDICTED BY IDOCK:   -2.81 KCAL/MOL
REMARK 924 INTRA-LIGAND FREE ENERGY PREDICTED BY IDOCK:   -0.09 KCAL/MOL
REMARK 927      BINDING AFFINITY PREDICTED BY RF-SCORE:    0.00 PKD
ROOT
ATOM      1  NZ  LYS A   1      -7.805  17.156  66.321  1.00  0.00    -0.336 NA 
ATOM      2  HZ2 LYS A   1      -8.444  17.414  67.074  1.00  0.00     0.000 HD 
ATOM      3  CE  LYS A   1      -6.617  16.485  66.839  1.00  0.00    -0.177 C  
ATOM      4  HZ1 LYS A   1      -7.562  17.964  65.747  1.00  0.00     0.000 HD 
ENDROOT
BRANCH   3   5
ATOM      5  CD  LYS A   1      -6.983  15.273  67.700  1.00  0.00    -0.209 C  
BRANCH   5   6
ATOM      6  CG  LYS A   1      -8.173  15.556  68.623  1.00  0.00    -0.162 C  
BRANCH   6   7
ATOM      7  CB  LYS A   1      -9.176  14.401  68.638  1.00  0.00    -0.181 C  
BRANCH   7   8
ATOM      8  CA  LYS A   1     -10.609  14.860  68.948  1.00  0.00    -0.247 C  
ATOM      9  N   LYS A   1     -10.828  15.047  70.413  1.00  0.00    -0.472 NA 
ATOM     10  C   LYS A   1     -11.590  13.782  68.462  1.00  0.00    -0.338 C  
ATOM     11  OXT LYS A   1     -11.948  13.619  67.306  1.00  0.00    -0.376 OA 
ATOM     12  O   LYS A   1     -11.999  12.995  69.494  1.00  0.00    -0.309 OA 
ATOM     13  H1  LYS A   1     -11.779  15.351  70.619  1.00  0.00     0.000 HD 
ATOM     14  H2  LYS A   1     -10.139  15.685  70.813  1.00  0.00     0.000 HD 
ENDBRANCH   7   8
ENDBRANCH   6   7
ENDBRANCH   5   6
ENDBRANCH   3   5
TORSDOF 4
ENDMDL
MODEL      211
REMARK 921   NORMALIZED FREE ENERGY PREDICTED BY IDOCK:   -1.91 KCAL/MOL
REMARK 922        TOTAL FREE ENERGY PREDICTED BY IDOCK:   -2.85 KCAL/MOL
REMARK 923 INTER-LIGAND FREE ENERGY PREDICTED BY IDOCK:   -2.83 KCAL/MOL
REMARK 924 INTRA-LIGAND FREE ENERGY PREDICTED BY IDOCK:   -0.02 KCAL/MOL
REMARK 927      BINDING AFFINITY PREDICTED BY RF-SCORE:    0.00 PKD
ROOT
ATOM      1  NZ  LYS A   1      -7.113  11.784  69.790  1.00  0.00    -0.335 NA 
ATOM      2  HZ2 LYS A   1      -6.842  11.018  69.174  1.00  0.00     0.000 HD 
ATOM      3  CE  LYS A   1      -7.030  13.071  69.107  1.00  0.00    -0.020 C  
ATOM      4  HZ1 LYS A   1      -6.568  11.779  70.652  1.00  0.00     0.000 HD 
ENDROOT
BRANCH   3   5
ATOM      5  CD  LYS A   1      -7.848  13.079  67.813  1.00  0.00    -0.157 C  
BRANCH   5   6
ATOM      6  CG  LYS A   1      -9.330  12.782  68.063  1.00  0.00    -0.213 C  
BRANCH   6   7
ATOM      7  CB  LYS A   1     -10.063  13.979  68.672  1.00  0.00    -0.217 C  
BRANCH   7   8
ATOM      8  CA  LYS A   1     -11.586  13.789  68.713  1.00  0.00    -0.328 C  
ATOM      9  N   LYS A   1     -12.300  15.075  68.967  1.00  0.00    -0.590 NA 
ATOM     10  C   LYS A   1     -11.935  12.825  69.858  1.00  0.00    -0.298 C  
ATOM     11  OXT LYS A   1     -11.836  11.609  69.815  1.00  0.00    -0.308 OA 
ATOM     12  O   LYS A   1     -12.348  13.509  70.960  1.00  0.00    -0.362 OA 
ATOM     13  H1  LYS A   1     -13.312  14.949  68.995  1.00  0.00     0.000 HD 
ATOM     14  H2  LYS A   1     -12.033  15.788  68.288  1.00  0.00     0.000 HD 
ENDBRANCH   7   8
ENDBRANCH   6   7
ENDBRANCH   5   6
ENDBRANCH   3   5
TORSDOF 4
ENDMDL
MODEL      212
REMARK 921   NORMALIZED FREE ENERGY PREDICTED BY IDOCK:   -1.88 KCAL/MOL
REMARK 922        TOTAL FREE ENERGY PREDICTED BY IDOCK:   -2.82 KCAL/MOL
REMARK 923 INTER-LIGAND FREE ENERGY PREDICTED BY IDOCK:   -2.46 KCAL/MOL
REMARK 924 INTRA-LIGAND FREE ENERGY PREDICTED BY IDOCK:   -0.36 KCAL/MOL
REMARK 927      BINDING AFFINITY PREDICTED BY RF-SCORE:    0.00 PKD
ROOT
ATOM      1  NZ  LYS A   1      -7.992   6.622  66.550  1.00  0.00    -0.104 NA 
ATOM      2  HZ2 LYS A   1      -7.953   6.279  67.510  1.00  0.00     0.000 HD 
ATOM      3  CE  LYS A   1      -8.600   5.641  65.658  1.00  0.00    -0.150 C  
ATOM      4  HZ1 LYS A   1      -7.070   6.911  66.221  1.00  0.00     0.000 HD 
ENDROOT
BRANCH   3   5
ATOM      5  CD  LYS A   1      -9.983   5.208  66.152  1.00  0.00    -0.216 C  
BRANCH   5   6
ATOM      6  CG  LYS A   1     -10.086   5.233  67.681  1.00  0.00    -0.216 C  
BRANCH   6   7
ATOM      7  CB  LYS A   1     -11.127   6.241  68.171  1.00  0.00    -0.364 C  
BRANCH   7   8
ATOM      8  CA  LYS A   1     -10.801   6.807  69.562  1.00  0.00    -0.273 C  
ATOM      9  N   LYS A   1     -12.036   7.076  70.356  1.00  0.00    -0.573 NA 
ATOM     10  C   LYS A   1     -10.054   8.139  69.392  1.00  0.00    -0.194 C  
ATOM     11  OXT LYS A   1      -8.868   8.257  69.122  1.00  0.00    -0.141 OA 
ATOM     12  O   LYS A   1     -10.898   9.194  69.552  1.00  0.00    -0.231 OA 
ATOM     13  H1  LYS A   1     -11.820   7.452  71.278  1.00  0.00     0.000 HD 
ATOM     14  H2  LYS A   1     -12.623   6.244  70.421  1.00  0.00     0.000 HD 
ENDBRANCH   7   8
ENDBRANCH   6   7
ENDBRANCH   5   6
ENDBRANCH   3   5
TORSDOF 4
ENDMDL
MODEL      213
REMARK 921   NORMALIZED FREE ENERGY PREDICTED BY IDOCK:   -1.85 KCAL/MOL
REMARK 922        TOTAL FREE ENERGY PREDICTED BY IDOCK:   -2.78 KCAL/MOL
REMARK 923 INTER-LIGAND FREE ENERGY PREDICTED BY IDOCK:   -2.65 KCAL/MOL
REMARK 924 INTRA-LIGAND FREE ENERGY PREDICTED BY IDOCK:   -0.13 KCAL/MOL
REMARK 927      BINDING AFFINITY PREDICTED BY RF-SCORE:    0.00 PKD
ROOT
ATOM      1  NZ  LYS A   1      -7.252  10.045  66.999  1.00  0.00    -0.089 NA 
ATOM      2  HZ2 LYS A   1      -6.717  10.727  66.461  1.00  0.00     0.000 HD 
ATOM      3  CE  LYS A   1      -7.720  10.611  68.260  1.00  0.00    -0.107 C  
ATOM      4  HZ1 LYS A   1      -6.721   9.186  67.145  1.00  0.00     0.000 HD 
ENDROOT
BRANCH   3   5
ATOM      5  CD  LYS A   1      -8.517  11.899  68.041  1.00  0.00    -0.162 C  
BRANCH   5   6
ATOM      6  CG  LYS A   1      -9.642  11.717  67.016  1.00  0.00    -0.196 C  
BRANCH   6   7
ATOM      7  CB  LYS A   1      -9.537  12.716  65.863  1.00  0.00    -0.158 C  
BRANCH   7   8
ATOM      8  CA  LYS A   1     -10.886  12.980  65.177  1.00  0.00    -0.300 C  
ATOM      9  N   LYS A   1     -10.743  13.100  63.696  1.00  0.00    -0.489 NA 
ATOM     10  C   LYS A   1     -11.457  14.307  65.702  1.00  0.00    -0.329 C  
ATOM     11  OXT LYS A   1     -12.029  14.458  66.770  1.00  0.00    -0.411 OA 
ATOM     12  O   LYS A   1     -11.217  15.320  64.825  1.00  0.00    -0.405 OA 
ATOM     13  H1  LYS A   1     -11.638  13.276  63.241  1.00  0.00     0.000 HD 
ATOM     14  H2  LYS A   1     -10.279  12.282  63.301  1.00  0.00     0.000 HD 
ENDBRANCH   7   8
ENDBRANCH   6   7
ENDBRANCH   5   6
ENDBRANCH   3   5
TORSDOF 4
ENDMDL
MODEL      214
REMARK 921   NORMALIZED FREE ENERGY PREDICTED BY IDOCK:   -1.84 KCAL/MOL
REMARK 922        TOTAL FREE ENERGY PREDICTED BY IDOCK:   -2.77 KCAL/MOL
REMARK 923 INTER-LIGAND FREE ENERGY PREDICTED BY IDOCK:   -2.81 KCAL/MOL
REMARK 924 INTRA-LIGAND FREE ENERGY PREDICTED BY IDOCK:    0.04 KCAL/MOL
REMARK 927      BINDING AFFINITY PREDICTED BY RF-SCORE:    0.00 PKD
ROOT
ATOM      1  NZ  LYS A   1      -9.048  16.471  67.992  1.00  0.00    -0.206 NA 
ATOM      2  HZ2 LYS A   1      -8.551  16.581  68.876  1.00  0.00     0.000 HD 
ATOM      3  CE  LYS A   1      -8.238  15.754  67.012  1.00  0.00    -0.228 C  
ATOM      4  HZ1 LYS A   1      -9.369  17.369  67.631  1.00  0.00     0.000 HD 
ENDROOT
BRANCH   3   5
ATOM      5  CD  LYS A   1      -7.757  14.406  67.555  1.00  0.00    -0.210 C  
BRANCH   5   6
ATOM      6  CG  LYS A   1      -8.574  13.233  67.002  1.00  0.00    -0.169 C  
BRANCH   6   7
ATOM      7  CB  LYS A   1     -10.080  13.481  67.108  1.00  0.00    -0.245 C  
BRANCH   7   8
ATOM      8  CA  LYS A   1     -10.912  12.432  66.355  1.00  0.00    -0.276 C  
ATOM      9  N   LYS A   1     -10.049  11.423  65.674  1.00  0.00    -0.237 NA 
ATOM     10  C   LYS A   1     -11.744  13.142  65.275  1.00  0.00    -0.344 C  
ATOM     11  OXT LYS A   1     -12.784  13.752  65.470  1.00  0.00    -0.515 OA 
ATOM     12  O   LYS A   1     -11.154  13.030  64.055  1.00  0.00    -0.379 OA 
ATOM     13  H1  LYS A   1     -10.601  10.726  65.174  1.00  0.00     0.000 HD 
ATOM     14  H2  LYS A   1      -9.403  10.983  66.331  1.00  0.00     0.000 HD 
ENDBRANCH   7   8
ENDBRANCH   6   7
ENDBRANCH   5   6
ENDBRANCH   3   5
TORSDOF 4
ENDMDL
MODEL      215
REMARK 921   NORMALIZED FREE ENERGY PREDICTED BY IDOCK:   -1.83 KCAL/MOL
REMARK 922        TOTAL FREE ENERGY PREDICTED BY IDOCK:   -2.75 KCAL/MOL
REMARK 923 INTER-LIGAND FREE ENERGY PREDICTED BY IDOCK:   -2.39 KCAL/MOL
REMARK 924 INTRA-LIGAND FREE ENERGY PREDICTED BY IDOCK:   -0.37 KCAL/MOL
REMARK 927      BINDING AFFINITY PREDICTED BY RF-SCORE:    0.00 PKD
ROOT
ATOM      1  NZ  LYS A   1      -8.349   5.362  69.397  1.00  0.00    -0.096 NA 
ATOM      2  HZ2 LYS A   1      -8.843   5.749  68.593  1.00  0.00     0.000 HD 
ATOM      3  CE  LYS A   1      -8.871   5.896  70.650  1.00  0.00    -0.141 C  
ATOM      4  HZ1 LYS A   1      -7.341   5.502  69.318  1.00  0.00     0.000 HD 
ENDROOT
BRANCH   3   5
ATOM      5  CD  LYS A   1     -10.383   5.684  70.769  1.00  0.00    -0.310 C  
BRANCH   5   6
ATOM      6  CG  LYS A   1     -11.162   6.453  69.695  1.00  0.00    -0.483 C  
BRANCH   6   7
ATOM      7  CB  LYS A   1     -10.714   7.912  69.594  1.00  0.00    -0.218 C  
BRANCH   7   8
ATOM      8  CA  LYS A   1     -10.451   8.356  68.147  1.00  0.00    -0.174 C  
ATOM      9  N   LYS A   1      -9.072   8.000  67.698  1.00  0.00    -0.137 NA 
ATOM     10  C   LYS A   1     -10.591   9.884  68.065  1.00  0.00    -0.242 C  
ATOM     11  OXT LYS A   1     -11.646  10.496  68.007  1.00  0.00    -0.442 OA 
ATOM     12  O   LYS A   1      -9.371  10.486  68.094  1.00  0.00    -0.142 OA 
ATOM     13  H1  LYS A   1      -8.898   8.295  66.738  1.00  0.00     0.000 HD 
ATOM     14  H2  LYS A   1      -8.888   7.004  67.820  1.00  0.00     0.000 HD 
ENDBRANCH   7   8
ENDBRANCH   6   7
ENDBRANCH   5   6
ENDBRANCH   3   5
TORSDOF 4
ENDMDL
MODEL      216
REMARK 921   NORMALIZED FREE ENERGY PREDICTED BY IDOCK:   -1.82 KCAL/MOL
REMARK 922        TOTAL FREE ENERGY PREDICTED BY IDOCK:   -2.74 KCAL/MOL
REMARK 923 INTER-LIGAND FREE ENERGY PREDICTED BY IDOCK:   -2.67 KCAL/MOL
REMARK 924 INTRA-LIGAND FREE ENERGY PREDICTED BY IDOCK:   -0.07 KCAL/MOL
REMARK 927      BINDING AFFINITY PREDICTED BY RF-SCORE:    0.00 PKD
ROOT
ATOM      1  NZ  LYS A   1      -6.779  18.657  65.138  1.00  0.00    -0.522 NA 
ATOM      2  HZ2 LYS A   1      -6.654  19.623  65.439  1.00  0.00     0.000 HD 
ATOM      3  CE  LYS A   1      -6.261  17.720  66.130  1.00  0.00    -0.241 C  
ATOM      4  HZ1 LYS A   1      -6.367  18.497  64.218  1.00  0.00     0.000 HD 
ENDROOT
BRANCH   3   5
ATOM      5  CD  LYS A   1      -6.879  17.959  67.510  1.00  0.00    -0.192 C  
BRANCH   5   6
ATOM      6  CG  LYS A   1      -8.389  17.700  67.522  1.00  0.00    -0.221 C  
BRANCH   6   7
ATOM      7  CB  LYS A   1      -8.789  16.674  68.583  1.00  0.00    -0.249 C  
BRANCH   7   8
ATOM      8  CA  LYS A   1     -10.304  16.634  68.834  1.00  0.00    -0.300 C  
ATOM      9  N   LYS A   1     -10.759  17.783  69.672  1.00  0.00    -0.103 NA 
ATOM     10  C   LYS A   1     -10.647  15.340  69.588  1.00  0.00    -0.276 C  
ATOM     11  OXT LYS A   1     -10.754  14.233  69.082  1.00  0.00    -0.247 OA 
ATOM     12  O   LYS A   1     -10.792  15.577  70.920  1.00  0.00    -0.325 OA 
ATOM     13  H1  LYS A   1     -11.764  17.756  69.839  1.00  0.00     0.000 HD 
ATOM     14  H2  LYS A   1     -10.473  18.674  69.266  1.00  0.00     0.000 HD 
ENDBRANCH   7   8
ENDBRANCH   6   7
ENDBRANCH   5   6
ENDBRANCH   3   5
TORSDOF 4
ENDMDL
MODEL      217
REMARK 921   NORMALIZED FREE ENERGY PREDICTED BY IDOCK:   -1.82 KCAL/MOL
REMARK 922        TOTAL FREE ENERGY PREDICTED BY IDOCK:   -2.74 KCAL/MOL
REMARK 923 INTER-LIGAND FREE ENERGY PREDICTED BY IDOCK:   -2.65 KCAL/MOL
REMARK 924 INTRA-LIGAND FREE ENERGY PREDICTED BY IDOCK:   -0.10 KCAL/MOL
REMARK 927      BINDING AFFINITY PREDICTED BY RF-SCORE:    0.00 PKD
ROOT
ATOM      1  NZ  LYS A   1     -11.043   6.063  66.208  1.00  0.00    -0.672 NA 
ATOM      2  HZ2 LYS A   1     -10.434   5.741  65.455  1.00  0.00     0.000 HD 
ATOM      3  CE  LYS A   1     -10.559   5.619  67.511  1.00  0.00    -0.221 C  
ATOM      4  HZ1 LYS A   1     -12.011   5.781  66.049  1.00  0.00     0.000 HD 
ENDROOT
BRANCH   3   5
ATOM      5  CD  LYS A   1      -9.108   6.042  67.750  1.00  0.00    -0.109 C  
BRANCH   5   6
ATOM      6  CG  LYS A   1      -9.001   7.479  68.272  1.00  0.00    -0.130 C  
BRANCH   6   7
ATOM      7  CB  LYS A   1      -9.033   7.539  69.800  1.00  0.00    -0.141 C  
BRANCH   7   8
ATOM      8  CA  LYS A   1      -9.023   8.976  70.342  1.00  0.00    -0.205 C  
ATOM      9  N   LYS A   1      -8.186   9.101  71.571  1.00  0.00    -0.331 NA 
ATOM     10  C   LYS A   1     -10.460   9.377  70.711  1.00  0.00    -0.304 C  
ATOM     11  OXT LYS A   1     -11.320   9.734  69.921  1.00  0.00    -0.240 OA 
ATOM     12  O   LYS A   1     -10.671   9.253  72.049  1.00  0.00    -0.295 OA 
ATOM     13  H1  LYS A   1      -8.180  10.056  71.931  1.00  0.00     0.000 HD 
ATOM     14  H2  LYS A   1      -7.238   8.758  71.411  1.00  0.00     0.000 HD 
ENDBRANCH   7   8
ENDBRANCH   6   7
ENDBRANCH   5   6
ENDBRANCH   3   5
TORSDOF 4
ENDMDL
MODEL      218
REMARK 921   NORMALIZED FREE ENERGY PREDICTED BY IDOCK:   -1.81 KCAL/MOL
REMARK 922        TOTAL FREE ENERGY PREDICTED BY IDOCK:   -2.73 KCAL/MOL
REMARK 923 INTER-LIGAND FREE ENERGY PREDICTED BY IDOCK:   -2.67 KCAL/MOL
REMARK 924 INTRA-LIGAND FREE ENERGY PREDICTED BY IDOCK:   -0.07 KCAL/MOL
REMARK 927      BINDING AFFINITY PREDICTED BY RF-SCORE:    0.00 PKD
ROOT
ATOM      1  NZ  LYS A   1      -8.627   7.210  68.731  1.00  0.00    -0.125 NA 
ATOM      2  HZ2 LYS A   1      -9.528   6.979  69.151  1.00  0.00     0.000 HD 
ATOM      3  CE  LYS A   1      -8.739   7.365  67.284  1.00  0.00    -0.121 C  
ATOM      4  HZ1 LYS A   1      -7.913   6.526  68.982  1.00  0.00     0.000 HD 
ENDROOT
BRANCH   3   5
ATOM      5  CD  LYS A   1      -9.811   8.391  66.907  1.00  0.00    -0.313 C  
BRANCH   5   6
ATOM      6  CG  LYS A   1      -9.567   9.753  67.567  1.00  0.00    -0.178 C  
BRANCH   6   7
ATOM      7  CB  LYS A   1     -10.647  10.772  67.199  1.00  0.00    -0.306 C  
BRANCH   7   8
ATOM      8  CA  LYS A   1     -10.187  12.225  67.390  1.00  0.00    -0.203 C  
ATOM      9  N   LYS A   1      -9.792  12.502  68.803  1.00  0.00    -0.421 NA 
ATOM     10  C   LYS A   1     -11.350  13.164  67.037  1.00  0.00    -0.312 C  
ATOM     11  OXT LYS A   1     -11.691  13.474  65.906  1.00  0.00    -0.326 OA 
ATOM     12  O   LYS A   1     -11.987  13.593  68.160  1.00  0.00    -0.362 OA 
ATOM     13  H1  LYS A   1      -9.486  13.466  68.930  1.00  0.00     0.000 HD 
ATOM     14  H2  LYS A   1      -9.083  11.842  69.126  1.00  0.00     0.000 HD 
ENDBRANCH   7   8
ENDBRANCH   6   7
ENDBRANCH   5   6
ENDBRANCH   3   5
TORSDOF 4
ENDMDL
MODEL      219
REMARK 921   NORMALIZED FREE ENERGY PREDICTED BY IDOCK:   -1.81 KCAL/MOL
REMARK 922        TOTAL FREE ENERGY PREDICTED BY IDOCK:   -2.73 KCAL/MOL
REMARK 923 INTER-LIGAND FREE ENERGY PREDICTED BY IDOCK:   -2.62 KCAL/MOL
REMARK 924 INTRA-LIGAND FREE ENERGY PREDICTED BY IDOCK:   -0.12 KCAL/MOL
REMARK 927      BINDING AFFINITY PREDICTED BY RF-SCORE:    0.00 PKD
ROOT
ATOM      1  NZ  LYS A   1      -8.973  11.591  68.771  1.00  0.00    -0.353 NA 
ATOM      2  HZ2 LYS A   1      -9.856  11.882  69.191  1.00  0.00     0.000 HD 
ATOM      3  CE  LYS A   1      -8.563  12.501  67.707  1.00  0.00    -0.178 C  
ATOM      4  HZ1 LYS A   1      -9.017  10.625  68.446  1.00  0.00     0.000 HD 
ENDROOT
BRANCH   3   5
ATOM      5  CD  LYS A   1      -8.497  13.950  68.196  1.00  0.00    -0.171 C  
BRANCH   5   6
ATOM      6  CG  LYS A   1      -9.737  14.346  69.005  1.00  0.00    -0.082 C  
BRANCH   6   7
ATOM      7  CB  LYS A   1      -9.709  15.818  69.419  1.00  0.00    -0.286 C  
BRANCH   7   8
ATOM      8  CA  LYS A   1     -10.808  16.650  68.741  1.00  0.00    -0.331 C  
ATOM      9  N   LYS A   1     -11.474  15.896  67.637  1.00  0.00    -0.154 NA 
ATOM     10  C   LYS A   1     -10.172  17.908  68.131  1.00  0.00    -0.382 C  
ATOM     11  OXT LYS A   1      -9.862  18.915  68.748  1.00  0.00    -0.379 OA 
ATOM     12  O   LYS A   1      -9.964  17.749  66.796  1.00  0.00    -0.302 OA 
ATOM     13  H1  LYS A   1     -12.204  16.448  67.187  1.00  0.00     0.000 HD 
ATOM     14  H2  LYS A   1     -11.836  15.000  67.966  1.00  0.00     0.000 HD 
ENDBRANCH   7   8
ENDBRANCH   6   7
ENDBRANCH   5   6
ENDBRANCH   3   5
TORSDOF 4
ENDMDL
MODEL      220
REMARK 921   NORMALIZED FREE ENERGY PREDICTED BY IDOCK:   -1.81 KCAL/MOL
REMARK 922        TOTAL FREE ENERGY PREDICTED BY IDOCK:   -2.73 KCAL/MOL
REMARK 923 INTER-LIGAND FREE ENERGY PREDICTED BY IDOCK:   -2.56 KCAL/MOL
REMARK 924 INTRA-LIGAND FREE ENERGY PREDICTED BY IDOCK:   -0.17 KCAL/MOL
REMARK 927      BINDING AFFINITY PREDICTED BY RF-SCORE:    0.00 PKD
ROOT
ATOM      1  NZ  LYS A   1      -8.234   7.091  70.390  1.00  0.00    -0.122 NA 
ATOM      2  HZ2 LYS A   1      -7.995   7.704  69.610  1.00  0.00     0.000 HD 
ATOM      3  CE  LYS A   1      -8.435   7.851  71.620  1.00  0.00    -0.116 C  
ATOM      4  HZ1 LYS A   1      -7.540   6.354  70.511  1.00  0.00     0.000 HD 
ENDROOT
BRANCH   3   5
ATOM      5  CD  LYS A   1      -9.477   8.957  71.439  1.00  0.00    -0.344 C  
BRANCH   5   6
ATOM      6  CG  LYS A   1      -9.401   9.603  70.051  1.00  0.00    -0.276 C  
BRANCH   6   7
ATOM      7  CB  LYS A   1     -10.788   9.867  69.463  1.00  0.00    -0.274 C  
BRANCH   7   8
ATOM      8  CA  LYS A   1     -10.835   9.679  67.939  1.00  0.00    -0.215 C  
ATOM      9  N   LYS A   1      -9.562   9.106  67.410  1.00  0.00    -0.146 NA 
ATOM     10  C   LYS A   1     -11.042  11.051  67.277  1.00  0.00    -0.294 C  
ATOM     11  OXT LYS A   1     -12.108  11.639  67.186  1.00  0.00    -0.575 OA 
ATOM     12  O   LYS A   1      -9.863  11.553  66.821  1.00  0.00    -0.198 OA 
ATOM     13  H1  LYS A   1      -9.594   8.982  66.398  1.00  0.00     0.000 HD 
ATOM     14  H2  LYS A   1      -9.323   8.235  67.884  1.00  0.00     0.000 HD 
ENDBRANCH   7   8
ENDBRANCH   6   7
ENDBRANCH   5   6
ENDBRANCH   3   5
TORSDOF 4
ENDMDL
MODEL      221
REMARK 921   NORMALIZED FREE ENERGY PREDICTED BY IDOCK:   -1.80 KCAL/MOL
REMARK 922        TOTAL FREE ENERGY PREDICTED BY IDOCK:   -2.73 KCAL/MOL
REMARK 923 INTER-LIGAND FREE ENERGY PREDICTED BY IDOCK:   -2.51 KCAL/MOL
REMARK 924 INTRA-LIGAND FREE ENERGY PREDICTED BY IDOCK:   -0.22 KCAL/MOL
REMARK 927      BINDING AFFINITY PREDICTED BY RF-SCORE:    0.00 PKD
ROOT
ATOM      1  NZ  LYS A   1     -10.100   8.840  71.941  1.00  0.00    -0.323 NA 
ATOM      2  HZ2 LYS A   1     -10.848   9.475  72.218  1.00  0.00     0.000 HD 
ATOM      3  CE  LYS A   1     -10.569   7.460  71.875  1.00  0.00    -0.203 C  
ATOM      4  HZ1 LYS A   1      -9.287   8.933  72.551  1.00  0.00     0.000 HD 
ENDROOT
BRANCH   3   5
ATOM      5  CD  LYS A   1     -11.787   7.320  70.959  1.00  0.00    -0.352 C  
BRANCH   5   6
ATOM      6  CG  LYS A   1     -11.515   6.392  69.770  1.00  0.00    -0.468 C  
BRANCH   6   7
ATOM      7  CB  LYS A   1     -10.350   5.439  70.039  1.00  0.00    -0.366 C  
BRANCH   7   8
ATOM      8  CA  LYS A   1      -9.278   5.480  68.939  1.00  0.00    -0.119 C  
ATOM      9  N   LYS A   1      -9.277   6.784  68.213  1.00  0.00    -0.124 NA 
ATOM     10  C   LYS A   1      -9.575   4.374  67.916  1.00  0.00    -0.152 C  
ATOM     11  OXT LYS A   1      -9.311   3.190  68.056  1.00  0.00    -0.183 OA 
ATOM     12  O   LYS A   1     -10.208   4.880  66.823  1.00  0.00    -0.220 OA 
ATOM     13  H1  LYS A   1      -8.566   6.812  67.482  1.00  0.00     0.000 HD 
ATOM     14  H2  LYS A   1      -9.178   7.569  68.858  1.00  0.00     0.000 HD 
ENDBRANCH   7   8
ENDBRANCH   6   7
ENDBRANCH   5   6
ENDBRANCH   3   5
TORSDOF 4
ENDMDL
MODEL      222
REMARK 921   NORMALIZED FREE ENERGY PREDICTED BY IDOCK:   -1.80 KCAL/MOL
REMARK 922        TOTAL FREE ENERGY PREDICTED BY IDOCK:   -2.72 KCAL/MOL
REMARK 923 INTER-LIGAND FREE ENERGY PREDICTED BY IDOCK:   -2.57 KCAL/MOL
REMARK 924 INTRA-LIGAND FREE ENERGY PREDICTED BY IDOCK:   -0.15 KCAL/MOL
REMARK 927      BINDING AFFINITY PREDICTED BY RF-SCORE:    0.00 PKD
ROOT
ATOM      1  NZ  LYS A   1      -9.570   6.471  66.319  1.00  0.00    -0.344 NA 
ATOM      2  HZ2 LYS A   1      -8.861   6.880  66.927  1.00  0.00     0.000 HD 
ATOM      3  CE  LYS A   1     -10.499   5.633  67.072  1.00  0.00    -0.281 C  
ATOM      4  HZ1 LYS A   1      -9.147   5.961  65.543  1.00  0.00     0.000 HD 
ENDROOT
BRANCH   3   5
ATOM      5  CD  LYS A   1     -11.134   6.398  68.236  1.00  0.00    -0.359 C  
BRANCH   5   6
ATOM      6  CG  LYS A   1     -10.816   5.759  69.592  1.00  0.00    -0.418 C  
BRANCH   6   7
ATOM      7  CB  LYS A   1     -10.714   6.799  70.708  1.00  0.00    -0.270 C  
BRANCH   7   8
ATOM      8  CA  LYS A   1      -9.294   6.924  71.280  1.00  0.00    -0.164 C  
ATOM      9  N   LYS A   1      -9.298   6.974  72.772  1.00  0.00    -0.134 NA 
ATOM     10  C   LYS A   1      -8.666   8.229  70.769  1.00  0.00    -0.140 C  
ATOM     11  OXT LYS A   1      -8.179   8.395  69.661  1.00  0.00    -0.113 OA 
ATOM     12  O   LYS A   1      -8.747   9.209  71.710  1.00  0.00    -0.342 OA 
ATOM     13  H1  LYS A   1      -8.356   7.057  73.152  1.00  0.00     0.000 HD 
ATOM     14  H2  LYS A   1      -9.790   6.173  73.169  1.00  0.00     0.000 HD 
ENDBRANCH   7   8
ENDBRANCH   6   7
ENDBRANCH   5   6
ENDBRANCH   3   5
TORSDOF 4
ENDMDL
MODEL      223
REMARK 921   NORMALIZED FREE ENERGY PREDICTED BY IDOCK:   -1.79 KCAL/MOL
REMARK 922        TOTAL FREE ENERGY PREDICTED BY IDOCK:   -2.71 KCAL/MOL
REMARK 923 INTER-LIGAND FREE ENERGY PREDICTED BY IDOCK:   -3.07 KCAL/MOL
REMARK 924 INTRA-LIGAND FREE ENERGY PREDICTED BY IDOCK:    0.36 KCAL/MOL
REMARK 927      BINDING AFFINITY PREDICTED BY RF-SCORE:    0.00 PKD
ROOT
ATOM      1  NZ  LYS A   1      -6.754  18.654  65.150  1.00  0.00    -0.522 NA 
ATOM      2  HZ2 LYS A   1      -6.650  19.633  65.417  1.00  0.00     0.000 HD 
ATOM      3  CE  LYS A   1      -6.085  17.769  66.099  1.00  0.00    -0.226 C  
ATOM      4  HZ1 LYS A   1      -6.436  18.493  64.195  1.00  0.00     0.000 HD 
ENDROOT
BRANCH   3   5
ATOM      5  CD  LYS A   1      -6.564  18.011  67.532  1.00  0.00    -0.190 C  
BRANCH   5   6
ATOM      6  CG  LYS A   1      -8.032  17.617  67.727  1.00  0.00    -0.218 C  
BRANCH   6   7
ATOM      7  CB  LYS A   1      -8.213  16.618  68.871  1.00  0.00    -0.231 C  
BRANCH   7   8
ATOM      8  CA  LYS A   1      -9.681  16.449  69.290  1.00  0.00    -0.221 C  
ATOM      9  N   LYS A   1      -9.964  15.066  69.778  1.00  0.00    -0.450 NA 
ATOM     10  C   LYS A   1     -10.577  16.707  68.069  1.00  0.00    -0.338 C  
ATOM     11  OXT LYS A   1     -10.882  17.807  67.634  1.00  0.00    -0.363 OA 
ATOM     12  O   LYS A   1     -10.975  15.537  67.502  1.00  0.00    -0.311 OA 
ATOM     13  H1  LYS A   1     -10.939  14.954  70.056  1.00  0.00     0.000 HD 
ATOM     14  H2  LYS A   1      -9.329  14.802  70.532  1.00  0.00     0.000 HD 
ENDBRANCH   7   8
ENDBRANCH   6   7
ENDBRANCH   5   6
ENDBRANCH   3   5
TORSDOF 4
ENDMDL
MODEL      224
REMARK 921   NORMALIZED FREE ENERGY PREDICTED BY IDOCK:   -1.78 KCAL/MOL
REMARK 922        TOTAL FREE ENERGY PREDICTED BY IDOCK:   -2.70 KCAL/MOL
REMARK 923 INTER-LIGAND FREE ENERGY PREDICTED BY IDOCK:   -2.58 KCAL/MOL
REMARK 924 INTRA-LIGAND FREE ENERGY PREDICTED BY IDOCK:   -0.12 KCAL/MOL
REMARK 927      BINDING AFFINITY PREDICTED BY RF-SCORE:    0.00 PKD
ROOT
ATOM      1  NZ  LYS A   1      -9.684   8.086  65.365  1.00  0.00     0.121 NA 
ATOM      2  HZ2 LYS A   1     -10.642   7.954  65.041  1.00  0.00     0.000 HD 
ATOM      3  CE  LYS A   1      -9.628   8.232  66.816  1.00  0.00    -0.224 C  
ATOM      4  HZ1 LYS A   1      -9.235   8.869  64.890  1.00  0.00     0.000 HD 
ENDROOT
BRANCH   3   5
ATOM      5  CD  LYS A   1     -10.302   7.056  67.529  1.00  0.00    -0.288 C  
BRANCH   5   6
ATOM      6  CG  LYS A   1     -10.123   7.122  69.050  1.00  0.00    -0.183 C  
BRANCH   6   7
ATOM      7  CB  LYS A   1     -11.088   6.188  69.783  1.00  0.00    -0.486 C  
BRANCH   7   8
ATOM      8  CA  LYS A   1     -12.138   6.945  70.611  1.00  0.00    -0.311 C  
ATOM      9  N   LYS A   1     -12.101   8.414  70.346  1.00  0.00    -0.441 NA 
ATOM     10  C   LYS A   1     -11.840   6.731  72.103  1.00  0.00    -0.290 C  
ATOM     11  OXT LYS A   1     -12.127   5.733  72.746  1.00  0.00    -0.155 OA 
ATOM     12  O   LYS A   1     -11.178   7.799  72.625  1.00  0.00    -0.325 OA 
ATOM     13  H1  LYS A   1     -12.798   8.916  70.895  1.00  0.00     0.000 HD 
ATOM     14  H2  LYS A   1     -12.199   8.613  69.350  1.00  0.00     0.000 HD 
ENDBRANCH   7   8
ENDBRANCH   6   7
ENDBRANCH   5   6
ENDBRANCH   3   5
TORSDOF 4
ENDMDL
MODEL      225
REMARK 921   NORMALIZED FREE ENERGY PREDICTED BY IDOCK:   -1.77 KCAL/MOL
REMARK 922        TOTAL FREE ENERGY PREDICTED BY IDOCK:   -2.69 KCAL/MOL
REMARK 923 INTER-LIGAND FREE ENERGY PREDICTED BY IDOCK:   -2.61 KCAL/MOL
REMARK 924 INTRA-LIGAND FREE ENERGY PREDICTED BY IDOCK:   -0.07 KCAL/MOL
REMARK 927      BINDING AFFINITY PREDICTED BY RF-SCORE:    0.00 PKD
ROOT
ATOM      1  NZ  LYS A   1      -9.496  15.994  65.587  1.00  0.00    -0.414 NA 
ATOM      2  HZ2 LYS A   1      -9.188  16.373  66.482  1.00  0.00     0.000 HD 
ATOM      3  CE  LYS A   1     -10.187  14.719  65.758  1.00  0.00    -0.338 C  
ATOM      4  HZ1 LYS A   1      -8.720  15.916  64.929  1.00  0.00     0.000 HD 
ENDROOT
BRANCH   3   5
ATOM      5  CD  LYS A   1     -11.351  14.836  66.745  1.00  0.00    -0.347 C  
BRANCH   5   6
ATOM      6  CG  LYS A   1     -11.345  13.708  67.783  1.00  0.00    -0.336 C  
BRANCH   6   7
ATOM      7  CB  LYS A   1     -12.284  14.001  68.955  1.00  0.00    -0.261 C  
BRANCH   7   8
ATOM      8  CA  LYS A   1     -11.731  13.509  70.301  1.00  0.00    -0.173 C  
ATOM      9  N   LYS A   1     -10.882  12.292  70.141  1.00  0.00     0.232 NA 
ATOM     10  C   LYS A   1     -12.908  13.142  71.217  1.00  0.00    -0.296 C  
ATOM     11  OXT LYS A   1     -13.591  13.936  71.846  1.00  0.00    -0.372 OA 
ATOM     12  O   LYS A   1     -13.122  11.798  71.219  1.00  0.00    -0.307 OA 
ATOM     13  H1  LYS A   1     -10.514  11.965  71.034  1.00  0.00     0.000 HD 
ATOM     14  H2  LYS A   1     -10.133  12.448  69.466  1.00  0.00     0.000 HD 
ENDBRANCH   7   8
ENDBRANCH   6   7
ENDBRANCH   5   6
ENDBRANCH   3   5
TORSDOF 4
ENDMDL
MODEL      226
REMARK 921   NORMALIZED FREE ENERGY PREDICTED BY IDOCK:   -1.76 KCAL/MOL
REMARK 922        TOTAL FREE ENERGY PREDICTED BY IDOCK:   -2.67 KCAL/MOL
REMARK 923 INTER-LIGAND FREE ENERGY PREDICTED BY IDOCK:   -2.93 KCAL/MOL
REMARK 924 INTRA-LIGAND FREE ENERGY PREDICTED BY IDOCK:    0.25 KCAL/MOL
REMARK 927      BINDING AFFINITY PREDICTED BY RF-SCORE:    0.00 PKD
ROOT
ATOM      1  NZ  LYS A   1      -7.238  18.623  65.649  1.00  0.00    -0.501 NA 
ATOM      2  HZ2 LYS A   1      -7.302  19.390  66.320  1.00  0.00     0.000 HD 
ATOM      3  CE  LYS A   1      -6.611  17.447  66.243  1.00  0.00    -0.244 C  
ATOM      4  HZ1 LYS A   1      -6.761  18.915  64.796  1.00  0.00     0.000 HD 
ENDROOT
BRANCH   3   5
ATOM      5  CD  LYS A   1      -7.327  17.010  67.523  1.00  0.00    -0.175 C  
BRANCH   5   6
ATOM      6  CG  LYS A   1      -8.803  16.681  67.278  1.00  0.00    -0.206 C  
BRANCH   6   7
ATOM      7  CB  LYS A   1      -8.979  15.538  66.277  1.00  0.00    -0.362 C  
BRANCH   7   8
ATOM      8  CA  LYS A   1      -9.595  14.280  66.909  1.00  0.00    -0.262 C  
ATOM      9  N   LYS A   1     -10.218  13.391  65.883  1.00  0.00    -0.294 NA 
ATOM     10  C   LYS A   1     -10.698  14.708  67.890  1.00  0.00    -0.250 C  
ATOM     11  OXT LYS A   1     -10.515  15.125  69.023  1.00  0.00    -0.230 OA 
ATOM     12  O   LYS A   1     -11.928  14.591  67.320  1.00  0.00    -0.405 OA 
ATOM     13  H1  LYS A   1     -10.627  12.557  66.303  1.00  0.00     0.000 HD 
ATOM     14  H2  LYS A   1      -9.552  13.150  65.148  1.00  0.00     0.000 HD 
ENDBRANCH   7   8
ENDBRANCH   6   7
ENDBRANCH   5   6
ENDBRANCH   3   5
TORSDOF 4
ENDMDL
MODEL      227
REMARK 921   NORMALIZED FREE ENERGY PREDICTED BY IDOCK:   -1.74 KCAL/MOL
REMARK 922        TOTAL FREE ENERGY PREDICTED BY IDOCK:   -2.65 KCAL/MOL
REMARK 923 INTER-LIGAND FREE ENERGY PREDICTED BY IDOCK:   -2.56 KCAL/MOL
REMARK 924 INTRA-LIGAND FREE ENERGY PREDICTED BY IDOCK:   -0.09 KCAL/MOL
REMARK 927      BINDING AFFINITY PREDICTED BY RF-SCORE:    0.00 PKD
ROOT
ATOM      1  NZ  LYS A   1     -13.582   7.542  72.089  1.00  0.00    -0.526 NA 
ATOM      2  HZ2 LYS A   1     -12.861   7.347  72.785  1.00  0.00     0.000 HD 
ATOM      3  CE  LYS A   1     -13.619   8.959  71.744  1.00  0.00    -0.412 C  
ATOM      4  HZ1 LYS A   1     -14.495   7.204  72.394  1.00  0.00     0.000 HD 
ENDROOT
BRANCH   3   5
ATOM      5  CD  LYS A   1     -12.249   9.466  71.286  1.00  0.00    -0.425 C  
BRANCH   5   6
ATOM      6  CG  LYS A   1     -11.180   8.368  71.330  1.00  0.00    -0.316 C  
BRANCH   6   7
ATOM      7  CB  LYS A   1     -10.812   7.868  69.933  1.00  0.00    -0.221 C  
BRANCH   7   8
ATOM      8  CA  LYS A   1      -9.296   7.712  69.735  1.00  0.00    -0.150 C  
ATOM      9  N   LYS A   1      -8.805   8.492  68.561  1.00  0.00    -0.139 NA 
ATOM     10  C   LYS A   1      -8.980   6.230  69.478  1.00  0.00    -0.134 C  
ATOM     11  OXT LYS A   1      -8.906   5.363  70.335  1.00  0.00    -0.125 OA 
ATOM     12  O   LYS A   1      -8.818   5.992  68.148  1.00  0.00    -0.113 OA 
ATOM     13  H1  LYS A   1      -7.799   8.389  68.430  1.00  0.00     0.000 HD 
ATOM     14  H2  LYS A   1      -9.072   9.475  68.631  1.00  0.00     0.000 HD 
ENDBRANCH   7   8
ENDBRANCH   6   7
ENDBRANCH   5   6
ENDBRANCH   3   5
TORSDOF 4
ENDMDL
MODEL      228
REMARK 921   NORMALIZED FREE ENERGY PREDICTED BY IDOCK:   -1.74 KCAL/MOL
REMARK 922        TOTAL FREE ENERGY PREDICTED BY IDOCK:   -2.65 KCAL/MOL
REMARK 923 INTER-LIGAND FREE ENERGY PREDICTED BY IDOCK:   -2.39 KCAL/MOL
REMARK 924 INTRA-LIGAND FREE ENERGY PREDICTED BY IDOCK:   -0.26 KCAL/MOL
REMARK 927      BINDING AFFINITY PREDICTED BY RF-SCORE:    0.00 PKD
ROOT
ATOM      1  NZ  LYS A   1     -10.296   7.560  73.290  1.00  0.00    -0.339 NA 
ATOM      2  HZ2 LYS A   1     -11.205   7.444  73.739  1.00  0.00     0.000 HD 
ATOM      3  CE  LYS A   1      -9.887   6.345  72.594  1.00  0.00    -0.166 C  
ATOM      4  HZ1 LYS A   1      -9.589   7.869  73.958  1.00  0.00     0.000 HD 
ENDROOT
BRANCH   3   5
ATOM      5  CD  LYS A   1     -10.948   5.883  71.592  1.00  0.00    -0.327 C  
BRANCH   5   6
ATOM      6  CG  LYS A   1     -11.616   7.059  70.871  1.00  0.00    -0.370 C  
BRANCH   6   7
ATOM      7  CB  LYS A   1     -10.942   7.373  69.535  1.00  0.00    -0.155 C  
BRANCH   7   8
ATOM      8  CA  LYS A   1     -10.580   8.858  69.383  1.00  0.00    -0.217 C  
ATOM      9  N   LYS A   1     -10.312   9.222  67.960  1.00  0.00    -0.210 NA 
ATOM     10  C   LYS A   1      -9.302   9.141  70.187  1.00  0.00    -0.209 C  
ATOM     11  OXT LYS A   1      -9.248   9.305  71.396  1.00  0.00    -0.282 OA 
ATOM     12  O   LYS A   1      -8.210   9.159  69.375  1.00  0.00    -0.110 OA 
ATOM     13  H1  LYS A   1     -10.071  10.208  67.859  1.00  0.00     0.000 HD 
ATOM     14  H2  LYS A   1     -11.095   8.967  67.358  1.00  0.00     0.000 HD 
ENDBRANCH   7   8
ENDBRANCH   6   7
ENDBRANCH   5   6
ENDBRANCH   3   5
TORSDOF 4
ENDMDL
MODEL      229
REMARK 921   NORMALIZED FREE ENERGY PREDICTED BY IDOCK:   -1.74 KCAL/MOL
REMARK 922        TOTAL FREE ENERGY PREDICTED BY IDOCK:   -2.64 KCAL/MOL
REMARK 923 INTER-LIGAND FREE ENERGY PREDICTED BY IDOCK:   -2.45 KCAL/MOL
REMARK 924 INTRA-LIGAND FREE ENERGY PREDICTED BY IDOCK:   -0.19 KCAL/MOL
REMARK 927      BINDING AFFINITY PREDICTED BY RF-SCORE:    0.00 PKD
ROOT
ATOM      1  NZ  LYS A   1      -6.919   8.506  68.079  1.00  0.00    -0.073 NA 
ATOM      2  HZ2 LYS A   1      -7.675   8.065  68.603  1.00  0.00     0.000 HD 
ATOM      3  CE  LYS A   1      -7.215   8.547  66.650  1.00  0.00    -0.074 C  
ATOM      4  HZ1 LYS A   1      -6.023   8.054  68.265  1.00  0.00     0.000 HD 
ENDROOT
BRANCH   3   5
ATOM      5  CD  LYS A   1      -8.558   9.226  66.371  1.00  0.00    -0.141 C  
BRANCH   5   6
ATOM      6  CG  LYS A   1      -9.737   8.255  66.500  1.00  0.00    -0.323 C  
BRANCH   6   7
ATOM      7  CB  LYS A   1     -10.641   8.602  67.683  1.00  0.00    -0.272 C  
BRANCH   7   8
ATOM      8  CA  LYS A   1     -10.408   7.695  68.900  1.00  0.00    -0.212 C  
ATOM      9  N   LYS A   1     -11.415   6.595  68.974  1.00  0.00    -0.615 NA 
ATOM     10  C   LYS A   1     -10.540   8.537  70.179  1.00  0.00    -0.232 C  
ATOM     11  OXT LYS A   1      -9.680   9.277  70.631  1.00  0.00    -0.232 OA 
ATOM     12  O   LYS A   1     -11.768   8.376  70.742  1.00  0.00    -0.276 OA 
ATOM     13  H1  LYS A   1     -11.261   5.992  69.782  1.00  0.00     0.000 HD 
ATOM     14  H2  LYS A   1     -11.440   6.056  68.108  1.00  0.00     0.000 HD 
ENDBRANCH   7   8
ENDBRANCH   6   7
ENDBRANCH   5   6
ENDBRANCH   3   5
TORSDOF 4
ENDMDL
MODEL      230
REMARK 921   NORMALIZED FREE ENERGY PREDICTED BY IDOCK:   -1.73 KCAL/MOL
REMARK 922        TOTAL FREE ENERGY PREDICTED BY IDOCK:   -2.64 KCAL/MOL
REMARK 923 INTER-LIGAND FREE ENERGY PREDICTED BY IDOCK:   -2.75 KCAL/MOL
REMARK 924 INTRA-LIGAND FREE ENERGY PREDICTED BY IDOCK:    0.12 KCAL/MOL
REMARK 927      BINDING AFFINITY PREDICTED BY RF-SCORE:    0.00 PKD
ROOT
ATOM      1  NZ  LYS A   1     -11.344   6.852  68.131  1.00  0.00    -0.536 NA 
ATOM      2  HZ2 LYS A   1     -11.315   7.238  69.076  1.00  0.00     0.000 HD 
ATOM      3  CE  LYS A   1     -10.720   7.754  67.169  1.00  0.00    -0.267 C  
ATOM      4  HZ1 LYS A   1     -12.296   6.609  67.858  1.00  0.00     0.000 HD 
ENDROOT
BRANCH   3   5
ATOM      5  CD  LYS A   1      -9.290   8.118  67.579  1.00  0.00    -0.165 C  
BRANCH   5   6
ATOM      6  CG  LYS A   1      -8.574   8.950  66.509  1.00  0.00    -0.133 C  
BRANCH   6   7
ATOM      7  CB  LYS A   1      -9.020  10.413  66.525  1.00  0.00    -0.161 C  
BRANCH   7   8
ATOM      8  CA  LYS A   1     -10.280  10.663  65.684  1.00  0.00    -0.253 C  
ATOM      9  N   LYS A   1      -9.996  10.584  64.220  1.00  0.00    -0.337 NA 
ATOM     10  C   LYS A   1     -10.804  12.076  65.983  1.00  0.00    -0.289 C  
ATOM     11  OXT LYS A   1     -11.458  12.395  66.964  1.00  0.00    -0.315 OA 
ATOM     12  O   LYS A   1     -10.418  12.952  65.017  1.00  0.00    -0.298 OA 
ATOM     13  H1  LYS A   1     -10.832  10.750  63.661  1.00  0.00     0.000 HD 
ATOM     14  H2  LYS A   1      -9.555   9.696  63.975  1.00  0.00     0.000 HD 
ENDBRANCH   7   8
ENDBRANCH   6   7
ENDBRANCH   5   6
ENDBRANCH   3   5
TORSDOF 4
ENDMDL
MODEL      231
REMARK 921   NORMALIZED FREE ENERGY PREDICTED BY IDOCK:   -1.71 KCAL/MOL
REMARK 922        TOTAL FREE ENERGY PREDICTED BY IDOCK:   -2.62 KCAL/MOL
REMARK 923 INTER-LIGAND FREE ENERGY PREDICTED BY IDOCK:   -2.21 KCAL/MOL
REMARK 924 INTRA-LIGAND FREE ENERGY PREDICTED BY IDOCK:   -0.41 KCAL/MOL
REMARK 927      BINDING AFFINITY PREDICTED BY RF-SCORE:    0.00 PKD
ROOT
ATOM      1  NZ  LYS A   1     -11.332   4.537  65.247  1.00  0.00    -1.078 NA 
ATOM      2  HZ2 LYS A   1     -10.981   5.342  65.766  1.00  0.00     0.000 HD 
ATOM      3  CE  LYS A   1     -10.293   3.952  64.405  1.00  0.00    -0.231 C  
ATOM      4  HZ1 LYS A   1     -12.164   4.776  64.708  1.00  0.00     0.000 HD 
ENDROOT
BRANCH   3   5
ATOM      5  CD  LYS A   1      -9.044   3.593  65.215  1.00  0.00    -0.145 C  
BRANCH   5   6
ATOM      6  CG  LYS A   1      -8.280   4.836  65.684  1.00  0.00    -0.113 C  
BRANCH   6   7
ATOM      7  CB  LYS A   1      -8.221   4.934  67.209  1.00  0.00    -0.106 C  
BRANCH   7   8
ATOM      8  CA  LYS A   1      -8.760   6.269  67.743  1.00  0.00    -0.113 C  
ATOM      9  N   LYS A   1      -9.963   6.726  66.986  1.00  0.00    -0.164 NA 
ATOM     10  C   LYS A   1      -7.672   7.342  67.584  1.00  0.00    -0.112 C  
ATOM     11  OXT LYS A   1      -6.712   7.492  68.324  1.00  0.00    -0.054 OA 
ATOM     12  O   LYS A   1      -7.896   8.102  66.478  1.00  0.00    -0.091 OA 
ATOM     13  H1  LYS A   1     -10.321   7.613  67.340  1.00  0.00     0.000 HD 
ATOM     14  H2  LYS A   1     -10.690   6.009  66.976  1.00  0.00     0.000 HD 
ENDBRANCH   7   8
ENDBRANCH   6   7
ENDBRANCH   5   6
ENDBRANCH   3   5
TORSDOF 4
ENDMDL
MODEL      232
REMARK 921   NORMALIZED FREE ENERGY PREDICTED BY IDOCK:   -1.70 KCAL/MOL
REMARK 922        TOTAL FREE ENERGY PREDICTED BY IDOCK:   -2.60 KCAL/MOL
REMARK 923 INTER-LIGAND FREE ENERGY PREDICTED BY IDOCK:   -2.52 KCAL/MOL
REMARK 924 INTRA-LIGAND FREE ENERGY PREDICTED BY IDOCK:   -0.08 KCAL/MOL
REMARK 927      BINDING AFFINITY PREDICTED BY RF-SCORE:    0.00 PKD
ROOT
ATOM      1  NZ  LYS A   1     -12.371  10.697  68.860  1.00  0.00    -0.790 NA 
ATOM      2  HZ2 LYS A   1     -12.816   9.845  68.517  1.00  0.00     0.000 HD 
ATOM      3  CE  LYS A   1     -12.331  10.725  70.319  1.00  0.00    -0.341 C  
ATOM      4  HZ1 LYS A   1     -12.820  11.530  68.479  1.00  0.00     0.000 HD 
ENDROOT
BRANCH   3   5
ATOM      5  CD  LYS A   1     -11.658   9.475  70.891  1.00  0.00    -0.398 C  
BRANCH   5   6
ATOM      6  CG  LYS A   1     -10.527   8.963  69.991  1.00  0.00    -0.227 C  
BRANCH   6   7
ATOM      7  CB  LYS A   1      -9.432   8.255  70.790  1.00  0.00    -0.185 C  
BRANCH   7   8
ATOM      8  CA  LYS A   1      -8.235   9.166  71.099  1.00  0.00    -0.087 C  
ATOM      9  N   LYS A   1      -7.353   9.348  69.907  1.00  0.00    -0.076 NA 
ATOM     10  C   LYS A   1      -7.393   8.520  72.210  1.00  0.00    -0.057 C  
ATOM     11  OXT LYS A   1      -7.655   8.547  73.402  1.00  0.00    -0.325 OA 
ATOM     12  O   LYS A   1      -6.314   7.876  71.690  1.00  0.00    -0.038 OA 
ATOM     13  H1  LYS A   1      -6.558   9.952  70.112  1.00  0.00     0.000 HD 
ATOM     14  H2  LYS A   1      -7.882   9.687  69.103  1.00  0.00     0.000 HD 
ENDBRANCH   7   8
ENDBRANCH   6   7
ENDBRANCH   5   6
ENDBRANCH   3   5
TORSDOF 4
ENDMDL
MODEL      233
REMARK 921   NORMALIZED FREE ENERGY PREDICTED BY IDOCK:   -1.70 KCAL/MOL
REMARK 922        TOTAL FREE ENERGY PREDICTED BY IDOCK:   -2.60 KCAL/MOL
REMARK 923 INTER-LIGAND FREE ENERGY PREDICTED BY IDOCK:   -2.47 KCAL/MOL
REMARK 924 INTRA-LIGAND FREE ENERGY PREDICTED BY IDOCK:   -0.12 KCAL/MOL
REMARK 927      BINDING AFFINITY PREDICTED BY RF-SCORE:    0.00 PKD
ROOT
ATOM      1  NZ  LYS A   1     -11.304   6.697  68.889  1.00  0.00    -0.581 NA 
ATOM      2  HZ2 LYS A   1     -11.088   5.781  68.496  1.00  0.00     0.000 HD 
ATOM      3  CE  LYS A   1     -10.384   7.718  68.398  1.00  0.00    -0.196 C  
ATOM      4  HZ1 LYS A   1     -11.327   6.669  69.908  1.00  0.00     0.000 HD 
ENDROOT
BRANCH   3   5
ATOM      5  CD  LYS A   1     -10.350   7.760  66.868  1.00  0.00    -0.396 C  
BRANCH   5   6
ATOM      6  CG  LYS A   1      -9.810   9.092  66.336  1.00  0.00    -0.350 C  
BRANCH   6   7
ATOM      7  CB  LYS A   1      -8.818   9.738  67.305  1.00  0.00    -0.139 C  
BRANCH   7   8
ATOM      8  CA  LYS A   1      -8.086  10.942  66.694  1.00  0.00    -0.147 C  
ATOM      9  N   LYS A   1      -8.711  11.380  65.410  1.00  0.00    -0.391 NA 
ATOM     10  C   LYS A   1      -6.634  10.539  66.394  1.00  0.00    -0.106 C  
ATOM     11  OXT LYS A   1      -5.733  10.474  67.216  1.00  0.00    -0.041 OA 
ATOM     12  O   LYS A   1      -6.477  10.229  65.079  1.00  0.00    -0.124 OA 
ATOM     13  H1  LYS A   1      -8.225  12.179  65.004  1.00  0.00     0.000 HD 
ATOM     14  H2  LYS A   1      -9.706  11.571  65.529  1.00  0.00     0.000 HD 
ENDBRANCH   7   8
ENDBRANCH   6   7
ENDBRANCH   5   6
ENDBRANCH   3   5
TORSDOF 4
ENDMDL
MODEL      234
REMARK 921   NORMALIZED FREE ENERGY PREDICTED BY IDOCK:   -1.69 KCAL/MOL
REMARK 922        TOTAL FREE ENERGY PREDICTED BY IDOCK:   -2.58 KCAL/MOL
REMARK 923 INTER-LIGAND FREE ENERGY PREDICTED BY IDOCK:   -2.53 KCAL/MOL
REMARK 924 INTRA-LIGAND FREE ENERGY PREDICTED BY IDOCK:   -0.06 KCAL/MOL
REMARK 927      BINDING AFFINITY PREDICTED BY RF-SCORE:    0.00 PKD
ROOT
ATOM      1  NZ  LYS A   1     -11.802   6.522  69.470  1.00  0.00    -0.589 NA 
ATOM      2  HZ2 LYS A   1     -11.690   5.524  69.293  1.00  0.00     0.000 HD 
ATOM      3  CE  LYS A   1     -12.212   6.776  70.848  1.00  0.00    -0.331 C  
ATOM      4  HZ1 LYS A   1     -12.444   6.949  68.801  1.00  0.00     0.000 HD 
ENDROOT
BRANCH   3   5
ATOM      5  CD  LYS A   1     -11.249   6.136  71.851  1.00  0.00    -0.336 C  
BRANCH   5   6
ATOM      6  CG  LYS A   1      -9.828   6.699  71.730  1.00  0.00    -0.171 C  
BRANCH   6   7
ATOM      7  CB  LYS A   1      -8.848   5.991  72.667  1.00  0.00    -0.124 C  
BRANCH   7   8
ATOM      8  CA  LYS A   1      -8.060   6.966  73.554  1.00  0.00    -0.100 C  
ATOM      9  N   LYS A   1      -8.955   7.959  74.218  1.00  0.00    -0.412 NA 
ATOM     10  C   LYS A   1      -7.067   7.743  72.677  1.00  0.00    -0.080 C  
ATOM     11  OXT LYS A   1      -5.993   7.320  72.277  1.00  0.00    -0.040 OA 
ATOM     12  O   LYS A   1      -7.553   8.976  72.367  1.00  0.00    -0.342 OA 
ATOM     13  H1  LYS A   1      -8.432   8.607  74.808  1.00  0.00     0.000 HD 
ATOM     14  H2  LYS A   1      -9.698   7.497  74.743  1.00  0.00     0.000 HD 
ENDBRANCH   7   8
ENDBRANCH   6   7
ENDBRANCH   5   6
ENDBRANCH   3   5
TORSDOF 4
ENDMDL
MODEL      235
REMARK 921   NORMALIZED FREE ENERGY PREDICTED BY IDOCK:   -1.68 KCAL/MOL
REMARK 922        TOTAL FREE ENERGY PREDICTED BY IDOCK:   -2.57 KCAL/MOL
REMARK 923 INTER-LIGAND FREE ENERGY PREDICTED BY IDOCK:   -2.72 KCAL/MOL
REMARK 924 INTRA-LIGAND FREE ENERGY PREDICTED BY IDOCK:    0.14 KCAL/MOL
REMARK 927      BINDING AFFINITY PREDICTED BY RF-SCORE:    0.00 PKD
ROOT
ATOM      1  NZ  LYS A   1     -10.934  16.160  68.713  1.00  0.00    -0.309 NA 
ATOM      2  HZ2 LYS A   1      -9.918  16.063  68.729  1.00  0.00     0.000 HD 
ATOM      3  CE  LYS A   1     -11.498  15.643  67.470  1.00  0.00    -0.121 C  
ATOM      4  HZ1 LYS A   1     -11.219  17.124  68.884  1.00  0.00     0.000 HD 
ENDROOT
BRANCH   3   5
ATOM      5  CD  LYS A   1     -11.071  14.196  67.213  1.00  0.00    -0.315 C  
BRANCH   5   6
ATOM      6  CG  LYS A   1     -10.490  13.532  68.467  1.00  0.00    -0.250 C  
BRANCH   6   7
ATOM      7  CB  LYS A   1      -9.377  12.539  68.129  1.00  0.00    -0.210 C  
BRANCH   7   8
ATOM      8  CA  LYS A   1      -9.889  11.099  67.977  1.00  0.00    -0.174 C  
ATOM      9  N   LYS A   1     -10.264  10.788  66.566  1.00  0.00    -0.228 NA 
ATOM     10  C   LYS A   1     -11.144  10.924  68.845  1.00  0.00    -0.252 C  
ATOM     11  OXT LYS A   1     -11.150  10.744  70.053  1.00  0.00    -0.279 OA 
ATOM     12  O   LYS A   1     -12.273  11.026  68.093  1.00  0.00    -0.578 OA 
ATOM     13  H1  LYS A   1     -10.604   9.832  66.465  1.00  0.00     0.000 HD 
ATOM     14  H2  LYS A   1      -9.492  10.978  65.926  1.00  0.00     0.000 HD 
ENDBRANCH   7   8
ENDBRANCH   6   7
ENDBRANCH   5   6
ENDBRANCH   3   5
TORSDOF 4
ENDMDL
MODEL      236
REMARK 921   NORMALIZED FREE ENERGY PREDICTED BY IDOCK:   -1.67 KCAL/MOL
REMARK 922        TOTAL FREE ENERGY PREDICTED BY IDOCK:   -2.56 KCAL/MOL
REMARK 923 INTER-LIGAND FREE ENERGY PREDICTED BY IDOCK:   -2.39 KCAL/MOL
REMARK 924 INTRA-LIGAND FREE ENERGY PREDICTED BY IDOCK:   -0.17 KCAL/MOL
REMARK 927      BINDING AFFINITY PREDICTED BY RF-SCORE:    0.00 PKD
ROOT
ATOM      1  NZ  LYS A   1      -8.390   5.564  66.506  1.00  0.00    -0.109 NA 
ATOM      2  HZ2 LYS A   1      -9.004   5.956  65.792  1.00  0.00     0.000 HD 
ATOM      3  CE  LYS A   1      -8.040   6.560  67.513  1.00  0.00    -0.121 C  
ATOM      4  HZ1 LYS A   1      -7.561   5.139  66.092  1.00  0.00     0.000 HD 
ENDROOT
BRANCH   3   5
ATOM      5  CD  LYS A   1      -9.285   7.197  68.136  1.00  0.00    -0.131 C  
BRANCH   5   6
ATOM      6  CG  LYS A   1     -10.291   7.660  67.075  1.00  0.00    -0.400 C  
BRANCH   6   7
ATOM      7  CB  LYS A   1     -10.393   9.184  67.006  1.00  0.00    -0.333 C  
BRANCH   7   8
ATOM      8  CA  LYS A   1      -9.910   9.754  65.663  1.00  0.00    -0.301 C  
ATOM      9  N   LYS A   1      -9.033   8.791  64.934  1.00  0.00    -0.412 NA 
ATOM     10  C   LYS A   1      -9.089  11.025  65.931  1.00  0.00    -0.197 C  
ATOM     11  OXT LYS A   1      -9.551  12.129  66.174  1.00  0.00    -0.236 OA 
ATOM     12  O   LYS A   1      -7.755  10.759  65.892  1.00  0.00    -0.154 OA 
ATOM     13  H1  LYS A   1      -8.712   9.169  64.043  1.00  0.00     0.000 HD 
ATOM     14  H2  LYS A   1      -9.495   7.889  64.810  1.00  0.00     0.000 HD 
ENDBRANCH   7   8
ENDBRANCH   6   7
ENDBRANCH   5   6
ENDBRANCH   3   5
TORSDOF 4
ENDMDL
MODEL      237
REMARK 921   NORMALIZED FREE ENERGY PREDICTED BY IDOCK:   -1.67 KCAL/MOL
REMARK 922        TOTAL FREE ENERGY PREDICTED BY IDOCK:   -2.56 KCAL/MOL
REMARK 923 INTER-LIGAND FREE ENERGY PREDICTED BY IDOCK:   -2.44 KCAL/MOL
REMARK 924 INTRA-LIGAND FREE ENERGY PREDICTED BY IDOCK:   -0.12 KCAL/MOL
REMARK 927      BINDING AFFINITY PREDICTED BY RF-SCORE:    0.00 PKD
ROOT
ATOM      1  NZ  LYS A   1     -12.278  11.034  68.444  1.00  0.00    -0.780 NA 
ATOM      2  HZ2 LYS A   1     -12.173  10.076  68.778  1.00  0.00     0.000 HD 
ATOM      3  CE  LYS A   1     -10.991  11.612  68.072  1.00  0.00    -0.224 C  
ATOM      4  HZ1 LYS A   1     -12.770  11.613  69.124  1.00  0.00     0.000 HD 
ENDROOT
BRANCH   3   5
ATOM      5  CD  LYS A   1     -10.254  10.743  67.051  1.00  0.00    -0.261 C  
BRANCH   5   6
ATOM      6  CG  LYS A   1      -9.188   9.857  67.705  1.00  0.00    -0.141 C  
BRANCH   6   7
ATOM      7  CB  LYS A   1      -8.891  10.282  69.144  1.00  0.00    -0.182 C  
BRANCH   7   8
ATOM      8  CA  LYS A   1      -7.531   9.776  69.647  1.00  0.00    -0.113 C  
ATOM      9  N   LYS A   1      -7.553   9.486  71.112  1.00  0.00    -0.315 NA 
ATOM     10  C   LYS A   1      -6.474  10.864  69.401  1.00  0.00    -0.086 C  
ATOM     11  OXT LYS A   1      -5.934  11.097  68.331  1.00  0.00    -0.046 OA 
ATOM     12  O   LYS A   1      -6.231  11.572  70.537  1.00  0.00    -0.293 OA 
ATOM     13  H1  LYS A   1      -6.650   9.150  71.446  1.00  0.00     0.000 HD 
ATOM     14  H2  LYS A   1      -8.302   8.837  71.350  1.00  0.00     0.000 HD 
ENDBRANCH   7   8
ENDBRANCH   6   7
ENDBRANCH   5   6
ENDBRANCH   3   5
TORSDOF 4
ENDMDL
MODEL      238
REMARK 921   NORMALIZED FREE ENERGY PREDICTED BY IDOCK:   -1.66 KCAL/MOL
REMARK 922        TOTAL FREE ENERGY PREDICTED BY IDOCK:   -2.55 KCAL/MOL
REMARK 923 INTER-LIGAND FREE ENERGY PREDICTED BY IDOCK:   -2.41 KCAL/MOL
REMARK 924 INTRA-LIGAND FREE ENERGY PREDICTED BY IDOCK:   -0.14 KCAL/MOL
REMARK 927      BINDING AFFINITY PREDICTED BY RF-SCORE:    0.00 PKD
ROOT
ATOM      1  NZ  LYS A   1      -7.818   6.492  70.325  1.00  0.00    -0.105 NA 
ATOM      2  HZ2 LYS A   1      -8.293   7.284  69.891  1.00  0.00     0.000 HD 
ATOM      3  CE  LYS A   1      -7.621   6.706  71.755  1.00  0.00    -0.093 C  
ATOM      4  HZ1 LYS A   1      -6.941   6.279  69.850  1.00  0.00     0.000 HD 
ENDROOT
BRANCH   3   5
ATOM      5  CD  LYS A   1      -8.938   7.025  72.466  1.00  0.00    -0.144 C  
BRANCH   5   6
ATOM      6  CG  LYS A   1      -9.465   8.421  72.112  1.00  0.00    -0.360 C  
BRANCH   6   7
ATOM      7  CB  LYS A   1     -10.887   8.646  72.626  1.00  0.00    -0.072 C  
BRANCH   7   8
ATOM      8  CA  LYS A   1     -11.883   8.974  71.503  1.00  0.00    -0.345 C  
ATOM      9  N   LYS A   1     -12.827  10.062  71.898  1.00  0.00    -0.423 NA 
ATOM     10  C   LYS A   1     -12.715   7.720  71.197  1.00  0.00    -0.176 C  
ATOM     11  OXT LYS A   1     -12.345   6.772  70.522  1.00  0.00    -0.326 OA 
ATOM     12  O   LYS A   1     -13.930   7.782  71.807  1.00  0.00    -0.373 OA 
ATOM     13  H1  LYS A   1     -13.488  10.280  71.153  1.00  0.00     0.000 HD 
ATOM     14  H2  LYS A   1     -12.325  10.895  72.205  1.00  0.00     0.000 HD 
ENDBRANCH   7   8
ENDBRANCH   6   7
ENDBRANCH   5   6
ENDBRANCH   3   5
TORSDOF 4
ENDMDL
MODEL      239
REMARK 921   NORMALIZED FREE ENERGY PREDICTED BY IDOCK:   -1.66 KCAL/MOL
REMARK 922        TOTAL FREE ENERGY PREDICTED BY IDOCK:   -2.55 KCAL/MOL
REMARK 923 INTER-LIGAND FREE ENERGY PREDICTED BY IDOCK:   -2.40 KCAL/MOL
REMARK 924 INTRA-LIGAND FREE ENERGY PREDICTED BY IDOCK:   -0.15 KCAL/MOL
REMARK 927      BINDING AFFINITY PREDICTED BY RF-SCORE:    0.00 PKD
ROOT
ATOM      1  NZ  LYS A   1     -12.527   9.208  70.746  1.00  0.00    -0.499 NA 
ATOM      2  HZ2 LYS A   1     -11.695   8.730  71.095  1.00  0.00     0.000 HD 
ATOM      3  CE  LYS A   1     -12.295  10.641  70.600  1.00  0.00    -0.369 C  
ATOM      4  HZ1 LYS A   1     -13.340   9.015  71.331  1.00  0.00     0.000 HD 
ENDROOT
BRANCH   3   5
ATOM      5  CD  LYS A   1     -11.076  10.931  69.722  1.00  0.00    -0.328 C  
BRANCH   5   6
ATOM      6  CG  LYS A   1     -11.327  12.083  68.743  1.00  0.00    -0.331 C  
BRANCH   6   7
ATOM      7  CB  LYS A   1     -10.270  12.141  67.639  1.00  0.00    -0.206 C  
BRANCH   7   8
ATOM      8  CA  LYS A   1      -9.000  11.350  67.986  1.00  0.00    -0.163 C  
ATOM      9  N   LYS A   1      -7.887  12.247  68.416  1.00  0.00    -0.149 NA 
ATOM     10  C   LYS A   1      -8.533  10.589  66.736  1.00  0.00    -0.127 C  
ATOM     11  OXT LYS A   1      -9.010   9.543  66.324  1.00  0.00    -0.146 OA 
ATOM     12  O   LYS A   1      -7.521  11.252  66.114  1.00  0.00    -0.079 OA 
ATOM     13  H1  LYS A   1      -7.044  11.721  68.646  1.00  0.00     0.000 HD 
ATOM     14  H2  LYS A   1      -8.172  12.849  69.189  1.00  0.00     0.000 HD 
ENDBRANCH   7   8
ENDBRANCH   6   7
ENDBRANCH   5   6
ENDBRANCH   3   5
TORSDOF 4
ENDMDL
MODEL      240
REMARK 921   NORMALIZED FREE ENERGY PREDICTED BY IDOCK:   -1.65 KCAL/MOL
REMARK 922        TOTAL FREE ENERGY PREDICTED BY IDOCK:   -2.53 KCAL/MOL
REMARK 923 INTER-LIGAND FREE ENERGY PREDICTED BY IDOCK:   -2.06 KCAL/MOL
REMARK 924 INTRA-LIGAND FREE ENERGY PREDICTED BY IDOCK:   -0.47 KCAL/MOL
REMARK 927      BINDING AFFINITY PREDICTED BY RF-SCORE:    0.00 PKD
ROOT
ATOM      1  NZ  LYS A   1      -9.090   8.084  67.014  1.00  0.00    -0.139 NA 
ATOM      2  HZ2 LYS A   1      -8.198   8.238  67.483  1.00  0.00     0.000 HD 
ATOM      3  CE  LYS A   1      -9.962   9.249  67.131  1.00  0.00    -0.216 C  
ATOM      4  HZ1 LYS A   1      -9.546   7.236  67.351  1.00  0.00     0.000 HD 
ENDROOT
BRANCH   3   5
ATOM      5  CD  LYS A   1      -9.278  10.520  66.624  1.00  0.00    -0.177 C  
BRANCH   5   6
ATOM      6  CG  LYS A   1      -9.918  11.049  65.336  1.00  0.00    -0.313 C  
BRANCH   6   7
ATOM      7  CB  LYS A   1      -9.540  10.205  64.117  1.00  0.00    -0.336 C  
BRANCH   7   8
ATOM      8  CA  LYS A   1      -8.033   9.922  64.032  1.00  0.00    -0.150 C  
ATOM      9  N   LYS A   1      -7.374  10.729  62.963  1.00  0.00    -0.355 NA 
ATOM     10  C   LYS A   1      -7.826   8.437  63.692  1.00  0.00    -0.152 C  
ATOM     11  OXT LYS A   1      -7.904   7.512  64.486  1.00  0.00    -0.120 OA 
ATOM     12  O   LYS A   1      -7.570   8.274  62.366  1.00  0.00    -0.104 OA 
ATOM     13  H1  LYS A   1      -6.374  10.541  62.906  1.00  0.00     0.000 HD 
ATOM     14  H2  LYS A   1      -7.559  11.726  63.084  1.00  0.00     0.000 HD 
ENDBRANCH   7   8
ENDBRANCH   6   7
ENDBRANCH   5   6
ENDBRANCH   3   5
TORSDOF 4
ENDMDL
MODEL      241
REMARK 921   NORMALIZED FREE ENERGY PREDICTED BY IDOCK:   -1.65 KCAL/MOL
REMARK 922        TOTAL FREE ENERGY PREDICTED BY IDOCK:   -2.53 KCAL/MOL
REMARK 923 INTER-LIGAND FREE ENERGY PREDICTED BY IDOCK:   -2.44 KCAL/MOL
REMARK 924 INTRA-LIGAND FREE ENERGY PREDICTED BY IDOCK:   -0.10 KCAL/MOL
REMARK 927      BINDING AFFINITY PREDICTED BY RF-SCORE:    0.00 PKD
ROOT
ATOM      1  NZ  LYS A   1      -9.544   4.613  63.044  1.00  0.00    -0.353 NA 
ATOM      2  HZ2 LYS A   1     -10.061   5.478  62.886  1.00  0.00     0.000 HD 
ATOM      3  CE  LYS A   1      -9.302   4.390  64.466  1.00  0.00    -0.143 C  
ATOM      4  HZ1 LYS A   1      -8.677   4.595  62.506  1.00  0.00     0.000 HD 
ENDROOT
BRANCH   3   5
ATOM      5  CD  LYS A   1     -10.603   4.418  65.272  1.00  0.00    -0.181 C  
BRANCH   5   6
ATOM      6  CG  LYS A   1     -10.516   5.356  66.481  1.00  0.00    -0.352 C  
BRANCH   6   7
ATOM      7  CB  LYS A   1      -9.795   4.705  67.663  1.00  0.00    -0.194 C  
BRANCH   7   8
ATOM      8  CA  LYS A   1      -9.450   5.706  68.776  1.00  0.00    -0.126 C  
ATOM      9  N   LYS A   1      -8.177   5.348  69.469  1.00  0.00    -0.095 NA 
ATOM     10  C   LYS A   1     -10.574   5.690  69.823  1.00  0.00    -0.329 C  
ATOM     11  OXT LYS A   1     -11.649   6.258  69.716  1.00  0.00    -0.436 OA 
ATOM     12  O   LYS A   1     -10.230   4.924  70.894  1.00  0.00    -0.227 OA 
ATOM     13  H1  LYS A   1      -7.948   6.012  70.208  1.00  0.00     0.000 HD 
ATOM     14  H2  LYS A   1      -7.408   5.250  68.806  1.00  0.00     0.000 HD 
ENDBRANCH   7   8
ENDBRANCH   6   7
ENDBRANCH   5   6
ENDBRANCH   3   5
TORSDOF 4
ENDMDL
MODEL      242
REMARK 921   NORMALIZED FREE ENERGY PREDICTED BY IDOCK:   -1.64 KCAL/MOL
REMARK 922        TOTAL FREE ENERGY PREDICTED BY IDOCK:   -2.53 KCAL/MOL
REMARK 923 INTER-LIGAND FREE ENERGY PREDICTED BY IDOCK:   -2.05 KCAL/MOL
REMARK 924 INTRA-LIGAND FREE ENERGY PREDICTED BY IDOCK:   -0.48 KCAL/MOL
REMARK 927      BINDING AFFINITY PREDICTED BY RF-SCORE:    0.00 PKD
ROOT
ATOM      1  NZ  LYS A   1      -7.620   6.007  69.778  1.00  0.00    -0.080 NA 
ATOM      2  HZ2 LYS A   1      -8.579   6.290  69.573  1.00  0.00     0.000 HD 
ATOM      3  CE  LYS A   1      -7.182   6.509  71.076  1.00  0.00    -0.078 C  
ATOM      4  HZ1 LYS A   1      -6.983   6.284  69.031  1.00  0.00     0.000 HD 
ENDROOT
BRANCH   3   5
ATOM      5  CD  LYS A   1      -8.138   6.092  72.196  1.00  0.00    -0.110 C  
BRANCH   5   6
ATOM      6  CG  LYS A   1      -9.321   7.057  72.337  1.00  0.00    -0.152 C  
BRANCH   6   7
ATOM      7  CB  LYS A   1     -10.666   6.339  72.213  1.00  0.00    -0.263 C  
BRANCH   7   8
ATOM      8  CA  LYS A   1     -11.365   6.609  70.873  1.00  0.00    -0.325 C  
ATOM      9  N   LYS A   1     -10.878   5.694  69.798  1.00  0.00    -0.339 NA 
ATOM     10  C   LYS A   1     -11.060   8.050  70.436  1.00  0.00    -0.238 C  
ATOM     11  OXT LYS A   1     -11.610   9.052  70.866  1.00  0.00    -0.279 OA 
ATOM     12  O   LYS A   1     -10.060   8.076  69.513  1.00  0.00    -0.187 OA 
ATOM     13  H1  LYS A   1     -11.342   5.874  68.908  1.00  0.00     0.000 HD 
ATOM     14  H2  LYS A   1     -10.969   4.716  70.074  1.00  0.00     0.000 HD 
ENDBRANCH   7   8
ENDBRANCH   6   7
ENDBRANCH   5   6
ENDBRANCH   3   5
TORSDOF 4
ENDMDL
MODEL      243
REMARK 921   NORMALIZED FREE ENERGY PREDICTED BY IDOCK:   -1.64 KCAL/MOL
REMARK 922        TOTAL FREE ENERGY PREDICTED BY IDOCK:   -2.53 KCAL/MOL
REMARK 923 INTER-LIGAND FREE ENERGY PREDICTED BY IDOCK:   -2.37 KCAL/MOL
REMARK 924 INTRA-LIGAND FREE ENERGY PREDICTED BY IDOCK:   -0.15 KCAL/MOL
REMARK 927      BINDING AFFINITY PREDICTED BY RF-SCORE:    0.00 PKD
ROOT
ATOM      1  NZ  LYS A   1     -10.475   4.161  64.147  1.00  0.00    -0.438 NA 
ATOM      2  HZ2 LYS A   1     -11.450   4.459  64.169  1.00  0.00     0.000 HD 
ATOM      3  CE  LYS A   1      -9.702   4.790  65.213  1.00  0.00    -0.087 C  
ATOM      4  HZ1 LYS A   1     -10.056   4.325  63.231  1.00  0.00     0.000 HD 
ENDROOT
BRANCH   3   5
ATOM      5  CD  LYS A   1     -10.329   4.544  66.588  1.00  0.00    -0.124 C  
BRANCH   5   6
ATOM      6  CG  LYS A   1     -10.701   5.850  67.297  1.00  0.00    -0.380 C  
BRANCH   6   7
ATOM      7  CB  LYS A   1      -9.566   6.874  67.250  1.00  0.00    -0.173 C  
BRANCH   7   8
ATOM      8  CA  LYS A   1     -10.027   8.255  66.758  1.00  0.00    -0.285 C  
ATOM      9  N   LYS A   1      -9.399   8.618  65.453  1.00  0.00    -0.440 NA 
ATOM     10  C   LYS A   1      -9.610   9.313  67.790  1.00  0.00    -0.142 C  
ATOM     11  OXT LYS A   1     -10.192   9.549  68.838  1.00  0.00    -0.185 OA 
ATOM     12  O   LYS A   1      -8.472   9.950  67.401  1.00  0.00    -0.118 OA 
ATOM     13  H1  LYS A   1      -9.705   9.534  65.127  1.00  0.00     0.000 HD 
ATOM     14  H2  LYS A   1      -9.564   7.899  64.749  1.00  0.00     0.000 HD 
ENDBRANCH   7   8
ENDBRANCH   6   7
ENDBRANCH   5   6
ENDBRANCH   3   5
TORSDOF 4
ENDMDL
MODEL      244
REMARK 921   NORMALIZED FREE ENERGY PREDICTED BY IDOCK:   -1.63 KCAL/MOL
REMARK 922        TOTAL FREE ENERGY PREDICTED BY IDOCK:   -2.51 KCAL/MOL
REMARK 923 INTER-LIGAND FREE ENERGY PREDICTED BY IDOCK:   -2.38 KCAL/MOL
REMARK 924 INTRA-LIGAND FREE ENERGY PREDICTED BY IDOCK:   -0.13 KCAL/MOL
REMARK 927      BINDING AFFINITY PREDICTED BY RF-SCORE:    0.00 PKD
ROOT
ATOM      1  NZ  LYS A   1      -5.891   6.994  68.528  1.00  0.00    -0.021 NA 
ATOM      2  HZ2 LYS A   1      -5.972   6.049  68.153  1.00  0.00     0.000 HD 
ATOM      3  CE  LYS A   1      -6.925   7.871  67.989  1.00  0.00    -0.073 C  
ATOM      4  HZ1 LYS A   1      -4.956   7.375  68.378  1.00  0.00     0.000 HD 
ENDROOT
BRANCH   3   5
ATOM      5  CD  LYS A   1      -8.326   7.300  68.216  1.00  0.00    -0.125 C  
BRANCH   5   6
ATOM      6  CG  LYS A   1      -9.395   8.049  67.412  1.00  0.00    -0.173 C  
BRANCH   6   7
ATOM      7  CB  LYS A   1     -10.498   8.613  68.309  1.00  0.00    -0.234 C  
BRANCH   7   8
ATOM      8  CA  LYS A   1     -10.249  10.074  68.715  1.00  0.00    -0.186 C  
ATOM      9  N   LYS A   1     -10.516  10.300  70.166  1.00  0.00    -0.412 NA 
ATOM     10  C   LYS A   1     -11.200  10.979  67.917  1.00  0.00    -0.310 C  
ATOM     11  OXT LYS A   1     -11.039  11.328  66.758  1.00  0.00    -0.285 OA 
ATOM     12  O   LYS A   1     -12.281  11.328  68.666  1.00  0.00    -0.562 OA 
ATOM     13  H1  LYS A   1     -10.351  11.269  70.436  1.00  0.00     0.000 HD 
ATOM     14  H2  LYS A   1      -9.979   9.656  70.747  1.00  0.00     0.000 HD 
ENDBRANCH   7   8
ENDBRANCH   6   7
ENDBRANCH   5   6
ENDBRANCH   3   5
TORSDOF 4
ENDMDL
MODEL      245
REMARK 921   NORMALIZED FREE ENERGY PREDICTED BY IDOCK:   -1.62 KCAL/MOL
REMARK 922        TOTAL FREE ENERGY PREDICTED BY IDOCK:   -2.50 KCAL/MOL
REMARK 923 INTER-LIGAND FREE ENERGY PREDICTED BY IDOCK:   -2.27 KCAL/MOL
REMARK 924 INTRA-LIGAND FREE ENERGY PREDICTED BY IDOCK:   -0.22 KCAL/MOL
REMARK 927      BINDING AFFINITY PREDICTED BY RF-SCORE:    0.00 PKD
ROOT
ATOM      1  NZ  LYS A   1      -6.873  10.062  66.736  1.00  0.00    -0.079 NA 
ATOM      2  HZ2 LYS A   1      -5.998  10.484  66.424  1.00  0.00     0.000 HD 
ATOM      3  CE  LYS A   1      -7.141  10.366  68.138  1.00  0.00    -0.082 C  
ATOM      4  HZ1 LYS A   1      -6.885   9.057  66.560  1.00  0.00     0.000 HD 
ENDROOT
BRANCH   3   5
ATOM      5  CD  LYS A   1      -7.123  11.874  68.402  1.00  0.00    -0.086 C  
BRANCH   5   6
ATOM      6  CG  LYS A   1      -8.133  12.627  67.530  1.00  0.00    -0.178 C  
BRANCH   6   7
ATOM      7  CB  LYS A   1      -9.555  12.535  68.086  1.00  0.00    -0.215 C  
BRANCH   7   8
ATOM      8  CA  LYS A   1     -10.468  11.633  67.242  1.00  0.00    -0.216 C  
ATOM      9  N   LYS A   1     -11.552  12.411  66.572  1.00  0.00    -0.384 NA 
ATOM     10  C   LYS A   1     -11.134  10.600  68.164  1.00  0.00    -0.285 C  
ATOM     11  OXT LYS A   1     -10.606   9.583  68.587  1.00  0.00    -0.213 OA 
ATOM     12  O   LYS A   1     -12.401  10.980  68.484  1.00  0.00    -0.536 OA 
ATOM     13  H1  LYS A   1     -12.158  11.812  66.012  1.00  0.00     0.000 HD 
ATOM     14  H2  LYS A   1     -11.170  13.176  66.016  1.00  0.00     0.000 HD 
ENDBRANCH   7   8
ENDBRANCH   6   7
ENDBRANCH   5   6
ENDBRANCH   3   5
TORSDOF 4
ENDMDL
MODEL      246
REMARK 921   NORMALIZED FREE ENERGY PREDICTED BY IDOCK:   -1.61 KCAL/MOL
REMARK 922        TOTAL FREE ENERGY PREDICTED BY IDOCK:   -2.48 KCAL/MOL
REMARK 923 INTER-LIGAND FREE ENERGY PREDICTED BY IDOCK:   -2.23 KCAL/MOL
REMARK 924 INTRA-LIGAND FREE ENERGY PREDICTED BY IDOCK:   -0.25 KCAL/MOL
REMARK 927      BINDING AFFINITY PREDICTED BY RF-SCORE:    0.00 PKD
ROOT
ATOM      1  NZ  LYS A   1      -9.354   9.890  69.657  1.00  0.00    -0.217 NA 
ATOM      2  HZ2 LYS A   1      -8.717  10.618  69.334  1.00  0.00     0.000 HD 
ATOM      3  CE  LYS A   1     -10.731  10.371  69.708  1.00  0.00    -0.278 C  
ATOM      4  HZ1 LYS A   1      -9.056   9.506  70.554  1.00  0.00     0.000 HD 
ENDROOT
BRANCH   3   5
ATOM      5  CD  LYS A   1     -11.179  10.947  68.362  1.00  0.00    -0.347 C  
BRANCH   5   6
ATOM      6  CG  LYS A   1     -10.008  11.531  67.563  1.00  0.00    -0.207 C  
BRANCH   6   7
ATOM      7  CB  LYS A   1     -10.202  11.367  66.055  1.00  0.00    -0.289 C  
BRANCH   7   8
ATOM      8  CA  LYS A   1      -9.333  10.249  65.459  1.00  0.00    -0.199 C  
ATOM      9  N   LYS A   1      -9.931   8.900  65.686  1.00  0.00    -0.388 NA 
ATOM     10  C   LYS A   1      -7.958  10.272  66.144  1.00  0.00    -0.131 C  
ATOM     11  OXT LYS A   1      -7.050  11.046  65.882  1.00  0.00    -0.078 OA 
ATOM     12  O   LYS A   1      -7.883   9.325  67.117  1.00  0.00    -0.098 OA 
ATOM     13  H1  LYS A   1      -9.355   8.157  65.291  1.00  0.00     0.000 HD 
ATOM     14  H2  LYS A   1     -10.888   8.854  65.334  1.00  0.00     0.000 HD 
ENDBRANCH   7   8
ENDBRANCH   6   7
ENDBRANCH   5   6
ENDBRANCH   3   5
TORSDOF 4
ENDMDL
MODEL      247
REMARK 921   NORMALIZED FREE ENERGY PREDICTED BY IDOCK:   -1.60 KCAL/MOL
REMARK 922        TOTAL FREE ENERGY PREDICTED BY IDOCK:   -2.47 KCAL/MOL
REMARK 923 INTER-LIGAND FREE ENERGY PREDICTED BY IDOCK:   -2.35 KCAL/MOL
REMARK 924 INTRA-LIGAND FREE ENERGY PREDICTED BY IDOCK:   -0.12 KCAL/MOL
REMARK 927      BINDING AFFINITY PREDICTED BY RF-SCORE:    0.00 PKD
ROOT
ATOM      1  NZ  LYS A   1      -7.552   5.693  72.075  1.00  0.00    -0.099 NA 
ATOM      2  HZ2 LYS A   1      -7.464   4.792  72.545  1.00  0.00     0.000 HD 
ATOM      3  CE  LYS A   1      -8.432   5.604  70.915  1.00  0.00    -0.125 C  
ATOM      4  HZ1 LYS A   1      -6.639   6.075  71.827  1.00  0.00     0.000 HD 
ENDROOT
BRANCH   3   5
ATOM      5  CD  LYS A   1      -9.803   5.033  71.287  1.00  0.00    -0.246 C  
BRANCH   5   6
ATOM      6  CG  LYS A   1     -10.844   6.132  71.523  1.00  0.00    -0.313 C  
BRANCH   6   7
ATOM      7  CB  LYS A   1     -10.652   7.320  70.579  1.00  0.00    -0.237 C  
BRANCH   7   8
ATOM      8  CA  LYS A   1     -10.833   8.675  71.279  1.00  0.00    -0.260 C  
ATOM      9  N   LYS A   1     -12.217   8.844  71.812  1.00  0.00    -0.335 NA 
ATOM     10  C   LYS A   1     -10.583   9.797  70.259  1.00  0.00    -0.292 C  
ATOM     11  OXT LYS A   1      -9.486  10.190  69.894  1.00  0.00    -0.204 OA 
ATOM     12  O   LYS A   1     -11.758  10.289  69.781  1.00  0.00    -0.240 OA 
ATOM     13  H1  LYS A   1     -12.337   9.744  72.277  1.00  0.00     0.000 HD 
ATOM     14  H2  LYS A   1     -12.475   8.071  72.426  1.00  0.00     0.000 HD 
ENDBRANCH   7   8
ENDBRANCH   6   7
ENDBRANCH   5   6
ENDBRANCH   3   5
TORSDOF 4
ENDMDL
MODEL      248
REMARK 921   NORMALIZED FREE ENERGY PREDICTED BY IDOCK:   -1.60 KCAL/MOL
REMARK 922        TOTAL FREE ENERGY PREDICTED BY IDOCK:   -2.47 KCAL/MOL
REMARK 923 INTER-LIGAND FREE ENERGY PREDICTED BY IDOCK:   -2.35 KCAL/MOL
REMARK 924 INTRA-LIGAND FREE ENERGY PREDICTED BY IDOCK:   -0.12 KCAL/MOL
REMARK 927      BINDING AFFINITY PREDICTED BY RF-SCORE:    0.00 PKD
ROOT
ATOM      1  NZ  LYS A   1      -7.427   5.352  73.014  1.00  0.00    -0.092 NA 
ATOM      2  HZ2 LYS A   1      -7.654   4.633  73.702  1.00  0.00     0.000 HD 
ATOM      3  CE  LYS A   1      -7.565   4.848  71.652  1.00  0.00    -0.095 C  
ATOM      4  HZ1 LYS A   1      -6.499   5.744  73.179  1.00  0.00     0.000 HD 
ENDROOT
BRANCH   3   5
ATOM      5  CD  LYS A   1      -8.956   4.259  71.405  1.00  0.00    -0.163 C  
BRANCH   5   6
ATOM      6  CG  LYS A   1      -9.976   5.331  71.005  1.00  0.00    -0.266 C  
BRANCH   6   7
ATOM      7  CB  LYS A   1      -9.433   6.269  69.926  1.00  0.00    -0.162 C  
BRANCH   7   8
ATOM      8  CA  LYS A   1     -10.515   7.178  69.325  1.00  0.00    -0.211 C  
ATOM      9  N   LYS A   1     -11.890   6.687  69.637  1.00  0.00    -0.646 NA 
ATOM     10  C   LYS A   1     -10.359   7.191  67.796  1.00  0.00    -0.202 C  
ATOM     11  OXT LYS A   1      -9.536   7.846  67.174  1.00  0.00    -0.150 OA 
ATOM     12  O   LYS A   1     -11.248   6.344  67.210  1.00  0.00    -0.364 OA 
ATOM     13  H1  LYS A   1     -12.609   7.290  69.238  1.00  0.00     0.000 HD 
ATOM     14  H2  LYS A   1     -12.021   6.567  70.642  1.00  0.00     0.000 HD 
ENDBRANCH   7   8
ENDBRANCH   6   7
ENDBRANCH   5   6
ENDBRANCH   3   5
TORSDOF 4
ENDMDL
MODEL      249
REMARK 921   NORMALIZED FREE ENERGY PREDICTED BY IDOCK:   -1.59 KCAL/MOL
REMARK 922        TOTAL FREE ENERGY PREDICTED BY IDOCK:   -2.46 KCAL/MOL
REMARK 923 INTER-LIGAND FREE ENERGY PREDICTED BY IDOCK:   -2.26 KCAL/MOL
REMARK 924 INTRA-LIGAND FREE ENERGY PREDICTED BY IDOCK:   -0.21 KCAL/MOL
REMARK 927      BINDING AFFINITY PREDICTED BY RF-SCORE:    0.00 PKD
ROOT
ATOM      1  NZ  LYS A   1      -6.589  15.783  67.116  1.00  0.00    -0.291 NA 
ATOM      2  HZ2 LYS A   1      -6.455  14.905  66.613  1.00  0.00     0.000 HD 
ATOM      3  CE  LYS A   1      -7.374  16.731  66.332  1.00  0.00    -0.226 C  
ATOM      4  HZ1 LYS A   1      -5.697  16.183  67.409  1.00  0.00     0.000 HD 
ENDROOT
BRANCH   3   5
ATOM      5  CD  LYS A   1      -8.712  16.130  65.892  1.00  0.00    -0.126 C  
BRANCH   5   6
ATOM      6  CG  LYS A   1      -9.578  15.710  67.085  1.00  0.00    -0.224 C  
BRANCH   6   7
ATOM      7  CB  LYS A   1     -10.452  16.857  67.593  1.00  0.00    -0.332 C  
BRANCH   7   8
ATOM      8  CA  LYS A   1      -9.916  17.488  68.887  1.00  0.00    -0.313 C  
ATOM      9  N   LYS A   1     -10.912  17.412  69.997  1.00  0.00     0.009 NA 
ATOM     10  C   LYS A   1      -9.616  18.972  68.628  1.00  0.00    -0.403 C  
ATOM     11  OXT LYS A   1      -8.622  19.405  68.065  1.00  0.00    -0.305 OA 
ATOM     12  O   LYS A   1     -10.627  19.760  69.084  1.00  0.00    -0.043 OA 
ATOM     13  H1  LYS A   1     -10.557  17.831  70.856  1.00  0.00     0.000 HD 
ATOM     14  H2  LYS A   1     -11.223  16.453  70.152  1.00  0.00     0.000 HD 
ENDBRANCH   7   8
ENDBRANCH   6   7
ENDBRANCH   5   6
ENDBRANCH   3   5
TORSDOF 4
ENDMDL
MODEL      250
REMARK 921   NORMALIZED FREE ENERGY PREDICTED BY IDOCK:   -1.58 KCAL/MOL
REMARK 922        TOTAL FREE ENERGY PREDICTED BY IDOCK:   -2.45 KCAL/MOL
REMARK 923 INTER-LIGAND FREE ENERGY PREDICTED BY IDOCK:   -2.58 KCAL/MOL
REMARK 924 INTRA-LIGAND FREE ENERGY PREDICTED BY IDOCK:    0.13 KCAL/MOL
REMARK 927      BINDING AFFINITY PREDICTED BY RF-SCORE:    0.00 PKD
ROOT
ATOM      1  NZ  LYS A   1      -8.478   9.975  68.105  1.00  0.00    -0.113 NA 
ATOM      2  HZ2 LYS A   1      -8.022  10.350  68.937  1.00  0.00     0.000 HD 
ATOM      3  CE  LYS A   1      -9.518  10.875  67.617  1.00  0.00    -0.159 C  
ATOM      4  HZ1 LYS A   1      -8.839   9.035  68.271  1.00  0.00     0.000 HD 
ENDROOT
BRANCH   3   5
ATOM      5  CD  LYS A   1      -8.976  12.284  67.369  1.00  0.00    -0.183 C  
BRANCH   5   6
ATOM      6  CG  LYS A   1     -10.085  13.275  66.996  1.00  0.00    -0.242 C  
BRANCH   6   7
ATOM      7  CB  LYS A   1      -9.548  14.468  66.204  1.00  0.00    -0.325 C  
BRANCH   7   8
ATOM      8  CA  LYS A   1     -10.306  15.771  66.501  1.00  0.00    -0.294 C  
ATOM      9  N   LYS A   1      -9.726  16.932  65.764  1.00  0.00    -0.548 NA 
ATOM     10  C   LYS A   1     -10.205  16.072  68.004  1.00  0.00    -0.245 C  
ATOM     11  OXT LYS A   1     -10.874  15.544  68.879  1.00  0.00    -0.232 OA 
ATOM     12  O   LYS A   1      -9.238  16.997  68.251  1.00  0.00    -0.239 OA 
ATOM     13  H1  LYS A   1     -10.229  17.797  65.961  1.00  0.00     0.000 HD 
ATOM     14  H2  LYS A   1      -9.679  16.749  64.761  1.00  0.00     0.000 HD 
ENDBRANCH   7   8
ENDBRANCH   6   7
ENDBRANCH   5   6
ENDBRANCH   3   5
TORSDOF 4
ENDMDL
MODEL      251
REMARK 921   NORMALIZED FREE ENERGY PREDICTED BY IDOCK:   -1.58 KCAL/MOL
REMARK 922        TOTAL FREE ENERGY PREDICTED BY IDOCK:   -2.45 KCAL/MOL
REMARK 923 INTER-LIGAND FREE ENERGY PREDICTED BY IDOCK:   -2.24 KCAL/MOL
REMARK 924 INTRA-LIGAND FREE ENERGY PREDICTED BY IDOCK:   -0.21 KCAL/MOL
REMARK 927      BINDING AFFINITY PREDICTED BY RF-SCORE:    0.00 PKD
ROOT
ATOM      1  NZ  LYS A   1      -7.935  13.595  68.430  1.00  0.00    -0.144 NA 
ATOM      2  HZ2 LYS A   1      -8.272  13.860  69.355  1.00  0.00     0.000 HD 
ATOM      3  CE  LYS A   1      -8.564  12.363  67.966  1.00  0.00    -0.180 C  
ATOM      4  HZ1 LYS A   1      -6.917  13.529  68.409  1.00  0.00     0.000 HD 
ENDROOT
BRANCH   3   5
ATOM      5  CD  LYS A   1     -10.092  12.462  67.996  1.00  0.00    -0.214 C  
BRANCH   5   6
ATOM      6  CG  LYS A   1     -10.617  12.893  69.370  1.00  0.00     0.240 C  
BRANCH   6   7
ATOM      7  CB  LYS A   1     -11.982  13.576  69.276  1.00  0.00    -0.378 C  
BRANCH   7   8
ATOM      8  CA  LYS A   1     -11.886  15.109  69.303  1.00  0.00    -0.320 C  
ATOM      9  N   LYS A   1     -11.482  15.664  67.978  1.00  0.00    -0.328 NA 
ATOM     10  C   LYS A   1     -10.817  15.520  70.328  1.00  0.00    -0.339 C  
ATOM     11  OXT LYS A   1     -10.976  15.559  71.539  1.00  0.00    -0.310 OA 
ATOM     12  O   LYS A   1      -9.640  15.812  69.712  1.00  0.00    -0.265 OA 
ATOM     13  H1  LYS A   1     -11.418  16.682  67.996  1.00  0.00     0.000 HD 
ATOM     14  H2  LYS A   1     -12.106  15.344  67.236  1.00  0.00     0.000 HD 
ENDBRANCH   7   8
ENDBRANCH   6   7
ENDBRANCH   5   6
ENDBRANCH   3   5
TORSDOF 4
ENDMDL
MODEL      252
REMARK 921   NORMALIZED FREE ENERGY PREDICTED BY IDOCK:   -1.57 KCAL/MOL
REMARK 922        TOTAL FREE ENERGY PREDICTED BY IDOCK:   -2.44 KCAL/MOL
REMARK 923 INTER-LIGAND FREE ENERGY PREDICTED BY IDOCK:   -2.65 KCAL/MOL
REMARK 924 INTRA-LIGAND FREE ENERGY PREDICTED BY IDOCK:    0.22 KCAL/MOL
REMARK 927      BINDING AFFINITY PREDICTED BY RF-SCORE:    0.00 PKD
ROOT
ATOM      1  NZ  LYS A   1     -11.616   6.389  68.792  1.00  0.00    -0.463 NA 
ATOM      2  HZ2 LYS A   1     -11.336   5.555  68.275  1.00  0.00     0.000 HD 
ATOM      3  CE  LYS A   1     -10.459   7.192  69.175  1.00  0.00    -0.211 C  
ATOM      4  HZ1 LYS A   1     -12.194   6.151  69.598  1.00  0.00     0.000 HD 
ENDROOT
BRANCH   3   5
ATOM      5  CD  LYS A   1      -9.593   7.549  67.965  1.00  0.00    -0.156 C  
BRANCH   5   6
ATOM      6  CG  LYS A   1     -10.070   8.828  67.268  1.00  0.00    -0.301 C  
BRANCH   6   7
ATOM      7  CB  LYS A   1      -8.945   9.853  67.114  1.00  0.00    -0.150 C  
BRANCH   7   8
ATOM      8  CA  LYS A   1      -9.210  11.151  67.893  1.00  0.00    -0.154 C  
ATOM      9  N   LYS A   1      -8.211  11.359  68.982  1.00  0.00    -0.356 NA 
ATOM     10  C   LYS A   1     -10.600  11.065  68.542  1.00  0.00    -0.190 C  
ATOM     11  OXT LYS A   1     -11.662  11.253  67.968  1.00  0.00    -0.501 OA 
ATOM     12  O   LYS A   1     -10.503  10.718  69.854  1.00  0.00    -0.170 OA 
ATOM     13  H1  LYS A   1      -8.386  12.220  69.499  1.00  0.00     0.000 HD 
ATOM     14  H2  LYS A   1      -7.257  11.330  68.621  1.00  0.00     0.000 HD 
ENDBRANCH   7   8
ENDBRANCH   6   7
ENDBRANCH   5   6
ENDBRANCH   3   5
TORSDOF 4
ENDMDL
MODEL      253
REMARK 921   NORMALIZED FREE ENERGY PREDICTED BY IDOCK:   -1.56 KCAL/MOL
REMARK 922        TOTAL FREE ENERGY PREDICTED BY IDOCK:   -2.43 KCAL/MOL
REMARK 923 INTER-LIGAND FREE ENERGY PREDICTED BY IDOCK:   -2.30 KCAL/MOL
REMARK 924 INTRA-LIGAND FREE ENERGY PREDICTED BY IDOCK:   -0.13 KCAL/MOL
REMARK 927      BINDING AFFINITY PREDICTED BY RF-SCORE:    0.00 PKD
ROOT
ATOM      1  NZ  LYS A   1      -6.792  11.811  69.807  1.00  0.00    -0.348 NA 
ATOM      2  HZ2 LYS A   1      -6.169  11.054  69.525  1.00  0.00     0.000 HD 
ATOM      3  CE  LYS A   1      -6.436  13.066  69.152  1.00  0.00    -0.108 C  
ATOM      4  HZ1 LYS A   1      -6.821  11.911  70.822  1.00  0.00     0.000 HD 
ENDROOT
BRANCH   3   5
ATOM      5  CD  LYS A   1      -6.392  12.916  67.629  1.00  0.00    -0.158 C  
BRANCH   5   6
ATOM      6  CG  LYS A   1      -7.682  12.305  67.070  1.00  0.00    -0.089 C  
BRANCH   6   7
ATOM      7  CB  LYS A   1      -8.803  13.338  66.947  1.00  0.00    -0.186 C  
BRANCH   7   8
ATOM      8  CA  LYS A   1     -10.165  12.705  66.623  1.00  0.00    -0.236 C  
ATOM      9  N   LYS A   1     -10.084  11.216  66.559  1.00  0.00    -0.216 NA 
ATOM     10  C   LYS A   1     -10.630  13.209  65.248  1.00  0.00    -0.313 C  
ATOM     11  OXT LYS A   1     -11.140  14.296  65.028  1.00  0.00    -0.335 OA 
ATOM     12  O   LYS A   1     -10.372  12.288  64.280  1.00  0.00    -0.309 OA 
ATOM     13  H1  LYS A   1     -10.988  10.796  66.344  1.00  0.00     0.000 HD 
ATOM     14  H2  LYS A   1      -9.689  10.828  67.417  1.00  0.00     0.000 HD 
ENDBRANCH   7   8
ENDBRANCH   6   7
ENDBRANCH   5   6
ENDBRANCH   3   5
TORSDOF 4
ENDMDL
MODEL      254
REMARK 921   NORMALIZED FREE ENERGY PREDICTED BY IDOCK:   -1.55 KCAL/MOL
REMARK 922        TOTAL FREE ENERGY PREDICTED BY IDOCK:   -2.42 KCAL/MOL
REMARK 923 INTER-LIGAND FREE ENERGY PREDICTED BY IDOCK:   -2.25 KCAL/MOL
REMARK 924 INTRA-LIGAND FREE ENERGY PREDICTED BY IDOCK:   -0.17 KCAL/MOL
REMARK 927      BINDING AFFINITY PREDICTED BY RF-SCORE:    0.00 PKD
ROOT
ATOM      1  NZ  LYS A   1      -8.897   3.174  72.391  1.00  0.00    -0.082 NA 
ATOM      2  HZ2 LYS A   1      -8.385   3.671  73.120  1.00  0.00     0.000 HD 
ATOM      3  CE  LYS A   1     -10.126   3.874  72.031  1.00  0.00    -0.149 C  
ATOM      4  HZ1 LYS A   1      -9.079   2.206  72.659  1.00  0.00     0.000 HD 
ENDROOT
BRANCH   3   5
ATOM      5  CD  LYS A   1      -9.853   5.325  71.629  1.00  0.00    -0.223 C  
BRANCH   5   6
ATOM      6  CG  LYS A   1     -10.429   5.662  70.249  1.00  0.00    -0.363 C  
BRANCH   6   7
ATOM      7  CB  LYS A   1      -9.874   4.750  69.155  1.00  0.00    -0.254 C  
BRANCH   7   8
ATOM      8  CA  LYS A   1      -9.280   5.529  67.972  1.00  0.00    -0.108 C  
ATOM      9  N   LYS A   1      -8.838   6.897  68.374  1.00  0.00    -0.124 NA 
ATOM     10  C   LYS A   1     -10.359   5.685  66.889  1.00  0.00    -0.259 C  
ATOM     11  OXT LYS A   1     -10.689   4.823  66.089  1.00  0.00    -0.308 OA 
ATOM     12  O   LYS A   1     -10.936   6.916  66.951  1.00  0.00    -0.377 OA 
ATOM     13  H1  LYS A   1      -8.444   7.415  67.589  1.00  0.00     0.000 HD 
ATOM     14  H2  LYS A   1      -8.187   6.861  69.159  1.00  0.00     0.000 HD 
ENDBRANCH   7   8
ENDBRANCH   6   7
ENDBRANCH   5   6
ENDBRANCH   3   5
TORSDOF 4
ENDMDL
MODEL      255
REMARK 921   NORMALIZED FREE ENERGY PREDICTED BY IDOCK:   -1.55 KCAL/MOL
REMARK 922        TOTAL FREE ENERGY PREDICTED BY IDOCK:   -2.41 KCAL/MOL
REMARK 923 INTER-LIGAND FREE ENERGY PREDICTED BY IDOCK:   -1.90 KCAL/MOL
REMARK 924 INTRA-LIGAND FREE ENERGY PREDICTED BY IDOCK:   -0.50 KCAL/MOL
REMARK 927      BINDING AFFINITY PREDICTED BY RF-SCORE:    0.00 PKD
ROOT
ATOM      1  NZ  LYS A   1      -6.916   8.504  68.097  1.00  0.00    -0.073 NA 
ATOM      2  HZ2 LYS A   1      -7.693   8.142  68.650  1.00  0.00     0.000 HD 
ATOM      3  CE  LYS A   1      -7.219   8.472  66.670  1.00  0.00    -0.074 C  
ATOM      4  HZ1 LYS A   1      -6.047   8.012  68.309  1.00  0.00     0.000 HD 
ENDROOT
BRANCH   3   5
ATOM      5  CD  LYS A   1      -8.522   9.210  66.352  1.00  0.00    -0.129 C  
BRANCH   5   6
ATOM      6  CG  LYS A   1      -9.759   8.356  66.650  1.00  0.00    -0.320 C  
BRANCH   6   7
ATOM      7  CB  LYS A   1     -10.689   9.024  67.665  1.00  0.00    -0.232 C  
BRANCH   7   8
ATOM      8  CA  LYS A   1     -10.518   8.469  69.087  1.00  0.00    -0.205 C  
ATOM      9  N   LYS A   1      -9.271   8.973  69.734  1.00  0.00    -0.160 NA 
ATOM     10  C   LYS A   1     -10.422   6.938  69.013  1.00  0.00    -0.208 C  
ATOM     11  OXT LYS A   1     -11.367   6.174  68.884  1.00  0.00    -0.367 OA 
ATOM     12  O   LYS A   1      -9.126   6.528  69.080  1.00  0.00    -0.136 OA 
ATOM     13  H1  LYS A   1      -9.157   8.605  70.678  1.00  0.00     0.000 HD 
ATOM     14  H2  LYS A   1      -9.234   9.993  69.726  1.00  0.00     0.000 HD 
ENDBRANCH   7   8
ENDBRANCH   6   7
ENDBRANCH   5   6
ENDBRANCH   3   5
TORSDOF 4
ENDMDL
MODEL      256
REMARK 921   NORMALIZED FREE ENERGY PREDICTED BY IDOCK:   -1.54 KCAL/MOL
REMARK 922        TOTAL FREE ENERGY PREDICTED BY IDOCK:   -2.39 KCAL/MOL
REMARK 923 INTER-LIGAND FREE ENERGY PREDICTED BY IDOCK:   -2.07 KCAL/MOL
REMARK 924 INTRA-LIGAND FREE ENERGY PREDICTED BY IDOCK:   -0.33 KCAL/MOL
REMARK 927      BINDING AFFINITY PREDICTED BY RF-SCORE:    0.00 PKD
ROOT
ATOM      1  NZ  LYS A   1     -12.146  11.658  67.410  1.00  0.00    -0.485 NA 
ATOM      2  HZ2 LYS A   1     -11.584  10.878  67.752  1.00  0.00     0.000 HD 
ATOM      3  CE  LYS A   1     -11.521  12.299  66.258  1.00  0.00    -0.380 C  
ATOM      4  HZ1 LYS A   1     -12.343  12.328  68.154  1.00  0.00     0.000 HD 
ENDROOT
BRANCH   3   5
ATOM      5  CD  LYS A   1     -11.225  11.294  65.143  1.00  0.00    -0.071 C  
BRANCH   5   6
ATOM      6  CG  LYS A   1      -9.759  11.339  64.695  1.00  0.00    -0.294 C  
BRANCH   6   7
ATOM      7  CB  LYS A   1      -8.799  11.450  65.881  1.00  0.00    -0.149 C  
BRANCH   7   8
ATOM      8  CA  LYS A   1      -8.161  10.106  66.261  1.00  0.00    -0.124 C  
ATOM      9  N   LYS A   1      -8.123   9.162  65.104  1.00  0.00    -0.124 NA 
ATOM     10  C   LYS A   1      -9.001   9.454  67.369  1.00  0.00    -0.124 C  
ATOM     11  OXT LYS A   1      -8.962   9.749  68.554  1.00  0.00    -0.122 OA 
ATOM     12  O   LYS A   1      -9.834   8.508  66.856  1.00  0.00    -0.195 OA 
ATOM     13  H1  LYS A   1      -7.699   8.269  65.356  1.00  0.00     0.000 HD 
ATOM     14  H2  LYS A   1      -7.656   9.581  64.299  1.00  0.00     0.000 HD 
ENDBRANCH   7   8
ENDBRANCH   6   7
ENDBRANCH   5   6
ENDBRANCH   3   5
TORSDOF 4
ENDMDL
MODEL      257
REMARK 921   NORMALIZED FREE ENERGY PREDICTED BY IDOCK:   -1.53 KCAL/MOL
REMARK 922        TOTAL FREE ENERGY PREDICTED BY IDOCK:   -2.38 KCAL/MOL
REMARK 923 INTER-LIGAND FREE ENERGY PREDICTED BY IDOCK:   -2.59 KCAL/MOL
REMARK 924 INTRA-LIGAND FREE ENERGY PREDICTED BY IDOCK:    0.21 KCAL/MOL
REMARK 927      BINDING AFFINITY PREDICTED BY RF-SCORE:    0.00 PKD
ROOT
ATOM      1  NZ  LYS A   1      -8.399   9.941  68.226  1.00  0.00    -0.109 NA 
ATOM      2  HZ2 LYS A   1      -7.947   9.959  69.140  1.00  0.00     0.000 HD 
ATOM      3  CE  LYS A   1      -9.017  11.225  67.912  1.00  0.00    -0.146 C  
ATOM      4  HZ1 LYS A   1      -9.067   9.174  68.156  1.00  0.00     0.000 HD 
ENDROOT
BRANCH   3   5
ATOM      5  CD  LYS A   1      -8.013  12.377  68.016  1.00  0.00    -0.155 C  
BRANCH   5   6
ATOM      6  CG  LYS A   1      -8.636  13.724  67.636  1.00  0.00    -0.187 C  
BRANCH   6   7
ATOM      7  CB  LYS A   1      -9.992  13.942  68.309  1.00  0.00    -0.238 C  
BRANCH   7   8
ATOM      8  CA  LYS A   1     -11.039  14.546  67.360  1.00  0.00    -0.314 C  
ATOM      9  N   LYS A   1     -12.428  14.162  67.750  1.00  0.00    -0.476 NA 
ATOM     10  C   LYS A   1     -10.787  14.014  65.941  1.00  0.00    -0.288 C  
ATOM     11  OXT LYS A   1      -9.930  14.424  65.173  1.00  0.00    -0.354 OA 
ATOM     12  O   LYS A   1     -11.633  12.989  65.648  1.00  0.00    -0.325 OA 
ATOM     13  H1  LYS A   1     -13.123  14.562  67.121  1.00  0.00     0.000 HD 
ATOM     14  H2  LYS A   1     -12.622  14.407  68.722  1.00  0.00     0.000 HD 
ENDBRANCH   7   8
ENDBRANCH   6   7
ENDBRANCH   5   6
ENDBRANCH   3   5
TORSDOF 4
ENDMDL
MODEL      258
REMARK 921   NORMALIZED FREE ENERGY PREDICTED BY IDOCK:   -1.50 KCAL/MOL
REMARK 922        TOTAL FREE ENERGY PREDICTED BY IDOCK:   -2.35 KCAL/MOL
REMARK 923 INTER-LIGAND FREE ENERGY PREDICTED BY IDOCK:   -2.56 KCAL/MOL
REMARK 924 INTRA-LIGAND FREE ENERGY PREDICTED BY IDOCK:    0.22 KCAL/MOL
REMARK 927      BINDING AFFINITY PREDICTED BY RF-SCORE:    0.00 PKD
ROOT
ATOM      1  NZ  LYS A   1     -11.784   6.472  69.456  1.00  0.00    -0.645 NA 
ATOM      2  HZ2 LYS A   1     -11.796   6.008  70.365  1.00  0.00     0.000 HD 
ATOM      3  CE  LYS A   1     -10.701   7.446  69.369  1.00  0.00    -0.211 C  
ATOM      4  HZ1 LYS A   1     -12.689   6.893  69.242  1.00  0.00     0.000 HD 
ENDROOT
BRANCH   3   5
ATOM      5  CD  LYS A   1      -9.345   6.814  69.691  1.00  0.00    -0.144 C  
BRANCH   5   6
ATOM      6  CG  LYS A   1      -8.540   6.496  68.426  1.00  0.00    -0.119 C  
BRANCH   6   7
ATOM      7  CB  LYS A   1      -9.326   6.803  67.151  1.00  0.00    -0.154 C  
BRANCH   7   8
ATOM      8  CA  LYS A   1      -9.547   5.563  66.272  1.00  0.00    -0.156 C  
ATOM      9  N   LYS A   1     -10.997   5.241  66.121  1.00  0.00    -0.756 NA 
ATOM     10  C   LYS A   1      -8.867   4.356  66.937  1.00  0.00    -0.114 C  
ATOM     11  OXT LYS A   1      -7.672   4.107  66.898  1.00  0.00    -0.090 OA 
ATOM     12  O   LYS A   1      -9.772   3.599  67.614  1.00  0.00    -0.176 OA 
ATOM     13  H1  LYS A   1     -11.145   4.417  65.538  1.00  0.00     0.000 HD 
ATOM     14  H2  LYS A   1     -11.521   6.043  65.770  1.00  0.00     0.000 HD 
ENDBRANCH   7   8
ENDBRANCH   6   7
ENDBRANCH   5   6
ENDBRANCH   3   5
TORSDOF 4
ENDMDL
MODEL      259
REMARK 921   NORMALIZED FREE ENERGY PREDICTED BY IDOCK:   -1.49 KCAL/MOL
REMARK 922        TOTAL FREE ENERGY PREDICTED BY IDOCK:   -2.34 KCAL/MOL
REMARK 923 INTER-LIGAND FREE ENERGY PREDICTED BY IDOCK:   -2.26 KCAL/MOL
REMARK 924 INTRA-LIGAND FREE ENERGY PREDICTED BY IDOCK:   -0.08 KCAL/MOL
REMARK 927      BINDING AFFINITY PREDICTED BY RF-SCORE:    0.00 PKD
ROOT
ATOM      1  NZ  LYS A   1     -12.268  10.766  68.356  1.00  0.00    -0.809 NA 
ATOM      2  HZ2 LYS A   1     -12.770   9.964  68.738  1.00  0.00     0.000 HD 
ATOM      3  CE  LYS A   1     -10.824  10.605  68.494  1.00  0.00    -0.233 C  
ATOM      4  HZ1 LYS A   1     -12.591  11.640  68.771  1.00  0.00     0.000 HD 
ENDROOT
BRANCH   3   5
ATOM      5  CD  LYS A   1     -10.339   9.294  67.871  1.00  0.00    -0.279 C  
BRANCH   5   6
ATOM      6  CG  LYS A   1     -10.477   8.108  68.832  1.00  0.00    -0.202 C  
BRANCH   6   7
ATOM      7  CB  LYS A   1      -9.436   8.151  69.951  1.00  0.00    -0.160 C  
BRANCH   7   8
ATOM      8  CA  LYS A   1      -9.011   6.752  70.424  1.00  0.00    -0.152 C  
ATOM      9  N   LYS A   1     -10.043   6.124  71.301  1.00  0.00    -0.185 NA 
ATOM     10  C   LYS A   1      -7.716   6.878  71.242  1.00  0.00    -0.092 C  
ATOM     11  OXT LYS A   1      -6.594   7.005  70.777  1.00  0.00    -0.050 OA 
ATOM     12  O   LYS A   1      -7.980   6.860  72.577  1.00  0.00    -0.099 OA 
ATOM     13  H1  LYS A   1      -9.761   5.196  71.615  1.00  0.00     0.000 HD 
ATOM     14  H2  LYS A   1     -10.954   6.101  70.842  1.00  0.00     0.000 HD 
ENDBRANCH   7   8
ENDBRANCH   6   7
ENDBRANCH   5   6
ENDBRANCH   3   5
TORSDOF 4
ENDMDL
MODEL      260
REMARK 921   NORMALIZED FREE ENERGY PREDICTED BY IDOCK:   -1.46 KCAL/MOL
REMARK 922        TOTAL FREE ENERGY PREDICTED BY IDOCK:   -2.30 KCAL/MOL
REMARK 923 INTER-LIGAND FREE ENERGY PREDICTED BY IDOCK:   -2.20 KCAL/MOL
REMARK 924 INTRA-LIGAND FREE ENERGY PREDICTED BY IDOCK:   -0.11 KCAL/MOL
REMARK 927      BINDING AFFINITY PREDICTED BY RF-SCORE:    0.00 PKD
ROOT
ATOM      1  NZ  LYS A   1     -12.460   9.200  70.525  1.00  0.00    -0.466 NA 
ATOM      2  HZ2 LYS A   1     -12.694   8.215  70.651  1.00  0.00     0.000 HD 
ATOM      3  CE  LYS A   1     -11.467   9.640  71.499  1.00  0.00    -0.369 C  
ATOM      4  HZ1 LYS A   1     -13.295   9.786  70.546  1.00  0.00     0.000 HD 
ENDROOT
BRANCH   3   5
ATOM      5  CD  LYS A   1     -10.214   8.761  71.467  1.00  0.00    -0.371 C  
BRANCH   5   6
ATOM      6  CG  LYS A   1     -10.339   7.612  70.460  1.00  0.00    -0.211 C  
BRANCH   6   7
ATOM      7  CB  LYS A   1      -9.046   7.396  69.671  1.00  0.00    -0.140 C  
BRANCH   7   8
ATOM      8  CA  LYS A   1      -9.144   6.233  68.672  1.00  0.00    -0.126 C  
ATOM      9  N   LYS A   1      -8.063   5.226  68.884  1.00  0.00    -0.086 NA 
ATOM     10  C   LYS A   1      -8.994   6.789  67.248  1.00  0.00    -0.117 C  
ATOM     11  OXT LYS A   1      -9.874   7.345  66.609  1.00  0.00    -0.209 OA 
ATOM     12  O   LYS A   1      -7.727   6.610  66.787  1.00  0.00    -0.102 OA 
ATOM     13  H1  LYS A   1      -8.128   4.454  68.220  1.00  0.00     0.000 HD 
ATOM     14  H2  LYS A   1      -8.053   4.888  69.847  1.00  0.00     0.000 HD 
ENDBRANCH   7   8
ENDBRANCH   6   7
ENDBRANCH   5   6
ENDBRANCH   3   5
TORSDOF 4
ENDMDL
MODEL      261
REMARK 921   NORMALIZED FREE ENERGY PREDICTED BY IDOCK:   -1.44 KCAL/MOL
REMARK 922        TOTAL FREE ENERGY PREDICTED BY IDOCK:   -2.28 KCAL/MOL
REMARK 923 INTER-LIGAND FREE ENERGY PREDICTED BY IDOCK:   -2.16 KCAL/MOL
REMARK 924 INTRA-LIGAND FREE ENERGY PREDICTED BY IDOCK:   -0.12 KCAL/MOL
REMARK 927      BINDING AFFINITY PREDICTED BY RF-SCORE:    0.00 PKD
ROOT
ATOM      1  NZ  LYS A   1     -12.354   8.357  70.753  1.00  0.00    -0.495 NA 
ATOM      2  HZ2 LYS A   1     -12.500   7.390  71.043  1.00  0.00     0.000 HD 
ATOM      3  CE  LYS A   1     -11.628   9.113  71.768  1.00  0.00    -0.387 C  
ATOM      4  HZ1 LYS A   1     -13.235   8.808  70.505  1.00  0.00     0.000 HD 
ENDROOT
BRANCH   3   5
ATOM      5  CD  LYS A   1     -10.307   8.436  72.140  1.00  0.00    -0.397 C  
BRANCH   5   6
ATOM      6  CG  LYS A   1     -10.155   7.060  71.482  1.00  0.00    -0.197 C  
BRANCH   6   7
ATOM      7  CB  LYS A   1      -9.663   6.001  72.470  1.00  0.00    -0.169 C  
BRANCH   7   8
ATOM      8  CA  LYS A   1      -9.639   4.588  71.868  1.00  0.00    -0.153 C  
ATOM      9  N   LYS A   1     -10.271   3.586  72.777  1.00  0.00    -0.163 NA 
ATOM     10  C   LYS A   1      -8.178   4.166  71.650  1.00  0.00    -0.090 C  
ATOM     11  OXT LYS A   1      -7.471   4.519  70.719  1.00  0.00    -0.050 OA 
ATOM     12  O   LYS A   1      -7.750   3.359  72.657  1.00  0.00    -0.063 OA 
ATOM     13  H1  LYS A   1     -10.256   2.648  72.377  1.00  0.00     0.000 HD 
ATOM     14  H2  LYS A   1     -11.219   3.865  73.034  1.00  0.00     0.000 HD 
ENDBRANCH   7   8
ENDBRANCH   6   7
ENDBRANCH   5   6
ENDBRANCH   3   5
TORSDOF 4
ENDMDL
MODEL      262
REMARK 921   NORMALIZED FREE ENERGY PREDICTED BY IDOCK:   -1.44 KCAL/MOL
REMARK 922        TOTAL FREE ENERGY PREDICTED BY IDOCK:   -2.28 KCAL/MOL
REMARK 923 INTER-LIGAND FREE ENERGY PREDICTED BY IDOCK:   -2.18 KCAL/MOL
REMARK 924 INTRA-LIGAND FREE ENERGY PREDICTED BY IDOCK:   -0.10 KCAL/MOL
REMARK 927      BINDING AFFINITY PREDICTED BY RF-SCORE:    0.00 PKD
ROOT
ATOM      1  NZ  LYS A   1      -6.957   3.474  71.829  1.00  0.00    -0.030 NA 
ATOM      2  HZ2 LYS A   1      -7.217   4.124  72.570  1.00  0.00     0.000 HD 
ATOM      3  CE  LYS A   1      -8.059   3.261  70.896  1.00  0.00    -0.054 C  
ATOM      4  HZ1 LYS A   1      -6.611   2.593  72.211  1.00  0.00     0.000 HD 
ENDROOT
BRANCH   3   5
ATOM      5  CD  LYS A   1      -8.578   4.582  70.323  1.00  0.00    -0.104 C  
BRANCH   5   6
ATOM      6  CG  LYS A   1      -8.706   5.669  71.396  1.00  0.00    -0.133 C  
BRANCH   6   7
ATOM      7  CB  LYS A   1      -9.162   7.006  70.809  1.00  0.00    -0.157 C  
BRANCH   7   8
ATOM      8  CA  LYS A   1     -10.673   7.238  70.956  1.00  0.00    -0.231 C  
ATOM      9  N   LYS A   1     -11.215   8.087  69.853  1.00  0.00    -0.448 NA 
ATOM     10  C   LYS A   1     -10.936   7.968  72.282  1.00  0.00    -0.314 C  
ATOM     11  OXT LYS A   1     -10.961   7.445  73.385  1.00  0.00    -0.378 OA 
ATOM     12  O   LYS A   1     -11.112   9.302  72.076  1.00  0.00    -0.331 OA 
ATOM     13  H1  LYS A   1     -12.218   8.241  69.951  1.00  0.00     0.000 HD 
ATOM     14  H2  LYS A   1     -10.986   7.698  68.938  1.00  0.00     0.000 HD 
ENDBRANCH   7   8
ENDBRANCH   6   7
ENDBRANCH   5   6
ENDBRANCH   3   5
TORSDOF 4
ENDMDL
MODEL      263
REMARK 921   NORMALIZED FREE ENERGY PREDICTED BY IDOCK:   -1.44 KCAL/MOL
REMARK 922        TOTAL FREE ENERGY PREDICTED BY IDOCK:   -2.28 KCAL/MOL
REMARK 923 INTER-LIGAND FREE ENERGY PREDICTED BY IDOCK:   -2.15 KCAL/MOL
REMARK 924 INTRA-LIGAND FREE ENERGY PREDICTED BY IDOCK:   -0.12 KCAL/MOL
REMARK 927      BINDING AFFINITY PREDICTED BY RF-SCORE:    0.00 PKD
ROOT
ATOM      1  NZ  LYS A   1      -5.622   9.505  69.579  1.00  0.00    -0.034 NA 
ATOM      2  HZ2 LYS A   1      -4.958   8.763  69.357  1.00  0.00     0.000 HD 
ATOM      3  CE  LYS A   1      -6.195  10.085  68.368  1.00  0.00    -0.049 C  
ATOM      4  HZ1 LYS A   1      -5.199  10.217  70.175  1.00  0.00     0.000 HD 
ENDROOT
BRANCH   3   5
ATOM      5  CD  LYS A   1      -6.830   9.017  67.475  1.00  0.00    -0.077 C  
BRANCH   5   6
ATOM      6  CG  LYS A   1      -8.307   8.783  67.811  1.00  0.00    -0.118 C  
BRANCH   6   7
ATOM      7  CB  LYS A   1      -9.126  10.072  67.733  1.00  0.00    -0.137 C  
BRANCH   7   8
ATOM      8  CA  LYS A   1     -10.282   9.985  66.726  1.00  0.00    -0.232 C  
ATOM      9  N   LYS A   1      -9.797   9.672  65.349  1.00  0.00    -0.397 NA 
ATOM     10  C   LYS A   1     -10.996  11.345  66.673  1.00  0.00    -0.285 C  
ATOM     11  OXT LYS A   1     -11.808  11.750  67.490  1.00  0.00    -0.577 OA 
ATOM     12  O   LYS A   1     -10.584  12.069  65.597  1.00  0.00    -0.248 OA 
ATOM     13  H1  LYS A   1     -10.564   9.615  64.680  1.00  0.00     0.000 HD 
ATOM     14  H2  LYS A   1      -9.231   8.823  65.339  1.00  0.00     0.000 HD 
ENDBRANCH   7   8
ENDBRANCH   6   7
ENDBRANCH   5   6
ENDBRANCH   3   5
TORSDOF 4
ENDMDL
MODEL      264
REMARK 921   NORMALIZED FREE ENERGY PREDICTED BY IDOCK:   -1.44 KCAL/MOL
REMARK 922        TOTAL FREE ENERGY PREDICTED BY IDOCK:   -2.27 KCAL/MOL
REMARK 923 INTER-LIGAND FREE ENERGY PREDICTED BY IDOCK:   -2.21 KCAL/MOL
REMARK 924 INTRA-LIGAND FREE ENERGY PREDICTED BY IDOCK:   -0.06 KCAL/MOL
REMARK 927      BINDING AFFINITY PREDICTED BY RF-SCORE:    0.00 PKD
ROOT
ATOM      1  NZ  LYS A   1     -11.595   7.023  70.201  1.00  0.00    -0.511 NA 
ATOM      2  HZ2 LYS A   1     -11.430   6.239  70.832  1.00  0.00     0.000 HD 
ATOM      3  CE  LYS A   1     -12.028   8.211  70.930  1.00  0.00    -0.183 C  
ATOM      4  HZ1 LYS A   1     -12.253   6.774  69.462  1.00  0.00     0.000 HD 
ENDROOT
BRANCH   3   5
ATOM      5  CD  LYS A   1     -11.040   8.585  72.039  1.00  0.00    -0.412 C  
BRANCH   5   6
ATOM      6  CG  LYS A   1     -10.016   7.475  72.301  1.00  0.00    -0.226 C  
BRANCH   6   7
ATOM      7  CB  LYS A   1      -9.788   7.244  73.796  1.00  0.00    -0.358 C  
BRANCH   7   8
ATOM      8  CA  LYS A   1      -8.556   6.373  74.084  1.00  0.00    -0.124 C  
ATOM      9  N   LYS A   1      -7.383   6.777  73.253  1.00  0.00    -0.079 NA 
ATOM     10  C   LYS A   1      -8.891   4.912  73.743  1.00  0.00    -0.108 C  
ATOM     11  OXT LYS A   1      -9.532   4.149  74.449  1.00  0.00    -0.105 OA 
ATOM     12  O   LYS A   1      -8.401   4.574  72.519  1.00  0.00    -0.107 OA 
ATOM     13  H1  LYS A   1      -6.566   6.198  73.444  1.00  0.00     0.000 HD 
ATOM     14  H2  LYS A   1      -7.172   7.768  73.367  1.00  0.00     0.000 HD 
ENDBRANCH   7   8
ENDBRANCH   6   7
ENDBRANCH   5   6
ENDBRANCH   3   5
TORSDOF 4
ENDMDL
MODEL      265
REMARK 921   NORMALIZED FREE ENERGY PREDICTED BY IDOCK:   -1.43 KCAL/MOL
REMARK 922        TOTAL FREE ENERGY PREDICTED BY IDOCK:   -2.27 KCAL/MOL
REMARK 923 INTER-LIGAND FREE ENERGY PREDICTED BY IDOCK:   -2.14 KCAL/MOL
REMARK 924 INTRA-LIGAND FREE ENERGY PREDICTED BY IDOCK:   -0.13 KCAL/MOL
REMARK 927      BINDING AFFINITY PREDICTED BY RF-SCORE:    0.00 PKD
ROOT
ATOM      1  NZ  LYS A   1     -11.297   6.944  66.842  1.00  0.00    -0.713 NA 
ATOM      2  HZ2 LYS A   1     -11.654   6.845  67.792  1.00  0.00     0.000 HD 
ATOM      3  CE  LYS A   1     -10.328   8.032  66.748  1.00  0.00    -0.290 C  
ATOM      4  HZ1 LYS A   1     -12.056   7.056  66.169  1.00  0.00     0.000 HD 
ENDROOT
BRANCH   3   5
ATOM      5  CD  LYS A   1      -9.190   7.863  67.758  1.00  0.00    -0.144 C  
BRANCH   5   6
ATOM      6  CG  LYS A   1      -8.252   6.709  67.386  1.00  0.00    -0.121 C  
BRANCH   6   7
ATOM      7  CB  LYS A   1      -8.098   5.703  68.527  1.00  0.00    -0.103 C  
BRANCH   7   8
ATOM      8  CA  LYS A   1      -9.436   5.089  68.967  1.00  0.00    -0.137 C  
ATOM      9  N   LYS A   1      -9.684   5.283  70.426  1.00  0.00    -0.180 NA 
ATOM     10  C   LYS A   1      -9.401   3.577  68.694  1.00  0.00    -0.166 C  
ATOM     11  OXT LYS A   1      -9.575   3.050  67.607  1.00  0.00    -0.190 OA 
ATOM     12  O   LYS A   1      -9.117   2.885  69.831  1.00  0.00    -0.095 OA 
ATOM     13  H1  LYS A   1     -10.571   4.875  70.718  1.00  0.00     0.000 HD 
ATOM     14  H2  LYS A   1      -9.624   6.268  70.685  1.00  0.00     0.000 HD 
ENDBRANCH   7   8
ENDBRANCH   6   7
ENDBRANCH   5   6
ENDBRANCH   3   5
TORSDOF 4
ENDMDL
MODEL      266
REMARK 921   NORMALIZED FREE ENERGY PREDICTED BY IDOCK:   -1.43 KCAL/MOL
REMARK 922        TOTAL FREE ENERGY PREDICTED BY IDOCK:   -2.27 KCAL/MOL
REMARK 923 INTER-LIGAND FREE ENERGY PREDICTED BY IDOCK:   -2.11 KCAL/MOL
REMARK 924 INTRA-LIGAND FREE ENERGY PREDICTED BY IDOCK:   -0.16 KCAL/MOL
REMARK 927      BINDING AFFINITY PREDICTED BY RF-SCORE:    0.00 PKD
ROOT
ATOM      1  NZ  LYS A   1      -8.097   2.284  70.117  1.00  0.00    -0.041 NA 
ATOM      2  HZ2 LYS A   1      -8.230   1.639  69.338  1.00  0.00     0.000 HD 
ATOM      3  CE  LYS A   1      -8.169   3.674  69.677  1.00  0.00    -0.052 C  
ATOM      4  HZ1 LYS A   1      -7.227   2.090  70.615  1.00  0.00     0.000 HD 
ENDROOT
BRANCH   3   5
ATOM      5  CD  LYS A   1      -9.473   3.964  68.931  1.00  0.00    -0.234 C  
BRANCH   5   6
ATOM      6  CG  LYS A   1     -10.237   5.146  69.536  1.00  0.00    -0.318 C  
BRANCH   6   7
ATOM      7  CB  LYS A   1      -9.886   5.364  71.009  1.00  0.00    -0.246 C  
BRANCH   7   8
ATOM      8  CA  LYS A   1      -9.837   6.849  71.398  1.00  0.00    -0.178 C  
ATOM      9  N   LYS A   1      -8.631   7.170  72.217  1.00  0.00    -0.117 NA 
ATOM     10  C   LYS A   1     -11.078   7.182  72.241  1.00  0.00    -0.254 C  
ATOM     11  OXT LYS A   1     -12.199   7.386  71.802  1.00  0.00    -0.301 OA 
ATOM     12  O   LYS A   1     -10.775   7.191  73.568  1.00  0.00    -0.368 OA 
ATOM     13  H1  LYS A   1      -8.598   8.156  72.475  1.00  0.00     0.000 HD 
ATOM     14  H2  LYS A   1      -7.774   6.881  71.744  1.00  0.00     0.000 HD 
ENDBRANCH   7   8
ENDBRANCH   6   7
ENDBRANCH   5   6
ENDBRANCH   3   5
TORSDOF 4
ENDMDL
MODEL      267
REMARK 921   NORMALIZED FREE ENERGY PREDICTED BY IDOCK:   -1.43 KCAL/MOL
REMARK 922        TOTAL FREE ENERGY PREDICTED BY IDOCK:   -2.26 KCAL/MOL
REMARK 923 INTER-LIGAND FREE ENERGY PREDICTED BY IDOCK:   -2.14 KCAL/MOL
REMARK 924 INTRA-LIGAND FREE ENERGY PREDICTED BY IDOCK:   -0.12 KCAL/MOL
REMARK 927      BINDING AFFINITY PREDICTED BY RF-SCORE:    0.00 PKD
ROOT
ATOM      1  NZ  LYS A   1     -11.974  10.850  67.972  1.00  0.00    -0.777 NA 
ATOM      2  HZ2 LYS A   1     -11.645   9.989  68.410  1.00  0.00     0.000 HD 
ATOM      3  CE  LYS A   1     -10.861  11.651  67.472  1.00  0.00    -0.237 C  
ATOM      4  HZ1 LYS A   1     -12.570  11.385  68.604  1.00  0.00     0.000 HD 
ENDROOT
BRANCH   3   5
ATOM      5  CD  LYS A   1      -9.968  10.848  66.524  1.00  0.00    -0.255 C  
BRANCH   5   6
ATOM      6  CG  LYS A   1      -8.538  10.705  67.057  1.00  0.00    -0.128 C  
BRANCH   6   7
ATOM      7  CB  LYS A   1      -8.469  10.883  68.574  1.00  0.00    -0.147 C  
BRANCH   7   8
ATOM      8  CA  LYS A   1      -7.029  10.923  69.106  1.00  0.00    -0.096 C  
ATOM      9  N   LYS A   1      -6.027  10.856  68.002  1.00  0.00    -0.049 NA 
ATOM     10  C   LYS A   1      -6.803   9.706  70.017  1.00  0.00    -0.085 C  
ATOM     11  OXT LYS A   1      -7.174   9.611  71.177  1.00  0.00    -0.328 OA 
ATOM     12  O   LYS A   1      -6.151   8.714  69.351  1.00  0.00    -0.039 OA 
ATOM     13  H1  LYS A   1      -5.070  10.883  68.355  1.00  0.00     0.000 HD 
ATOM     14  H2  LYS A   1      -6.188  11.589  67.310  1.00  0.00     0.000 HD 
ENDBRANCH   7   8
ENDBRANCH   6   7
ENDBRANCH   5   6
ENDBRANCH   3   5
TORSDOF 4
ENDMDL
MODEL      268
REMARK 921   NORMALIZED FREE ENERGY PREDICTED BY IDOCK:   -1.43 KCAL/MOL
REMARK 922        TOTAL FREE ENERGY PREDICTED BY IDOCK:   -2.26 KCAL/MOL
REMARK 923 INTER-LIGAND FREE ENERGY PREDICTED BY IDOCK:   -2.19 KCAL/MOL
REMARK 924 INTRA-LIGAND FREE ENERGY PREDICTED BY IDOCK:   -0.07 KCAL/MOL
REMARK 927      BINDING AFFINITY PREDICTED BY RF-SCORE:    0.00 PKD
ROOT
ATOM      1  NZ  LYS A   1     -12.284  10.884  68.433  1.00  0.00    -0.810 NA 
ATOM      2  HZ2 LYS A   1     -12.406   9.875  68.511  1.00  0.00     0.000 HD 
ATOM      3  CE  LYS A   1     -10.954  11.223  67.937  1.00  0.00    -0.248 C  
ATOM      4  HZ1 LYS A   1     -12.487  11.353  69.316  1.00  0.00     0.000 HD 
ENDROOT
BRANCH   3   5
ATOM      5  CD  LYS A   1     -10.649  10.519  66.612  1.00  0.00    -0.263 C  
BRANCH   5   6
ATOM      6  CG  LYS A   1      -9.931   9.181  66.818  1.00  0.00    -0.322 C  
BRANCH   6   7
ATOM      7  CB  LYS A   1      -9.275   9.086  68.196  1.00  0.00    -0.141 C  
BRANCH   7   8
ATOM      8  CA  LYS A   1      -8.201   7.990  68.272  1.00  0.00    -0.123 C  
ATOM      9  N   LYS A   1      -8.731   6.735  68.882  1.00  0.00    -0.130 NA 
ATOM     10  C   LYS A   1      -7.046   8.488  69.155  1.00  0.00    -0.064 C  
ATOM     11  OXT LYS A   1      -6.164   9.256  68.800  1.00  0.00    -0.044 OA 
ATOM     12  O   LYS A   1      -7.144   7.983  70.414  1.00  0.00    -0.045 OA 
ATOM     13  H1  LYS A   1      -8.019   6.007  68.933  1.00  0.00     0.000 HD 
ATOM     14  H2  LYS A   1      -9.563   6.407  68.391  1.00  0.00     0.000 HD 
ENDBRANCH   7   8
ENDBRANCH   6   7
ENDBRANCH   5   6
ENDBRANCH   3   5
TORSDOF 4
ENDMDL
MODEL      269
REMARK 921   NORMALIZED FREE ENERGY PREDICTED BY IDOCK:   -1.41 KCAL/MOL
REMARK 922        TOTAL FREE ENERGY PREDICTED BY IDOCK:   -2.24 KCAL/MOL
REMARK 923 INTER-LIGAND FREE ENERGY PREDICTED BY IDOCK:   -1.97 KCAL/MOL
REMARK 924 INTRA-LIGAND FREE ENERGY PREDICTED BY IDOCK:   -0.27 KCAL/MOL
REMARK 927      BINDING AFFINITY PREDICTED BY RF-SCORE:    0.00 PKD
ROOT
ATOM      1  NZ  LYS A   1     -11.132   4.012  64.359  1.00  0.00    -0.763 NA 
ATOM      2  HZ2 LYS A   1     -10.258   4.285  64.809  1.00  0.00     0.000 HD 
ATOM      3  CE  LYS A   1     -10.889   3.173  63.190  1.00  0.00    -0.196 C  
ATOM      4  HZ1 LYS A   1     -11.702   4.826  64.128  1.00  0.00     0.000 HD 
ENDROOT
BRANCH   3   5
ATOM      5  CD  LYS A   1     -10.034   1.952  63.538  1.00  0.00    -0.128 C  
BRANCH   5   6
ATOM      6  CG  LYS A   1      -8.766   2.333  64.309  1.00  0.00    -0.098 C  
BRANCH   6   7
ATOM      7  CB  LYS A   1      -8.739   1.719  65.710  1.00  0.00    -0.116 C  
BRANCH   7   8
ATOM      8  CA  LYS A   1      -8.572   2.769  66.819  1.00  0.00    -0.110 C  
ATOM      9  N   LYS A   1      -9.783   3.632  66.954  1.00  0.00    -0.366 NA 
ATOM     10  C   LYS A   1      -7.386   3.679  66.465  1.00  0.00    -0.072 C  
ATOM     11  OXT LYS A   1      -6.207   3.399  66.623  1.00  0.00    -0.027 OA 
ATOM     12  O   LYS A   1      -7.816   4.847  65.915  1.00  0.00    -0.093 OA 
ATOM     13  H1  LYS A   1      -9.672   4.329  67.690  1.00  0.00     0.000 HD 
ATOM     14  H2  LYS A   1     -10.624   3.071  67.097  1.00  0.00     0.000 HD 
ENDBRANCH   7   8
ENDBRANCH   6   7
ENDBRANCH   5   6
ENDBRANCH   3   5
TORSDOF 4
ENDMDL
MODEL      270
REMARK 921   NORMALIZED FREE ENERGY PREDICTED BY IDOCK:   -1.41 KCAL/MOL
REMARK 922        TOTAL FREE ENERGY PREDICTED BY IDOCK:   -2.24 KCAL/MOL
REMARK 923 INTER-LIGAND FREE ENERGY PREDICTED BY IDOCK:   -2.10 KCAL/MOL
REMARK 924 INTRA-LIGAND FREE ENERGY PREDICTED BY IDOCK:   -0.14 KCAL/MOL
REMARK 927      BINDING AFFINITY PREDICTED BY RF-SCORE:    0.00 PKD
ROOT
ATOM      1  NZ  LYS A   1     -12.472   9.131  70.659  1.00  0.00    -0.487 NA 
ATOM      2  HZ2 LYS A   1     -12.220   8.144  70.600  1.00  0.00     0.000 HD 
ATOM      3  CE  LYS A   1     -11.309   9.961  70.957  1.00  0.00    -0.386 C  
ATOM      4  HZ1 LYS A   1     -13.226   9.283  71.330  1.00  0.00     0.000 HD 
ENDROOT
BRANCH   3   5
ATOM      5  CD  LYS A   1     -10.179   9.732  69.950  1.00  0.00    -0.291 C  
BRANCH   5   6
ATOM      6  CG  LYS A   1     -10.440   8.519  69.050  1.00  0.00    -0.216 C  
BRANCH   6   7
ATOM      7  CB  LYS A   1      -9.778   8.667  67.680  1.00  0.00    -0.201 C  
BRANCH   7   8
ATOM      8  CA  LYS A   1      -8.264   8.409  67.717  1.00  0.00    -0.126 C  
ATOM      9  N   LYS A   1      -7.507   9.431  66.935  1.00  0.00    -0.090 NA 
ATOM     10  C   LYS A   1      -7.980   7.035  67.092  1.00  0.00    -0.113 C  
ATOM     11  OXT LYS A   1      -8.125   5.959  67.650  1.00  0.00    -0.102 OA 
ATOM     12  O   LYS A   1      -7.566   7.165  65.802  1.00  0.00    -0.087 OA 
ATOM     13  H1  LYS A   1      -6.502   9.260  66.960  1.00  0.00     0.000 HD 
ATOM     14  H2  LYS A   1      -7.731  10.377  67.246  1.00  0.00     0.000 HD 
ENDBRANCH   7   8
ENDBRANCH   6   7
ENDBRANCH   5   6
ENDBRANCH   3   5
TORSDOF 4
ENDMDL
MODEL      271
REMARK 921   NORMALIZED FREE ENERGY PREDICTED BY IDOCK:   -1.38 KCAL/MOL
REMARK 922        TOTAL FREE ENERGY PREDICTED BY IDOCK:   -2.20 KCAL/MOL
REMARK 923 INTER-LIGAND FREE ENERGY PREDICTED BY IDOCK:   -2.06 KCAL/MOL
REMARK 924 INTRA-LIGAND FREE ENERGY PREDICTED BY IDOCK:   -0.14 KCAL/MOL
REMARK 927      BINDING AFFINITY PREDICTED BY RF-SCORE:    0.00 PKD
ROOT
ATOM      1  NZ  LYS A   1     -11.729   6.595  69.474  1.00  0.00    -0.657 NA 
ATOM      2  HZ2 LYS A   1     -12.257   5.738  69.308  1.00  0.00     0.000 HD 
ATOM      3  CE  LYS A   1     -11.656   6.908  70.898  1.00  0.00    -0.337 C  
ATOM      4  HZ1 LYS A   1     -12.106   7.374  68.935  1.00  0.00     0.000 HD 
ENDROOT
BRANCH   3   5
ATOM      5  CD  LYS A   1     -11.089   5.738  71.706  1.00  0.00    -0.301 C  
BRANCH   5   6
ATOM      6  CG  LYS A   1      -9.937   5.035  70.979  1.00  0.00    -0.281 C  
BRANCH   6   7
ATOM      7  CB  LYS A   1      -9.559   3.712  71.645  1.00  0.00    -0.226 C  
BRANCH   7   8
ATOM      8  CA  LYS A   1      -8.078   3.649  72.050  1.00  0.00    -0.071 C  
ATOM      9  N   LYS A   1      -7.490   5.011  72.217  1.00  0.00    -0.090 NA 
ATOM     10  C   LYS A   1      -7.291   2.931  70.943  1.00  0.00    -0.033 C  
ATOM     11  OXT LYS A   1      -7.244   1.722  70.778  1.00  0.00    -0.032 OA 
ATOM     12  O   LYS A   1      -6.664   3.827  70.134  1.00  0.00    -0.032 OA 
ATOM     13  H1  LYS A   1      -6.507   4.969  72.486  1.00  0.00     0.000 HD 
ATOM     14  H2  LYS A   1      -8.032   5.571  72.876  1.00  0.00     0.000 HD 
ENDBRANCH   7   8
ENDBRANCH   6   7
ENDBRANCH   5   6
ENDBRANCH   3   5
TORSDOF 4
ENDMDL
MODEL      272
REMARK 921   NORMALIZED FREE ENERGY PREDICTED BY IDOCK:   -1.38 KCAL/MOL
REMARK 922        TOTAL FREE ENERGY PREDICTED BY IDOCK:   -2.20 KCAL/MOL
REMARK 923 INTER-LIGAND FREE ENERGY PREDICTED BY IDOCK:   -2.24 KCAL/MOL
REMARK 924 INTRA-LIGAND FREE ENERGY PREDICTED BY IDOCK:    0.04 KCAL/MOL
REMARK 927      BINDING AFFINITY PREDICTED BY RF-SCORE:    0.00 PKD
ROOT
ATOM      1  NZ  LYS A   1      -7.118   7.931  66.447  1.00  0.00    -0.070 NA 
ATOM      2  HZ2 LYS A   1      -6.389   8.252  65.809  1.00  0.00     0.000 HD 
ATOM      3  CE  LYS A   1      -8.230   8.874  66.503  1.00  0.00    -0.114 C  
ATOM      4  HZ1 LYS A   1      -6.741   7.737  67.375  1.00  0.00     0.000 HD 
ENDROOT
BRANCH   3   5
ATOM      5  CD  LYS A   1      -8.796   9.164  65.110  1.00  0.00    -0.241 C  
BRANCH   5   6
ATOM      6  CG  LYS A   1      -9.925  10.200  65.148  1.00  0.00    -0.379 C  
BRANCH   6   7
ATOM      7  CB  LYS A   1      -9.438  11.597  64.760  1.00  0.00    -0.083 C  
BRANCH   7   8
ATOM      8  CA  LYS A   1     -10.116  12.712  65.570  1.00  0.00    -0.265 C  
ATOM      9  N   LYS A   1      -9.614  14.064  65.183  1.00  0.00    -0.512 NA 
ATOM     10  C   LYS A   1      -9.802  12.504  67.059  1.00  0.00    -0.217 C  
ATOM     11  OXT LYS A   1     -10.357  11.703  67.795  1.00  0.00    -0.177 OA 
ATOM     12  O   LYS A   1      -8.788  13.318  67.460  1.00  0.00    -0.184 OA 
ATOM     13  H1  LYS A   1     -10.065  14.804  65.720  1.00  0.00     0.000 HD 
ATOM     14  H2  LYS A   1      -9.710  14.222  64.179  1.00  0.00     0.000 HD 
ENDBRANCH   7   8
ENDBRANCH   6   7
ENDBRANCH   5   6
ENDBRANCH   3   5
TORSDOF 4
ENDMDL
MODEL      273
REMARK 921   NORMALIZED FREE ENERGY PREDICTED BY IDOCK:   -1.37 KCAL/MOL
REMARK 922        TOTAL FREE ENERGY PREDICTED BY IDOCK:   -2.20 KCAL/MOL
REMARK 923 INTER-LIGAND FREE ENERGY PREDICTED BY IDOCK:   -1.96 KCAL/MOL
REMARK 924 INTRA-LIGAND FREE ENERGY PREDICTED BY IDOCK:   -0.24 KCAL/MOL
REMARK 927      BINDING AFFINITY PREDICTED BY RF-SCORE:    0.00 PKD
ROOT
ATOM      1  NZ  LYS A   1      -7.790   5.075  67.646  1.00  0.00    -0.094 NA 
ATOM      2  HZ2 LYS A   1      -8.393   5.551  66.975  1.00  0.00     0.000 HD 
ATOM      3  CE  LYS A   1      -8.270   5.256  69.013  1.00  0.00    -0.085 C  
ATOM      4  HZ1 LYS A   1      -6.818   5.366  67.546  1.00  0.00     0.000 HD 
ENDROOT
BRANCH   3   5
ATOM      5  CD  LYS A   1      -9.729   4.818  69.163  1.00  0.00    -0.258 C  
BRANCH   5   6
ATOM      6  CG  LYS A   1     -10.572   5.856  69.912  1.00  0.00    -0.370 C  
BRANCH   6   7
ATOM      7  CB  LYS A   1      -9.954   7.253  69.847  1.00  0.00    -0.183 C  
BRANCH   7   8
ATOM      8  CA  LYS A   1      -9.844   7.922  71.226  1.00  0.00    -0.168 C  
ATOM      9  N   LYS A   1     -10.226   9.364  71.176  1.00  0.00    -0.309 NA 
ATOM     10  C   LYS A   1      -8.385   7.840  71.701  1.00  0.00    -0.110 C  
ATOM     11  OXT LYS A   1      -7.854   6.856  72.192  1.00  0.00    -0.094 OA 
ATOM     12  O   LYS A   1      -7.734   9.013  71.474  1.00  0.00    -0.284 OA 
ATOM     13  H1  LYS A   1     -10.153   9.808  72.091  1.00  0.00     0.000 HD 
ATOM     14  H2  LYS A   1     -11.157   9.488  70.777  1.00  0.00     0.000 HD 
ENDBRANCH   7   8
ENDBRANCH   6   7
ENDBRANCH   5   6
ENDBRANCH   3   5
TORSDOF 4
ENDMDL
MODEL      274
REMARK 921   NORMALIZED FREE ENERGY PREDICTED BY IDOCK:   -1.37 KCAL/MOL
REMARK 922        TOTAL FREE ENERGY PREDICTED BY IDOCK:   -2.19 KCAL/MOL
REMARK 923 INTER-LIGAND FREE ENERGY PREDICTED BY IDOCK:   -2.07 KCAL/MOL
REMARK 924 INTRA-LIGAND FREE ENERGY PREDICTED BY IDOCK:   -0.12 KCAL/MOL
REMARK 927      BINDING AFFINITY PREDICTED BY RF-SCORE:    0.00 PKD
ROOT
ATOM      1  NZ  LYS A   1     -11.701   6.676  69.259  1.00  0.00    -0.628 NA 
ATOM      2  HZ2 LYS A   1     -12.389   5.924  69.231  1.00  0.00     0.000 HD 
ATOM      3  CE  LYS A   1     -10.778   6.511  70.378  1.00  0.00    -0.255 C  
ATOM      4  HZ1 LYS A   1     -12.151   7.592  69.273  1.00  0.00     0.000 HD 
ENDROOT
BRANCH   3   5
ATOM      5  CD  LYS A   1     -10.103   5.138  70.356  1.00  0.00    -0.333 C  
BRANCH   5   6
ATOM      6  CG  LYS A   1      -9.646   4.738  68.949  1.00  0.00    -0.229 C  
BRANCH   6   7
ATOM      7  CB  LYS A   1      -9.300   3.251  68.856  1.00  0.00    -0.232 C  
BRANCH   7   8
ATOM      8  CA  LYS A   1      -7.980   2.990  68.116  1.00  0.00    -0.062 C  
ATOM      9  N   LYS A   1      -6.977   4.065  68.374  1.00  0.00    -0.047 NA 
ATOM     10  C   LYS A   1      -8.257   2.960  66.605  1.00  0.00    -0.087 C  
ATOM     11  OXT LYS A   1      -8.729   2.017  65.990  1.00  0.00    -0.108 OA 
ATOM     12  O   LYS A   1      -7.933   4.149  66.028  1.00  0.00    -0.094 OA 
ATOM     13  H1  LYS A   1      -6.100   3.892  67.882  1.00  0.00     0.000 HD 
ATOM     14  H2  LYS A   1      -6.822   4.196  69.374  1.00  0.00     0.000 HD 
ENDBRANCH   7   8
ENDBRANCH   6   7
ENDBRANCH   5   6
ENDBRANCH   3   5
TORSDOF 4
ENDMDL
MODEL      275
REMARK 921   NORMALIZED FREE ENERGY PREDICTED BY IDOCK:   -1.37 KCAL/MOL
REMARK 922        TOTAL FREE ENERGY PREDICTED BY IDOCK:   -2.19 KCAL/MOL
REMARK 923 INTER-LIGAND FREE ENERGY PREDICTED BY IDOCK:   -1.45 KCAL/MOL
REMARK 924 INTRA-LIGAND FREE ENERGY PREDICTED BY IDOCK:   -0.74 KCAL/MOL
REMARK 927      BINDING AFFINITY PREDICTED BY RF-SCORE:    0.00 PKD
ROOT
ATOM      1  NZ  LYS A   1      -7.718   6.673  69.311  1.00  0.00    -0.100 NA 
ATOM      2  HZ2 LYS A   1      -7.445   5.717  69.085  1.00  0.00     0.000 HD 
ATOM      3  CE  LYS A   1      -7.066   7.636  68.429  1.00  0.00    -0.081 C  
ATOM      4  HZ1 LYS A   1      -7.548   6.887  70.294  1.00  0.00     0.000 HD 
ENDROOT
BRANCH   3   5
ATOM      5  CD  LYS A   1      -7.322   7.315  66.954  1.00  0.00    -0.092 C  
BRANCH   5   6
ATOM      6  CG  LYS A   1      -8.811   7.385  66.596  1.00  0.00    -0.157 C  
BRANCH   6   7
ATOM      7  CB  LYS A   1      -9.320   6.074  65.995  1.00  0.00    -0.100 C  
BRANCH   7   8
ATOM      8  CA  LYS A   1     -10.287   5.327  66.925  1.00  0.00    -0.255 C  
ATOM      9  N   LYS A   1     -10.649   6.143  68.121  1.00  0.00    -0.234 NA 
ATOM     10  C   LYS A   1      -9.604   4.044  67.423  1.00  0.00    -0.177 C  
ATOM     11  OXT LYS A   1      -9.496   3.007  66.787  1.00  0.00    -0.138 OA 
ATOM     12  O   LYS A   1      -9.097   4.216  68.674  1.00  0.00    -0.113 OA 
ATOM     13  H1  LYS A   1     -11.291   5.647  68.739  1.00  0.00     0.000 HD 
ATOM     14  H2  LYS A   1     -11.023   7.053  67.850  1.00  0.00     0.000 HD 
ENDBRANCH   7   8
ENDBRANCH   6   7
ENDBRANCH   5   6
ENDBRANCH   3   5
TORSDOF 4
ENDMDL
MODEL      276
REMARK 921   NORMALIZED FREE ENERGY PREDICTED BY IDOCK:   -1.37 KCAL/MOL
REMARK 922        TOTAL FREE ENERGY PREDICTED BY IDOCK:   -2.19 KCAL/MOL
REMARK 923 INTER-LIGAND FREE ENERGY PREDICTED BY IDOCK:   -2.46 KCAL/MOL
REMARK 924 INTRA-LIGAND FREE ENERGY PREDICTED BY IDOCK:    0.27 KCAL/MOL
REMARK 927      BINDING AFFINITY PREDICTED BY RF-SCORE:    0.00 PKD
ROOT
ATOM      1  NZ  LYS A   1      -6.850   7.758  66.457  1.00  0.00    -0.065 NA 
ATOM      2  HZ2 LYS A   1      -6.333   7.889  65.588  1.00  0.00     0.000 HD 
ATOM      3  CE  LYS A   1      -7.863   8.793  66.635  1.00  0.00    -0.100 C  
ATOM      4  HZ1 LYS A   1      -6.221   7.704  67.259  1.00  0.00     0.000 HD 
ENDROOT
BRANCH   3   5
ATOM      5  CD  LYS A   1      -8.806   8.874  65.432  1.00  0.00    -0.234 C  
BRANCH   5   6
ATOM      6  CG  LYS A   1      -9.720  10.103  65.493  1.00  0.00    -0.344 C  
BRANCH   6   7
ATOM      7  CB  LYS A   1     -10.776   9.981  66.592  1.00  0.00    -0.128 C  
BRANCH   7   8
ATOM      8  CA  LYS A   1     -10.738  11.149  67.590  1.00  0.00    -0.230 C  
ATOM      9  N   LYS A   1     -12.080  11.414  68.187  1.00  0.00    -0.617 NA 
ATOM     10  C   LYS A   1     -10.296  12.420  66.848  1.00  0.00    -0.224 C  
ATOM     11  OXT LYS A   1      -9.145  12.702  66.552  1.00  0.00    -0.223 OA 
ATOM     12  O   LYS A   1     -11.368  13.194  66.529  1.00  0.00    -0.295 OA 
ATOM     13  H1  LYS A   1     -12.055  12.189  68.848  1.00  0.00     0.000 HD 
ATOM     14  H2  LYS A   1     -12.469  10.573  68.614  1.00  0.00     0.000 HD 
ENDBRANCH   7   8
ENDBRANCH   6   7
ENDBRANCH   5   6
ENDBRANCH   3   5
TORSDOF 4
ENDMDL
MODEL      277
REMARK 921   NORMALIZED FREE ENERGY PREDICTED BY IDOCK:   -1.30 KCAL/MOL
REMARK 922        TOTAL FREE ENERGY PREDICTED BY IDOCK:   -2.11 KCAL/MOL
REMARK 923 INTER-LIGAND FREE ENERGY PREDICTED BY IDOCK:   -1.90 KCAL/MOL
REMARK 924 INTRA-LIGAND FREE ENERGY PREDICTED BY IDOCK:   -0.21 KCAL/MOL
REMARK 927      BINDING AFFINITY PREDICTED BY RF-SCORE:    0.00 PKD
ROOT
ATOM      1  NZ  LYS A   1      -7.081   4.759  68.484  1.00  0.00    -0.056 NA 
ATOM      2  HZ2 LYS A   1      -7.277   5.333  67.663  1.00  0.00     0.000 HD 
ATOM      3  CE  LYS A   1      -7.942   5.123  69.605  1.00  0.00    -0.079 C  
ATOM      4  HZ1 LYS A   1      -6.094   4.798  68.738  1.00  0.00     0.000 HD 
ENDROOT
BRANCH   3   5
ATOM      5  CD  LYS A   1      -9.423   5.064  69.222  1.00  0.00    -0.197 C  
BRANCH   5   6
ATOM      6  CG  LYS A   1      -9.763   6.019  68.073  1.00  0.00    -0.126 C  
BRANCH   6   7
ATOM      7  CB  LYS A   1      -9.512   7.481  68.446  1.00  0.00    -0.148 C  
BRANCH   7   8
ATOM      8  CA  LYS A   1     -10.782   8.202  68.923  1.00  0.00    -0.064 C  
ATOM      9  N   LYS A   1     -10.913   9.558  68.313  1.00  0.00    -0.469 NA 
ATOM     10  C   LYS A   1     -10.710   8.379  70.447  1.00  0.00    -0.231 C  
ATOM     11  OXT LYS A   1     -10.954   7.513  71.273  1.00  0.00    -0.238 OA 
ATOM     12  O   LYS A   1     -10.303   9.636  70.772  1.00  0.00    -0.291 OA 
ATOM     13  H1  LYS A   1     -11.756  10.037  68.629  1.00  0.00     0.000 HD 
ATOM     14  H2  LYS A   1     -10.872   9.513  67.294  1.00  0.00     0.000 HD 
ENDBRANCH   7   8
ENDBRANCH   6   7
ENDBRANCH   5   6
ENDBRANCH   3   5
TORSDOF 4
ENDMDL
MODEL      278
REMARK 921   NORMALIZED FREE ENERGY PREDICTED BY IDOCK:   -1.26 KCAL/MOL
REMARK 922        TOTAL FREE ENERGY PREDICTED BY IDOCK:   -2.06 KCAL/MOL
REMARK 923 INTER-LIGAND FREE ENERGY PREDICTED BY IDOCK:   -1.90 KCAL/MOL
REMARK 924 INTRA-LIGAND FREE ENERGY PREDICTED BY IDOCK:   -0.16 KCAL/MOL
REMARK 927      BINDING AFFINITY PREDICTED BY RF-SCORE:    0.00 PKD
ROOT
ATOM      1  NZ  LYS A   1     -10.856   4.404  64.906  1.00  0.00    -0.687 NA 
ATOM      2  HZ2 LYS A   1     -10.038   3.940  64.510  1.00  0.00     0.000 HD 
ATOM      3  CE  LYS A   1     -10.559   4.984  66.211  1.00  0.00    -0.276 C  
ATOM      4  HZ1 LYS A   1     -11.658   3.774  64.947  1.00  0.00     0.000 HD 
ENDROOT
BRANCH   3   5
ATOM      5  CD  LYS A   1      -9.356   5.930  66.149  1.00  0.00    -0.150 C  
BRANCH   5   6
ATOM      6  CG  LYS A   1      -9.714   7.352  66.595  1.00  0.00    -0.262 C  
BRANCH   6   7
ATOM      7  CB  LYS A   1      -9.162   7.675  67.984  1.00  0.00    -0.138 C  
BRANCH   7   8
ATOM      8  CA  LYS A   1      -7.667   7.348  68.124  1.00  0.00    -0.120 C  
ATOM      9  N   LYS A   1      -7.372   6.633  69.401  1.00  0.00    -0.089 NA 
ATOM     10  C   LYS A   1      -6.870   8.661  68.127  1.00  0.00    -0.069 C  
ATOM     11  OXT LYS A   1      -6.581   9.316  67.137  1.00  0.00    -0.066 OA 
ATOM     12  O   LYS A   1      -6.544   9.029  69.396  1.00  0.00    -0.044 OA 
ATOM     13  H1  LYS A   1      -6.381   6.416  69.494  1.00  0.00     0.000 HD 
ATOM     14  H2  LYS A   1      -7.947   5.796  69.499  1.00  0.00     0.000 HD 
ENDBRANCH   7   8
ENDBRANCH   6   7
ENDBRANCH   5   6
ENDBRANCH   3   5
TORSDOF 4
ENDMDL
MODEL      279
REMARK 921   NORMALIZED FREE ENERGY PREDICTED BY IDOCK:   -1.25 KCAL/MOL
REMARK 922        TOTAL FREE ENERGY PREDICTED BY IDOCK:   -2.04 KCAL/MOL
REMARK 923 INTER-LIGAND FREE ENERGY PREDICTED BY IDOCK:   -1.88 KCAL/MOL
REMARK 924 INTRA-LIGAND FREE ENERGY PREDICTED BY IDOCK:   -0.16 KCAL/MOL
REMARK 927      BINDING AFFINITY PREDICTED BY RF-SCORE:    0.00 PKD
ROOT
ATOM      1  NZ  LYS A   1     -11.533   7.147  69.611  1.00  0.00    -0.519 NA 
ATOM      2  HZ2 LYS A   1     -11.433   6.142  69.470  1.00  0.00     0.000 HD 
ATOM      3  CE  LYS A   1     -10.849   7.584  70.824  1.00  0.00    -0.242 C  
ATOM      4  HZ1 LYS A   1     -12.514   7.427  69.610  1.00  0.00     0.000 HD 
ENDROOT
BRANCH   3   5
ATOM      5  CD  LYS A   1      -9.377   7.164  70.826  1.00  0.00    -0.160 C  
BRANCH   5   6
ATOM      6  CG  LYS A   1      -8.440   8.333  70.502  1.00  0.00    -0.129 C  
BRANCH   6   7
ATOM      7  CB  LYS A   1      -9.208   9.630  70.238  1.00  0.00    -0.285 C  
BRANCH   7   8
ATOM      8  CA  LYS A   1      -9.006  10.164  68.812  1.00  0.00    -0.147 C  
ATOM      9  N   LYS A   1      -9.130   9.082  67.791  1.00  0.00    -0.134 NA 
ATOM     10  C   LYS A   1      -7.593  10.755  68.700  1.00  0.00    -0.106 C  
ATOM     11  OXT LYS A   1      -7.251  11.855  69.105  1.00  0.00    -0.096 OA 
ATOM     12  O   LYS A   1      -6.743   9.873  68.107  1.00  0.00    -0.060 OA 
ATOM     13  H1  LYS A   1      -8.996   9.436  66.845  1.00  0.00     0.000 HD 
ATOM     14  H2  LYS A   1     -10.018   8.587  67.881  1.00  0.00     0.000 HD 
ENDBRANCH   7   8
ENDBRANCH   6   7
ENDBRANCH   5   6
ENDBRANCH   3   5
TORSDOF 4
ENDMDL
MODEL      280
REMARK 921   NORMALIZED FREE ENERGY PREDICTED BY IDOCK:   -1.21 KCAL/MOL
REMARK 922        TOTAL FREE ENERGY PREDICTED BY IDOCK:   -1.99 KCAL/MOL
REMARK 923 INTER-LIGAND FREE ENERGY PREDICTED BY IDOCK:   -1.83 KCAL/MOL
REMARK 924 INTRA-LIGAND FREE ENERGY PREDICTED BY IDOCK:   -0.16 KCAL/MOL
REMARK 927      BINDING AFFINITY PREDICTED BY RF-SCORE:    0.00 PKD
ROOT
ATOM      1  NZ  LYS A   1     -11.108   7.347  67.230  1.00  0.00    -0.558 NA 
ATOM      2  HZ2 LYS A   1     -11.417   7.261  68.199  1.00  0.00     0.000 HD 
ATOM      3  CE  LYS A   1     -10.166   8.449  67.068  1.00  0.00    -0.307 C  
ATOM      4  HZ1 LYS A   1     -11.901   7.431  66.593  1.00  0.00     0.000 HD 
ENDROOT
BRANCH   3   5
ATOM      5  CD  LYS A   1      -8.977   8.322  68.023  1.00  0.00    -0.138 C  
BRANCH   5   6
ATOM      6  CG  LYS A   1      -8.029   7.187  67.621  1.00  0.00    -0.114 C  
BRANCH   6   7
ATOM      7  CB  LYS A   1      -7.808   6.192  68.762  1.00  0.00    -0.101 C  
BRANCH   7   8
ATOM      8  CA  LYS A   1      -7.764   6.865  70.142  1.00  0.00    -0.101 C  
ATOM      9  N   LYS A   1      -6.503   6.546  70.876  1.00  0.00    -0.047 NA 
ATOM     10  C   LYS A   1      -8.940   6.347  70.984  1.00  0.00    -0.146 C  
ATOM     11  OXT LYS A   1     -10.097   6.726  70.892  1.00  0.00    -0.190 OA 
ATOM     12  O   LYS A   1      -8.532   5.372  71.841  1.00  0.00    -0.124 OA 
ATOM     13  H1  LYS A   1      -6.474   6.993  71.792  1.00  0.00     0.000 HD 
ATOM     14  H2  LYS A   1      -5.680   6.783  70.320  1.00  0.00     0.000 HD 
ENDBRANCH   7   8
ENDBRANCH   6   7
ENDBRANCH   5   6
ENDBRANCH   3   5
TORSDOF 4
ENDMDL
MODEL      281
REMARK 921   NORMALIZED FREE ENERGY PREDICTED BY IDOCK:   -1.20 KCAL/MOL
REMARK 922        TOTAL FREE ENERGY PREDICTED BY IDOCK:   -1.98 KCAL/MOL
REMARK 923 INTER-LIGAND FREE ENERGY PREDICTED BY IDOCK:   -1.92 KCAL/MOL
REMARK 924 INTRA-LIGAND FREE ENERGY PREDICTED BY IDOCK:   -0.06 KCAL/MOL
REMARK 927      BINDING AFFINITY PREDICTED BY RF-SCORE:    0.00 PKD
ROOT
ATOM      1  NZ  LYS A   1     -11.351   6.664  68.227  1.00  0.00    -0.564 NA 
ATOM      2  HZ2 LYS A   1     -10.868   5.768  68.298  1.00  0.00     0.000 HD 
ATOM      3  CE  LYS A   1     -10.473   7.773  68.585  1.00  0.00    -0.172 C  
ATOM      4  HZ1 LYS A   1     -12.209   6.669  68.779  1.00  0.00     0.000 HD 
ENDROOT
BRANCH   3   5
ATOM      5  CD  LYS A   1      -9.186   7.766  67.756  1.00  0.00    -0.143 C  
BRANCH   5   6
ATOM      6  CG  LYS A   1      -9.418   8.253  66.322  1.00  0.00    -0.271 C  
BRANCH   6   7
ATOM      7  CB  LYS A   1      -8.619   7.440  65.302  1.00  0.00    -0.014 C  
BRANCH   7   8
ATOM      8  CA  LYS A   1      -7.607   8.292  64.520  1.00  0.00    -0.108 C  
ATOM      9  N   LYS A   1      -6.740   9.099  65.430  1.00  0.00    -0.072 NA 
ATOM     10  C   LYS A   1      -8.375   9.268  63.616  1.00  0.00    -0.185 C  
ATOM     11  OXT LYS A   1      -8.888   8.986  62.544  1.00  0.00    -0.222 OA 
ATOM     12  O   LYS A   1      -8.440  10.504  64.181  1.00  0.00    -0.172 OA 
ATOM     13  H1  LYS A   1      -6.069   9.664  64.911  1.00  0.00     0.000 HD 
ATOM     14  H2  LYS A   1      -6.275   8.508  66.119  1.00  0.00     0.000 HD 
ENDBRANCH   7   8
ENDBRANCH   6   7
ENDBRANCH   5   6
ENDBRANCH   3   5
TORSDOF 4
ENDMDL
MODEL      282
REMARK 921   NORMALIZED FREE ENERGY PREDICTED BY IDOCK:   -1.15 KCAL/MOL
REMARK 922        TOTAL FREE ENERGY PREDICTED BY IDOCK:   -1.92 KCAL/MOL
REMARK 923 INTER-LIGAND FREE ENERGY PREDICTED BY IDOCK:   -1.79 KCAL/MOL
REMARK 924 INTRA-LIGAND FREE ENERGY PREDICTED BY IDOCK:   -0.13 KCAL/MOL
REMARK 927      BINDING AFFINITY PREDICTED BY RF-SCORE:    0.00 PKD
ROOT
ATOM      1  NZ  LYS A   1      -9.743  14.465  69.065  1.00  0.00    -0.381 NA 
ATOM      2  HZ2 LYS A   1      -9.005  13.932  69.525  1.00  0.00     0.000 HD 
ATOM      3  CE  LYS A   1     -10.280  13.747  67.914  1.00  0.00    -0.245 C  
ATOM      4  HZ1 LYS A   1      -9.424  15.400  68.811  1.00  0.00     0.000 HD 
ENDROOT
BRANCH   3   5
ATOM      5  CD  LYS A   1     -10.759  12.344  68.295  1.00  0.00    -0.250 C  
BRANCH   5   6
ATOM      6  CG  LYS A   1      -9.613  11.454  68.788  1.00  0.00    -0.139 C  
BRANCH   6   7
ATOM      7  CB  LYS A   1      -9.610  10.087  68.103  1.00  0.00    -0.152 C  
BRANCH   7   8
ATOM      8  CA  LYS A   1      -8.690  10.037  66.874  1.00  0.00    -0.128 C  
ATOM      9  N   LYS A   1      -9.463  10.093  65.598  1.00  0.00    -0.202 NA 
ATOM     10  C   LYS A   1      -7.909   8.714  66.892  1.00  0.00    -0.091 C  
ATOM     11  OXT LYS A   1      -6.924   8.482  67.575  1.00  0.00    -0.076 OA 
ATOM     12  O   LYS A   1      -8.480   7.802  66.058  1.00  0.00    -0.125 OA 
ATOM     13  H1  LYS A   1      -8.852  10.060  64.782  1.00  0.00     0.000 HD 
ATOM     14  H2  LYS A   1     -10.076  10.908  65.571  1.00  0.00     0.000 HD 
ENDBRANCH   7   8
ENDBRANCH   6   7
ENDBRANCH   5   6
ENDBRANCH   3   5
TORSDOF 4
ENDMDL
MODEL      283
REMARK 921   NORMALIZED FREE ENERGY PREDICTED BY IDOCK:   -1.15 KCAL/MOL
REMARK 922        TOTAL FREE ENERGY PREDICTED BY IDOCK:   -1.91 KCAL/MOL
REMARK 923 INTER-LIGAND FREE ENERGY PREDICTED BY IDOCK:   -1.89 KCAL/MOL
REMARK 924 INTRA-LIGAND FREE ENERGY PREDICTED BY IDOCK:   -0.02 KCAL/MOL
REMARK 927      BINDING AFFINITY PREDICTED BY RF-SCORE:    0.00 PKD
ROOT
ATOM      1  NZ  LYS A   1     -10.033   8.681  65.872  1.00  0.00    -0.442 NA 
ATOM      2  HZ2 LYS A   1     -10.462   9.525  66.253  1.00  0.00     0.000 HD 
ATOM      3  CE  LYS A   1      -9.357   7.912  66.912  1.00  0.00    -0.164 C  
ATOM      4  HZ1 LYS A   1      -9.407   8.899  65.097  1.00  0.00     0.000 HD 
ENDROOT
BRANCH   3   5
ATOM      5  CD  LYS A   1     -10.297   7.585  68.075  1.00  0.00    -0.254 C  
BRANCH   5   6
ATOM      6  CG  LYS A   1      -9.986   8.416  69.324  1.00  0.00    -0.195 C  
BRANCH   6   7
ATOM      7  CB  LYS A   1      -9.252   9.714  68.983  1.00  0.00    -0.156 C  
BRANCH   7   8
ATOM      8  CA  LYS A   1      -7.998   9.935  69.843  1.00  0.00    -0.182 C  
ATOM      9  N   LYS A   1      -7.451  11.315  69.683  1.00  0.00    -0.361 NA 
ATOM     10  C   LYS A   1      -6.911   8.945  69.398  1.00  0.00    -0.049 C  
ATOM     11  OXT LYS A   1      -6.855   7.766  69.711  1.00  0.00    -0.045 OA 
ATOM     12  O   LYS A   1      -6.015   9.548  68.570  1.00  0.00    -0.043 OA 
ATOM     13  H1  LYS A   1      -6.619  11.461  70.254  1.00  0.00     0.000 HD 
ATOM     14  H2  LYS A   1      -8.163  12.021  69.875  1.00  0.00     0.000 HD 
ENDBRANCH   7   8
ENDBRANCH   6   7
ENDBRANCH   5   6
ENDBRANCH   3   5
TORSDOF 4
ENDMDL
MODEL      284
REMARK 921   NORMALIZED FREE ENERGY PREDICTED BY IDOCK:   -1.13 KCAL/MOL
REMARK 922        TOTAL FREE ENERGY PREDICTED BY IDOCK:   -1.90 KCAL/MOL
REMARK 923 INTER-LIGAND FREE ENERGY PREDICTED BY IDOCK:   -2.03 KCAL/MOL
REMARK 924 INTRA-LIGAND FREE ENERGY PREDICTED BY IDOCK:    0.13 KCAL/MOL
REMARK 927      BINDING AFFINITY PREDICTED BY RF-SCORE:    0.00 PKD
ROOT
ATOM      1  NZ  LYS A   1     -11.743   6.545  69.059  1.00  0.00    -0.516 NA 
ATOM      2  HZ2 LYS A   1     -12.369   5.744  69.138  1.00  0.00     0.000 HD 
ATOM      3  CE  LYS A   1     -11.571   7.216  70.343  1.00  0.00    -0.258 C  
ATOM      4  HZ1 LYS A   1     -12.056   7.191  68.334  1.00  0.00     0.000 HD 
ENDROOT
BRANCH   3   5
ATOM      5  CD  LYS A   1     -11.100   6.246  71.430  1.00  0.00    -0.339 C  
BRANCH   5   6
ATOM      6  CG  LYS A   1      -9.929   5.376  70.962  1.00  0.00    -0.261 C  
BRANCH   6   7
ATOM      7  CB  LYS A   1      -9.877   4.036  71.698  1.00  0.00    -0.253 C  
BRANCH   7   8
ATOM      8  CA  LYS A   1      -8.444   3.587  72.020  1.00  0.00    -0.082 C  
ATOM      9  N   LYS A   1      -8.424   2.341  72.842  1.00  0.00    -0.062 NA 
ATOM     10  C   LYS A   1      -7.747   4.693  72.828  1.00  0.00    -0.088 C  
ATOM     11  OXT LYS A   1      -7.267   5.714  72.362  1.00  0.00    -0.085 OA 
ATOM     12  O   LYS A   1      -7.757   4.403  74.157  1.00  0.00    -0.083 OA 
ATOM     13  H1  LYS A   1      -7.473   2.042  73.056  1.00  0.00     0.000 HD 
ATOM     14  H2  LYS A   1      -8.957   1.593  72.396  1.00  0.00     0.000 HD 
ENDBRANCH   7   8
ENDBRANCH   6   7
ENDBRANCH   5   6
ENDBRANCH   3   5
TORSDOF 4
ENDMDL
MODEL      285
REMARK 921   NORMALIZED FREE ENERGY PREDICTED BY IDOCK:   -1.13 KCAL/MOL
REMARK 922        TOTAL FREE ENERGY PREDICTED BY IDOCK:   -1.89 KCAL/MOL
REMARK 923 INTER-LIGAND FREE ENERGY PREDICTED BY IDOCK:   -1.77 KCAL/MOL
REMARK 924 INTRA-LIGAND FREE ENERGY PREDICTED BY IDOCK:   -0.12 KCAL/MOL
REMARK 927      BINDING AFFINITY PREDICTED BY RF-SCORE:    0.00 PKD
ROOT
ATOM      1  NZ  LYS A   1      -7.188   6.949  70.197  1.00  0.00    -0.074 NA 
ATOM      2  HZ2 LYS A   1      -6.449   7.473  69.729  1.00  0.00     0.000 HD 
ATOM      3  CE  LYS A   1      -8.447   7.688  70.194  1.00  0.00    -0.138 C  
ATOM      4  HZ1 LYS A   1      -6.912   6.679  71.142  1.00  0.00     0.000 HD 
ENDROOT
BRANCH   3   5
ATOM      5  CD  LYS A   1      -8.862   8.093  68.777  1.00  0.00    -0.138 C  
BRANCH   5   6
ATOM      6  CG  LYS A   1      -7.828   9.006  68.110  1.00  0.00    -0.100 C  
BRANCH   6   7
ATOM      7  CB  LYS A   1      -8.306  10.457  68.032  1.00  0.00    -0.118 C  
BRANCH   7   8
ATOM      8  CA  LYS A   1      -7.977  11.123  66.688  1.00  0.00    -0.159 C  
ATOM      9  N   LYS A   1      -7.774  12.595  66.833  1.00  0.00    -0.390 NA 
ATOM     10  C   LYS A   1      -9.154  10.905  65.725  1.00  0.00    -0.196 C  
ATOM     11  OXT LYS A   1      -9.379   9.879  65.103  1.00  0.00    -0.218 OA 
ATOM     12  O   LYS A   1      -9.950  12.008  65.672  1.00  0.00    -0.237 OA 
ATOM     13  H1  LYS A   1      -7.556  13.038  65.941  1.00  0.00     0.000 HD 
ATOM     14  H2  LYS A   1      -7.064  12.805  67.535  1.00  0.00     0.000 HD 
ENDBRANCH   7   8
ENDBRANCH   6   7
ENDBRANCH   5   6
ENDBRANCH   3   5
TORSDOF 4
ENDMDL
MODEL      286
REMARK 921   NORMALIZED FREE ENERGY PREDICTED BY IDOCK:   -1.13 KCAL/MOL
REMARK 922        TOTAL FREE ENERGY PREDICTED BY IDOCK:   -1.89 KCAL/MOL
REMARK 923 INTER-LIGAND FREE ENERGY PREDICTED BY IDOCK:   -1.79 KCAL/MOL
REMARK 924 INTRA-LIGAND FREE ENERGY PREDICTED BY IDOCK:   -0.10 KCAL/MOL
REMARK 927      BINDING AFFINITY PREDICTED BY RF-SCORE:    0.00 PKD
ROOT
ATOM      1  NZ  LYS A   1     -10.214   6.378  68.911  1.00  0.00    -0.171 NA 
ATOM      2  HZ2 LYS A   1      -9.600   6.113  68.141  1.00  0.00     0.000 HD 
ATOM      3  CE  LYS A   1     -10.200   7.820  69.132  1.00  0.00    -0.208 C  
ATOM      4  HZ1 LYS A   1      -9.987   5.863  69.762  1.00  0.00     0.000 HD 
ENDROOT
BRANCH   3   5
ATOM      5  CD  LYS A   1     -10.542   8.591  67.854  1.00  0.00    -0.219 C  
BRANCH   5   6
ATOM      6  CG  LYS A   1     -11.054  10.005  68.150  1.00  0.00    -0.252 C  
BRANCH   6   7
ATOM      7  CB  LYS A   1     -10.222  11.078  67.444  1.00  0.00    -0.229 C  
BRANCH   7   8
ATOM      8  CA  LYS A   1      -9.026  11.553  68.282  1.00  0.00    -0.177 C  
ATOM      9  N   LYS A   1      -9.384  12.711  69.155  1.00  0.00    -0.081 NA 
ATOM     10  C   LYS A   1      -7.907  12.010  67.334  1.00  0.00    -0.162 C  
ATOM     11  OXT LYS A   1      -7.134  11.271  66.744  1.00  0.00    -0.133 OA 
ATOM     12  O   LYS A   1      -7.900  13.364  67.206  1.00  0.00    -0.157 OA 
ATOM     13  H1  LYS A   1      -8.590  13.027  69.711  1.00  0.00     0.000 HD 
ATOM     14  H2  LYS A   1     -10.189  12.496  69.744  1.00  0.00     0.000 HD 
ENDBRANCH   7   8
ENDBRANCH   6   7
ENDBRANCH   5   6
ENDBRANCH   3   5
TORSDOF 4
ENDMDL
MODEL      287
REMARK 921   NORMALIZED FREE ENERGY PREDICTED BY IDOCK:   -1.09 KCAL/MOL
REMARK 922        TOTAL FREE ENERGY PREDICTED BY IDOCK:   -1.85 KCAL/MOL
REMARK 923 INTER-LIGAND FREE ENERGY PREDICTED BY IDOCK:   -1.77 KCAL/MOL
REMARK 924 INTRA-LIGAND FREE ENERGY PREDICTED BY IDOCK:   -0.08 KCAL/MOL
REMARK 927      BINDING AFFINITY PREDICTED BY RF-SCORE:    0.00 PKD
ROOT
ATOM      1  NZ  LYS A   1      -7.404   3.127  69.255  1.00  0.00    -0.048 NA 
ATOM      2  HZ2 LYS A   1      -6.531   3.572  69.539  1.00  0.00     0.000 HD 
ATOM      3  CE  LYS A   1      -8.496   4.093  69.188  1.00  0.00    -0.077 C  
ATOM      4  HZ1 LYS A   1      -7.634   2.338  69.860  1.00  0.00     0.000 HD 
ENDROOT
BRANCH   3   5
ATOM      5  CD  LYS A   1      -8.150   5.276  68.280  1.00  0.00    -0.094 C  
BRANCH   5   6
ATOM      6  CG  LYS A   1      -9.382   6.118  67.932  1.00  0.00    -0.113 C  
BRANCH   6   7
ATOM      7  CB  LYS A   1      -9.021   7.579  67.656  1.00  0.00    -0.127 C  
BRANCH   7   8
ATOM      8  CA  LYS A   1     -10.189   8.381  67.063  1.00  0.00    -0.307 C  
ATOM      9  N   LYS A   1      -9.870   8.902  65.701  1.00  0.00    -0.453 NA 
ATOM     10  C   LYS A   1     -10.473   9.587  67.971  1.00  0.00    -0.230 C  
ATOM     11  OXT LYS A   1     -11.097   9.552  69.021  1.00  0.00    -0.152 OA 
ATOM     12  O   LYS A   1      -9.908  10.718  67.469  1.00  0.00    -0.168 OA 
ATOM     13  H1  LYS A   1     -10.646   9.435  65.307  1.00  0.00     0.000 HD 
ATOM     14  H2  LYS A   1      -9.580   8.151  65.075  1.00  0.00     0.000 HD 
ENDBRANCH   7   8
ENDBRANCH   6   7
ENDBRANCH   5   6
ENDBRANCH   3   5
TORSDOF 4
ENDMDL
MODEL      288
REMARK 921   NORMALIZED FREE ENERGY PREDICTED BY IDOCK:   -1.06 KCAL/MOL
REMARK 922        TOTAL FREE ENERGY PREDICTED BY IDOCK:   -1.80 KCAL/MOL
REMARK 923 INTER-LIGAND FREE ENERGY PREDICTED BY IDOCK:   -1.62 KCAL/MOL
REMARK 924 INTRA-LIGAND FREE ENERGY PREDICTED BY IDOCK:   -0.18 KCAL/MOL
REMARK 927      BINDING AFFINITY PREDICTED BY RF-SCORE:    0.00 PKD
ROOT
ATOM      1  NZ  LYS A   1      -5.145   7.645  68.201  1.00  0.00    -0.025 NA 
ATOM      2  HZ2 LYS A   1      -5.248   6.695  67.843  1.00  0.00     0.000 HD 
ATOM      3  CE  LYS A   1      -6.177   8.528  67.667  1.00  0.00    -0.053 C  
ATOM      4  HZ1 LYS A   1      -4.209   8.010  68.026  1.00  0.00     0.000 HD 
ENDROOT
BRANCH   3   5
ATOM      5  CD  LYS A   1      -7.582   7.981  67.931  1.00  0.00    -0.112 C  
BRANCH   5   6
ATOM      6  CG  LYS A   1      -8.636   8.627  67.024  1.00  0.00    -0.120 C  
BRANCH   6   7
ATOM      7  CB  LYS A   1      -9.632   7.603  66.479  1.00  0.00    -0.254 C  
BRANCH   7   8
ATOM      8  CA  LYS A   1      -9.035   6.192  66.363  1.00  0.00    -0.150 C  
ATOM      9  N   LYS A   1      -8.878   5.771  64.940  1.00  0.00    -0.359 NA 
ATOM     10  C   LYS A   1      -9.984   5.195  67.045  1.00  0.00    -0.196 C  
ATOM     11  OXT LYS A   1     -10.067   5.005  68.249  1.00  0.00    -0.153 OA 
ATOM     12  O   LYS A   1     -10.759   4.556  66.127  1.00  0.00    -0.200 OA 
ATOM     13  H1  LYS A   1      -8.482   4.834  64.863  1.00  0.00     0.000 HD 
ATOM     14  H2  LYS A   1      -8.331   6.450  64.410  1.00  0.00     0.000 HD 
ENDBRANCH   7   8
ENDBRANCH   6   7
ENDBRANCH   5   6
ENDBRANCH   3   5
TORSDOF 4
ENDMDL
MODEL      289
REMARK 921   NORMALIZED FREE ENERGY PREDICTED BY IDOCK:   -1.05 KCAL/MOL
REMARK 922        TOTAL FREE ENERGY PREDICTED BY IDOCK:   -1.79 KCAL/MOL
REMARK 923 INTER-LIGAND FREE ENERGY PREDICTED BY IDOCK:   -1.68 KCAL/MOL
REMARK 924 INTRA-LIGAND FREE ENERGY PREDICTED BY IDOCK:   -0.11 KCAL/MOL
REMARK 927      BINDING AFFINITY PREDICTED BY RF-SCORE:    0.00 PKD
ROOT
ATOM      1  NZ  LYS A   1     -11.337   6.859  68.135  1.00  0.00    -0.536 NA 
ATOM      2  HZ2 LYS A   1     -11.318   7.232  69.085  1.00  0.00     0.000 HD 
ATOM      3  CE  LYS A   1     -10.654   7.748  67.200  1.00  0.00    -0.331 C  
ATOM      4  HZ1 LYS A   1     -12.290   6.656  67.835  1.00  0.00     0.000 HD 
ENDROOT
BRANCH   3   5
ATOM      5  CD  LYS A   1      -9.224   8.053  67.652  1.00  0.00    -0.145 C  
BRANCH   5   6
ATOM      6  CG  LYS A   1      -8.447   8.863  66.608  1.00  0.00    -0.122 C  
BRANCH   6   7
ATOM      7  CB  LYS A   1      -8.527   8.234  65.216  1.00  0.00    -0.179 C  
BRANCH   7   8
ATOM      8  CA  LYS A   1      -7.452   7.162  64.982  1.00  0.00    -0.093 C  
ATOM      9  N   LYS A   1      -6.094   7.762  64.826  1.00  0.00    -0.041 NA 
ATOM     10  C   LYS A   1      -7.781   6.405  63.686  1.00  0.00    -0.114 C  
ATOM     11  OXT LYS A   1      -8.615   5.519  63.576  1.00  0.00    -0.075 OA 
ATOM     12  O   LYS A   1      -7.035   6.871  62.648  1.00  0.00    -0.049 OA 
ATOM     13  H1  LYS A   1      -5.380   7.051  64.671  1.00  0.00     0.000 HD 
ATOM     14  H2  LYS A   1      -5.858   8.358  65.621  1.00  0.00     0.000 HD 
ENDBRANCH   7   8
ENDBRANCH   6   7
ENDBRANCH   5   6
ENDBRANCH   3   5
TORSDOF 4
ENDMDL
MODEL      290
REMARK 921   NORMALIZED FREE ENERGY PREDICTED BY IDOCK:   -1.04 KCAL/MOL
REMARK 922        TOTAL FREE ENERGY PREDICTED BY IDOCK:   -1.78 KCAL/MOL
REMARK 923 INTER-LIGAND FREE ENERGY PREDICTED BY IDOCK:   -1.61 KCAL/MOL
REMARK 924 INTRA-LIGAND FREE ENERGY PREDICTED BY IDOCK:   -0.17 KCAL/MOL
REMARK 927      BINDING AFFINITY PREDICTED BY RF-SCORE:    0.00 PKD
ROOT
ATOM      1  NZ  LYS A   1     -10.037   8.687  65.867  1.00  0.00    -0.378 NA 
ATOM      2  HZ2 LYS A   1     -10.374   9.573  66.244  1.00  0.00     0.000 HD 
ATOM      3  CE  LYS A   1      -9.703   7.748  66.933  1.00  0.00    -0.216 C  
ATOM      4  HZ1 LYS A   1      -9.254   8.829  65.229  1.00  0.00     0.000 HD 
ENDROOT
BRANCH   3   5
ATOM      5  CD  LYS A   1     -10.879   7.537  67.890  1.00  0.00    -0.128 C  
BRANCH   5   6
ATOM      6  CG  LYS A   1     -10.739   6.244  68.702  1.00  0.00    -0.357 C  
BRANCH   6   7
ATOM      7  CB  LYS A   1      -9.287   5.774  68.791  1.00  0.00    -0.135 C  
BRANCH   7   8
ATOM      8  CA  LYS A   1      -8.628   6.121  70.134  1.00  0.00    -0.133 C  
ATOM      9  N   LYS A   1      -7.665   7.254  70.005  1.00  0.00    -0.094 NA 
ATOM     10  C   LYS A   1      -7.845   4.896  70.633  1.00  0.00    -0.070 C  
ATOM     11  OXT LYS A   1      -8.332   3.920  71.182  1.00  0.00    -0.070 OA 
ATOM     12  O   LYS A   1      -6.519   5.021  70.355  1.00  0.00    -0.028 OA 
ATOM     13  H1  LYS A   1      -7.227   7.485  70.896  1.00  0.00     0.000 HD 
ATOM     14  H2  LYS A   1      -8.109   8.072  69.587  1.00  0.00     0.000 HD 
ENDBRANCH   7   8
ENDBRANCH   6   7
ENDBRANCH   5   6
ENDBRANCH   3   5
TORSDOF 4
ENDMDL
MODEL      291
REMARK 921   NORMALIZED FREE ENERGY PREDICTED BY IDOCK:   -1.04 KCAL/MOL
REMARK 922        TOTAL FREE ENERGY PREDICTED BY IDOCK:   -1.78 KCAL/MOL
REMARK 923 INTER-LIGAND FREE ENERGY PREDICTED BY IDOCK:   -1.61 KCAL/MOL
REMARK 924 INTRA-LIGAND FREE ENERGY PREDICTED BY IDOCK:   -0.17 KCAL/MOL
REMARK 927      BINDING AFFINITY PREDICTED BY RF-SCORE:    0.00 PKD
ROOT
ATOM      1  NZ  LYS A   1      -5.784   9.917  70.275  1.00  0.00    -0.046 NA 
ATOM      2  HZ2 LYS A   1      -5.259   9.089  69.993  1.00  0.00     0.000 HD 
ATOM      3  CE  LYS A   1      -6.527  10.484  69.154  1.00  0.00    -0.054 C  
ATOM      4  HZ1 LYS A   1      -5.178  10.610  70.715  1.00  0.00     0.000 HD 
ENDROOT
BRANCH   3   5
ATOM      5  CD  LYS A   1      -7.437   9.444  68.495  1.00  0.00    -0.080 C  
BRANCH   5   6
ATOM      6  CG  LYS A   1      -8.749   9.251  69.264  1.00  0.00    -0.141 C  
BRANCH   6   7
ATOM      7  CB  LYS A   1      -9.437  10.582  69.570  1.00  0.00    -0.106 C  
BRANCH   7   8
ATOM      8  CA  LYS A   1     -10.339  11.065  68.424  1.00  0.00    -0.183 C  
ATOM      9  N   LYS A   1      -9.656  12.080  67.569  1.00  0.00    -0.175 NA 
ATOM     10  C   LYS A   1     -11.592  11.724  69.023  1.00  0.00    -0.311 C  
ATOM     11  OXT LYS A   1     -12.561  11.128  69.467  1.00  0.00    -0.245 OA 
ATOM     12  O   LYS A   1     -11.474  13.079  69.025  1.00  0.00    -0.266 OA 
ATOM     13  H1  LYS A   1     -10.255  12.400  66.808  1.00  0.00     0.000 HD 
ATOM     14  H2  LYS A   1      -8.765  11.729  67.217  1.00  0.00     0.000 HD 
ENDBRANCH   7   8
ENDBRANCH   6   7
ENDBRANCH   5   6
ENDBRANCH   3   5
TORSDOF 4
ENDMDL
MODEL      292
REMARK 921   NORMALIZED FREE ENERGY PREDICTED BY IDOCK:   -0.99 KCAL/MOL
REMARK 922        TOTAL FREE ENERGY PREDICTED BY IDOCK:   -1.72 KCAL/MOL
REMARK 923 INTER-LIGAND FREE ENERGY PREDICTED BY IDOCK:   -1.59 KCAL/MOL
REMARK 924 INTRA-LIGAND FREE ENERGY PREDICTED BY IDOCK:   -0.13 KCAL/MOL
REMARK 927      BINDING AFFINITY PREDICTED BY RF-SCORE:    0.00 PKD
ROOT
ATOM      1  NZ  LYS A   1     -10.188   4.250  63.274  1.00  0.00    -0.391 NA 
ATOM      2  HZ2 LYS A   1     -10.426   5.196  62.975  1.00  0.00     0.000 HD 
ATOM      3  CE  LYS A   1      -9.821   4.214  64.686  1.00  0.00    -0.178 C  
ATOM      4  HZ1 LYS A   1      -9.459   3.847  62.685  1.00  0.00     0.000 HD 
ENDROOT
BRANCH   3   5
ATOM      5  CD  LYS A   1     -10.915   4.819  65.570  1.00  0.00     0.004 C  
BRANCH   5   6
ATOM      6  CG  LYS A   1     -10.340   5.708  66.678  1.00  0.00    -0.311 C  
BRANCH   6   7
ATOM      7  CB  LYS A   1      -9.028   5.154  67.236  1.00  0.00    -0.112 C  
BRANCH   7   8
ATOM      8  CA  LYS A   1      -8.953   5.226  68.769  1.00  0.00    -0.110 C  
ATOM      9  N   LYS A   1     -10.225   5.735  69.364  1.00  0.00    -0.211 NA 
ATOM     10  C   LYS A   1      -7.830   6.197  69.165  1.00  0.00    -0.104 C  
ATOM     11  OXT LYS A   1      -6.637   5.935  69.170  1.00  0.00    -0.046 OA 
ATOM     12  O   LYS A   1      -8.335   7.419  69.487  1.00  0.00    -0.129 OA 
ATOM     13  H1  LYS A   1     -10.175   5.783  70.381  1.00  0.00     0.000 HD 
ATOM     14  H2  LYS A   1     -11.025   5.181  69.056  1.00  0.00     0.000 HD 
ENDBRANCH   7   8
ENDBRANCH   6   7
ENDBRANCH   5   6
ENDBRANCH   3   5
TORSDOF 4
ENDMDL
MODEL      293
REMARK 921   NORMALIZED FREE ENERGY PREDICTED BY IDOCK:   -0.97 KCAL/MOL
REMARK 922        TOTAL FREE ENERGY PREDICTED BY IDOCK:   -1.70 KCAL/MOL
REMARK 923 INTER-LIGAND FREE ENERGY PREDICTED BY IDOCK:   -1.33 KCAL/MOL
REMARK 924 INTRA-LIGAND FREE ENERGY PREDICTED BY IDOCK:   -0.38 KCAL/MOL
REMARK 927      BINDING AFFINITY PREDICTED BY RF-SCORE:    0.00 PKD
ROOT
ATOM      1  NZ  LYS A   1     -10.070   1.959  71.959  1.00  0.00    -0.157 NA 
ATOM      2  HZ2 LYS A   1      -9.942   2.143  70.963  1.00  0.00     0.000 HD 
ATOM      3  CE  LYS A   1      -9.111   2.708  72.765  1.00  0.00    -0.081 C  
ATOM      4  HZ1 LYS A   1     -10.033   0.960  72.160  1.00  0.00     0.000 HD 
ENDROOT
BRANCH   3   5
ATOM      5  CD  LYS A   1      -9.167   4.207  72.462  1.00  0.00    -0.146 C  
BRANCH   5   6
ATOM      6  CG  LYS A   1     -10.095   4.527  71.285  1.00  0.00    -0.225 C  
BRANCH   6   7
ATOM      7  CB  LYS A   1      -9.411   5.406  70.236  1.00  0.00    -0.214 C  
BRANCH   7   8
ATOM      8  CA  LYS A   1      -9.197   4.682  68.899  1.00  0.00    -0.129 C  
ATOM      9  N   LYS A   1      -9.301   3.200  69.046  1.00  0.00    -0.163 NA 
ATOM     10  C   LYS A   1      -7.786   5.004  68.382  1.00  0.00    -0.082 C  
ATOM     11  OXT LYS A   1      -7.458   6.036  67.817  1.00  0.00    -0.082 OA 
ATOM     12  O   LYS A   1      -6.923   3.990  68.661  1.00  0.00    -0.046 OA 
ATOM     13  H1  LYS A   1      -9.158   2.719  68.158  1.00  0.00     0.000 HD 
ATOM     14  H2  LYS A   1     -10.186   2.931  69.476  1.00  0.00     0.000 HD 
ENDBRANCH   7   8
ENDBRANCH   6   7
ENDBRANCH   5   6
ENDBRANCH   3   5
TORSDOF 4
ENDMDL
MODEL      294
REMARK 921   NORMALIZED FREE ENERGY PREDICTED BY IDOCK:   -0.96 KCAL/MOL
REMARK 922        TOTAL FREE ENERGY PREDICTED BY IDOCK:   -1.68 KCAL/MOL
REMARK 923 INTER-LIGAND FREE ENERGY PREDICTED BY IDOCK:   -1.56 KCAL/MOL
REMARK 924 INTRA-LIGAND FREE ENERGY PREDICTED BY IDOCK:   -0.13 KCAL/MOL
REMARK 927      BINDING AFFINITY PREDICTED BY RF-SCORE:    0.00 PKD
ROOT
ATOM      1  NZ  LYS A   1     -10.155   1.924  71.885  1.00  0.00    -0.155 NA 
ATOM      2  HZ2 LYS A   1      -9.924   2.524  71.094  1.00  0.00     0.000 HD 
ATOM      3  CE  LYS A   1      -9.481   2.363  73.103  1.00  0.00    -0.088 C  
ATOM      4  HZ1 LYS A   1      -9.959   0.944  71.679  1.00  0.00     0.000 HD 
ENDROOT
BRANCH   3   5
ATOM      5  CD  LYS A   1      -9.775   3.833  73.413  1.00  0.00    -0.149 C  
BRANCH   5   6
ATOM      6  CG  LYS A   1     -10.433   4.554  72.231  1.00  0.00    -0.215 C  
BRANCH   6   7
ATOM      7  CB  LYS A   1      -9.789   5.914  71.956  1.00  0.00    -0.181 C  
BRANCH   7   8
ATOM      8  CA  LYS A   1      -9.038   5.959  70.617  1.00  0.00    -0.149 C  
ATOM      9  N   LYS A   1      -7.622   6.398  70.788  1.00  0.00    -0.094 NA 
ATOM     10  C   LYS A   1      -9.733   6.970  69.692  1.00  0.00    -0.157 C  
ATOM     11  OXT LYS A   1     -10.754   6.760  69.054  1.00  0.00    -0.218 OA 
ATOM     12  O   LYS A   1      -9.077   8.161  69.693  1.00  0.00    -0.150 OA 
ATOM     13  H1  LYS A   1      -7.123   6.428  69.899  1.00  0.00     0.000 HD 
ATOM     14  H2  LYS A   1      -7.133   5.817  71.469  1.00  0.00     0.000 HD 
ENDBRANCH   7   8
ENDBRANCH   6   7
ENDBRANCH   5   6
ENDBRANCH   3   5
TORSDOF 4
ENDMDL
MODEL      295
REMARK 921   NORMALIZED FREE ENERGY PREDICTED BY IDOCK:   -0.92 KCAL/MOL
REMARK 922        TOTAL FREE ENERGY PREDICTED BY IDOCK:   -1.63 KCAL/MOL
REMARK 923 INTER-LIGAND FREE ENERGY PREDICTED BY IDOCK:   -1.44 KCAL/MOL
REMARK 924 INTRA-LIGAND FREE ENERGY PREDICTED BY IDOCK:   -0.19 KCAL/MOL
REMARK 927      BINDING AFFINITY PREDICTED BY RF-SCORE:    0.00 PKD
ROOT
ATOM      1  NZ  LYS A   1      -5.159   7.595  68.136  1.00  0.00    -0.025 NA 
ATOM      2  HZ2 LYS A   1      -4.945   6.623  67.913  1.00  0.00     0.000 HD 
ATOM      3  CE  LYS A   1      -6.145   8.150  67.214  1.00  0.00    -0.054 C  
ATOM      4  HZ1 LYS A   1      -4.312   8.164  68.169  1.00  0.00     0.000 HD 
ENDROOT
BRANCH   3   5
ATOM      5  CD  LYS A   1      -7.415   7.297  67.166  1.00  0.00    -0.105 C  
BRANCH   5   6
ATOM      6  CG  LYS A   1      -8.153   7.432  65.829  1.00  0.00    -0.129 C  
BRANCH   6   7
ATOM      7  CB  LYS A   1      -9.423   8.275  65.956  1.00  0.00    -0.189 C  
BRANCH   7   8
ATOM      8  CA  LYS A   1     -10.062   8.186  67.350  1.00  0.00    -0.233 C  
ATOM      9  N   LYS A   1     -11.372   7.472  67.317  1.00  0.00    -0.240 NA 
ATOM     10  C   LYS A   1     -10.317   9.609  67.870  1.00  0.00    -0.224 C  
ATOM     11  OXT LYS A   1      -9.475  10.346  68.359  1.00  0.00    -0.141 OA 
ATOM     12  O   LYS A   1     -11.617   9.967  67.688  1.00  0.00    -0.099 OA 
ATOM     13  H1  LYS A   1     -11.796   7.413  68.242  1.00  0.00     0.000 HD 
ATOM     14  H2  LYS A   1     -11.281   6.549  66.890  1.00  0.00     0.000 HD 
ENDBRANCH   7   8
ENDBRANCH   6   7
ENDBRANCH   5   6
ENDBRANCH   3   5
TORSDOF 4
ENDMDL
MODEL      296
REMARK 921   NORMALIZED FREE ENERGY PREDICTED BY IDOCK:   -0.83 KCAL/MOL
REMARK 922        TOTAL FREE ENERGY PREDICTED BY IDOCK:   -1.52 KCAL/MOL
REMARK 923 INTER-LIGAND FREE ENERGY PREDICTED BY IDOCK:   -1.01 KCAL/MOL
REMARK 924 INTRA-LIGAND FREE ENERGY PREDICTED BY IDOCK:   -0.51 KCAL/MOL
REMARK 927      BINDING AFFINITY PREDICTED BY RF-SCORE:    0.00 PKD
ROOT
ATOM      1  NZ  LYS A   1     -10.616   2.577  72.514  1.00  0.00    -0.090 NA 
ATOM      2  HZ2 LYS A   1      -9.939   2.607  71.752  1.00  0.00     0.000 HD 
ATOM      3  CE  LYS A   1     -10.172   1.690  73.585  1.00  0.00    -0.084 C  
ATOM      4  HZ1 LYS A   1     -11.545   2.325  72.177  1.00  0.00     0.000 HD 
ENDROOT
BRANCH   3   5
ATOM      5  CD  LYS A   1      -8.778   2.067  74.091  1.00  0.00    -0.062 C  
BRANCH   5   6
ATOM      6  CG  LYS A   1      -7.893   2.639  72.978  1.00  0.00    -0.051 C  
BRANCH   6   7
ATOM      7  CB  LYS A   1      -7.354   4.027  73.328  1.00  0.00    -0.070 C  
BRANCH   7   8
ATOM      8  CA  LYS A   1      -8.087   5.156  72.588  1.00  0.00    -0.109 C  
ATOM      9  N   LYS A   1      -7.143   6.204  72.098  1.00  0.00    -0.082 NA 
ATOM     10  C   LYS A   1      -9.070   5.829  73.560  1.00  0.00    -0.131 C  
ATOM     11  OXT LYS A   1     -10.166   5.392  73.873  1.00  0.00    -0.195 OA 
ATOM     12  O   LYS A   1      -8.546   6.980  74.061  1.00  0.00    -0.138 OA 
ATOM     13  H1  LYS A   1      -7.630   6.953  71.607  1.00  0.00     0.000 HD 
ATOM     14  H2  LYS A   1      -6.407   5.798  71.520  1.00  0.00     0.000 HD 
ENDBRANCH   7   8
ENDBRANCH   6   7
ENDBRANCH   5   6
ENDBRANCH   3   5
TORSDOF 4
ENDMDL
MODEL      297
REMARK 921   NORMALIZED FREE ENERGY PREDICTED BY IDOCK:   -0.80 KCAL/MOL
REMARK 922        TOTAL FREE ENERGY PREDICTED BY IDOCK:   -1.49 KCAL/MOL
REMARK 923 INTER-LIGAND FREE ENERGY PREDICTED BY IDOCK:   -1.33 KCAL/MOL
REMARK 924 INTRA-LIGAND FREE ENERGY PREDICTED BY IDOCK:   -0.16 KCAL/MOL
REMARK 927      BINDING AFFINITY PREDICTED BY RF-SCORE:    0.00 PKD
ROOT
ATOM      1  NZ  LYS A   1      -8.757   3.294  63.816  1.00  0.00    -0.089 NA 
ATOM      2  HZ2 LYS A   1      -8.945   3.918  63.030  1.00  0.00     0.000 HD 
ATOM      3  CE  LYS A   1      -8.794   4.012  65.086  1.00  0.00    -0.127 C  
ATOM      4  HZ1 LYS A   1      -7.876   2.794  63.691  1.00  0.00     0.000 HD 
ENDROOT
BRANCH   3   5
ATOM      5  CD  LYS A   1     -10.115   4.763  65.273  1.00  0.00    -0.054 C  
BRANCH   5   6
ATOM      6  CG  LYS A   1     -10.430   5.023  66.750  1.00  0.00    -0.273 C  
BRANCH   6   7
ATOM      7  CB  LYS A   1      -9.193   4.871  67.637  1.00  0.00    -0.138 C  
BRANCH   7   8
ATOM      8  CA  LYS A   1      -9.516   4.272  69.014  1.00  0.00    -0.172 C  
ATOM      9  N   LYS A   1      -8.807   4.992  70.113  1.00  0.00    -0.108 NA 
ATOM     10  C   LYS A   1      -9.052   2.807  69.038  1.00  0.00    -0.141 C  
ATOM     11  OXT LYS A   1      -9.653   1.866  68.544  1.00  0.00    -0.182 OA 
ATOM     12  O   LYS A   1      -7.850   2.689  69.664  1.00  0.00    -0.043 OA 
ATOM     13  H1  LYS A   1      -9.021   4.594  71.027  1.00  0.00     0.000 HD 
ATOM     14  H2  LYS A   1      -9.004   5.993  70.088  1.00  0.00     0.000 HD 
ENDBRANCH   7   8
ENDBRANCH   6   7
ENDBRANCH   5   6
ENDBRANCH   3   5
TORSDOF 4
ENDMDL
