MODEL        1
REMARK 921   NORMALIZED FREE ENERGY PREDICTED BY IDOCK:   -6.79 KCAL/MOL
REMARK 922        TOTAL FREE ENERGY PREDICTED BY IDOCK:  -11.52 KCAL/MOL
REMARK 923 INTER-LIGAND FREE ENERGY PREDICTED BY IDOCK:   -9.97 KCAL/MOL
REMARK 924 INTRA-LIGAND FREE ENERGY PREDICTED BY IDOCK:   -1.55 KCAL/MOL
REMARK 927      BINDING AFFINITY PREDICTED BY RF-SCORE:    0.00 PKD
ROOT
HETATM    1  C   UNL     1     -11.336  12.269  67.095  1.00  0.00    -0.398 C  
HETATM    2  C   UNL     1     -12.127  13.410  67.747  1.00  0.00    -0.259 C  
ENDROOT
BRANCH   2   3
HETATM    3  C   UNL     1     -11.272  14.034  68.873  1.00  0.00    -0.303 C  
BRANCH   3   4
HETATM    4  C   UNL     1     -11.668  15.474  69.218  1.00  0.00    -0.380 C  
BRANCH   4   5
HETATM    5  C   UNL     1     -12.328  15.566  70.575  1.00  0.00    -0.461 A  
HETATM    6  C   UNL     1     -11.634  16.075  71.681  1.00  0.00    -0.538 A  
HETATM    7  C   UNL     1     -12.251  16.155  72.930  1.00  0.00    -0.640 A  
HETATM    8  C   UNL     1     -13.658  15.154  70.743  1.00  0.00    -0.299 A  
HETATM    9  C   UNL     1     -13.571  15.733  73.088  1.00  0.00    -0.588 A  
HETATM   10  C   UNL     1     -14.275  15.235  71.993  1.00  0.00    -0.679 A  
ENDBRANCH   4   5
ENDBRANCH   3   4
ENDBRANCH   2   3
BRANCH   2  11
HETATM   11  N   UNL     1     -12.515  14.446  66.783  1.00  0.00    -0.516 NA 
HETATM   12  H   UNL     1     -12.021  15.317  66.975  1.00  0.00     0.000 HD 
BRANCH  11  13
HETATM   13  C   UNL     1     -12.338  14.052  65.378  1.00  0.00    -0.478 C  
BRANCH  13  14
HETATM   14  C   UNL     1     -11.484  15.082  64.590  1.00  0.00    -0.381 C  
HETATM   15  H   UNL     1     -11.840  16.598  63.398  1.00  0.00     0.000 HD 
HETATM   16  O   UNL     1     -12.362  15.968  63.881  1.00  0.00    -0.855 OA 
BRANCH  14  17
HETATM   17  C   UNL     1     -10.536  15.856  65.498  1.00  0.00    -0.419 A  
HETATM   18  C   UNL     1      -9.859  17.911  66.660  1.00  0.00    -0.342 A  
HETATM   19  H   UNL     1      -6.886  17.474  68.037  1.00  0.00     0.000 HD 
HETATM   20  C   UNL     1      -8.685  17.273  67.073  1.00  0.00    -0.231 A  
HETATM   21  C   UNL     1      -8.444  15.943  66.746  1.00  0.00    -0.297 A  
HETATM   22  O   UNL     1      -7.684  17.907  67.757  1.00  0.00    -0.213 OA 
HETATM   23  C   UNL     1      -9.355  15.245  65.947  1.00  0.00    -0.308 A  
HETATM   24  C   UNL     1     -10.776  17.191  65.872  1.00  0.00    -0.132 A  
BRANCH  18  25
HETATM   25  C   UNL     1     -10.195  19.331  66.974  1.00  0.00    -0.398 C  
HETATM   26  O   UNL     1     -10.251  20.192  66.105  1.00  0.00    -0.448 OA 
HETATM   27  H1  UNL     1     -10.689  20.629  68.492  1.00  0.00     0.000 HD 
HETATM   28  H2  UNL     1     -10.430  18.952  69.012  1.00  0.00     0.000 HD 
HETATM   29  N   UNL     1     -10.460  19.659  68.277  1.00  0.00    -0.402 N  
ENDBRANCH  18  25
ENDBRANCH  14  17
ENDBRANCH  13  14
ENDBRANCH  11  13
ENDBRANCH   2  11
TORSDOF 8
ENDMDL
MODEL        2
REMARK 921   NORMALIZED FREE ENERGY PREDICTED BY IDOCK:   -6.60 KCAL/MOL
REMARK 922        TOTAL FREE ENERGY PREDICTED BY IDOCK:  -11.24 KCAL/MOL
REMARK 923 INTER-LIGAND FREE ENERGY PREDICTED BY IDOCK:   -9.96 KCAL/MOL
REMARK 924 INTRA-LIGAND FREE ENERGY PREDICTED BY IDOCK:   -1.28 KCAL/MOL
REMARK 927      BINDING AFFINITY PREDICTED BY RF-SCORE:    0.00 PKD
ROOT
HETATM    1  C   UNL     1     -11.729  10.294  70.449  1.00  0.00    -0.404 C  
HETATM    2  C   UNL     1     -12.034  11.195  69.246  1.00  0.00    -0.351 C  
ENDROOT
BRANCH   2   3
HETATM    3  C   UNL     1     -11.318  12.551  69.439  1.00  0.00    -0.275 C  
BRANCH   3   4
HETATM    4  C   UNL     1     -12.261  13.757  69.378  1.00  0.00    -0.325 C  
BRANCH   4   5
HETATM    5  C   UNL     1     -12.431  14.407  70.733  1.00  0.00    -0.423 A  
HETATM    6  C   UNL     1     -13.004  13.704  71.801  1.00  0.00    -0.441 A  
HETATM    7  C   UNL     1     -13.157  14.313  73.048  1.00  0.00    -0.526 A  
HETATM    8  C   UNL     1     -12.001  15.725  70.943  1.00  0.00    -0.453 A  
HETATM    9  C   UNL     1     -12.735  15.627  73.244  1.00  0.00    -0.626 A  
HETATM   10  C   UNL     1     -12.155  16.332  72.191  1.00  0.00    -0.530 A  
ENDBRANCH   4   5
ENDBRANCH   3   4
ENDBRANCH   2   3
BRANCH   2  11
HETATM   11  N   UNL     1     -11.622  10.590  67.974  1.00  0.00    -0.716 NA 
HETATM   12  H   UNL     1     -12.095  11.043  67.192  1.00  0.00     0.000 HD 
BRANCH  11  13
HETATM   13  C   UNL     1     -10.168  10.579  67.760  1.00  0.00    -0.190 C  
BRANCH  13  14
HETATM   14  C   UNL     1      -9.801  10.712  66.257  1.00  0.00    -0.214 C  
HETATM   15  H   UNL     1      -9.876   9.555  64.675  1.00  0.00     0.000 HD 
HETATM   16  O   UNL     1     -10.101   9.475  65.595  1.00  0.00    -0.285 OA 
BRANCH  14  17
HETATM   17  C   UNL     1     -10.518  11.881  65.592  1.00  0.00    -0.302 A  
HETATM   18  C   UNL     1     -10.953  14.285  65.344  1.00  0.00    -0.335 A  
HETATM   19  H   UNL     1     -13.472  14.742  63.252  1.00  0.00     0.000 HD 
HETATM   20  C   UNL     1     -11.965  13.992  64.424  1.00  0.00    -0.454 A  
HETATM   21  C   UNL     1     -12.233  12.678  64.055  1.00  0.00    -0.544 A  
HETATM   22  O   UNL     1     -12.785  14.941  63.877  1.00  0.00    -0.789 OA 
HETATM   23  C   UNL     1     -11.528  11.628  64.650  1.00  0.00    -0.249 A  
HETATM   24  C   UNL     1     -10.238  13.220  65.922  1.00  0.00    -0.295 A  
BRANCH  18  25
HETATM   25  C   UNL     1     -10.599  15.666  65.786  1.00  0.00    -0.361 C  
HETATM   26  O   UNL     1     -10.227  16.525  64.996  1.00  0.00    -0.564 OA 
HETATM   27  H1  UNL     1     -10.476  16.912  67.419  1.00  0.00     0.000 HD 
HETATM   28  H2  UNL     1     -11.038  15.269  67.786  1.00  0.00     0.000 HD 
HETATM   29  N   UNL     1     -10.718  15.968  67.116  1.00  0.00    -0.308 N  
ENDBRANCH  18  25
ENDBRANCH  14  17
ENDBRANCH  13  14
ENDBRANCH  11  13
ENDBRANCH   2  11
TORSDOF 8
ENDMDL
MODEL        3
REMARK 921   NORMALIZED FREE ENERGY PREDICTED BY IDOCK:   -6.58 KCAL/MOL
REMARK 922        TOTAL FREE ENERGY PREDICTED BY IDOCK:  -11.21 KCAL/MOL
REMARK 923 INTER-LIGAND FREE ENERGY PREDICTED BY IDOCK:   -9.95 KCAL/MOL
REMARK 924 INTRA-LIGAND FREE ENERGY PREDICTED BY IDOCK:   -1.26 KCAL/MOL
REMARK 927      BINDING AFFINITY PREDICTED BY RF-SCORE:    0.00 PKD
ROOT
HETATM    1  C   UNL     1     -10.493   9.429  70.956  1.00  0.00    -0.392 C  
HETATM    2  C   UNL     1     -10.541  10.167  69.613  1.00  0.00    -0.257 C  
ENDROOT
BRANCH   2   3
HETATM    3  C   UNL     1     -11.809  11.049  69.569  1.00  0.00    -0.404 C  
BRANCH   3   4
HETATM    4  C   UNL     1     -12.410  11.328  70.952  1.00  0.00    -0.490 C  
BRANCH   4   5
HETATM    5  C   UNL     1     -12.685  12.800  71.158  1.00  0.00    -0.355 A  
HETATM    6  C   UNL     1     -13.430  13.246  72.258  1.00  0.00    -0.679 A  
HETATM    7  C   UNL     1     -13.679  14.607  72.441  1.00  0.00    -0.575 A  
HETATM    8  C   UNL     1     -12.181  13.747  70.255  1.00  0.00    -0.429 A  
HETATM    9  C   UNL     1     -13.182  15.539  71.530  1.00  0.00    -0.589 A  
HETATM   10  C   UNL     1     -12.431  15.108  70.438  1.00  0.00    -0.416 A  
ENDBRANCH   4   5
ENDBRANCH   3   4
ENDBRANCH   2   3
BRANCH   2  11
HETATM   11  N   UNL     1      -9.350  10.994  69.384  1.00  0.00    -0.403 NA 
HETATM   12  H   UNL     1      -8.511  10.508  69.699  1.00  0.00     0.000 HD 
BRANCH  11  13
HETATM   13  C   UNL     1      -9.194  11.445  67.994  1.00  0.00    -0.171 C  
BRANCH  13  14
HETATM   14  C   UNL     1      -8.475  12.819  67.907  1.00  0.00    -0.173 C  
HETATM   15  H   UNL     1      -6.709  13.459  67.344  1.00  0.00     0.000 HD 
HETATM   16  O   UNL     1      -7.149  12.619  67.397  1.00  0.00    -0.142 OA 
BRANCH  14  17
HETATM   17  C   UNL     1      -9.249  13.818  67.054  1.00  0.00    -0.256 A  
HETATM   18  C   UNL     1     -11.069  14.375  65.501  1.00  0.00    -0.326 A  
HETATM   19  H   UNL     1     -10.726  17.497  64.473  1.00  0.00     0.000 HD 
HETATM   20  C   UNL     1     -10.561  15.674  65.396  1.00  0.00    -0.415 A  
HETATM   21  C   UNL     1      -9.444  16.063  66.128  1.00  0.00    -0.371 A  
HETATM   22  O   UNL     1     -11.071  16.615  64.544  1.00  0.00    -0.886 OA 
HETATM   23  C   UNL     1      -8.781  15.136  66.937  1.00  0.00    -0.289 A  
HETATM   24  C   UNL     1     -10.402  13.456  66.333  1.00  0.00    -0.288 A  
BRANCH  18  25
HETATM   25  C   UNL     1     -12.263  13.880  64.756  1.00  0.00    -0.415 C  
HETATM   26  O   UNL     1     -13.389  13.919  65.236  1.00  0.00    -0.732 OA 
HETATM   27  H1  UNL     1     -12.894  13.051  62.982  1.00  0.00     0.000 HD 
HETATM   28  H2  UNL     1     -11.149  13.360  63.072  1.00  0.00     0.000 HD 
HETATM   29  N   UNL     1     -12.077  13.389  63.492  1.00  0.00    -0.496 N  
ENDBRANCH  18  25
ENDBRANCH  14  17
ENDBRANCH  13  14
ENDBRANCH  11  13
ENDBRANCH   2  11
TORSDOF 8
ENDMDL
MODEL        4
REMARK 921   NORMALIZED FREE ENERGY PREDICTED BY IDOCK:   -6.55 KCAL/MOL
REMARK 922        TOTAL FREE ENERGY PREDICTED BY IDOCK:  -11.16 KCAL/MOL
REMARK 923 INTER-LIGAND FREE ENERGY PREDICTED BY IDOCK:   -9.70 KCAL/MOL
REMARK 924 INTRA-LIGAND FREE ENERGY PREDICTED BY IDOCK:   -1.47 KCAL/MOL
REMARK 927      BINDING AFFINITY PREDICTED BY RF-SCORE:    0.00 PKD
ROOT
HETATM    1  C   UNL     1     -12.887  15.999  73.422  1.00  0.00    -0.671 C  
HETATM    2  C   UNL     1     -12.337  15.351  72.146  1.00  0.00    -0.379 C  
ENDROOT
BRANCH   2   3
HETATM    3  C   UNL     1     -13.465  14.541  71.468  1.00  0.00    -0.449 C  
BRANCH   3   4
HETATM    4  C   UNL     1     -13.778  13.217  72.173  1.00  0.00    -0.588 C  
BRANCH   4   5
HETATM    5  C   UNL     1     -13.031  12.058  71.553  1.00  0.00    -0.407 A  
HETATM    6  C   UNL     1     -13.211  10.751  72.024  1.00  0.00    -0.466 A  
HETATM    7  C   UNL     1     -12.516   9.687  71.445  1.00  0.00    -0.465 A  
HETATM    8  C   UNL     1     -12.154  12.276  70.480  1.00  0.00    -0.371 A  
HETATM    9  C   UNL     1     -11.639   9.917  70.385  1.00  0.00    -0.356 A  
HETATM   10  C   UNL     1     -11.460  11.211  69.902  1.00  0.00    -0.386 A  
ENDBRANCH   4   5
ENDBRANCH   3   4
ENDBRANCH   2   3
BRANCH   2  11
HETATM   11  N   UNL     1     -11.796  16.338  71.204  1.00  0.00    -0.617 NA 
HETATM   12  H   UNL     1     -11.338  17.099  71.705  1.00  0.00     0.000 HD 
BRANCH  11  13
HETATM   13  C   UNL     1     -10.894  15.769  70.193  1.00  0.00    -0.351 C  
BRANCH  13  14
HETATM   14  C   UNL     1     -11.425  15.988  68.751  1.00  0.00    -0.375 C  
HETATM   15  H   UNL     1     -11.277  17.389  67.386  1.00  0.00     0.000 HD 
HETATM   16  O   UNL     1     -10.952  17.254  68.269  1.00  0.00    -0.336 OA 
BRANCH  14  17
HETATM   17  C   UNL     1     -11.023  14.857  67.813  1.00  0.00    -0.294 A  
HETATM   18  C   UNL     1     -11.422  13.438  65.848  1.00  0.00    -0.344 A  
HETATM   19  H   UNL     1      -9.166  11.024  65.751  1.00  0.00     0.000 HD 
HETATM   20  C   UNL     1     -10.301  12.675  66.189  1.00  0.00    -0.256 A  
HETATM   21  C   UNL     1      -9.524  13.006  67.294  1.00  0.00    -0.224 A  
HETATM   22  O   UNL     1      -9.928  11.542  65.519  1.00  0.00    -0.223 OA 
HETATM   23  C   UNL     1      -9.893  14.078  68.111  1.00  0.00    -0.235 A  
HETATM   24  C   UNL     1     -11.773  14.526  66.669  1.00  0.00    -0.384 A  
BRANCH  18  25
HETATM   25  C   UNL     1     -12.303  13.153  64.677  1.00  0.00    -0.405 C  
HETATM   26  O   UNL     1     -13.237  12.364  64.745  1.00  0.00    -0.784 OA 
HETATM   27  H1  UNL     1     -12.656  13.622  62.705  1.00  0.00     0.000 HD 
HETATM   28  H2  UNL     1     -11.288  14.486  63.435  1.00  0.00     0.000 HD 
HETATM   29  N   UNL     1     -12.054  13.817  63.505  1.00  0.00    -0.331 N  
ENDBRANCH  18  25
ENDBRANCH  14  17
ENDBRANCH  13  14
ENDBRANCH  11  13
ENDBRANCH   2  11
TORSDOF 8
ENDMDL
MODEL        5
REMARK 921   NORMALIZED FREE ENERGY PREDICTED BY IDOCK:   -6.50 KCAL/MOL
REMARK 922        TOTAL FREE ENERGY PREDICTED BY IDOCK:  -11.09 KCAL/MOL
REMARK 923 INTER-LIGAND FREE ENERGY PREDICTED BY IDOCK:   -8.92 KCAL/MOL
REMARK 924 INTRA-LIGAND FREE ENERGY PREDICTED BY IDOCK:   -2.17 KCAL/MOL
REMARK 927      BINDING AFFINITY PREDICTED BY RF-SCORE:    0.00 PKD
ROOT
HETATM    1  C   UNL     1     -10.633  11.970  63.406  1.00  0.00    -0.478 C  
HETATM    2  C   UNL     1     -12.083  12.372  63.704  1.00  0.00    -0.556 C  
ENDROOT
BRANCH   2   3
HETATM    3  C   UNL     1     -12.377  12.121  65.200  1.00  0.00    -0.135 C  
BRANCH   3   4
HETATM    4  C   UNL     1     -11.152  11.656  65.997  1.00  0.00    -0.325 C  
BRANCH   4   5
HETATM    5  C   UNL     1     -11.405  11.690  67.487  1.00  0.00    -0.364 A  
HETATM    6  C   UNL     1     -11.307  10.525  68.260  1.00  0.00    -0.332 A  
HETATM    7  C   UNL     1     -11.543  10.565  69.635  1.00  0.00    -0.342 A  
HETATM    8  C   UNL     1     -11.727  12.897  68.122  1.00  0.00    -0.395 A  
HETATM    9  C   UNL     1     -11.873  11.770  70.255  1.00  0.00    -0.382 A  
HETATM   10  C   UNL     1     -11.963  12.937  69.498  1.00  0.00    -0.346 A  
ENDBRANCH   4   5
ENDBRANCH   3   4
ENDBRANCH   2   3
BRANCH   2  11
HETATM   11  N   UNL     1     -12.356  13.775  63.371  1.00  0.00    -1.100 NA 
HETATM   12  H   UNL     1     -13.247  13.860  62.883  1.00  0.00     0.000 HD 
BRANCH  11  13
HETATM   13  C   UNL     1     -12.312  14.683  64.526  1.00  0.00    -0.398 C  
BRANCH  13  14
HETATM   14  C   UNL     1     -11.078  15.624  64.478  1.00  0.00    -0.286 C  
HETATM   15  H   UNL     1     -10.755  17.515  64.075  1.00  0.00     0.000 HD 
HETATM   16  O   UNL     1     -11.510  16.940  64.104  1.00  0.00    -1.174 OA 
BRANCH  14  17
HETATM   17  C   UNL     1     -10.323  15.648  65.802  1.00  0.00    -0.386 A  
HETATM   18  C   UNL     1      -8.666  14.717  67.358  1.00  0.00    -0.209 A  
HETATM   19  H   UNL     1      -8.828  16.329  70.239  1.00  0.00     0.000 HD 
HETATM   20  C   UNL     1      -9.053  15.662  68.313  1.00  0.00    -0.187 A  
HETATM   21  C   UNL     1     -10.026  16.612  68.021  1.00  0.00    -0.258 A  
HETATM   22  O   UNL     1      -8.564  15.687  69.590  1.00  0.00    -0.230 OA 
HETATM   23  C   UNL     1     -10.671  16.592  66.780  1.00  0.00    -0.133 A  
HETATM   24  C   UNL     1      -9.310  14.719  66.106  1.00  0.00    -0.292 A  
BRANCH  18  25
HETATM   25  C   UNL     1      -7.627  13.670  67.590  1.00  0.00    -0.179 C  
HETATM   26  O   UNL     1      -6.446  13.859  67.328  1.00  0.00    -0.282 OA 
HETATM   27  H1  UNL     1      -7.314  11.760  68.287  1.00  0.00     0.000 HD 
HETATM   28  H2  UNL     1      -9.001  12.306  68.364  1.00  0.00     0.000 HD 
HETATM   29  N   UNL     1      -8.024  12.476  68.128  1.00  0.00    -0.148 N  
ENDBRANCH  18  25
ENDBRANCH  14  17
ENDBRANCH  13  14
ENDBRANCH  11  13
ENDBRANCH   2  11
TORSDOF 8
ENDMDL
MODEL        6
REMARK 921   NORMALIZED FREE ENERGY PREDICTED BY IDOCK:   -6.35 KCAL/MOL
REMARK 922        TOTAL FREE ENERGY PREDICTED BY IDOCK:  -10.88 KCAL/MOL
REMARK 923 INTER-LIGAND FREE ENERGY PREDICTED BY IDOCK:   -9.58 KCAL/MOL
REMARK 924 INTRA-LIGAND FREE ENERGY PREDICTED BY IDOCK:   -1.30 KCAL/MOL
REMARK 927      BINDING AFFINITY PREDICTED BY RF-SCORE:    0.00 PKD
ROOT
HETATM    1  C   UNL     1     -12.418  14.130  65.784  1.00  0.00    -0.490 C  
HETATM    2  C   UNL     1     -10.923  13.989  65.473  1.00  0.00    -0.309 C  
ENDROOT
BRANCH   2   3
HETATM    3  C   UNL     1     -10.207  15.307  65.846  1.00  0.00    -0.353 C  
BRANCH   3   4
HETATM    4  C   UNL     1     -10.641  15.880  67.200  1.00  0.00    -0.316 C  
BRANCH   4   5
HETATM    5  C   UNL     1     -10.470  17.381  67.256  1.00  0.00    -0.321 A  
HETATM    6  C   UNL     1     -10.515  18.155  66.088  1.00  0.00    -0.377 A  
HETATM    7  C   UNL     1     -10.357  19.540  66.149  1.00  0.00    -0.614 A  
HETATM    8  C   UNL     1     -10.279  18.026  68.486  1.00  0.00    -0.392 A  
HETATM    9  C   UNL     1     -10.157  20.169  67.378  1.00  0.00    -0.556 A  
HETATM   10  C   UNL     1     -10.120  19.411  68.546  1.00  0.00    -0.527 A  
ENDBRANCH   4   5
ENDBRANCH   3   4
ENDBRANCH   2   3
BRANCH   2  11
HETATM   11  N   UNL     1     -10.305  12.867  66.188  1.00  0.00    -0.270 NA 
HETATM   12  H   UNL     1      -9.629  13.206  66.872  1.00  0.00     0.000 HD 
BRANCH  11  13
HETATM   13  C   UNL     1     -11.270  11.959  66.824  1.00  0.00    -0.327 C  
BRANCH  13  14
HETATM   14  C   UNL     1     -10.754  11.427  68.189  1.00  0.00    -0.202 C  
HETATM   15  H   UNL     1      -9.074  11.514  69.198  1.00  0.00     0.000 HD 
HETATM   16  O   UNL     1      -9.390  11.839  68.363  1.00  0.00    -0.191 OA 
BRANCH  14  17
HETATM   17  C   UNL     1     -11.623  11.891  69.351  1.00  0.00    -0.388 A  
HETATM   18  C   UNL     1     -12.641  13.667  70.708  1.00  0.00    -0.397 A  
HETATM   19  H   UNL     1     -14.118  12.332  73.347  1.00  0.00     0.000 HD 
HETATM   20  C   UNL     1     -13.129  12.695  71.588  1.00  0.00    -0.323 A  
HETATM   21  C   UNL     1     -12.910  11.343  71.347  1.00  0.00    -0.502 A  
HETATM   22  O   UNL     1     -13.786  12.992  72.750  1.00  0.00    -0.593 OA 
HETATM   23  C   UNL     1     -12.145  10.945  70.246  1.00  0.00    -0.440 A  
HETATM   24  C   UNL     1     -11.888  13.252  69.595  1.00  0.00    -0.391 A  
BRANCH  18  25
HETATM   25  C   UNL     1     -12.838  15.135  70.892  1.00  0.00    -0.419 C  
HETATM   26  O   UNL     1     -13.952  15.641  70.931  1.00  0.00    -0.479 OA 
HETATM   27  H1  UNL     1     -11.861  16.926  71.162  1.00  0.00     0.000 HD 
HETATM   28  H2  UNL     1     -10.791  15.517  71.019  1.00  0.00     0.000 HD 
HETATM   29  N   UNL     1     -11.726  15.922  71.037  1.00  0.00    -0.402 N  
ENDBRANCH  18  25
ENDBRANCH  14  17
ENDBRANCH  13  14
ENDBRANCH  11  13
ENDBRANCH   2  11
TORSDOF 8
ENDMDL
MODEL        7
REMARK 921   NORMALIZED FREE ENERGY PREDICTED BY IDOCK:   -6.33 KCAL/MOL
REMARK 922        TOTAL FREE ENERGY PREDICTED BY IDOCK:  -10.85 KCAL/MOL
REMARK 923 INTER-LIGAND FREE ENERGY PREDICTED BY IDOCK:   -9.45 KCAL/MOL
REMARK 924 INTRA-LIGAND FREE ENERGY PREDICTED BY IDOCK:   -1.40 KCAL/MOL
REMARK 927      BINDING AFFINITY PREDICTED BY RF-SCORE:    0.00 PKD
ROOT
HETATM    1  C   UNL     1     -13.452   9.439  72.176  1.00  0.00    -0.543 C  
HETATM    2  C   UNL     1     -13.054  10.124  70.863  1.00  0.00    -0.335 C  
ENDROOT
BRANCH   2   3
HETATM    3  C   UNL     1     -12.497  11.531  71.179  1.00  0.00    -0.442 C  
BRANCH   3   4
HETATM    4  C   UNL     1     -13.482  12.423  71.943  1.00  0.00    -0.366 C  
BRANCH   4   5
HETATM    5  C   UNL     1     -12.968  13.839  72.080  1.00  0.00    -0.437 A  
HETATM    6  C   UNL     1     -13.032  14.512  73.307  1.00  0.00    -0.500 A  
HETATM    7  C   UNL     1     -12.556  15.819  73.424  1.00  0.00    -0.663 A  
HETATM    8  C   UNL     1     -12.403  14.496  70.977  1.00  0.00    -0.417 A  
HETATM    9  C   UNL     1     -12.005  16.466  72.318  1.00  0.00    -0.521 A  
HETATM   10  C   UNL     1     -11.927  15.802  71.095  1.00  0.00    -0.469 A  
ENDBRANCH   4   5
ENDBRANCH   3   4
ENDBRANCH   2   3
BRANCH   2  11
HETATM   11  N   UNL     1     -12.060   9.353  70.106  1.00  0.00    -0.445 NA 
HETATM   12  H   UNL     1     -12.394   9.168  69.161  1.00  0.00     0.000 HD 
BRANCH  11  13
HETATM   13  C   UNL     1     -10.726   9.970  70.070  1.00  0.00    -0.299 C  
BRANCH  13  14
HETATM   14  C   UNL     1     -10.152  10.027  68.628  1.00  0.00    -0.172 C  
HETATM   15  H   UNL     1     -10.235   8.900  67.026  1.00  0.00     0.000 HD 
HETATM   16  O   UNL     1     -10.587   8.865  67.908  1.00  0.00    -0.230 OA 
BRANCH  14  17
HETATM   17  C   UNL     1     -10.553  11.306  67.902  1.00  0.00    -0.231 A  
HETATM   18  C   UNL     1     -11.466  12.482  65.948  1.00  0.00    -0.417 A  
HETATM   19  H   UNL     1     -11.106  15.743  66.354  1.00  0.00     0.000 HD 
HETATM   20  C   UNL     1     -11.154  13.703  66.556  1.00  0.00    -0.305 A  
HETATM   21  C   UNL     1     -10.589  13.742  67.826  1.00  0.00    -0.250 A  
HETATM   22  O   UNL     1     -11.318  14.914  65.941  1.00  0.00    -0.340 OA 
HETATM   23  C   UNL     1     -10.273  12.551  68.487  1.00  0.00    -0.210 A  
HETATM   24  C   UNL     1     -11.159  11.291  66.632  1.00  0.00    -0.299 A  
BRANCH  18  25
HETATM   25  C   UNL     1     -12.078  12.354  64.593  1.00  0.00    -0.415 C  
HETATM   26  O   UNL     1     -13.238  12.677  64.373  1.00  0.00    -0.713 OA 
HETATM   27  H1  UNL     1     -11.716  11.788  62.649  1.00  0.00     0.000 HD 
HETATM   28  H2  UNL     1     -10.326  11.614  63.738  1.00  0.00     0.000 HD 
HETATM   29  N   UNL     1     -11.298  11.876  63.575  1.00  0.00    -0.430 N  
ENDBRANCH  18  25
ENDBRANCH  14  17
ENDBRANCH  13  14
ENDBRANCH  11  13
ENDBRANCH   2  11
TORSDOF 8
ENDMDL
MODEL        8
REMARK 921   NORMALIZED FREE ENERGY PREDICTED BY IDOCK:   -6.33 KCAL/MOL
REMARK 922        TOTAL FREE ENERGY PREDICTED BY IDOCK:  -10.84 KCAL/MOL
REMARK 923 INTER-LIGAND FREE ENERGY PREDICTED BY IDOCK:   -9.44 KCAL/MOL
REMARK 924 INTRA-LIGAND FREE ENERGY PREDICTED BY IDOCK:   -1.40 KCAL/MOL
REMARK 927      BINDING AFFINITY PREDICTED BY RF-SCORE:    0.00 PKD
ROOT
HETATM    1  C   UNL     1     -10.216  11.809  66.043  1.00  0.00    -0.265 C  
HETATM    2  C   UNL     1     -11.637  12.383  65.984  1.00  0.00    -0.401 C  
ENDROOT
BRANCH   2   3
HETATM    3  C   UNL     1     -11.888  13.232  67.251  1.00  0.00    -0.421 C  
BRANCH   3   4
HETATM    4  C   UNL     1     -10.997  12.845  68.437  1.00  0.00    -0.285 C  
BRANCH   4   5
HETATM    5  C   UNL     1     -11.803  12.625  69.697  1.00  0.00    -0.379 A  
HETATM    6  C   UNL     1     -12.040  11.333  70.184  1.00  0.00    -0.448 A  
HETATM    7  C   UNL     1     -12.786  11.140  71.348  1.00  0.00    -0.524 A  
HETATM    8  C   UNL     1     -12.314  13.720  70.409  1.00  0.00    -0.423 A  
HETATM    9  C   UNL     1     -13.297  12.235  72.043  1.00  0.00    -0.491 A  
HETATM   10  C   UNL     1     -13.059  13.526  71.573  1.00  0.00    -0.427 A  
ENDBRANCH   4   5
ENDBRANCH   3   4
ENDBRANCH   2   3
BRANCH   2  11
HETATM   11  N   UNL     1     -11.862  13.199  64.785  1.00  0.00    -0.351 NA 
HETATM   12  H   UNL     1     -12.594  12.789  64.205  1.00  0.00     0.000 HD 
BRANCH  11  13
HETATM   13  C   UNL     1     -12.160  14.610  65.068  1.00  0.00    -0.349 C  
BRANCH  13  14
HETATM   14  C   UNL     1     -11.016  15.550  64.599  1.00  0.00    -0.322 C  
HETATM   15  H   UNL     1     -10.886  17.218  63.576  1.00  0.00     0.000 HD 
HETATM   16  O   UNL     1     -11.585  16.643  63.863  1.00  0.00    -1.204 OA 
BRANCH  14  17
HETATM   17  C   UNL     1     -10.172  16.051  65.764  1.00  0.00    -0.401 A  
HETATM   18  C   UNL     1      -9.576  17.771  67.414  1.00  0.00    -0.264 A  
HETATM   19  H   UNL     1      -6.844  16.850  69.032  1.00  0.00     0.000 HD 
HETATM   20  C   UNL     1      -8.498  16.980  67.827  1.00  0.00    -0.198 A  
HETATM   21  C   UNL     1      -8.272  15.732  67.257  1.00  0.00    -0.211 A  
HETATM   22  O   UNL     1      -7.576  17.387  68.752  1.00  0.00    -0.249 OA 
HETATM   23  C   UNL     1      -9.092  15.279  66.219  1.00  0.00    -0.337 A  
HETATM   24  C   UNL     1     -10.404  17.295  66.381  1.00  0.00    -0.316 A  
BRANCH  18  25
HETATM   25  C   UNL     1      -9.891  19.116  67.978  1.00  0.00    -0.356 C  
HETATM   26  O   UNL     1     -10.152  19.278  69.164  1.00  0.00    -0.401 OA 
HETATM   27  H1  UNL     1     -10.080  21.113  67.518  1.00  0.00     0.000 HD 
HETATM   28  H2  UNL     1      -9.637  20.078  66.145  1.00  0.00     0.000 HD 
HETATM   29  N   UNL     1      -9.865  20.193  67.133  1.00  0.00    -0.419 N  
ENDBRANCH  18  25
ENDBRANCH  14  17
ENDBRANCH  13  14
ENDBRANCH  11  13
ENDBRANCH   2  11
TORSDOF 8
ENDMDL
MODEL        9
REMARK 921   NORMALIZED FREE ENERGY PREDICTED BY IDOCK:   -6.29 KCAL/MOL
REMARK 922        TOTAL FREE ENERGY PREDICTED BY IDOCK:  -10.79 KCAL/MOL
REMARK 923 INTER-LIGAND FREE ENERGY PREDICTED BY IDOCK:   -9.65 KCAL/MOL
REMARK 924 INTRA-LIGAND FREE ENERGY PREDICTED BY IDOCK:   -1.14 KCAL/MOL
REMARK 927      BINDING AFFINITY PREDICTED BY RF-SCORE:    0.00 PKD
ROOT
HETATM    1  C   UNL     1     -10.332   9.534  70.742  1.00  0.00    -0.377 C  
HETATM    2  C   UNL     1     -10.610  10.345  69.470  1.00  0.00    -0.246 C  
ENDROOT
BRANCH   2   3
HETATM    3  C   UNL     1     -12.035  10.936  69.553  1.00  0.00    -0.401 C  
BRANCH   3   4
HETATM    4  C   UNL     1     -12.474  11.282  70.981  1.00  0.00    -0.503 C  
BRANCH   4   5
HETATM    5  C   UNL     1     -12.754  12.759  71.140  1.00  0.00    -0.355 A  
HETATM    6  C   UNL     1     -13.565  13.230  72.182  1.00  0.00    -0.655 A  
HETATM    7  C   UNL     1     -13.819  14.595  72.322  1.00  0.00    -0.583 A  
HETATM    8  C   UNL     1     -12.192  13.686  70.251  1.00  0.00    -0.423 A  
HETATM    9  C   UNL     1     -13.262  15.507  71.425  1.00  0.00    -0.587 A  
HETATM   10  C   UNL     1     -12.447  15.051  70.391  1.00  0.00    -0.407 A  
ENDBRANCH   4   5
ENDBRANCH   3   4
ENDBRANCH   2   3
BRANCH   2  11
HETATM   11  N   UNL     1      -9.634  11.422  69.267  1.00  0.00    -0.394 NA 
HETATM   12  H   UNL     1      -8.696  11.107  69.515  1.00  0.00     0.000 HD 
BRANCH  11  13
HETATM   13  C   UNL     1      -9.645  11.991  67.912  1.00  0.00    -0.196 C  
BRANCH  13  14
HETATM   14  C   UNL     1      -8.852  13.324  67.836  1.00  0.00    -0.192 C  
HETATM   15  H   UNL     1      -7.007  13.852  67.434  1.00  0.00     0.000 HD 
HETATM   16  O   UNL     1      -7.492  13.036  67.480  1.00  0.00    -0.141 OA 
BRANCH  14  17
HETATM   17  C   UNL     1      -9.480  14.311  66.859  1.00  0.00    -0.272 A  
HETATM   18  C   UNL     1     -10.055  16.598  66.173  1.00  0.00    -0.361 A  
HETATM   19  H   UNL     1     -11.989  16.495  63.494  1.00  0.00     0.000 HD 
HETATM   20  C   UNL     1     -10.768  16.078  65.088  1.00  0.00    -0.409 A  
HETATM   21  C   UNL     1     -10.813  14.707  64.857  1.00  0.00    -0.436 A  
HETATM   22  O   UNL     1     -11.505  16.848  64.231  1.00  0.00    -1.142 OA 
HETATM   23  C   UNL     1     -10.190  13.828  65.748  1.00  0.00    -0.322 A  
HETATM   24  C   UNL     1      -9.417  15.703  67.052  1.00  0.00    -0.236 A  
BRANCH  18  25
HETATM   25  C   UNL     1      -9.953  18.054  66.485  1.00  0.00    -0.371 C  
HETATM   26  O   UNL     1     -10.878  18.675  66.992  1.00  0.00    -0.382 OA 
HETATM   27  H1  UNL     1      -8.704  19.688  66.419  1.00  0.00     0.000 HD 
HETATM   28  H2  UNL     1      -7.989  18.188  65.794  1.00  0.00     0.000 HD 
HETATM   29  N   UNL     1      -8.775  18.693  66.205  1.00  0.00    -0.261 N  
ENDBRANCH  18  25
ENDBRANCH  14  17
ENDBRANCH  13  14
ENDBRANCH  11  13
ENDBRANCH   2  11
TORSDOF 8
ENDMDL
MODEL       10
REMARK 921   NORMALIZED FREE ENERGY PREDICTED BY IDOCK:   -6.26 KCAL/MOL
REMARK 922        TOTAL FREE ENERGY PREDICTED BY IDOCK:  -10.74 KCAL/MOL
REMARK 923 INTER-LIGAND FREE ENERGY PREDICTED BY IDOCK:   -9.01 KCAL/MOL
REMARK 924 INTRA-LIGAND FREE ENERGY PREDICTED BY IDOCK:   -1.74 KCAL/MOL
REMARK 927      BINDING AFFINITY PREDICTED BY RF-SCORE:    0.00 PKD
ROOT
HETATM    1  C   UNL     1     -10.511   8.106  66.986  1.00  0.00    -0.396 C  
HETATM    2  C   UNL     1     -10.469   9.213  68.047  1.00  0.00    -0.224 C  
ENDROOT
BRANCH   2   3
HETATM    3  C   UNL     1     -11.119  10.490  67.467  1.00  0.00    -0.358 C  
BRANCH   3   4
HETATM    4  C   UNL     1     -10.115  11.610  67.172  1.00  0.00    -0.227 C  
BRANCH   4   5
HETATM    5  C   UNL     1     -10.718  12.689  66.301  1.00  0.00    -0.280 A  
HETATM    6  C   UNL     1     -12.057  12.621  65.893  1.00  0.00    -0.459 A  
HETATM    7  C   UNL     1     -12.604  13.622  65.089  1.00  0.00    -0.474 A  
HETATM    8  C   UNL     1      -9.944  13.787  65.899  1.00  0.00    -0.308 A  
HETATM    9  C   UNL     1     -11.822  14.705  64.687  1.00  0.00    -0.459 A  
HETATM   10  C   UNL     1     -10.492  14.788  65.095  1.00  0.00    -0.443 A  
ENDBRANCH   4   5
ENDBRANCH   3   4
ENDBRANCH   2   3
BRANCH   2  11
HETATM   11  N   UNL     1     -11.150   8.826  69.288  1.00  0.00    -0.432 NA 
HETATM   12  H   UNL     1     -10.796   7.933  69.628  1.00  0.00     0.000 HD 
BRANCH  11  13
HETATM   13  C   UNL     1     -11.086   9.843  70.347  1.00  0.00    -0.319 C  
BRANCH  13  14
HETATM   14  C   UNL     1     -12.497  10.238  70.859  1.00  0.00    -0.370 C  
HETATM   15  H   UNL     1     -13.597   9.833  72.431  1.00  0.00     0.000 HD 
HETATM   16  O   UNL     1     -12.734   9.591  72.118  1.00  0.00    -0.380 OA 
BRANCH  14  17
HETATM   17  C   UNL     1     -12.663  11.749  70.977  1.00  0.00    -0.372 A  
HETATM   18  C   UNL     1     -12.164  14.038  70.238  1.00  0.00    -0.430 A  
HETATM   19  H   UNL     1     -13.490  16.197  72.361  1.00  0.00     0.000 HD 
HETATM   20  C   UNL     1     -12.899  14.532  71.321  1.00  0.00    -0.332 A  
HETATM   21  C   UNL     1     -13.541  13.665  72.200  1.00  0.00    -0.632 A  
HETATM   22  O   UNL     1     -12.991  15.862  71.626  1.00  0.00    -0.465 OA 
HETATM   23  C   UNL     1     -13.408  12.283  72.040  1.00  0.00    -0.491 A  
HETATM   24  C   UNL     1     -12.052  12.644  70.079  1.00  0.00    -0.339 A  
BRANCH  18  25
HETATM   25  C   UNL     1     -11.452  14.899  69.249  1.00  0.00    -0.303 C  
HETATM   26  O   UNL     1     -12.020  15.371  68.272  1.00  0.00    -0.283 OA 
HETATM   27  H1  UNL     1      -9.641  15.760  68.789  1.00  0.00     0.000 HD 
HETATM   28  H2  UNL     1      -9.642  14.797  70.280  1.00  0.00     0.000 HD 
HETATM   29  N   UNL     1     -10.128  15.172  69.466  1.00  0.00    -0.231 N  
ENDBRANCH  18  25
ENDBRANCH  14  17
ENDBRANCH  13  14
ENDBRANCH  11  13
ENDBRANCH   2  11
TORSDOF 8
ENDMDL
MODEL       11
REMARK 921   NORMALIZED FREE ENERGY PREDICTED BY IDOCK:   -6.16 KCAL/MOL
REMARK 922        TOTAL FREE ENERGY PREDICTED BY IDOCK:  -10.60 KCAL/MOL
REMARK 923 INTER-LIGAND FREE ENERGY PREDICTED BY IDOCK:   -9.03 KCAL/MOL
REMARK 924 INTRA-LIGAND FREE ENERGY PREDICTED BY IDOCK:   -1.57 KCAL/MOL
REMARK 927      BINDING AFFINITY PREDICTED BY RF-SCORE:    0.00 PKD
ROOT
HETATM    1  C   UNL     1      -8.878  11.652  66.386  1.00  0.00    -0.182 C  
HETATM    2  C   UNL     1     -10.174  10.904  66.049  1.00  0.00    -0.254 C  
ENDROOT
BRANCH   2   3
HETATM    3  C   UNL     1     -11.143  11.013  67.248  1.00  0.00    -0.359 C  
BRANCH   3   4
HETATM    4  C   UNL     1     -10.439  11.263  68.586  1.00  0.00    -0.226 C  
BRANCH   4   5
HETATM    5  C   UNL     1     -11.420  11.320  69.735  1.00  0.00    -0.386 A  
HETATM    6  C   UNL     1     -11.798  10.156  70.418  1.00  0.00    -0.373 A  
HETATM    7  C   UNL     1     -12.705  10.219  71.477  1.00  0.00    -0.557 A  
HETATM    8  C   UNL     1     -11.957  12.549  70.146  1.00  0.00    -0.377 A  
HETATM    9  C   UNL     1     -13.240  11.445  71.871  1.00  0.00    -0.485 A  
HETATM   10  C   UNL     1     -12.863  12.610  71.205  1.00  0.00    -0.344 A  
ENDBRANCH   4   5
ENDBRANCH   3   4
ENDBRANCH   2   3
BRANCH   2  11
HETATM   11  N   UNL     1     -10.820  11.420  64.837  1.00  0.00    -0.284 NA 
HETATM   12  H   UNL     1     -11.153  10.653  64.254  1.00  0.00     0.000 HD 
BRANCH  11  13
HETATM   13  C   UNL     1     -11.904  12.378  65.098  1.00  0.00    -0.388 C  
BRANCH  13  14
HETATM   14  C   UNL     1     -11.571  13.794  64.557  1.00  0.00    -0.392 C  
HETATM   15  H   UNL     1     -12.452  15.110  63.399  1.00  0.00     0.000 HD 
HETATM   16  O   UNL     1     -12.656  14.243  63.731  1.00  0.00    -0.821 OA 
BRANCH  14  17
HETATM   17  C   UNL     1     -11.287  14.785  65.679  1.00  0.00    -0.343 A  
HETATM   18  C   UNL     1     -10.298  16.873  66.514  1.00  0.00    -0.299 A  
HETATM   19  H   UNL     1     -10.601  16.999  69.804  1.00  0.00     0.000 HD 
HETATM   20  C   UNL     1     -10.678  16.516  67.813  1.00  0.00    -0.329 A  
HETATM   21  C   UNL     1     -11.382  15.340  68.050  1.00  0.00    -0.345 A  
HETATM   22  O   UNL     1     -10.343  17.242  68.922  1.00  0.00    -0.331 OA 
HETATM   23  C   UNL     1     -11.668  14.471  66.993  1.00  0.00    -0.412 A  
HETATM   24  C   UNL     1     -10.607  15.998  65.457  1.00  0.00    -0.415 A  
BRANCH  18  25
HETATM   25  C   UNL     1      -9.547  18.117  66.175  1.00  0.00    -0.170 C  
HETATM   26  O   UNL     1      -8.356  18.099  65.892  1.00  0.00    -0.513 OA 
HETATM   27  H1  UNL     1      -9.719  20.154  65.938  1.00  0.00     0.000 HD 
HETATM   28  H2  UNL     1     -11.227  19.335  66.391  1.00  0.00     0.000 HD 
HETATM   29  N   UNL     1     -10.232  19.303  66.169  1.00  0.00    -0.445 N  
ENDBRANCH  18  25
ENDBRANCH  14  17
ENDBRANCH  13  14
ENDBRANCH  11  13
ENDBRANCH   2  11
TORSDOF 8
ENDMDL
MODEL       12
REMARK 921   NORMALIZED FREE ENERGY PREDICTED BY IDOCK:   -6.16 KCAL/MOL
REMARK 922        TOTAL FREE ENERGY PREDICTED BY IDOCK:  -10.59 KCAL/MOL
REMARK 923 INTER-LIGAND FREE ENERGY PREDICTED BY IDOCK:   -9.04 KCAL/MOL
REMARK 924 INTRA-LIGAND FREE ENERGY PREDICTED BY IDOCK:   -1.55 KCAL/MOL
REMARK 927      BINDING AFFINITY PREDICTED BY RF-SCORE:    0.00 PKD
ROOT
HETATM    1  C   UNL     1     -10.675  11.351  66.864  1.00  0.00    -0.308 C  
HETATM    2  C   UNL     1     -11.830  12.180  67.438  1.00  0.00    -0.227 C  
ENDROOT
BRANCH   2   3
HETATM    3  C   UNL     1     -11.342  12.907  68.712  1.00  0.00    -0.333 C  
BRANCH   3   4
HETATM    4  C   UNL     1     -11.943  14.307  68.888  1.00  0.00    -0.356 C  
BRANCH   4   5
HETATM    5  C   UNL     1     -12.192  14.632  70.343  1.00  0.00    -0.391 A  
HETATM    6  C   UNL     1     -13.009  13.812  71.135  1.00  0.00    -0.370 A  
HETATM    7  C   UNL     1     -13.234  14.121  72.477  1.00  0.00    -0.596 A  
HETATM    8  C   UNL     1     -11.594  15.757  70.929  1.00  0.00    -0.440 A  
HETATM    9  C   UNL     1     -12.641  15.248  73.046  1.00  0.00    -0.539 A  
HETATM   10  C   UNL     1     -11.820  16.065  72.272  1.00  0.00    -0.628 A  
ENDBRANCH   4   5
ENDBRANCH   3   4
ENDBRANCH   2   3
BRANCH   2  11
HETATM   11  N   UNL     1     -12.352  13.157  66.475  1.00  0.00    -0.375 NA 
HETATM   12  H   UNL     1     -12.231  14.107  66.827  1.00  0.00     0.000 HD 
BRANCH  11  13
HETATM   13  C   UNL     1     -11.783  13.030  65.126  1.00  0.00    -0.343 C  
BRANCH  13  14
HETATM   14  C   UNL     1     -11.521  14.414  64.474  1.00  0.00    -0.345 C  
HETATM   15  H   UNL     1     -12.622  15.881  63.778  1.00  0.00     0.000 HD 
HETATM   16  O   UNL     1     -12.781  15.034  64.178  1.00  0.00    -0.729 OA 
BRANCH  14  17
HETATM   17  C   UNL     1     -10.660  15.311  65.355  1.00  0.00    -0.413 A  
HETATM   18  C   UNL     1     -10.187  17.470  66.427  1.00  0.00    -0.354 A  
HETATM   19  H   UNL     1      -7.209  17.363  67.858  1.00  0.00     0.000 HD 
HETATM   20  C   UNL     1      -8.967  16.959  66.883  1.00  0.00    -0.224 A  
HETATM   21  C   UNL     1      -8.605  15.642  66.622  1.00  0.00    -0.330 A  
HETATM   22  O   UNL     1      -8.037  17.710  67.548  1.00  0.00    -0.207 OA 
HETATM   23  C   UNL     1      -9.437  14.829  65.847  1.00  0.00    -0.266 A  
HETATM   24  C   UNL     1     -11.023  16.635  65.663  1.00  0.00    -0.028 A  
BRANCH  18  25
HETATM   25  C   UNL     1     -10.651  18.867  66.669  1.00  0.00    -0.395 C  
HETATM   26  O   UNL     1     -11.021  19.245  67.774  1.00  0.00    -0.383 OA 
HETATM   27  H1  UNL     1     -10.958  20.698  65.782  1.00  0.00     0.000 HD 
HETATM   28  H2  UNL     1     -10.324  19.448  64.693  1.00  0.00     0.000 HD 
HETATM   29  N   UNL     1     -10.640  19.743  65.617  1.00  0.00    -0.459 N  
ENDBRANCH  18  25
ENDBRANCH  14  17
ENDBRANCH  13  14
ENDBRANCH  11  13
ENDBRANCH   2  11
TORSDOF 8
ENDMDL
MODEL       13
REMARK 921   NORMALIZED FREE ENERGY PREDICTED BY IDOCK:   -6.14 KCAL/MOL
REMARK 922        TOTAL FREE ENERGY PREDICTED BY IDOCK:  -10.57 KCAL/MOL
REMARK 923 INTER-LIGAND FREE ENERGY PREDICTED BY IDOCK:   -8.70 KCAL/MOL
REMARK 924 INTRA-LIGAND FREE ENERGY PREDICTED BY IDOCK:   -1.86 KCAL/MOL
REMARK 927      BINDING AFFINITY PREDICTED BY RF-SCORE:    0.00 PKD
ROOT
HETATM    1  C   UNL     1     -12.024  14.169  66.686  1.00  0.00    -0.470 C  
HETATM    2  C   UNL     1     -10.585  14.295  67.203  1.00  0.00    -0.279 C  
ENDROOT
BRANCH   2   3
HETATM    3  C   UNL     1     -10.620  14.761  68.676  1.00  0.00    -0.255 C  
BRANCH   3   4
HETATM    4  C   UNL     1     -11.839  15.625  69.018  1.00  0.00    -0.379 C  
BRANCH   4   5
HETATM    5  C   UNL     1     -12.292  15.418  70.446  1.00  0.00    -0.443 A  
HETATM    6  C   UNL     1     -11.390  15.537  71.512  1.00  0.00    -0.466 A  
HETATM    7  C   UNL     1     -11.816  15.344  72.827  1.00  0.00    -0.563 A  
HETATM    8  C   UNL     1     -13.632  15.116  70.726  1.00  0.00    -0.299 A  
HETATM    9  C   UNL     1     -13.150  15.034  73.092  1.00  0.00    -0.619 A  
HETATM   10  C   UNL     1     -14.058  14.923  72.041  1.00  0.00    -0.613 A  
ENDBRANCH   4   5
ENDBRANCH   3   4
ENDBRANCH   2   3
BRANCH   2  11
HETATM   11  N   UNL     1      -9.839  13.036  67.096  1.00  0.00    -0.226 NA 
HETATM   12  H   UNL     1      -9.035  13.041  67.723  1.00  0.00     0.000 HD 
BRANCH  11  13
HETATM   13  C   UNL     1     -10.657  11.835  67.316  1.00  0.00    -0.224 C  
BRANCH  13  14
HETATM   14  C   UNL     1     -10.021  10.883  68.365  1.00  0.00    -0.178 C  
HETATM   15  H   UNL     1      -8.394  10.870  69.460  1.00  0.00     0.000 HD 
HETATM   16  O   UNL     1      -8.784  11.452  68.818  1.00  0.00    -0.151 OA 
BRANCH  14  17
HETATM   17  C   UNL     1     -10.961  10.606  69.533  1.00  0.00    -0.321 A  
HETATM   18  C   UNL     1     -11.907   9.105  71.231  1.00  0.00    -0.396 A  
HETATM   19  H   UNL     1     -14.410  10.618  72.771  1.00  0.00     0.000 HD 
HETATM   20  C   UNL     1     -12.806  10.112  71.599  1.00  0.00    -0.454 A  
HETATM   21  C   UNL     1     -12.769  11.358  70.983  1.00  0.00    -0.447 A  
HETATM   22  O   UNL     1     -13.800   9.934  72.522  1.00  0.00    -0.237 OA 
HETATM   23  C   UNL     1     -11.866  11.597  69.943  1.00  0.00    -0.434 A  
HETATM   24  C   UNL     1     -10.990   9.365  70.195  1.00  0.00    -0.282 A  
BRANCH  18  25
HETATM   25  C   UNL     1     -11.876   7.746  71.846  1.00  0.00    -0.297 C  
HETATM   26  O   UNL     1     -11.215   7.502  72.848  1.00  0.00    -0.344 OA 
HETATM   27  H1  UNL     1     -12.609   5.829  71.689  1.00  0.00     0.000 HD 
HETATM   28  H2  UNL     1     -13.195   6.947  70.442  1.00  0.00     0.000 HD 
HETATM   29  N   UNL     1     -12.630   6.759  71.269  1.00  0.00    -0.329 N  
ENDBRANCH  18  25
ENDBRANCH  14  17
ENDBRANCH  13  14
ENDBRANCH  11  13
ENDBRANCH   2  11
TORSDOF 8
ENDMDL
MODEL       14
REMARK 921   NORMALIZED FREE ENERGY PREDICTED BY IDOCK:   -6.11 KCAL/MOL
REMARK 922        TOTAL FREE ENERGY PREDICTED BY IDOCK:  -10.53 KCAL/MOL
REMARK 923 INTER-LIGAND FREE ENERGY PREDICTED BY IDOCK:   -9.29 KCAL/MOL
REMARK 924 INTRA-LIGAND FREE ENERGY PREDICTED BY IDOCK:   -1.24 KCAL/MOL
REMARK 927      BINDING AFFINITY PREDICTED BY RF-SCORE:    0.00 PKD
ROOT
HETATM    1  C   UNL     1      -9.381   8.057  68.431  1.00  0.00    -0.138 C  
HETATM    2  C   UNL     1     -10.236   9.253  68.867  1.00  0.00    -0.202 C  
ENDROOT
BRANCH   2   3
HETATM    3  C   UNL     1     -10.899   9.878  67.618  1.00  0.00    -0.318 C  
BRANCH   3   4
HETATM    4  C   UNL     1     -10.258  11.199  67.179  1.00  0.00    -0.235 C  
BRANCH   4   5
HETATM    5  C   UNL     1     -10.916  11.757  65.937  1.00  0.00    -0.354 A  
HETATM    6  C   UNL     1     -11.936  12.714  66.031  1.00  0.00    -0.478 A  
HETATM    7  C   UNL     1     -12.538  13.223  64.879  1.00  0.00    -0.444 A  
HETATM    8  C   UNL     1     -10.501  11.334  64.666  1.00  0.00    -0.387 A  
HETATM    9  C   UNL     1     -12.123  12.788  63.621  1.00  0.00    -0.624 A  
HETATM   10  C   UNL     1     -11.103  11.844  63.515  1.00  0.00    -0.506 A  
ENDBRANCH   4   5
ENDBRANCH   3   4
ENDBRANCH   2   3
BRANCH   2  11
HETATM   11  N   UNL     1     -11.265   8.880  69.844  1.00  0.00    -0.425 NA 
HETATM   12  H   UNL     1     -11.097   7.940  70.201  1.00  0.00     0.000 HD 
BRANCH  11  13
HETATM   13  C   UNL     1     -11.412   9.835  70.952  1.00  0.00    -0.369 C  
BRANCH  13  14
HETATM   14  C   UNL     1     -12.849  10.416  71.032  1.00  0.00    -0.401 C  
HETATM   15  H   UNL     1     -14.410  10.177  72.194  1.00  0.00     0.000 HD 
HETATM   16  O   UNL     1     -13.530   9.821  72.146  1.00  0.00    -0.431 OA 
BRANCH  14  17
HETATM   17  C   UNL     1     -12.848  11.937  71.135  1.00  0.00    -0.346 A  
HETATM   18  C   UNL     1     -12.110  14.151  70.369  1.00  0.00    -0.417 A  
HETATM   19  H   UNL     1     -13.175  16.462  72.479  1.00  0.00     0.000 HD 
HETATM   20  C   UNL     1     -12.777  14.732  71.452  1.00  0.00    -0.329 A  
HETATM   21  C   UNL     1     -13.502  13.949  72.344  1.00  0.00    -0.661 A  
HETATM   22  O   UNL     1     -12.721  16.067  71.744  1.00  0.00    -0.443 OA 
HETATM   23  C   UNL     1     -13.521  12.559  72.198  1.00  0.00    -0.523 A  
HETATM   24  C   UNL     1     -12.151  12.752  70.223  1.00  0.00    -0.373 A  
BRANCH  18  25
HETATM   25  C   UNL     1     -11.317  14.919  69.365  1.00  0.00    -0.290 C  
HETATM   26  O   UNL     1     -11.786  15.249  68.283  1.00  0.00    -0.343 OA 
HETATM   27  H1  UNL     1      -9.492  15.798  69.002  1.00  0.00     0.000 HD 
HETATM   28  H2  UNL     1      -9.632  15.017  70.590  1.00  0.00     0.000 HD 
HETATM   29  N   UNL     1     -10.034  15.272  69.689  1.00  0.00    -0.249 N  
ENDBRANCH  18  25
ENDBRANCH  14  17
ENDBRANCH  13  14
ENDBRANCH  11  13
ENDBRANCH   2  11
TORSDOF 8
ENDMDL
MODEL       15
REMARK 921   NORMALIZED FREE ENERGY PREDICTED BY IDOCK:   -6.09 KCAL/MOL
REMARK 922        TOTAL FREE ENERGY PREDICTED BY IDOCK:  -10.49 KCAL/MOL
REMARK 923 INTER-LIGAND FREE ENERGY PREDICTED BY IDOCK:   -8.81 KCAL/MOL
REMARK 924 INTRA-LIGAND FREE ENERGY PREDICTED BY IDOCK:   -1.69 KCAL/MOL
REMARK 927      BINDING AFFINITY PREDICTED BY RF-SCORE:    0.00 PKD
ROOT
HETATM    1  C   UNL     1      -9.776  13.135  67.853  1.00  0.00    -0.221 C  
HETATM    2  C   UNL     1     -11.238  13.141  67.391  1.00  0.00    -0.287 C  
ENDROOT
BRANCH   2   3
HETATM    3  C   UNL     1     -12.020  14.191  68.213  1.00  0.00    -0.367 C  
BRANCH   3   4
HETATM    4  C   UNL     1     -11.168  14.903  69.269  1.00  0.00    -0.300 C  
BRANCH   4   5
HETATM    5  C   UNL     1     -11.913  15.070  70.573  1.00  0.00    -0.358 A  
HETATM    6  C   UNL     1     -11.568  16.086  71.475  1.00  0.00    -0.529 A  
HETATM    7  C   UNL     1     -12.261  16.233  72.677  1.00  0.00    -0.581 A  
HETATM    8  C   UNL     1     -12.978  14.216  70.894  1.00  0.00    -0.374 A  
HETATM    9  C   UNL     1     -13.312  15.371  72.990  1.00  0.00    -0.632 A  
HETATM   10  C   UNL     1     -13.671  14.363  72.097  1.00  0.00    -0.557 A  
ENDBRANCH   4   5
ENDBRANCH   3   4
ENDBRANCH   2   3
BRANCH   2  11
HETATM   11  N   UNL     1     -11.373  13.427  65.958  1.00  0.00    -0.304 NA 
HETATM   12  H   UNL     1     -11.901  12.689  65.493  1.00  0.00     0.000 HD 
BRANCH  11  13
HETATM   13  C   UNL     1     -11.957  14.743  65.664  1.00  0.00    -0.164 C  
BRANCH  13  14
HETATM   14  C   UNL     1     -10.943  15.685  64.960  1.00  0.00    -0.431 C  
HETATM   15  H   UNL     1     -11.035  17.127  63.635  1.00  0.00     0.000 HD 
HETATM   16  O   UNL     1     -11.656  16.551  64.066  1.00  0.00    -1.154 OA 
BRANCH  14  17
HETATM   17  C   UNL     1     -10.115  16.485  65.959  1.00  0.00    -0.368 A  
HETATM   18  C   UNL     1      -7.990  16.994  67.082  1.00  0.00    -0.214 A  
HETATM   19  H   UNL     1      -8.519  19.180  69.506  1.00  0.00     0.000 HD 
HETATM   20  C   UNL     1      -8.662  17.902  67.908  1.00  0.00    -0.252 A  
HETATM   21  C   UNL     1     -10.024  18.136  67.750  1.00  0.00    -0.334 A  
HETATM   22  O   UNL     1      -8.062  18.563  68.945  1.00  0.00    -0.287 OA 
HETATM   23  C   UNL     1     -10.749  17.418  66.794  1.00  0.00    -0.100 A  
HETATM   24  C   UNL     1      -8.729  16.291  66.112  1.00  0.00    -0.353 A  
BRANCH  18  25
HETATM   25  C   UNL     1      -6.533  16.692  67.183  1.00  0.00    -0.188 C  
HETATM   26  O   UNL     1      -6.112  15.544  67.254  1.00  0.00    -0.320 OA 
HETATM   27  H1  UNL     1      -4.657  17.535  67.248  1.00  0.00     0.000 HD 
HETATM   28  H2  UNL     1      -5.986  18.703  67.108  1.00  0.00     0.000 HD 
HETATM   29  N   UNL     1      -5.654  17.741  67.178  1.00  0.00    -0.132 N  
ENDBRANCH  18  25
ENDBRANCH  14  17
ENDBRANCH  13  14
ENDBRANCH  11  13
ENDBRANCH   2  11
TORSDOF 8
ENDMDL
MODEL       16
REMARK 921   NORMALIZED FREE ENERGY PREDICTED BY IDOCK:   -6.06 KCAL/MOL
REMARK 922        TOTAL FREE ENERGY PREDICTED BY IDOCK:  -10.44 KCAL/MOL
REMARK 923 INTER-LIGAND FREE ENERGY PREDICTED BY IDOCK:   -9.31 KCAL/MOL
REMARK 924 INTRA-LIGAND FREE ENERGY PREDICTED BY IDOCK:   -1.14 KCAL/MOL
REMARK 927      BINDING AFFINITY PREDICTED BY RF-SCORE:    0.00 PKD
ROOT
HETATM    1  C   UNL     1     -11.895  15.601  69.847  1.00  0.00    -0.374 C  
HETATM    2  C   UNL     1     -11.713  14.315  69.032  1.00  0.00    -0.317 C  
ENDROOT
BRANCH   2   3
HETATM    3  C   UNL     1     -12.086  13.103  69.916  1.00  0.00    -0.357 C  
BRANCH   3   4
HETATM    4  C   UNL     1     -11.550  11.769  69.386  1.00  0.00    -0.386 C  
BRANCH   4   5
HETATM    5  C   UNL     1     -11.736  10.651  70.387  1.00  0.00    -0.446 A  
HETATM    6  C   UNL     1     -10.730   9.698  70.598  1.00  0.00    -0.388 A  
HETATM    7  C   UNL     1     -10.912   8.669  71.524  1.00  0.00    -0.360 A  
HETATM    8  C   UNL     1     -12.920  10.560  71.133  1.00  0.00    -0.506 A  
HETATM    9  C   UNL     1     -12.097   8.584  72.253  1.00  0.00    -0.455 A  
HETATM   10  C   UNL     1     -13.100   9.531  72.059  1.00  0.00    -0.528 A  
ENDBRANCH   4   5
ENDBRANCH   3   4
ENDBRANCH   2   3
BRANCH   2  11
HETATM   11  N   UNL     1     -12.524  14.307  67.808  1.00  0.00    -0.509 NA 
HETATM   12  H   UNL     1     -13.252  15.019  67.856  1.00  0.00     0.000 HD 
BRANCH  11  13
HETATM   13  C   UNL     1     -11.742  14.452  66.572  1.00  0.00    -0.391 C  
BRANCH  13  14
HETATM   14  C   UNL     1     -12.347  13.630  65.402  1.00  0.00    -0.476 C  
HETATM   15  H   UNL     1     -12.973  14.008  63.583  1.00  0.00     0.000 HD 
HETATM   16  O   UNL     1     -12.603  14.511  64.299  1.00  0.00    -0.681 OA 
BRANCH  14  17
HETATM   17  C   UNL     1     -11.446  12.474  64.987  1.00  0.00    -0.368 A  
HETATM   18  C   UNL     1     -10.120  10.474  65.515  1.00  0.00    -0.349 A  
HETATM   19  H   UNL     1      -8.449   9.516  62.829  1.00  0.00     0.000 HD 
HETATM   20  C   UNL     1      -9.679  10.435  64.188  1.00  0.00    -0.324 A  
HETATM   21  C   UNL     1     -10.133  11.364  63.259  1.00  0.00    -0.424 A  
HETATM   22  O   UNL     1      -8.748   9.543  63.730  1.00  0.00    -0.202 OA 
HETATM   23  C   UNL     1     -10.996  12.389  63.660  1.00  0.00    -0.525 A  
HETATM   24  C   UNL     1     -11.002  11.500  65.902  1.00  0.00    -0.301 A  
BRANCH  18  25
HETATM   25  C   UNL     1      -9.686   9.512  66.570  1.00  0.00    -0.222 C  
HETATM   26  O   UNL     1      -8.575   9.568  67.081  1.00  0.00    -0.130 OA 
HETATM   27  H1  UNL     1     -10.281   7.897  67.698  1.00  0.00     0.000 HD 
HETATM   28  H2  UNL     1     -11.511   8.502  66.570  1.00  0.00     0.000 HD 
HETATM   29  N   UNL     1     -10.578   8.555  66.977  1.00  0.00    -0.290 N  
ENDBRANCH  18  25
ENDBRANCH  14  17
ENDBRANCH  13  14
ENDBRANCH  11  13
ENDBRANCH   2  11
TORSDOF 8
ENDMDL
MODEL       17
REMARK 921   NORMALIZED FREE ENERGY PREDICTED BY IDOCK:   -6.05 KCAL/MOL
REMARK 922        TOTAL FREE ENERGY PREDICTED BY IDOCK:  -10.43 KCAL/MOL
REMARK 923 INTER-LIGAND FREE ENERGY PREDICTED BY IDOCK:   -9.14 KCAL/MOL
REMARK 924 INTRA-LIGAND FREE ENERGY PREDICTED BY IDOCK:   -1.29 KCAL/MOL
REMARK 927      BINDING AFFINITY PREDICTED BY RF-SCORE:    0.00 PKD
ROOT
HETATM    1  C   UNL     1      -9.575   9.722  69.873  1.00  0.00    -0.269 C  
HETATM    2  C   UNL     1     -10.305   9.626  68.528  1.00  0.00    -0.205 C  
ENDROOT
BRANCH   2   3
HETATM    3  C   UNL     1     -11.525  10.574  68.550  1.00  0.00    -0.284 C  
BRANCH   3   4
HETATM    4  C   UNL     1     -11.174  12.018  68.925  1.00  0.00    -0.315 C  
BRANCH   4   5
HETATM    5  C   UNL     1     -12.028  12.526  70.065  1.00  0.00    -0.372 A  
HETATM    6  C   UNL     1     -12.543  11.646  71.026  1.00  0.00    -0.431 A  
HETATM    7  C   UNL     1     -13.331  12.124  72.075  1.00  0.00    -0.470 A  
HETATM    8  C   UNL     1     -12.305  13.895  70.185  1.00  0.00    -0.400 A  
HETATM    9  C   UNL     1     -13.608  13.487  72.179  1.00  0.00    -0.651 A  
HETATM   10  C   UNL     1     -13.093  14.372  71.234  1.00  0.00    -0.421 A  
ENDBRANCH   4   5
ENDBRANCH   3   4
ENDBRANCH   2   3
BRANCH   2  11
HETATM   11  N   UNL     1      -9.436   9.958  67.393  1.00  0.00    -0.147 NA 
HETATM   12  H   UNL     1      -8.533   9.495  67.485  1.00  0.00     0.000 HD 
BRANCH  11  13
HETATM   13  C   UNL     1     -10.031   9.670  66.080  1.00  0.00    -0.276 C  
BRANCH  13  14
HETATM   14  C   UNL     1      -9.405  10.539  64.956  1.00  0.00    -0.222 C  
HETATM   15  H   UNL     1      -8.830  10.255  63.103  1.00  0.00     0.000 HD 
HETATM   16  O   UNL     1      -9.213   9.724  63.791  1.00  0.00    -0.258 OA 
BRANCH  14  17
HETATM   17  C   UNL     1     -10.254  11.764  64.638  1.00  0.00    -0.326 A  
HETATM   18  C   UNL     1     -10.855  14.121  64.980  1.00  0.00    -0.408 A  
HETATM   19  H   UNL     1     -13.595  14.823  63.268  1.00  0.00     0.000 HD 
HETATM   20  C   UNL     1     -11.935  13.957  64.107  1.00  0.00    -0.428 A  
HETATM   21  C   UNL     1     -12.161  12.739  63.474  1.00  0.00    -0.642 A  
HETATM   22  O   UNL     1     -12.861  14.934  63.862  1.00  0.00    -0.697 OA 
HETATM   23  C   UNL     1     -11.337  11.645  63.752  1.00  0.00    -0.482 A  
HETATM   24  C   UNL     1     -10.023  13.016  65.238  1.00  0.00    -0.186 A  
BRANCH  18  25
HETATM   25  C   UNL     1     -10.541  15.394  65.692  1.00  0.00    -0.364 C  
HETATM   26  O   UNL     1     -10.243  16.418  65.090  1.00  0.00    -0.582 OA 
HETATM   27  H1  UNL     1     -10.396  16.273  67.547  1.00  0.00     0.000 HD 
HETATM   28  H2  UNL     1     -10.869  14.563  67.577  1.00  0.00     0.000 HD 
HETATM   29  N   UNL     1     -10.611  15.403  67.060  1.00  0.00    -0.303 N  
ENDBRANCH  18  25
ENDBRANCH  14  17
ENDBRANCH  13  14
ENDBRANCH  11  13
ENDBRANCH   2  11
TORSDOF 8
ENDMDL
MODEL       18
REMARK 921   NORMALIZED FREE ENERGY PREDICTED BY IDOCK:   -6.02 KCAL/MOL
REMARK 922        TOTAL FREE ENERGY PREDICTED BY IDOCK:  -10.39 KCAL/MOL
REMARK 923 INTER-LIGAND FREE ENERGY PREDICTED BY IDOCK:   -8.94 KCAL/MOL
REMARK 924 INTRA-LIGAND FREE ENERGY PREDICTED BY IDOCK:   -1.45 KCAL/MOL
REMARK 927      BINDING AFFINITY PREDICTED BY RF-SCORE:    0.00 PKD
ROOT
HETATM    1  C   UNL     1      -9.725  15.076  67.071  1.00  0.00    -0.241 C  
HETATM    2  C   UNL     1      -9.428  15.021  68.575  1.00  0.00    -0.203 C  
ENDROOT
BRANCH   2   3
HETATM    3  C   UNL     1     -10.243  16.123  69.289  1.00  0.00    -0.257 C  
BRANCH   3   4
HETATM    4  C   UNL     1     -11.756  15.883  69.261  1.00  0.00    -0.360 C  
BRANCH   4   5
HETATM    5  C   UNL     1     -12.320  15.689  70.651  1.00  0.00    -0.457 A  
HETATM    6  C   UNL     1     -11.632  16.159  71.778  1.00  0.00    -0.503 A  
HETATM    7  C   UNL     1     -12.159  15.975  73.058  1.00  0.00    -0.628 A  
HETATM    8  C   UNL     1     -13.553  15.047  70.831  1.00  0.00    -0.363 A  
HETATM    9  C   UNL     1     -13.382  15.326  73.225  1.00  0.00    -0.523 A  
HETATM   10  C   UNL     1     -14.079  14.864  72.111  1.00  0.00    -0.616 A  
ENDBRANCH   4   5
ENDBRANCH   3   4
ENDBRANCH   2   3
BRANCH   2  11
HETATM   11  N   UNL     1      -9.741  13.712  69.160  1.00  0.00    -0.377 NA 
HETATM   12  H   UNL     1     -10.434  13.807  69.901  1.00  0.00     0.000 HD 
BRANCH  11  13
HETATM   13  C   UNL     1     -10.170  12.705  68.179  1.00  0.00    -0.240 C  
BRANCH  13  14
HETATM   14  C   UNL     1     -11.629  12.237  68.428  1.00  0.00    -0.326 C  
HETATM   15  H   UNL     1     -13.037  11.370  67.373  1.00  0.00     0.000 HD 
HETATM   16  O   UNL     1     -12.144  11.657  67.221  1.00  0.00    -0.595 OA 
BRANCH  14  17
HETATM   17  C   UNL     1     -11.727  11.260  69.594  1.00  0.00    -0.420 A  
HETATM   18  C   UNL     1     -11.273   9.075  70.622  1.00  0.00    -0.318 A  
HETATM   19  H   UNL     1     -12.869   8.860  73.509  1.00  0.00     0.000 HD 
HETATM   20  C   UNL     1     -12.049   9.450  71.724  1.00  0.00    -0.382 A  
HETATM   21  C   UNL     1     -12.626  10.713  71.792  1.00  0.00    -0.411 A  
HETATM   22  O   UNL     1     -12.342   8.606  72.760  1.00  0.00    -0.321 OA 
HETATM   23  C   UNL     1     -12.482  11.605  70.726  1.00  0.00    -0.425 A  
HETATM   24  C   UNL     1     -11.121   9.990  69.563  1.00  0.00    -0.279 A  
BRANCH  18  25
HETATM   25  C   UNL     1     -10.615   7.744  70.475  1.00  0.00    -0.226 C  
HETATM   26  O   UNL     1      -9.524   7.500  70.975  1.00  0.00    -0.160 OA 
HETATM   27  H1  UNL     1     -10.826   5.862  69.671  1.00  0.00     0.000 HD 
HETATM   28  H2  UNL     1     -12.190   6.954  69.359  1.00  0.00     0.000 HD 
HETATM   29  N   UNL     1     -11.275   6.772  69.771  1.00  0.00    -0.314 N  
ENDBRANCH  18  25
ENDBRANCH  14  17
ENDBRANCH  13  14
ENDBRANCH  11  13
ENDBRANCH   2  11
TORSDOF 8
ENDMDL
MODEL       19
REMARK 921   NORMALIZED FREE ENERGY PREDICTED BY IDOCK:   -6.02 KCAL/MOL
REMARK 922        TOTAL FREE ENERGY PREDICTED BY IDOCK:  -10.39 KCAL/MOL
REMARK 923 INTER-LIGAND FREE ENERGY PREDICTED BY IDOCK:   -8.75 KCAL/MOL
REMARK 924 INTRA-LIGAND FREE ENERGY PREDICTED BY IDOCK:   -1.63 KCAL/MOL
REMARK 927      BINDING AFFINITY PREDICTED BY RF-SCORE:    0.00 PKD
ROOT
HETATM    1  C   UNL     1      -7.762  10.813  66.286  1.00  0.00    -0.146 C  
HETATM    2  C   UNL     1      -9.105  10.511  65.608  1.00  0.00    -0.182 C  
ENDROOT
BRANCH   2   3
HETATM    3  C   UNL     1     -10.234  10.629  66.656  1.00  0.00    -0.284 C  
BRANCH   3   4
HETATM    4  C   UNL     1      -9.811  11.363  67.934  1.00  0.00    -0.188 C  
BRANCH   4   5
HETATM    5  C   UNL     1     -10.506  10.807  69.157  1.00  0.00    -0.243 A  
HETATM    6  C   UNL     1      -9.889   9.834  69.955  1.00  0.00    -0.295 A  
HETATM    7  C   UNL     1     -10.538   9.326  71.082  1.00  0.00    -0.402 A  
HETATM    8  C   UNL     1     -11.778  11.271  69.520  1.00  0.00    -0.415 A  
HETATM    9  C   UNL     1     -11.807   9.788  71.427  1.00  0.00    -0.488 A  
HETATM   10  C   UNL     1     -12.426  10.762  70.646  1.00  0.00    -0.461 A  
ENDBRANCH   4   5
ENDBRANCH   3   4
ENDBRANCH   2   3
BRANCH   2  11
HETATM   11  N   UNL     1      -9.377  11.408  64.479  1.00  0.00    -0.397 NA 
HETATM   12  H   UNL     1      -8.692  11.268  63.736  1.00  0.00     0.000 HD 
BRANCH  11  13
HETATM   13  C   UNL     1     -10.743  11.302  63.946  1.00  0.00    -0.384 C  
BRANCH  13  14
HETATM   14  C   UNL     1     -11.365  12.696  63.663  1.00  0.00    -0.481 C  
HETATM   15  H   UNL     1     -13.106  13.373  63.066  1.00  0.00     0.000 HD 
HETATM   16  O   UNL     1     -12.725  12.520  63.240  1.00  0.00    -0.678 OA 
BRANCH  14  17
HETATM   17  C   UNL     1     -11.280  13.619  64.873  1.00  0.00    -0.349 A  
HETATM   18  C   UNL     1     -10.181  15.408  66.148  1.00  0.00    -0.324 A  
HETATM   19  H   UNL     1     -11.650  15.726  69.093  1.00  0.00     0.000 HD 
HETATM   20  C   UNL     1     -11.096  15.208  67.188  1.00  0.00    -0.335 A  
HETATM   21  C   UNL     1     -12.112  14.264  67.071  1.00  0.00    -0.424 A  
HETATM   22  O   UNL     1     -11.029  15.862  68.387  1.00  0.00    -0.297 OA 
HETATM   23  C   UNL     1     -12.191  13.462  65.929  1.00  0.00    -0.502 A  
HETATM   24  C   UNL     1     -10.284  14.605  64.997  1.00  0.00    -0.395 A  
BRANCH  18  25
HETATM   25  C   UNL     1      -9.070  16.402  66.193  1.00  0.00    -0.326 C  
HETATM   26  O   UNL     1      -9.236  17.575  65.884  1.00  0.00    -0.508 OA 
HETATM   27  H1  UNL     1      -7.077  16.654  66.640  1.00  0.00     0.000 HD 
HETATM   28  H2  UNL     1      -7.684  15.004  66.882  1.00  0.00     0.000 HD 
HETATM   29  N   UNL     1      -7.838  15.974  66.609  1.00  0.00    -0.249 N  
ENDBRANCH  18  25
ENDBRANCH  14  17
ENDBRANCH  13  14
ENDBRANCH  11  13
ENDBRANCH   2  11
TORSDOF 8
ENDMDL
MODEL       20
REMARK 921   NORMALIZED FREE ENERGY PREDICTED BY IDOCK:   -6.01 KCAL/MOL
REMARK 922        TOTAL FREE ENERGY PREDICTED BY IDOCK:  -10.38 KCAL/MOL
REMARK 923 INTER-LIGAND FREE ENERGY PREDICTED BY IDOCK:   -9.35 KCAL/MOL
REMARK 924 INTRA-LIGAND FREE ENERGY PREDICTED BY IDOCK:   -1.03 KCAL/MOL
REMARK 927      BINDING AFFINITY PREDICTED BY RF-SCORE:    0.00 PKD
ROOT
HETATM    1  C   UNL     1      -7.404  14.869  67.665  1.00  0.00    -0.208 C  
HETATM    2  C   UNL     1      -8.817  14.492  67.202  1.00  0.00    -0.229 C  
ENDROOT
BRANCH   2   3
HETATM    3  C   UNL     1      -9.369  15.623  66.305  1.00  0.00    -0.358 C  
BRANCH   3   4
HETATM    4  C   UNL     1     -10.626  16.295  66.869  1.00  0.00    -0.270 C  
BRANCH   4   5
HETATM    5  C   UNL     1     -10.397  17.761  67.160  1.00  0.00    -0.354 A  
HETATM    6  C   UNL     1     -10.380  18.706  66.125  1.00  0.00    -0.481 A  
HETATM    7  C   UNL     1     -10.167  20.058  66.402  1.00  0.00    -0.598 A  
HETATM    8  C   UNL     1     -10.211  18.200  68.478  1.00  0.00    -0.399 A  
HETATM    9  C   UNL     1      -9.974  20.481  67.717  1.00  0.00    -0.410 A  
HETATM   10  C   UNL     1      -9.998  19.552  68.755  1.00  0.00    -0.547 A  
ENDBRANCH   4   5
ENDBRANCH   3   4
ENDBRANCH   2   3
BRANCH   2  11
HETATM   11  N   UNL     1      -8.848  13.218  66.473  1.00  0.00    -0.449 NA 
HETATM   12  H   UNL     1      -7.905  12.846  66.362  1.00  0.00     0.000 HD 
BRANCH  11  13
HETATM   13  C   UNL     1      -9.733  12.209  67.072  1.00  0.00    -0.202 C  
BRANCH  13  14
HETATM   14  C   UNL     1     -11.198  12.713  67.179  1.00  0.00    -0.300 C  
HETATM   15  H   UNL     1     -12.927  12.213  66.400  1.00  0.00     0.000 HD 
HETATM   16  O   UNL     1     -12.030  11.905  66.334  1.00  0.00    -0.572 OA 
BRANCH  14  17
HETATM   17  C   UNL     1     -11.703  12.707  68.617  1.00  0.00    -0.364 A  
HETATM   18  C   UNL     1     -12.355  11.526  70.670  1.00  0.00    -0.457 A  
HETATM   19  H   UNL     1     -13.648  13.679  72.819  1.00  0.00     0.000 HD 
HETATM   20  C   UNL     1     -12.760  12.745  71.224  1.00  0.00    -0.269 A  
HETATM   21  C   UNL     1     -12.610  13.933  70.518  1.00  0.00    -0.382 A  
HETATM   22  O   UNL     1     -13.373  12.852  72.442  1.00  0.00    -0.528 OA 
HETATM   23  C   UNL     1     -12.102  13.912  69.215  1.00  0.00    -0.383 A  
HETATM   24  C   UNL     1     -11.830  11.521  69.364  1.00  0.00    -0.417 A  
BRANCH  18  25
HETATM   25  C   UNL     1     -12.477  10.210  71.363  1.00  0.00    -0.423 C  
HETATM   26  O   UNL     1     -13.560   9.761  71.718  1.00  0.00    -0.366 OA 
HETATM   27  H1  UNL     1     -11.417   8.591  72.060  1.00  0.00     0.000 HD 
HETATM   28  H2  UNL     1     -10.425   9.843  71.286  1.00  0.00     0.000 HD 
HETATM   29  N   UNL     1     -11.334   9.490  71.586  1.00  0.00    -0.382 N  
ENDBRANCH  18  25
ENDBRANCH  14  17
ENDBRANCH  13  14
ENDBRANCH  11  13
ENDBRANCH   2  11
TORSDOF 8
ENDMDL
MODEL       21
REMARK 921   NORMALIZED FREE ENERGY PREDICTED BY IDOCK:   -6.01 KCAL/MOL
REMARK 922        TOTAL FREE ENERGY PREDICTED BY IDOCK:  -10.38 KCAL/MOL
REMARK 923 INTER-LIGAND FREE ENERGY PREDICTED BY IDOCK:   -9.13 KCAL/MOL
REMARK 924 INTRA-LIGAND FREE ENERGY PREDICTED BY IDOCK:   -1.25 KCAL/MOL
REMARK 927      BINDING AFFINITY PREDICTED BY RF-SCORE:    0.00 PKD
ROOT
HETATM    1  C   UNL     1     -10.362  16.172  66.364  1.00  0.00    -0.321 C  
HETATM    2  C   UNL     1     -10.457  15.268  67.599  1.00  0.00    -0.263 C  
ENDROOT
BRANCH   2   3
HETATM    3  C   UNL     1     -11.440  15.902  68.611  1.00  0.00    -0.391 C  
BRANCH   3   4
HETATM    4  C   UNL     1     -10.828  16.137  69.996  1.00  0.00    -0.349 C  
BRANCH   4   5
HETATM    5  C   UNL     1     -11.733  15.642  71.102  1.00  0.00    -0.461 A  
HETATM    6  C   UNL     1     -12.556  14.524  70.912  1.00  0.00    -0.414 A  
HETATM    7  C   UNL     1     -13.389  14.075  71.938  1.00  0.00    -0.489 A  
HETATM    8  C   UNL     1     -11.750  16.290  72.345  1.00  0.00    -0.512 A  
HETATM    9  C   UNL     1     -13.405  14.733  73.167  1.00  0.00    -0.458 A  
HETATM   10  C   UNL     1     -12.584  15.841  73.370  1.00  0.00    -0.663 A  
ENDBRANCH   4   5
ENDBRANCH   3   4
ENDBRANCH   2   3
BRANCH   2  11
HETATM   11  N   UNL     1     -10.894  13.907  67.266  1.00  0.00    -0.284 NA 
HETATM   12  H   UNL     1     -10.485  13.606  66.381  1.00  0.00     0.000 HD 
BRANCH  11  13
HETATM   13  C   UNL     1     -10.625  12.918  68.320  1.00  0.00    -0.246 C  
BRANCH  13  14
HETATM   14  C   UNL     1     -11.746  11.847  68.410  1.00  0.00    -0.326 C  
HETATM   15  H   UNL     1     -12.468  10.453  67.234  1.00  0.00     0.000 HD 
HETATM   16  O   UNL     1     -11.782  11.108  67.180  1.00  0.00    -0.501 OA 
BRANCH  14  17
HETATM   17  C   UNL     1     -11.559  10.919  69.604  1.00  0.00    -0.394 A  
HETATM   18  C   UNL     1     -10.208   9.350  70.926  1.00  0.00    -0.373 A  
HETATM   19  H   UNL     1     -12.069   8.039  73.323  1.00  0.00     0.000 HD 
HETATM   20  C   UNL     1     -11.312   9.120  71.753  1.00  0.00    -0.381 A  
HETATM   21  C   UNL     1     -12.509   9.798  71.548  1.00  0.00    -0.495 A  
HETATM   22  O   UNL     1     -11.319   8.195  72.761  1.00  0.00    -0.397 OA 
HETATM   23  C   UNL     1     -12.638  10.677  70.469  1.00  0.00    -0.433 A  
HETATM   24  C   UNL     1     -10.346  10.251  69.853  1.00  0.00    -0.281 A  
BRANCH  18  25
HETATM   25  C   UNL     1      -8.889   8.670  71.083  1.00  0.00    -0.199 C  
HETATM   26  O   UNL     1      -8.075   9.021  71.927  1.00  0.00    -0.359 OA 
HETATM   27  H1  UNL     1      -7.704   7.147  70.368  1.00  0.00     0.000 HD 
HETATM   28  H2  UNL     1      -9.278   7.298  69.560  1.00  0.00     0.000 HD 
HETATM   29  N   UNL     1      -8.606   7.612  70.261  1.00  0.00    -0.141 N  
ENDBRANCH  18  25
ENDBRANCH  14  17
ENDBRANCH  13  14
ENDBRANCH  11  13
ENDBRANCH   2  11
TORSDOF 8
ENDMDL
MODEL       22
REMARK 921   NORMALIZED FREE ENERGY PREDICTED BY IDOCK:   -5.99 KCAL/MOL
REMARK 922        TOTAL FREE ENERGY PREDICTED BY IDOCK:  -10.34 KCAL/MOL
REMARK 923 INTER-LIGAND FREE ENERGY PREDICTED BY IDOCK:   -8.92 KCAL/MOL
REMARK 924 INTRA-LIGAND FREE ENERGY PREDICTED BY IDOCK:   -1.42 KCAL/MOL
REMARK 927      BINDING AFFINITY PREDICTED BY RF-SCORE:    0.00 PKD
ROOT
HETATM    1  C   UNL     1      -8.356  16.524  67.662  1.00  0.00    -0.175 C  
HETATM    2  C   UNL     1      -9.520  15.526  67.723  1.00  0.00    -0.204 C  
ENDROOT
BRANCH   2   3
HETATM    3  C   UNL     1      -9.979  15.379  69.191  1.00  0.00    -0.241 C  
BRANCH   3   4
HETATM    4  C   UNL     1     -11.268  16.145  69.511  1.00  0.00    -0.337 C  
BRANCH   4   5
HETATM    5  C   UNL     1     -11.984  15.564  70.709  1.00  0.00    -0.420 A  
HETATM    6  C   UNL     1     -11.898  16.178  71.966  1.00  0.00    -0.615 A  
HETATM    7  C   UNL     1     -12.562  15.634  73.067  1.00  0.00    -0.568 A  
HETATM    8  C   UNL     1     -12.761  14.405  70.575  1.00  0.00    -0.401 A  
HETATM    9  C   UNL     1     -13.324  14.475  72.924  1.00  0.00    -0.579 A  
HETATM   10  C   UNL     1     -13.425  13.862  71.677  1.00  0.00    -0.428 A  
ENDBRANCH   4   5
ENDBRANCH   3   4
ENDBRANCH   2   3
BRANCH   2  11
HETATM   11  N   UNL     1     -10.653  15.935  66.885  1.00  0.00    -0.314 NA 
HETATM   12  H   UNL     1     -10.470  16.839  66.450  1.00  0.00     0.000 HD 
BRANCH  11  13
HETATM   13  C   UNL     1     -11.034  14.943  65.869  1.00  0.00    -0.338 C  
BRANCH  13  14
HETATM   14  C   UNL     1     -12.200  14.038  66.350  1.00  0.00    -0.460 C  
HETATM   15  H   UNL     1     -13.910  13.423  65.613  1.00  0.00     0.000 HD 
HETATM   16  O   UNL     1     -13.196  13.976  65.319  1.00  0.00    -0.782 OA 
BRANCH  14  17
HETATM   17  C   UNL     1     -11.722  12.643  66.737  1.00  0.00    -0.460 A  
HETATM   18  C   UNL     1     -11.327  10.885  68.406  1.00  0.00    -0.370 A  
HETATM   19  H   UNL     1      -9.676   8.386  67.007  1.00  0.00     0.000 HD 
HETATM   20  C   UNL     1     -10.706  10.110  67.421  1.00  0.00    -0.277 A  
HETATM   21  C   UNL     1     -10.621  10.562  66.108  1.00  0.00    -0.182 A  
HETATM   22  O   UNL     1     -10.098   8.912  67.676  1.00  0.00    -0.189 OA 
HETATM   23  C   UNL     1     -11.109  11.829  65.773  1.00  0.00    -0.351 A  
HETATM   24  C   UNL     1     -11.830  12.150  68.051  1.00  0.00    -0.351 A  
BRANCH  18  25
HETATM   25  C   UNL     1     -11.464  10.470  69.833  1.00  0.00    -0.310 C  
HETATM   26  O   UNL     1     -10.500  10.124  70.503  1.00  0.00    -0.261 OA 
HETATM   27  H1  UNL     1     -12.805  10.216  71.372  1.00  0.00     0.000 HD 
HETATM   28  H2  UNL     1     -13.524  10.796  69.857  1.00  0.00     0.000 HD 
HETATM   29  N   UNL     1     -12.712  10.500  70.397  1.00  0.00    -0.307 N  
ENDBRANCH  18  25
ENDBRANCH  14  17
ENDBRANCH  13  14
ENDBRANCH  11  13
ENDBRANCH   2  11
TORSDOF 8
ENDMDL
MODEL       23
REMARK 921   NORMALIZED FREE ENERGY PREDICTED BY IDOCK:   -5.99 KCAL/MOL
REMARK 922        TOTAL FREE ENERGY PREDICTED BY IDOCK:  -10.34 KCAL/MOL
REMARK 923 INTER-LIGAND FREE ENERGY PREDICTED BY IDOCK:   -9.09 KCAL/MOL
REMARK 924 INTRA-LIGAND FREE ENERGY PREDICTED BY IDOCK:   -1.25 KCAL/MOL
REMARK 927      BINDING AFFINITY PREDICTED BY RF-SCORE:    0.00 PKD
ROOT
HETATM    1  C   UNL     1     -12.048  14.547  65.347  1.00  0.00    -0.317 C  
HETATM    2  C   UNL     1     -10.553  14.348  65.067  1.00  0.00    -0.432 C  
ENDROOT
BRANCH   2   3
HETATM    3  C   UNL     1      -9.743  15.332  65.941  1.00  0.00    -0.390 C  
BRANCH   3   4
HETATM    4  C   UNL     1     -10.554  15.947  67.087  1.00  0.00    -0.316 C  
BRANCH   4   5
HETATM    5  C   UNL     1     -10.389  17.448  67.150  1.00  0.00    -0.325 A  
HETATM    6  C   UNL     1     -10.141  18.095  68.369  1.00  0.00    -0.401 A  
HETATM    7  C   UNL     1      -9.991  19.481  68.418  1.00  0.00    -0.540 A  
HETATM    8  C   UNL     1     -10.467  18.218  65.981  1.00  0.00    -0.380 A  
HETATM    9  C   UNL     1     -10.080  20.238  67.250  1.00  0.00    -0.545 A  
HETATM   10  C   UNL     1     -10.317  19.605  66.031  1.00  0.00    -0.620 A  
ENDBRANCH   4   5
ENDBRANCH   3   4
ENDBRANCH   2   3
BRANCH   2  11
HETATM   11  N   UNL     1     -10.113  12.972  65.328  1.00  0.00    -0.415 NA 
HETATM   12  H   UNL     1      -9.181  12.966  65.743  1.00  0.00     0.000 HD 
BRANCH  11  13
HETATM   13  C   UNL     1     -11.048  12.190  66.149  1.00  0.00    -0.312 C  
BRANCH  13  14
HETATM   14  C   UNL     1     -10.330  11.477  67.327  1.00  0.00    -0.206 C  
HETATM   15  H   UNL     1      -8.540  11.522  68.128  1.00  0.00     0.000 HD 
HETATM   16  O   UNL     1      -8.980  11.958  67.408  1.00  0.00    -0.163 OA 
BRANCH  14  17
HETATM   17  C   UNL     1     -11.064  11.672  68.648  1.00  0.00    -0.287 A  
HETATM   18  C   UNL     1     -12.113  10.784  70.684  1.00  0.00    -0.467 A  
HETATM   19  H   UNL     1     -13.615  13.238  72.313  1.00  0.00     0.000 HD 
HETATM   20  C   UNL     1     -12.532  12.078  71.014  1.00  0.00    -0.276 A  
HETATM   21  C   UNL     1     -12.198  13.161  70.209  1.00  0.00    -0.376 A  
HETATM   22  O   UNL     1     -13.330  12.360  72.089  1.00  0.00    -0.528 OA 
HETATM   23  C   UNL     1     -11.485  12.957  69.024  1.00  0.00    -0.358 A  
HETATM   24  C   UNL     1     -11.381  10.595  69.498  1.00  0.00    -0.342 A  
BRANCH  18  25
HETATM   25  C   UNL     1     -12.423   9.572  71.497  1.00  0.00    -0.376 C  
HETATM   26  O   UNL     1     -11.577   9.021  72.189  1.00  0.00    -0.355 OA 
HETATM   27  H1  UNL     1     -13.915   8.257  72.024  1.00  0.00     0.000 HD 
HETATM   28  H2  UNL     1     -14.424   9.539  70.907  1.00  0.00     0.000 HD 
HETATM   29  N   UNL     1     -13.703   9.086  71.468  1.00  0.00    -0.367 N  
ENDBRANCH  18  25
ENDBRANCH  14  17
ENDBRANCH  13  14
ENDBRANCH  11  13
ENDBRANCH   2  11
TORSDOF 8
ENDMDL
MODEL       24
REMARK 921   NORMALIZED FREE ENERGY PREDICTED BY IDOCK:   -5.96 KCAL/MOL
REMARK 922        TOTAL FREE ENERGY PREDICTED BY IDOCK:  -10.30 KCAL/MOL
REMARK 923 INTER-LIGAND FREE ENERGY PREDICTED BY IDOCK:   -9.01 KCAL/MOL
REMARK 924 INTRA-LIGAND FREE ENERGY PREDICTED BY IDOCK:   -1.29 KCAL/MOL
REMARK 927      BINDING AFFINITY PREDICTED BY RF-SCORE:    0.00 PKD
ROOT
HETATM    1  C   UNL     1     -12.655  16.006  73.251  1.00  0.00    -0.649 C  
HETATM    2  C   UNL     1     -11.939  15.537  71.978  1.00  0.00    -0.434 C  
ENDROOT
BRANCH   2   3
HETATM    3  C   UNL     1     -12.889  14.616  71.179  1.00  0.00    -0.411 C  
BRANCH   3   4
HETATM    4  C   UNL     1     -13.484  13.475  72.013  1.00  0.00    -0.584 C  
BRANCH   4   5
HETATM    5  C   UNL     1     -12.953  12.127  71.581  1.00  0.00    -0.427 A  
HETATM    6  C   UNL     1     -11.989  12.024  70.568  1.00  0.00    -0.338 A  
HETATM    7  C   UNL     1     -11.505  10.775  70.176  1.00  0.00    -0.415 A  
HETATM    8  C   UNL     1     -13.409  10.956  72.201  1.00  0.00    -0.294 A  
HETATM    9  C   UNL     1     -11.973   9.616  70.793  1.00  0.00    -0.356 A  
HETATM   10  C   UNL     1     -12.924   9.707  71.808  1.00  0.00    -0.514 A  
ENDBRANCH   4   5
ENDBRANCH   3   4
ENDBRANCH   2   3
BRANCH   2  11
HETATM   11  N   UNL     1     -11.503  16.656  71.135  1.00  0.00    -0.486 NA 
HETATM   12  H   UNL     1     -11.045  17.372  71.698  1.00  0.00     0.000 HD 
BRANCH  11  13
HETATM   13  C   UNL     1     -10.644  16.258  70.010  1.00  0.00    -0.239 C  
BRANCH  13  14
HETATM   14  C   UNL     1     -11.101  16.903  68.674  1.00  0.00    -0.194 C  
HETATM   15  H   UNL     1     -10.601  18.479  67.620  1.00  0.00     0.000 HD 
HETATM   16  O   UNL     1     -10.322  18.084  68.437  1.00  0.00    -0.373 OA 
BRANCH  14  17
HETATM   17  C   UNL     1     -10.999  15.932  67.504  1.00  0.00    -0.280 A  
HETATM   18  C   UNL     1     -10.916  13.652  66.593  1.00  0.00    -0.295 A  
HETATM   19  H   UNL     1     -10.247  13.778  63.358  1.00  0.00     0.000 HD 
HETATM   20  C   UNL     1     -10.676  14.184  65.322  1.00  0.00    -0.364 A  
HETATM   21  C   UNL     1     -10.634  15.560  65.123  1.00  0.00    -0.455 A  
HETATM   22  O   UNL     1     -10.410  13.417  64.222  1.00  0.00    -0.420 OA 
HETATM   23  C   UNL     1     -10.775  16.428  66.210  1.00  0.00    -0.161 A  
HETATM   24  C   UNL     1     -11.074  14.537  67.676  1.00  0.00    -0.314 A  
BRANCH  18  25
HETATM   25  C   UNL     1     -10.982  12.191  66.889  1.00  0.00    -0.270 C  
HETATM   26  O   UNL     1     -12.049  11.603  67.018  1.00  0.00    -0.547 OA 
HETATM   27  H1  UNL     1      -9.850  10.501  67.201  1.00  0.00     0.000 HD 
HETATM   28  H2  UNL     1      -8.908  11.971  66.882  1.00  0.00     0.000 HD 
HETATM   29  N   UNL     1      -9.805  11.500  66.999  1.00  0.00    -0.190 N  
ENDBRANCH  18  25
ENDBRANCH  14  17
ENDBRANCH  13  14
ENDBRANCH  11  13
ENDBRANCH   2  11
TORSDOF 8
ENDMDL
MODEL       25
REMARK 921   NORMALIZED FREE ENERGY PREDICTED BY IDOCK:   -5.93 KCAL/MOL
REMARK 922        TOTAL FREE ENERGY PREDICTED BY IDOCK:  -10.26 KCAL/MOL
REMARK 923 INTER-LIGAND FREE ENERGY PREDICTED BY IDOCK:   -9.04 KCAL/MOL
REMARK 924 INTRA-LIGAND FREE ENERGY PREDICTED BY IDOCK:   -1.22 KCAL/MOL
REMARK 927      BINDING AFFINITY PREDICTED BY RF-SCORE:    0.00 PKD
ROOT
HETATM    1  C   UNL     1     -10.880  10.096  67.580  1.00  0.00    -0.349 C  
HETATM    2  C   UNL     1     -11.773  11.330  67.758  1.00  0.00    -0.176 C  
ENDROOT
BRANCH   2   3
HETATM    3  C   UNL     1     -11.248  12.162  68.950  1.00  0.00    -0.320 C  
BRANCH   3   4
HETATM    4  C   UNL     1     -11.974  11.870  70.269  1.00  0.00    -0.416 C  
BRANCH   4   5
HETATM    5  C   UNL     1     -12.564  13.123  70.874  1.00  0.00    -0.377 A  
HETATM    6  C   UNL     1     -12.278  14.386  70.338  1.00  0.00    -0.404 A  
HETATM    7  C   UNL     1     -12.827  15.538  70.904  1.00  0.00    -0.535 A  
HETATM    8  C   UNL     1     -13.424  13.038  71.979  1.00  0.00    -0.584 A  
HETATM    9  C   UNL     1     -13.673  15.441  72.009  1.00  0.00    -0.613 A  
HETATM   10  C   UNL     1     -13.973  14.190  72.544  1.00  0.00    -0.536 A  
ENDBRANCH   4   5
ENDBRANCH   3   4
ENDBRANCH   2   3
BRANCH   2  11
HETATM   11  N   UNL     1     -11.825  12.164  66.552  1.00  0.00    -0.615 NA 
HETATM   12  H   UNL     1     -12.581  11.862  65.939  1.00  0.00     0.000 HD 
BRANCH  11  13
HETATM   13  C   UNL     1     -11.927  13.605  66.825  1.00  0.00    -0.414 C  
BRANCH  13  14
HETATM   14  C   UNL     1     -11.089  14.447  65.825  1.00  0.00    -0.316 C  
HETATM   15  H   UNL     1     -11.445  15.461  64.185  1.00  0.00     0.000 HD 
HETATM   16  O   UNL     1     -11.957  14.947  64.797  1.00  0.00    -0.400 OA 
BRANCH  14  17
HETATM   17  C   UNL     1     -10.342  15.582  66.515  1.00  0.00    -0.293 A  
HETATM   18  C   UNL     1      -8.366  17.016  66.780  1.00  0.00    -0.267 A  
HETATM   19  H   UNL     1      -8.726  18.906  69.468  1.00  0.00     0.000 HD 
HETATM   20  C   UNL     1      -8.957  17.597  67.907  1.00  0.00    -0.250 A  
HETATM   21  C   UNL     1     -10.230  17.217  68.319  1.00  0.00    -0.334 A  
HETATM   22  O   UNL     1      -8.324  18.512  68.703  1.00  0.00    -0.326 OA 
HETATM   23  C   UNL     1     -10.910  16.202  67.639  1.00  0.00    -0.297 A  
HETATM   24  C   UNL     1      -9.068  16.008  66.094  1.00  0.00    -0.387 A  
BRANCH  18  25
HETATM   25  C   UNL     1      -7.009  17.372  66.271  1.00  0.00    -0.284 C  
HETATM   26  O   UNL     1      -6.020  16.701  66.535  1.00  0.00    -0.313 OA 
HETATM   27  H1  UNL     1      -5.962  18.720  65.122  1.00  0.00     0.000 HD 
HETATM   28  H2  UNL     1      -7.705  19.040  65.229  1.00  0.00     0.000 HD 
HETATM   29  N   UNL     1      -6.890  18.477  65.470  1.00  0.00    -0.240 N  
ENDBRANCH  18  25
ENDBRANCH  14  17
ENDBRANCH  13  14
ENDBRANCH  11  13
ENDBRANCH   2  11
TORSDOF 8
ENDMDL
MODEL       26
REMARK 921   NORMALIZED FREE ENERGY PREDICTED BY IDOCK:   -5.93 KCAL/MOL
REMARK 922        TOTAL FREE ENERGY PREDICTED BY IDOCK:  -10.26 KCAL/MOL
REMARK 923 INTER-LIGAND FREE ENERGY PREDICTED BY IDOCK:   -9.26 KCAL/MOL
REMARK 924 INTRA-LIGAND FREE ENERGY PREDICTED BY IDOCK:   -0.99 KCAL/MOL
REMARK 927      BINDING AFFINITY PREDICTED BY RF-SCORE:    0.00 PKD
ROOT
HETATM    1  C   UNL     1      -9.610  18.221  68.020  1.00  0.00    -0.314 C  
HETATM    2  C   UNL     1     -10.710  17.152  68.006  1.00  0.00    -0.372 C  
ENDROOT
BRANCH   2   3
HETATM    3  C   UNL     1     -10.241  15.961  67.140  1.00  0.00    -0.278 C  
BRANCH   3   4
HETATM    4  C   UNL     1     -10.761  16.008  65.699  1.00  0.00    -0.341 C  
BRANCH   4   5
HETATM    5  C   UNL     1     -11.126  14.633  65.188  1.00  0.00    -0.382 A  
HETATM    6  C   UNL     1     -10.166  13.813  64.580  1.00  0.00    -0.313 A  
HETATM    7  C   UNL     1     -10.513  12.545  64.111  1.00  0.00    -0.429 A  
HETATM    8  C   UNL     1     -12.435  14.151  65.329  1.00  0.00    -0.474 A  
HETATM    9  C   UNL     1     -11.820  12.079  64.248  1.00  0.00    -0.431 A  
HETATM   10  C   UNL     1     -12.781  12.883  64.859  1.00  0.00    -0.474 A  
ENDBRANCH   4   5
ENDBRANCH   3   4
ENDBRANCH   2   3
BRANCH   2  11
HETATM   11  N   UNL     1     -11.054  16.684  69.354  1.00  0.00    -0.307 NA 
HETATM   12  H   UNL     1     -11.284  17.472  69.959  1.00  0.00     0.000 HD 
BRANCH  11  13
HETATM   13  C   UNL     1     -12.128  15.681  69.382  1.00  0.00    -0.266 C  
BRANCH  13  14
HETATM   14  C   UNL     1     -12.424  15.188  70.824  1.00  0.00    -0.372 C  
HETATM   15  H   UNL     1     -13.837  15.472  72.154  1.00  0.00     0.000 HD 
HETATM   16  O   UNL     1     -13.656  15.773  71.271  1.00  0.00    -0.561 OA 
BRANCH  14  17
HETATM   17  C   UNL     1     -12.472  13.668  70.913  1.00  0.00    -0.448 A  
HETATM   18  C   UNL     1     -11.971  11.438  70.013  1.00  0.00    -0.442 A  
HETATM   19  H   UNL     1     -13.449   9.139  71.874  1.00  0.00     0.000 HD 
HETATM   20  C   UNL     1     -12.703  10.867  71.060  1.00  0.00    -0.407 A  
HETATM   21  C   UNL     1     -13.280  11.665  72.043  1.00  0.00    -0.443 A  
HETATM   22  O   UNL     1     -12.952   9.526  71.163  1.00  0.00    -0.323 OA 
HETATM   23  C   UNL     1     -13.182  13.057  71.959  1.00  0.00    -0.543 A  
HETATM   24  C   UNL     1     -11.865  12.839  69.951  1.00  0.00    -0.371 A  
BRANCH  18  25
HETATM   25  C   UNL     1     -11.317  10.653  68.926  1.00  0.00    -0.274 C  
HETATM   26  O   UNL     1     -11.752  10.643  67.781  1.00  0.00    -0.503 OA 
HETATM   27  H1  UNL     1      -9.741   9.404  68.489  1.00  0.00     0.000 HD 
HETATM   28  H2  UNL     1      -9.805   9.948  70.178  1.00  0.00     0.000 HD 
HETATM   29  N   UNL     1     -10.188   9.941  69.233  1.00  0.00    -0.195 N  
ENDBRANCH  18  25
ENDBRANCH  14  17
ENDBRANCH  13  14
ENDBRANCH  11  13
ENDBRANCH   2  11
TORSDOF 8
ENDMDL
MODEL       27
REMARK 921   NORMALIZED FREE ENERGY PREDICTED BY IDOCK:   -5.92 KCAL/MOL
REMARK 922        TOTAL FREE ENERGY PREDICTED BY IDOCK:  -10.25 KCAL/MOL
REMARK 923 INTER-LIGAND FREE ENERGY PREDICTED BY IDOCK:   -8.69 KCAL/MOL
REMARK 924 INTRA-LIGAND FREE ENERGY PREDICTED BY IDOCK:   -1.56 KCAL/MOL
REMARK 927      BINDING AFFINITY PREDICTED BY RF-SCORE:    0.00 PKD
ROOT
HETATM    1  C   UNL     1      -8.661  11.895  66.534  1.00  0.00    -0.126 C  
HETATM    2  C   UNL     1      -8.853  10.909  65.375  1.00  0.00    -0.180 C  
ENDROOT
BRANCH   2   3
HETATM    3  C   UNL     1      -9.915   9.860  65.779  1.00  0.00    -0.347 C  
BRANCH   3   4
HETATM    4  C   UNL     1     -10.349   9.960  67.246  1.00  0.00    -0.303 C  
BRANCH   4   5
HETATM    5  C   UNL     1     -10.478   8.597  67.887  1.00  0.00    -0.269 A  
HETATM    6  C   UNL     1     -10.354   8.440  69.274  1.00  0.00    -0.220 A  
HETATM    7  C   UNL     1     -10.474   7.178  69.858  1.00  0.00    -0.237 A  
HETATM    8  C   UNL     1     -10.741   7.467  67.100  1.00  0.00    -0.379 A  
HETATM    9  C   UNL     1     -10.726   6.059  69.064  1.00  0.00    -0.393 A  
HETATM   10  C   UNL     1     -10.861   6.205  67.684  1.00  0.00    -0.421 A  
ENDBRANCH   4   5
ENDBRANCH   3   4
ENDBRANCH   2   3
BRANCH   2  11
HETATM   11  N   UNL     1      -9.259  11.576  64.133  1.00  0.00    -0.425 NA 
HETATM   12  H   UNL     1      -8.553  11.446  63.409  1.00  0.00     0.000 HD 
BRANCH  11  13
HETATM   13  C   UNL     1     -10.583  11.170  63.640  1.00  0.00    -0.347 C  
BRANCH  13  14
HETATM   14  C   UNL     1     -11.529  12.385  63.447  1.00  0.00    -0.448 C  
HETATM   15  H   UNL     1     -13.419  12.650  62.994  1.00  0.00     0.000 HD 
HETATM   16  O   UNL     1     -12.839  11.906  63.112  1.00  0.00    -0.636 OA 
BRANCH  14  17
HETATM   17  C   UNL     1     -11.570  13.282  64.679  1.00  0.00    -0.385 A  
HETATM   18  C   UNL     1     -10.897  15.307  65.897  1.00  0.00    -0.345 A  
HETATM   19  H   UNL     1     -12.015  15.149  69.004  1.00  0.00     0.000 HD 
HETATM   20  C   UNL     1     -11.575  14.834  67.026  1.00  0.00    -0.339 A  
HETATM   21  C   UNL     1     -12.273  13.632  66.986  1.00  0.00    -0.373 A  
HETATM   22  O   UNL     1     -11.554  15.469  68.238  1.00  0.00    -0.357 OA 
HETATM   23  C   UNL     1     -12.254  12.852  65.827  1.00  0.00    -0.498 A  
HETATM   24  C   UNL     1     -10.901  14.519  64.730  1.00  0.00    -0.410 A  
BRANCH  18  25
HETATM   25  C   UNL     1     -10.132  16.587  65.856  1.00  0.00    -0.337 C  
HETATM   26  O   UNL     1     -10.536  17.564  65.238  1.00  0.00    -0.664 OA 
HETATM   27  H1  UNL     1      -8.430  17.532  66.520  1.00  0.00     0.000 HD 
HETATM   28  H2  UNL     1      -8.608  15.857  67.078  1.00  0.00     0.000 HD 
HETATM   29  N   UNL     1      -8.953  16.657  66.549  1.00  0.00    -0.255 N  
ENDBRANCH  18  25
ENDBRANCH  14  17
ENDBRANCH  13  14
ENDBRANCH  11  13
ENDBRANCH   2  11
TORSDOF 8
ENDMDL
MODEL       28
REMARK 921   NORMALIZED FREE ENERGY PREDICTED BY IDOCK:   -5.91 KCAL/MOL
REMARK 922        TOTAL FREE ENERGY PREDICTED BY IDOCK:  -10.23 KCAL/MOL
REMARK 923 INTER-LIGAND FREE ENERGY PREDICTED BY IDOCK:   -8.64 KCAL/MOL
REMARK 924 INTRA-LIGAND FREE ENERGY PREDICTED BY IDOCK:   -1.59 KCAL/MOL
REMARK 927      BINDING AFFINITY PREDICTED BY RF-SCORE:    0.00 PKD
ROOT
HETATM    1  C   UNL     1     -13.613  15.600  72.809  1.00  0.00    -0.678 C  
HETATM    2  C   UNL     1     -12.756  14.878  71.763  1.00  0.00    -0.331 C  
ENDROOT
BRANCH   2   3
HETATM    3  C   UNL     1     -13.202  13.400  71.682  1.00  0.00    -0.449 C  
BRANCH   3   4
HETATM    4  C   UNL     1     -12.459  12.593  70.611  1.00  0.00    -0.323 C  
BRANCH   4   5
HETATM    5  C   UNL     1     -12.376  11.126  70.969  1.00  0.00    -0.487 A  
HETATM    6  C   UNL     1     -13.244  10.567  71.917  1.00  0.00    -0.526 A  
HETATM    7  C   UNL     1     -13.159   9.212  72.242  1.00  0.00    -0.509 A  
HETATM    8  C   UNL     1     -11.434  10.297  70.343  1.00  0.00    -0.415 A  
HETATM    9  C   UNL     1     -12.212   8.399  71.619  1.00  0.00    -0.358 A  
HETATM   10  C   UNL     1     -11.351   8.943  70.668  1.00  0.00    -0.299 A  
ENDBRANCH   4   5
ENDBRANCH   3   4
ENDBRANCH   2   3
BRANCH   2  11
HETATM   11  N   UNL     1     -12.848  15.499  70.437  1.00  0.00    -0.624 NA 
HETATM   12  H   UNL     1     -13.522  16.265  70.445  1.00  0.00     0.000 HD 
BRANCH  11  13
HETATM   13  C   UNL     1     -11.558  15.955  69.899  1.00  0.00    -0.336 C  
BRANCH  13  14
HETATM   14  C   UNL     1     -11.524  15.899  68.348  1.00  0.00    -0.348 C  
HETATM   15  H   UNL     1     -10.537  16.814  66.921  1.00  0.00     0.000 HD 
HETATM   16  O   UNL     1     -10.558  16.848  67.870  1.00  0.00    -0.339 OA 
BRANCH  14  17
HETATM   17  C   UNL     1     -11.221  14.498  67.830  1.00  0.00    -0.310 A  
HETATM   18  C   UNL     1      -9.741  12.550  67.617  1.00  0.00    -0.196 A  
HETATM   19  H   UNL     1     -11.061  10.386  65.495  1.00  0.00     0.000 HD 
HETATM   20  C   UNL     1     -10.662  11.964  66.742  1.00  0.00    -0.246 A  
HETATM   21  C   UNL     1     -11.860  12.602  66.438  1.00  0.00    -0.466 A  
HETATM   22  O   UNL     1     -10.435  10.784  66.089  1.00  0.00    -0.249 OA 
HETATM   23  C   UNL     1     -12.129  13.869  66.964  1.00  0.00    -0.451 A  
HETATM   24  C   UNL     1     -10.032  13.818  68.153  1.00  0.00    -0.242 A  
BRANCH  18  25
HETATM   25  C   UNL     1      -8.438  11.929  67.999  1.00  0.00    -0.162 C  
HETATM   26  O   UNL     1      -8.344  11.138  68.929  1.00  0.00    -0.150 OA 
HETATM   27  H1  UNL     1      -6.439  11.829  67.525  1.00  0.00     0.000 HD 
HETATM   28  H2  UNL     1      -7.391  12.901  66.479  1.00  0.00     0.000 HD 
HETATM   29  N   UNL     1      -7.329  12.253  67.264  1.00  0.00    -0.148 N  
ENDBRANCH  18  25
ENDBRANCH  14  17
ENDBRANCH  13  14
ENDBRANCH  11  13
ENDBRANCH   2  11
TORSDOF 8
ENDMDL
MODEL       29
REMARK 921   NORMALIZED FREE ENERGY PREDICTED BY IDOCK:   -5.90 KCAL/MOL
REMARK 922        TOTAL FREE ENERGY PREDICTED BY IDOCK:  -10.22 KCAL/MOL
REMARK 923 INTER-LIGAND FREE ENERGY PREDICTED BY IDOCK:   -8.79 KCAL/MOL
REMARK 924 INTRA-LIGAND FREE ENERGY PREDICTED BY IDOCK:   -1.43 KCAL/MOL
REMARK 927      BINDING AFFINITY PREDICTED BY RF-SCORE:    0.00 PKD
ROOT
HETATM    1  C   UNL     1     -10.078  11.894  63.538  1.00  0.00    -0.464 C  
HETATM    2  C   UNL     1     -11.538  12.101  63.959  1.00  0.00    -0.423 C  
ENDROOT
BRANCH   2   3
HETATM    3  C   UNL     1     -11.625  12.070  65.502  1.00  0.00    -0.352 C  
BRANCH   3   4
HETATM    4  C   UNL     1     -10.546  11.203  66.161  1.00  0.00    -0.305 C  
BRANCH   4   5
HETATM    5  C   UNL     1     -10.916  10.826  67.577  1.00  0.00    -0.372 A  
HETATM    6  C   UNL     1     -11.716  11.668  68.361  1.00  0.00    -0.374 A  
HETATM    7  C   UNL     1     -12.052  11.311  69.668  1.00  0.00    -0.391 A  
HETATM    8  C   UNL     1     -10.472   9.614  68.125  1.00  0.00    -0.266 A  
HETATM    9  C   UNL     1     -11.597  10.108  70.206  1.00  0.00    -0.379 A  
HETATM   10  C   UNL     1     -10.808   9.258  69.432  1.00  0.00    -0.184 A  
ENDBRANCH   4   5
ENDBRANCH   3   4
ENDBRANCH   2   3
BRANCH   2  11
HETATM   11  N   UNL     1     -12.095  13.361  63.453  1.00  0.00    -0.872 NA 
HETATM   12  H   UNL     1     -12.969  13.192  62.957  1.00  0.00     0.000 HD 
BRANCH  11  13
HETATM   13  C   UNL     1     -12.279  14.391  64.486  1.00  0.00    -0.463 C  
BRANCH  13  14
HETATM   14  C   UNL     1     -11.056  15.342  64.581  1.00  0.00    -0.347 C  
HETATM   15  H   UNL     1     -10.715  17.246  64.255  1.00  0.00     0.000 HD 
HETATM   16  O   UNL     1     -11.463  16.663  64.197  1.00  0.00    -1.131 OA 
BRANCH  14  17
HETATM   17  C   UNL     1     -10.434  15.340  65.973  1.00  0.00    -0.328 A  
HETATM   18  C   UNL     1     -10.621  15.469  68.419  1.00  0.00    -0.252 A  
HETATM   19  H   UNL     1      -7.598  15.609  69.751  1.00  0.00     0.000 HD 
HETATM   20  C   UNL     1      -9.225  15.462  68.510  1.00  0.00    -0.198 A  
HETATM   21  C   UNL     1      -8.437  15.356  67.369  1.00  0.00    -0.200 A  
HETATM   22  O   UNL     1      -8.546  15.614  69.688  1.00  0.00    -0.230 OA 
HETATM   23  C   UNL     1      -9.037  15.315  66.107  1.00  0.00    -0.314 A  
HETATM   24  C   UNL     1     -11.213  15.410  67.143  1.00  0.00    -0.256 A  
BRANCH  18  25
HETATM   25  C   UNL     1     -11.536  15.573  69.593  1.00  0.00    -0.329 C  
HETATM   26  O   UNL     1     -11.276  16.283  70.557  1.00  0.00    -0.376 OA 
HETATM   27  H1  UNL     1     -13.329  14.929  70.370  1.00  0.00     0.000 HD 
HETATM   28  H2  UNL     1     -12.941  14.272  68.767  1.00  0.00     0.000 HD 
HETATM   29  N   UNL     1     -12.703  14.858  69.567  1.00  0.00     0.018 N  
ENDBRANCH  18  25
ENDBRANCH  14  17
ENDBRANCH  13  14
ENDBRANCH  11  13
ENDBRANCH   2  11
TORSDOF 8
ENDMDL
MODEL       30
REMARK 921   NORMALIZED FREE ENERGY PREDICTED BY IDOCK:   -5.89 KCAL/MOL
REMARK 922        TOTAL FREE ENERGY PREDICTED BY IDOCK:  -10.20 KCAL/MOL
REMARK 923 INTER-LIGAND FREE ENERGY PREDICTED BY IDOCK:   -7.71 KCAL/MOL
REMARK 924 INTRA-LIGAND FREE ENERGY PREDICTED BY IDOCK:   -2.49 KCAL/MOL
REMARK 927      BINDING AFFINITY PREDICTED BY RF-SCORE:    0.00 PKD
ROOT
HETATM    1  C   UNL     1     -11.729  15.549  72.348  1.00  0.00    -0.570 C  
HETATM    2  C   UNL     1     -12.292  14.835  71.113  1.00  0.00    -0.331 C  
ENDROOT
BRANCH   2   3
HETATM    3  C   UNL     1     -12.217  15.793  69.902  1.00  0.00    -0.271 C  
BRANCH   3   4
HETATM    4  C   UNL     1     -10.843  16.449  69.724  1.00  0.00    -0.343 C  
BRANCH   4   5
HETATM    5  C   UNL     1     -10.282  16.210  68.340  1.00  0.00    -0.240 A  
HETATM    6  C   UNL     1      -9.160  15.391  68.151  1.00  0.00    -0.184 A  
HETATM    7  C   UNL     1      -8.648  15.176  66.870  1.00  0.00    -0.289 A  
HETATM    8  C   UNL     1     -10.888  16.795  67.220  1.00  0.00    -0.137 A  
HETATM    9  C   UNL     1      -9.253  15.771  65.764  1.00  0.00    -0.255 A  
HETATM   10  C   UNL     1     -10.375  16.579  65.940  1.00  0.00    -0.365 A  
ENDBRANCH   4   5
ENDBRANCH   3   4
ENDBRANCH   2   3
BRANCH   2  11
HETATM   11  N   UNL     1     -11.577  13.590  70.810  1.00  0.00    -0.410 NA 
HETATM   12  H   UNL     1     -11.580  12.969  71.618  1.00  0.00     0.000 HD 
BRANCH  11  13
HETATM   13  C   UNL     1     -12.076  12.889  69.619  1.00  0.00    -0.226 C  
BRANCH  13  14
HETATM   14  C   UNL     1     -10.920  12.410  68.700  1.00  0.00    -0.247 C  
HETATM   15  H   UNL     1      -9.898  10.754  68.458  1.00  0.00     0.000 HD 
HETATM   16  O   UNL     1     -10.605  11.047  69.020  1.00  0.00    -0.207 OA 
BRANCH  14  17
HETATM   17  C   UNL     1     -11.260  12.564  67.222  1.00  0.00    -0.347 A  
HETATM   18  C   UNL     1     -10.793  12.149  64.846  1.00  0.00    -0.352 A  
HETATM   19  H   UNL     1     -12.889  13.903  62.986  1.00  0.00     0.000 HD 
HETATM   20  C   UNL     1     -11.859  12.989  64.506  1.00  0.00    -0.377 A  
HETATM   21  C   UNL     1     -12.642  13.580  65.491  1.00  0.00    -0.531 A  
HETATM   22  O   UNL     1     -12.166  13.332  63.218  1.00  0.00    -0.663 OA 
HETATM   23  C   UNL     1     -12.332  13.385  66.840  1.00  0.00    -0.262 A  
HETATM   24  C   UNL     1     -10.504  11.946  66.208  1.00  0.00    -0.274 A  
BRANCH  18  25
HETATM   25  C   UNL     1      -9.911  11.472  63.851  1.00  0.00    -0.296 C  
HETATM   26  O   UNL     1      -9.360  12.088  62.948  1.00  0.00    -0.257 OA 
HETATM   27  H1  UNL     1      -9.106   9.661  63.299  1.00  0.00     0.000 HD 
HETATM   28  H2  UNL     1     -10.150   9.597  64.733  1.00  0.00     0.000 HD 
HETATM   29  N   UNL     1      -9.709  10.124  63.979  1.00  0.00    -0.280 N  
ENDBRANCH  18  25
ENDBRANCH  14  17
ENDBRANCH  13  14
ENDBRANCH  11  13
ENDBRANCH   2  11
TORSDOF 8
ENDMDL
MODEL       31
REMARK 921   NORMALIZED FREE ENERGY PREDICTED BY IDOCK:   -5.86 KCAL/MOL
REMARK 922        TOTAL FREE ENERGY PREDICTED BY IDOCK:  -10.16 KCAL/MOL
REMARK 923 INTER-LIGAND FREE ENERGY PREDICTED BY IDOCK:   -9.17 KCAL/MOL
REMARK 924 INTRA-LIGAND FREE ENERGY PREDICTED BY IDOCK:   -0.99 KCAL/MOL
REMARK 927      BINDING AFFINITY PREDICTED BY RF-SCORE:    0.00 PKD
ROOT
HETATM    1  C   UNL     1     -10.500  17.802  67.032  1.00  0.00    -0.324 C  
HETATM    2  C   UNL     1     -10.224  16.356  67.461  1.00  0.00    -0.273 C  
ENDROOT
BRANCH   2   3
HETATM    3  C   UNL     1     -11.451  15.818  68.232  1.00  0.00    -0.338 C  
BRANCH   3   4
HETATM    4  C   UNL     1     -11.142  14.591  69.097  1.00  0.00    -0.284 C  
BRANCH   4   5
HETATM    5  C   UNL     1     -12.150  14.420  70.211  1.00  0.00    -0.396 A  
HETATM    6  C   UNL     1     -12.297  13.191  70.868  1.00  0.00    -0.393 A  
HETATM    7  C   UNL     1     -13.230  13.043  71.895  1.00  0.00    -0.527 A  
HETATM    8  C   UNL     1     -12.947  15.501  70.616  1.00  0.00    -0.425 A  
HETATM    9  C   UNL     1     -14.024  14.122  72.282  1.00  0.00    -0.646 A  
HETATM   10  C   UNL     1     -13.880  15.352  71.643  1.00  0.00    -0.606 A  
ENDBRANCH   4   5
ENDBRANCH   3   4
ENDBRANCH   2   3
BRANCH   2  11
HETATM   11  N   UNL     1      -9.928  15.480  66.322  1.00  0.00    -0.273 NA 
HETATM   12  H   UNL     1     -10.019  14.500  66.590  1.00  0.00     0.000 HD 
BRANCH  11  13
HETATM   13  C   UNL     1     -10.732  15.763  65.125  1.00  0.00    -0.435 C  
BRANCH  13  14
HETATM   14  C   UNL     1     -11.874  14.728  64.934  1.00  0.00    -0.377 C  
HETATM   15  H   UNL     1     -13.266  14.388  63.596  1.00  0.00     0.000 HD 
HETATM   16  O   UNL     1     -12.567  15.021  63.712  1.00  0.00    -0.776 OA 
BRANCH  14  17
HETATM   17  C   UNL     1     -11.357  13.295  64.945  1.00  0.00    -0.337 A  
HETATM   18  C   UNL     1     -10.670  11.258  66.133  1.00  0.00    -0.307 A  
HETATM   19  H   UNL     1      -9.390   9.101  63.979  1.00  0.00     0.000 HD 
HETATM   20  C   UNL     1     -10.278  10.696  64.913  1.00  0.00    -0.324 A  
HETATM   21  C   UNL     1     -10.452  11.391  63.721  1.00  0.00    -0.456 A  
HETATM   22  O   UNL     1      -9.656   9.482  64.808  1.00  0.00    -0.216 OA 
HETATM   23  C   UNL     1     -10.970  12.689  63.739  1.00  0.00    -0.481 A  
HETATM   24  C   UNL     1     -11.206  12.559  66.135  1.00  0.00    -0.362 A  
BRANCH  18  25
HETATM   25  C   UNL     1     -10.523  10.577  67.453  1.00  0.00    -0.244 C  
HETATM   26  O   UNL     1     -11.137   9.553  67.727  1.00  0.00    -0.186 OA 
HETATM   27  H1  UNL     1      -9.558  10.653  69.268  1.00  0.00     0.000 HD 
HETATM   28  H2  UNL     1      -9.130  11.963  68.151  1.00  0.00     0.000 HD 
HETATM   29  N   UNL     1      -9.658  11.118  68.366  1.00  0.00    -0.185 N  
ENDBRANCH  18  25
ENDBRANCH  14  17
ENDBRANCH  13  14
ENDBRANCH  11  13
ENDBRANCH   2  11
TORSDOF 8
ENDMDL
MODEL       32
REMARK 921   NORMALIZED FREE ENERGY PREDICTED BY IDOCK:   -5.86 KCAL/MOL
REMARK 922        TOTAL FREE ENERGY PREDICTED BY IDOCK:  -10.16 KCAL/MOL
REMARK 923 INTER-LIGAND FREE ENERGY PREDICTED BY IDOCK:   -9.12 KCAL/MOL
REMARK 924 INTRA-LIGAND FREE ENERGY PREDICTED BY IDOCK:   -1.04 KCAL/MOL
REMARK 927      BINDING AFFINITY PREDICTED BY RF-SCORE:    0.00 PKD
ROOT
HETATM    1  C   UNL     1     -13.894  13.856  72.311  1.00  0.00    -0.669 C  
HETATM    2  C   UNL     1     -12.674  13.673  71.400  1.00  0.00    -0.352 C  
ENDROOT
BRANCH   2   3
HETATM    3  C   UNL     1     -12.549  12.179  71.022  1.00  0.00    -0.359 C  
BRANCH   3   4
HETATM    4  C   UNL     1     -13.345  11.245  71.940  1.00  0.00    -0.413 C  
BRANCH   4   5
HETATM    5  C   UNL     1     -12.978   9.795  71.720  1.00  0.00    -0.536 A  
HETATM    6  C   UNL     1     -11.690   9.433  71.303  1.00  0.00    -0.432 A  
HETATM    7  C   UNL     1     -11.361   8.091  71.101  1.00  0.00    -0.292 A  
HETATM    8  C   UNL     1     -13.924   8.784  71.947  1.00  0.00    -0.493 A  
HETATM    9  C   UNL     1     -12.313   7.096  71.320  1.00  0.00    -0.418 A  
HETATM   10  C   UNL     1     -13.594   7.443  71.745  1.00  0.00    -0.396 A  
ENDBRANCH   4   5
ENDBRANCH   3   4
ENDBRANCH   2   3
BRANCH   2  11
HETATM   11  N   UNL     1     -12.753  14.490  70.185  1.00  0.00    -0.526 NA 
HETATM   12  H   UNL     1     -13.253  15.360  70.369  1.00  0.00     0.000 HD 
BRANCH  11  13
HETATM   13  C   UNL     1     -11.450  14.767  69.563  1.00  0.00    -0.298 C  
BRANCH  13  14
HETATM   14  C   UNL     1     -11.555  14.873  68.018  1.00  0.00    -0.341 C  
HETATM   15  H   UNL     1     -10.860  16.073  66.631  1.00  0.00     0.000 HD 
HETATM   16  O   UNL     1     -10.796  16.008  67.577  1.00  0.00    -0.317 OA 
BRANCH  14  17
HETATM   17  C   UNL     1     -11.092  13.598  67.323  1.00  0.00    -0.309 A  
HETATM   18  C   UNL     1     -10.936  12.156  65.340  1.00  0.00    -0.346 A  
HETATM   19  H   UNL     1      -9.595   9.255  66.186  1.00  0.00     0.000 HD 
HETATM   20  C   UNL     1     -10.327  11.170  66.123  1.00  0.00    -0.250 A  
HETATM   21  C   UNL     1     -10.064  11.393  67.470  1.00  0.00    -0.205 A  
HETATM   22  O   UNL     1     -10.009   9.925  65.654  1.00  0.00    -0.284 OA 
HETATM   23  C   UNL     1     -10.461  12.591  68.071  1.00  0.00    -0.227 A  
HETATM   24  C   UNL     1     -11.315  13.365  65.953  1.00  0.00    -0.327 A  
BRANCH  18  25
HETATM   25  C   UNL     1     -11.247  11.998  63.889  1.00  0.00    -0.417 C  
HETATM   26  O   UNL     1     -10.368  11.840  63.051  1.00  0.00    -0.342 OA 
HETATM   27  H1  UNL     1     -12.774  11.908  62.513  1.00  0.00     0.000 HD 
HETATM   28  H2  UNL     1     -13.307  12.134  64.190  1.00  0.00     0.000 HD 
HETATM   29  N   UNL     1     -12.561  12.015  63.505  1.00  0.00    -0.567 N  
ENDBRANCH  18  25
ENDBRANCH  14  17
ENDBRANCH  13  14
ENDBRANCH  11  13
ENDBRANCH   2  11
TORSDOF 8
ENDMDL
MODEL       33
REMARK 921   NORMALIZED FREE ENERGY PREDICTED BY IDOCK:   -5.77 KCAL/MOL
REMARK 922        TOTAL FREE ENERGY PREDICTED BY IDOCK:  -10.02 KCAL/MOL
REMARK 923 INTER-LIGAND FREE ENERGY PREDICTED BY IDOCK:   -8.77 KCAL/MOL
REMARK 924 INTRA-LIGAND FREE ENERGY PREDICTED BY IDOCK:   -1.26 KCAL/MOL
REMARK 927      BINDING AFFINITY PREDICTED BY RF-SCORE:    0.00 PKD
ROOT
HETATM    1  C   UNL     1     -12.382  10.720  70.418  1.00  0.00    -0.438 C  
HETATM    2  C   UNL     1     -11.193  11.189  69.569  1.00  0.00    -0.277 C  
ENDROOT
BRANCH   2   3
HETATM    3  C   UNL     1     -11.401  10.721  68.111  1.00  0.00    -0.377 C  
BRANCH   3   4
HETATM    4  C   UNL     1     -10.298  11.185  67.154  1.00  0.00    -0.249 C  
BRANCH   4   5
HETATM    5  C   UNL     1     -10.862  11.659  65.834  1.00  0.00    -0.339 A  
HETATM    6  C   UNL     1     -10.208  11.374  64.628  1.00  0.00    -0.347 A  
HETATM    7  C   UNL     1     -10.735  11.816  63.414  1.00  0.00    -0.468 A  
HETATM    8  C   UNL     1     -12.062  12.383  65.797  1.00  0.00    -0.381 A  
HETATM    9  C   UNL     1     -11.925  12.544  63.390  1.00  0.00    -0.602 A  
HETATM   10  C   UNL     1     -12.589  12.825  64.582  1.00  0.00    -0.491 A  
ENDBRANCH   4   5
ENDBRANCH   3   4
ENDBRANCH   2   3
BRANCH   2  11
HETATM   11  N   UNL     1     -11.019  12.646  69.605  1.00  0.00    -0.445 NA 
HETATM   12  H   UNL     1     -10.353  12.945  68.893  1.00  0.00     0.000 HD 
BRANCH  11  13
HETATM   13  C   UNL     1     -12.274  13.401  69.486  1.00  0.00    -0.205 C  
BRANCH  13  14
HETATM   14  C   UNL     1     -12.097  14.890  69.891  1.00  0.00    -0.332 C  
HETATM   15  H   UNL     1     -11.343  15.860  71.419  1.00  0.00     0.000 HD 
HETATM   16  O   UNL     1     -11.452  14.950  71.171  1.00  0.00    -0.309 OA 
BRANCH  14  17
HETATM   17  C   UNL     1     -11.319  15.680  68.845  1.00  0.00    -0.341 A  
HETATM   18  C   UNL     1     -10.046  17.660  68.143  1.00  0.00    -0.347 A  
HETATM   19  H   UNL     1      -9.448  17.495  64.896  1.00  0.00     0.000 HD 
HETATM   20  C   UNL     1     -10.005  17.153  66.840  1.00  0.00    -0.288 A  
HETATM   21  C   UNL     1     -10.570  15.919  66.538  1.00  0.00    -0.297 A  
HETATM   22  O   UNL     1      -9.476  17.839  65.781  1.00  0.00    -0.518 OA 
HETATM   23  C   UNL     1     -11.240  15.196  67.529  1.00  0.00    -0.331 A  
HETATM   24  C   UNL     1     -10.708  16.914  69.136  1.00  0.00    -0.298 A  
BRANCH  18  25
HETATM   25  C   UNL     1      -9.459  18.970  68.550  1.00  0.00    -0.383 C  
HETATM   26  O   UNL     1      -8.249  19.140  68.637  1.00  0.00    -0.351 OA 
HETATM   27  H1  UNL     1      -9.913  20.902  69.092  1.00  0.00     0.000 HD 
HETATM   28  H2  UNL     1     -11.323  19.886  68.734  1.00  0.00     0.000 HD 
HETATM   29  N   UNL     1     -10.314  20.007  68.813  1.00  0.00    -0.351 N  
ENDBRANCH  18  25
ENDBRANCH  14  17
ENDBRANCH  13  14
ENDBRANCH  11  13
ENDBRANCH   2  11
TORSDOF 8
ENDMDL
MODEL       34
REMARK 921   NORMALIZED FREE ENERGY PREDICTED BY IDOCK:   -5.76 KCAL/MOL
REMARK 922        TOTAL FREE ENERGY PREDICTED BY IDOCK:  -10.01 KCAL/MOL
REMARK 923 INTER-LIGAND FREE ENERGY PREDICTED BY IDOCK:   -8.78 KCAL/MOL
REMARK 924 INTRA-LIGAND FREE ENERGY PREDICTED BY IDOCK:   -1.24 KCAL/MOL
REMARK 927      BINDING AFFINITY PREDICTED BY RF-SCORE:    0.00 PKD
ROOT
HETATM    1  C   UNL     1      -9.888  11.639  63.265  1.00  0.00    -0.428 C  
HETATM    2  C   UNL     1     -11.360  11.866  63.633  1.00  0.00    -0.450 C  
ENDROOT
BRANCH   2   3
HETATM    3  C   UNL     1     -11.529  11.687  65.159  1.00  0.00    -0.180 C  
BRANCH   3   4
HETATM    4  C   UNL     1     -10.472  10.775  65.791  1.00  0.00    -0.256 C  
BRANCH   4   5
HETATM    5  C   UNL     1     -10.726  10.557  67.265  1.00  0.00    -0.333 A  
HETATM    6  C   UNL     1     -10.271   9.399  67.911  1.00  0.00    -0.259 A  
HETATM    7  C   UNL     1     -10.511   9.206  69.272  1.00  0.00    -0.231 A  
HETATM    8  C   UNL     1     -11.413  11.523  68.015  1.00  0.00    -0.381 A  
HETATM    9  C   UNL     1     -11.204  10.169  70.005  1.00  0.00    -0.361 A  
HETATM   10  C   UNL     1     -11.653  11.328  69.376  1.00  0.00    -0.390 A  
ENDBRANCH   4   5
ENDBRANCH   3   4
ENDBRANCH   2   3
BRANCH   2  11
HETATM   11  N   UNL     1     -11.840  13.193  63.230  1.00  0.00    -0.805 NA 
HETATM   12  H   UNL     1     -12.679  13.112  62.657  1.00  0.00     0.000 HD 
BRANCH  11  13
HETATM   13  C   UNL     1     -12.070  14.112  64.354  1.00  0.00    -0.463 C  
BRANCH  13  14
HETATM   14  C   UNL     1     -11.087  15.314  64.332  1.00  0.00    -0.117 C  
HETATM   15  H   UNL     1     -11.182  17.212  63.849  1.00  0.00     0.000 HD 
HETATM   16  O   UNL     1     -11.784  16.477  63.863  1.00  0.00    -1.148 OA 
BRANCH  14  17
HETATM   17  C   UNL     1     -10.456  15.563  65.697  1.00  0.00    -0.393 A  
HETATM   18  C   UNL     1      -9.746  17.070  67.503  1.00  0.00    -0.251 A  
HETATM   19  H   UNL     1      -8.040  15.361  69.760  1.00  0.00     0.000 HD 
HETATM   20  C   UNL     1      -9.165  15.982  68.162  1.00  0.00    -0.195 A  
HETATM   21  C   UNL     1      -9.252  14.699  67.632  1.00  0.00    -0.193 A  
HETATM   22  O   UNL     1      -8.435  16.100  69.313  1.00  0.00    -0.247 OA 
HETATM   23  C   UNL     1      -9.877  14.494  66.398  1.00  0.00    -0.306 A  
HETATM   24  C   UNL     1     -10.387  16.847  66.270  1.00  0.00    -0.312 A  
BRANCH  18  25
HETATM   25  C   UNL     1      -9.703  18.474  68.007  1.00  0.00    -0.327 C  
HETATM   26  O   UNL     1      -8.749  18.906  68.642  1.00  0.00    -0.341 OA 
HETATM   27  H1  UNL     1     -10.733  20.253  68.072  1.00  0.00     0.000 HD 
HETATM   28  H2  UNL     1     -11.560  18.954  67.189  1.00  0.00     0.000 HD 
HETATM   29  N   UNL     1     -10.763  19.293  67.727  1.00  0.00    -0.411 N  
ENDBRANCH  18  25
ENDBRANCH  14  17
ENDBRANCH  13  14
ENDBRANCH  11  13
ENDBRANCH   2  11
TORSDOF 8
ENDMDL
MODEL       35
REMARK 921   NORMALIZED FREE ENERGY PREDICTED BY IDOCK:   -5.76 KCAL/MOL
REMARK 922        TOTAL FREE ENERGY PREDICTED BY IDOCK:  -10.01 KCAL/MOL
REMARK 923 INTER-LIGAND FREE ENERGY PREDICTED BY IDOCK:   -8.66 KCAL/MOL
REMARK 924 INTRA-LIGAND FREE ENERGY PREDICTED BY IDOCK:   -1.34 KCAL/MOL
REMARK 927      BINDING AFFINITY PREDICTED BY RF-SCORE:    0.00 PKD
ROOT
HETATM    1  C   UNL     1     -10.334   6.898  67.578  1.00  0.00    -0.277 C  
HETATM    2  C   UNL     1     -10.555   8.240  66.869  1.00  0.00    -0.232 C  
ENDROOT
BRANCH   2   3
HETATM    3  C   UNL     1     -10.322   9.386  67.879  1.00  0.00    -0.276 C  
BRANCH   3   4
HETATM    4  C   UNL     1     -10.176   8.907  69.328  1.00  0.00    -0.214 C  
BRANCH   4   5
HETATM    5  C   UNL     1     -11.214   9.530  70.233  1.00  0.00    -0.307 A  
HETATM    6  C   UNL     1     -11.552  10.885  70.115  1.00  0.00    -0.425 A  
HETATM    7  C   UNL     1     -12.512  11.451  70.956  1.00  0.00    -0.486 A  
HETATM    8  C   UNL     1     -11.869   8.751  71.198  1.00  0.00    -0.345 A  
HETATM    9  C   UNL     1     -13.150  10.669  71.919  1.00  0.00    -0.563 A  
HETATM   10  C   UNL     1     -12.829   9.319  72.038  1.00  0.00    -0.495 A  
ENDBRANCH   4   5
ENDBRANCH   3   4
ENDBRANCH   2   3
BRANCH   2  11
HETATM   11  N   UNL     1      -9.675   8.412  65.707  1.00  0.00    -0.439 NA 
HETATM   12  H   UNL     1     -10.218   8.419  64.844  1.00  0.00     0.000 HD 
BRANCH  11  13
HETATM   13  C   UNL     1      -8.811   9.599  65.782  1.00  0.00    -0.157 C  
BRANCH  13  14
HETATM   14  C   UNL     1      -8.944  10.495  64.520  1.00  0.00    -0.209 C  
HETATM   15  H   UNL     1      -9.241  10.204  62.604  1.00  0.00     0.000 HD 
HETATM   16  O   UNL     1      -9.160   9.656  63.376  1.00  0.00    -0.248 OA 
BRANCH  14  17
HETATM   17  C   UNL     1     -10.056  11.527  64.664  1.00  0.00    -0.318 A  
HETATM   18  C   UNL     1     -11.106  13.419  65.827  1.00  0.00    -0.295 A  
HETATM   19  H   UNL     1     -14.070  14.026  64.495  1.00  0.00     0.000 HD 
HETATM   20  C   UNL     1     -12.200  13.326  64.959  1.00  0.00    -0.432 A  
HETATM   21  C   UNL     1     -12.219  12.384  63.936  1.00  0.00    -0.603 A  
HETATM   22  O   UNL     1     -13.328  14.090  65.084  1.00  0.00    -0.703 OA 
HETATM   23  C   UNL     1     -11.163  11.478  63.802  1.00  0.00    -0.456 A  
HETATM   24  C   UNL     1     -10.042  12.512  65.669  1.00  0.00    -0.285 A  
BRANCH  18  25
HETATM   25  C   UNL     1     -11.006  14.404  66.943  1.00  0.00    -0.308 C  
HETATM   26  O   UNL     1     -10.554  15.530  66.777  1.00  0.00    -0.299 OA 
HETATM   27  H1  UNL     1     -11.386  14.698  68.944  1.00  0.00     0.000 HD 
HETATM   28  H2  UNL     1     -11.845  13.096  68.334  1.00  0.00     0.000 HD 
HETATM   29  N   UNL     1     -11.454  14.025  68.180  1.00  0.00    -0.290 N  
ENDBRANCH  18  25
ENDBRANCH  14  17
ENDBRANCH  13  14
ENDBRANCH  11  13
ENDBRANCH   2  11
TORSDOF 8
ENDMDL
MODEL       36
REMARK 921   NORMALIZED FREE ENERGY PREDICTED BY IDOCK:   -5.76 KCAL/MOL
REMARK 922        TOTAL FREE ENERGY PREDICTED BY IDOCK:  -10.00 KCAL/MOL
REMARK 923 INTER-LIGAND FREE ENERGY PREDICTED BY IDOCK:   -8.13 KCAL/MOL
REMARK 924 INTRA-LIGAND FREE ENERGY PREDICTED BY IDOCK:   -1.87 KCAL/MOL
REMARK 927      BINDING AFFINITY PREDICTED BY RF-SCORE:    0.00 PKD
ROOT
HETATM    1  C   UNL     1     -10.003  10.042  67.052  1.00  0.00    -0.257 C  
HETATM    2  C   UNL     1     -11.225  10.617  67.779  1.00  0.00    -0.313 C  
ENDROOT
BRANCH   2   3
HETATM    3  C   UNL     1     -10.760  11.274  69.099  1.00  0.00    -0.247 C  
BRANCH   3   4
HETATM    4  C   UNL     1     -11.802  11.200  70.221  1.00  0.00    -0.455 C  
BRANCH   4   5
HETATM    5  C   UNL     1     -12.271  12.573  70.644  1.00  0.00    -0.365 A  
HETATM    6  C   UNL     1     -11.868  13.719  69.944  1.00  0.00    -0.394 A  
HETATM    7  C   UNL     1     -12.306  14.983  70.342  1.00  0.00    -0.401 A  
HETATM    8  C   UNL     1     -13.134  12.720  71.740  1.00  0.00    -0.455 A  
HETATM    9  C   UNL     1     -13.156  15.117  71.440  1.00  0.00    -0.499 A  
HETATM   10  C   UNL     1     -13.571  13.984  72.137  1.00  0.00    -0.582 A  
ENDBRANCH   4   5
ENDBRANCH   3   4
ENDBRANCH   2   3
BRANCH   2  11
HETATM   11  N   UNL     1     -11.953  11.597  66.964  1.00  0.00    -0.539 NA 
HETATM   12  H   UNL     1     -12.193  12.418  67.519  1.00  0.00     0.000 HD 
BRANCH  11  13
HETATM   13  C   UNL     1     -11.251  11.993  65.735  1.00  0.00    -0.334 C  
BRANCH  13  14
HETATM   14  C   UNL     1     -11.270  13.531  65.525  1.00  0.00    -0.292 C  
HETATM   15  H   UNL     1     -12.620  14.952  65.601  1.00  0.00     0.000 HD 
HETATM   16  O   UNL     1     -12.607  14.011  65.730  1.00  0.00    -0.491 OA 
BRANCH  14  17
HETATM   17  C   UNL     1     -10.283  14.248  66.438  1.00  0.00    -0.295 A  
HETATM   18  C   UNL     1      -9.524  16.244  67.651  1.00  0.00    -0.221 A  
HETATM   19  H   UNL     1      -6.538  15.677  68.952  1.00  0.00     0.000 HD 
HETATM   20  C   UNL     1      -8.360  15.560  68.019  1.00  0.00    -0.142 A  
HETATM   21  C   UNL     1      -8.165  14.234  67.645  1.00  0.00    -0.193 A  
HETATM   22  O   UNL     1      -7.328  16.142  68.702  1.00  0.00    -0.156 OA 
HETATM   23  C   UNL     1      -9.111  13.589  66.843  1.00  0.00    -0.246 A  
HETATM   24  C   UNL     1     -10.476  15.576  66.859  1.00  0.00    -0.301 A  
BRANCH  18  25
HETATM   25  C   UNL     1      -9.811  17.662  68.016  1.00  0.00    -0.310 C  
HETATM   26  O   UNL     1     -10.243  17.973  69.119  1.00  0.00    -0.349 OA 
HETATM   27  H1  UNL     1      -9.757  19.602  67.333  1.00  0.00     0.000 HD 
HETATM   28  H2  UNL     1      -9.189  18.393  66.164  1.00  0.00     0.000 HD 
HETATM   29  N   UNL     1      -9.561  18.632  67.083  1.00  0.00    -0.291 N  
ENDBRANCH  18  25
ENDBRANCH  14  17
ENDBRANCH  13  14
ENDBRANCH  11  13
ENDBRANCH   2  11
TORSDOF 8
ENDMDL
MODEL       37
REMARK 921   NORMALIZED FREE ENERGY PREDICTED BY IDOCK:   -5.74 KCAL/MOL
REMARK 922        TOTAL FREE ENERGY PREDICTED BY IDOCK:   -9.97 KCAL/MOL
REMARK 923 INTER-LIGAND FREE ENERGY PREDICTED BY IDOCK:   -8.13 KCAL/MOL
REMARK 924 INTRA-LIGAND FREE ENERGY PREDICTED BY IDOCK:   -1.85 KCAL/MOL
REMARK 927      BINDING AFFINITY PREDICTED BY RF-SCORE:    0.00 PKD
ROOT
HETATM    1  C   UNL     1      -9.347   7.127  66.750  1.00  0.00    -0.199 C  
HETATM    2  C   UNL     1      -9.830   8.527  66.350  1.00  0.00    -0.257 C  
ENDROOT
BRANCH   2   3
HETATM    3  C   UNL     1      -9.428   9.531  67.454  1.00  0.00    -0.164 C  
BRANCH   3   4
HETATM    4  C   UNL     1     -10.356   9.506  68.674  1.00  0.00    -0.229 C  
BRANCH   4   5
HETATM    5  C   UNL     1     -10.986  10.857  68.929  1.00  0.00    -0.278 A  
HETATM    6  C   UNL     1     -11.615  11.139  70.149  1.00  0.00    -0.410 A  
HETATM    7  C   UNL     1     -12.194  12.389  70.375  1.00  0.00    -0.370 A  
HETATM    8  C   UNL     1     -10.935  11.858  67.947  1.00  0.00    -0.270 A  
HETATM    9  C   UNL     1     -12.146  13.373  69.388  1.00  0.00    -0.321 A  
HETATM   10  C   UNL     1     -11.514  13.107  68.175  1.00  0.00    -0.349 A  
ENDBRANCH   4   5
ENDBRANCH   3   4
ENDBRANCH   2   3
BRANCH   2  11
HETATM   11  N   UNL     1      -9.284   8.960  65.059  1.00  0.00    -0.437 NA 
HETATM   12  H   UNL     1      -9.965   8.813  64.314  1.00  0.00     0.000 HD 
BRANCH  11  13
HETATM   13  C   UNL     1      -8.802  10.349  65.049  1.00  0.00    -0.191 C  
BRANCH  13  14
HETATM   14  C   UNL     1      -9.292  11.125  63.797  1.00  0.00    -0.188 C  
HETATM   15  H   UNL     1      -9.995  10.656  62.027  1.00  0.00     0.000 HD 
HETATM   16  O   UNL     1      -9.695  10.181  62.794  1.00  0.00    -0.260 OA 
BRANCH  14  17
HETATM   17  C   UNL     1     -10.420  12.094  64.127  1.00  0.00    -0.395 A  
HETATM   18  C   UNL     1     -11.237  14.334  64.719  1.00  0.00    -0.387 A  
HETATM   19  H   UNL     1     -14.469  14.188  65.398  1.00  0.00     0.000 HD 
HETATM   20  C   UNL     1     -12.526  13.810  64.859  1.00  0.00    -0.386 A  
HETATM   21  C   UNL     1     -12.781  12.467  64.603  1.00  0.00    -0.434 A  
HETATM   22  O   UNL     1     -13.593  14.543  65.303  1.00  0.00    -0.219 OA 
HETATM   23  C   UNL     1     -11.732  11.611  64.258  1.00  0.00    -0.262 A  
HETATM   24  C   UNL     1     -10.192  13.464  64.354  1.00  0.00    -0.262 A  
BRANCH  18  25
HETATM   25  C   UNL     1     -10.882  15.762  64.968  1.00  0.00    -0.443 C  
HETATM   26  O   UNL     1     -11.275  16.664  64.239  1.00  0.00    -1.098 OA 
HETATM   27  H1  UNL     1      -9.864  17.030  66.228  1.00  0.00     0.000 HD 
HETATM   28  H2  UNL     1      -9.781  15.316  66.682  1.00  0.00     0.000 HD 
HETATM   29  N   UNL     1     -10.107  16.054  66.058  1.00  0.00    -0.318 N  
ENDBRANCH  18  25
ENDBRANCH  14  17
ENDBRANCH  13  14
ENDBRANCH  11  13
ENDBRANCH   2  11
TORSDOF 8
ENDMDL
MODEL       38
REMARK 921   NORMALIZED FREE ENERGY PREDICTED BY IDOCK:   -5.74 KCAL/MOL
REMARK 922        TOTAL FREE ENERGY PREDICTED BY IDOCK:   -9.97 KCAL/MOL
REMARK 923 INTER-LIGAND FREE ENERGY PREDICTED BY IDOCK:   -8.84 KCAL/MOL
REMARK 924 INTRA-LIGAND FREE ENERGY PREDICTED BY IDOCK:   -1.13 KCAL/MOL
REMARK 927      BINDING AFFINITY PREDICTED BY RF-SCORE:    0.00 PKD
ROOT
HETATM    1  C   UNL     1     -10.223   9.689  66.774  1.00  0.00    -0.308 C  
HETATM    2  C   UNL     1     -11.124  10.915  66.962  1.00  0.00    -0.202 C  
ENDROOT
BRANCH   2   3
HETATM    3  C   UNL     1     -10.879  11.507  68.369  1.00  0.00    -0.250 C  
BRANCH   3   4
HETATM    4  C   UNL     1     -12.093  11.399  69.299  1.00  0.00    -0.356 C  
BRANCH   4   5
HETATM    5  C   UNL     1     -11.882  10.362  70.379  1.00  0.00    -0.418 A  
HETATM    6  C   UNL     1     -10.623   9.782  70.584  1.00  0.00    -0.382 A  
HETATM    7  C   UNL     1     -10.438   8.825  71.583  1.00  0.00    -0.387 A  
HETATM    8  C   UNL     1     -12.947   9.975  71.205  1.00  0.00    -0.495 A  
HETATM    9  C   UNL     1     -11.507   8.441  72.393  1.00  0.00    -0.451 A  
HETATM   10  C   UNL     1     -12.761   9.018  72.204  1.00  0.00    -0.470 A  
ENDBRANCH   4   5
ENDBRANCH   3   4
ENDBRANCH   2   3
BRANCH   2  11
HETATM   11  N   UNL     1     -10.891  11.944  65.941  1.00  0.00    -0.287 NA 
HETATM   12  H   UNL     1     -10.606  11.516  65.060  1.00  0.00     0.000 HD 
BRANCH  11  13
HETATM   13  C   UNL     1     -12.033  12.845  65.730  1.00  0.00    -0.443 C  
BRANCH  13  14
HETATM   14  C   UNL     1     -11.596  14.198  65.105  1.00  0.00    -0.344 C  
HETATM   15  H   UNL     1     -12.412  15.547  63.938  1.00  0.00     0.000 HD 
HETATM   16  O   UNL     1     -12.679  14.719  64.321  1.00  0.00    -0.691 OA 
BRANCH  14  17
HETATM   17  C   UNL     1     -11.149  15.201  66.162  1.00  0.00    -0.311 A  
HETATM   18  C   UNL     1     -11.057  15.987  68.488  1.00  0.00    -0.347 A  
HETATM   19  H   UNL     1      -9.662  18.983  68.586  1.00  0.00     0.000 HD 
HETATM   20  C   UNL     1     -10.411  17.149  68.053  1.00  0.00    -0.369 A  
HETATM   21  C   UNL     1     -10.099  17.331  66.710  1.00  0.00    -0.302 A  
HETATM   22  O   UNL     1     -10.101  18.193  68.881  1.00  0.00    -0.381 OA 
HETATM   23  C   UNL     1     -10.483  16.372  65.768  1.00  0.00    -0.369 A  
HETATM   24  C   UNL     1     -11.422  15.021  67.531  1.00  0.00    -0.339 A  
BRANCH  18  25
HETATM   25  C   UNL     1     -11.421  15.714  69.909  1.00  0.00    -0.338 C  
HETATM   26  O   UNL     1     -10.577  15.643  70.793  1.00  0.00    -0.255 OA 
HETATM   27  H1  UNL     1     -12.995  15.370  71.189  1.00  0.00     0.000 HD 
HETATM   28  H2  UNL     1     -13.464  15.625  69.496  1.00  0.00     0.000 HD 
HETATM   29  N   UNL     1     -12.746  15.557  70.217  1.00  0.00    -0.348 N  
ENDBRANCH  18  25
ENDBRANCH  14  17
ENDBRANCH  13  14
ENDBRANCH  11  13
ENDBRANCH   2  11
TORSDOF 8
ENDMDL
MODEL       39
REMARK 921   NORMALIZED FREE ENERGY PREDICTED BY IDOCK:   -5.73 KCAL/MOL
REMARK 922        TOTAL FREE ENERGY PREDICTED BY IDOCK:   -9.96 KCAL/MOL
REMARK 923 INTER-LIGAND FREE ENERGY PREDICTED BY IDOCK:   -7.17 KCAL/MOL
REMARK 924 INTRA-LIGAND FREE ENERGY PREDICTED BY IDOCK:   -2.79 KCAL/MOL
REMARK 927      BINDING AFFINITY PREDICTED BY RF-SCORE:    0.00 PKD
ROOT
HETATM    1  C   UNL     1     -11.977  15.439  72.371  1.00  0.00    -0.532 C  
HETATM    2  C   UNL     1     -12.530  14.545  71.255  1.00  0.00    -0.346 C  
ENDROOT
BRANCH   2   3
HETATM    3  C   UNL     1     -12.242  15.210  69.889  1.00  0.00    -0.353 C  
BRANCH   3   4
HETATM    4  C   UNL     1     -11.019  16.135  69.903  1.00  0.00    -0.362 C  
BRANCH   4   5
HETATM    5  C   UNL     1      -9.971  15.696  68.906  1.00  0.00    -0.215 A  
HETATM    6  C   UNL     1      -8.810  15.034  69.326  1.00  0.00    -0.157 A  
HETATM    7  C   UNL     1      -7.848  14.632  68.398  1.00  0.00    -0.131 A  
HETATM    8  C   UNL     1     -10.156  15.933  67.536  1.00  0.00    -0.247 A  
HETATM    9  C   UNL     1      -8.037  14.882  67.039  1.00  0.00    -0.200 A  
HETATM   10  C   UNL     1      -9.193  15.531  66.609  1.00  0.00    -0.299 A  
ENDBRANCH   4   5
ENDBRANCH   3   4
ENDBRANCH   2   3
BRANCH   2  11
HETATM   11  N   UNL     1     -11.957  13.194  71.282  1.00  0.00    -0.166 NA 
HETATM   12  H   UNL     1     -12.268  12.689  72.111  1.00  0.00     0.000 HD 
BRANCH  11  13
HETATM   13  C   UNL     1     -12.223  12.407  70.069  1.00  0.00    -0.194 C  
BRANCH  13  14
HETATM   14  C   UNL     1     -10.974  11.607  69.610  1.00  0.00    -0.032 C  
HETATM   15  H   UNL     1     -10.403   9.731  69.647  1.00  0.00     0.000 HD 
HETATM   16  O   UNL     1     -11.167  10.221  69.928  1.00  0.00    -0.259 OA 
BRANCH  14  17
HETATM   17  C   UNL     1     -10.684  11.797  68.126  1.00  0.00    -0.247 A  
HETATM   18  C   UNL     1     -11.341  12.536  65.877  1.00  0.00    -0.380 A  
HETATM   19  H   UNL     1      -9.037  11.611  63.695  1.00  0.00     0.000 HD 
HETATM   20  C   UNL     1     -10.150  12.005  65.372  1.00  0.00    -0.256 A  
HETATM   21  C   UNL     1      -9.217  11.414  66.218  1.00  0.00    -0.220 A  
HETATM   22  O   UNL     1      -9.846  11.972  64.038  1.00  0.00    -0.271 OA 
HETATM   23  C   UNL     1      -9.492  11.294  67.583  1.00  0.00    -0.173 A  
HETATM   24  C   UNL     1     -11.596  12.424  67.257  1.00  0.00    -0.435 A  
BRANCH  18  25
HETATM   25  C   UNL     1     -12.387  13.190  65.039  1.00  0.00    -0.459 C  
HETATM   26  O   UNL     1     -13.404  12.602  64.694  1.00  0.00    -0.767 OA 
HETATM   27  H1  UNL     1     -12.910  14.941  64.093  1.00  0.00     0.000 HD 
HETATM   28  H2  UNL     1     -11.360  15.003  64.955  1.00  0.00     0.000 HD 
HETATM   29  N   UNL     1     -12.195  14.494  64.667  1.00  0.00    -0.469 N  
ENDBRANCH  18  25
ENDBRANCH  14  17
ENDBRANCH  13  14
ENDBRANCH  11  13
ENDBRANCH   2  11
TORSDOF 8
ENDMDL
MODEL       40
REMARK 921   NORMALIZED FREE ENERGY PREDICTED BY IDOCK:   -5.68 KCAL/MOL
REMARK 922        TOTAL FREE ENERGY PREDICTED BY IDOCK:   -9.89 KCAL/MOL
REMARK 923 INTER-LIGAND FREE ENERGY PREDICTED BY IDOCK:   -8.75 KCAL/MOL
REMARK 924 INTRA-LIGAND FREE ENERGY PREDICTED BY IDOCK:   -1.14 KCAL/MOL
REMARK 927      BINDING AFFINITY PREDICTED BY RF-SCORE:    0.00 PKD
ROOT
HETATM    1  C   UNL     1     -10.049   6.821  68.263  1.00  0.00    -0.173 C  
HETATM    2  C   UNL     1     -10.250   8.231  68.831  1.00  0.00    -0.210 C  
ENDROOT
BRANCH   2   3
HETATM    3  C   UNL     1     -10.644   9.184  67.680  1.00  0.00    -0.307 C  
BRANCH   3   4
HETATM    4  C   UNL     1      -9.456   9.634  66.821  1.00  0.00    -0.209 C  
BRANCH   4   5
HETATM    5  C   UNL     1      -9.880  10.597  65.736  1.00  0.00    -0.296 A  
HETATM    6  C   UNL     1      -9.828  10.229  64.385  1.00  0.00    -0.374 A  
HETATM    7  C   UNL     1     -10.221  11.125  63.390  1.00  0.00    -0.435 A  
HETATM    8  C   UNL     1     -10.349  11.876  66.070  1.00  0.00    -0.268 A  
HETATM    9  C   UNL     1     -10.676  12.398  63.734  1.00  0.00    -0.492 A  
HETATM   10  C   UNL     1     -10.741  12.772  65.074  1.00  0.00    -0.321 A  
ENDBRANCH   4   5
ENDBRANCH   3   4
ENDBRANCH   2   3
BRANCH   2  11
HETATM   11  N   UNL     1     -11.271   8.271  69.884  1.00  0.00    -0.448 NA 
HETATM   12  H   UNL     1     -11.245   7.418  70.442  1.00  0.00     0.000 HD 
BRANCH  11  13
HETATM   13  C   UNL     1     -11.190   9.456  70.751  1.00  0.00    -0.302 C  
BRANCH  13  14
HETATM   14  C   UNL     1     -12.565  10.162  70.899  1.00  0.00    -0.360 C  
HETATM   15  H   UNL     1     -13.960  10.270  72.272  1.00  0.00     0.000 HD 
HETATM   16  O   UNL     1     -13.119   9.838  72.182  1.00  0.00    -0.424 OA 
BRANCH  14  17
HETATM   17  C   UNL     1     -12.458  11.671  70.711  1.00  0.00    -0.425 A  
HETATM   18  C   UNL     1     -12.815  13.973  71.490  1.00  0.00    -0.440 A  
HETATM   19  H   UNL     1     -12.046  16.090  69.071  1.00  0.00     0.000 HD 
HETATM   20  C   UNL     1     -12.355  14.446  70.257  1.00  0.00    -0.348 A  
HETATM   21  C   UNL     1     -11.915  13.564  69.275  1.00  0.00    -0.378 A  
HETATM   22  O   UNL     1     -12.359  15.769  69.908  1.00  0.00    -0.338 OA 
HETATM   23  C   UNL     1     -11.984  12.185  69.494  1.00  0.00    -0.338 A  
HETATM   24  C   UNL     1     -12.863  12.583  71.703  1.00  0.00    -0.368 A  
BRANCH  18  25
HETATM   25  C   UNL     1     -13.298  14.851  72.596  1.00  0.00    -0.456 C  
HETATM   26  O   UNL     1     -14.323  15.514  72.497  1.00  0.00    -0.523 OA 
HETATM   27  H1  UNL     1     -12.898  15.493  74.509  1.00  0.00     0.000 HD 
HETATM   28  H2  UNL     1     -11.719  14.338  73.857  1.00  0.00     0.000 HD 
HETATM   29  N   UNL     1     -12.568  14.892  73.753  1.00  0.00    -0.510 N  
ENDBRANCH  18  25
ENDBRANCH  14  17
ENDBRANCH  13  14
ENDBRANCH  11  13
ENDBRANCH   2  11
TORSDOF 8
ENDMDL
MODEL       41
REMARK 921   NORMALIZED FREE ENERGY PREDICTED BY IDOCK:   -5.68 KCAL/MOL
REMARK 922        TOTAL FREE ENERGY PREDICTED BY IDOCK:   -9.89 KCAL/MOL
REMARK 923 INTER-LIGAND FREE ENERGY PREDICTED BY IDOCK:   -9.07 KCAL/MOL
REMARK 924 INTRA-LIGAND FREE ENERGY PREDICTED BY IDOCK:   -0.82 KCAL/MOL
REMARK 927      BINDING AFFINITY PREDICTED BY RF-SCORE:    0.00 PKD
ROOT
HETATM    1  C   UNL     1      -9.437   8.560  67.082  1.00  0.00    -0.208 C  
HETATM    2  C   UNL     1     -10.490   9.073  68.072  1.00  0.00    -0.216 C  
ENDROOT
BRANCH   2   3
HETATM    3  C   UNL     1      -9.803   9.376  69.423  1.00  0.00    -0.183 C  
BRANCH   3   4
HETATM    4  C   UNL     1     -10.051   8.305  70.492  1.00  0.00    -0.210 C  
BRANCH   4   5
HETATM    5  C   UNL     1     -11.473   8.340  71.003  1.00  0.00    -0.303 A  
HETATM    6  C   UNL     1     -12.051   9.540  71.439  1.00  0.00    -0.459 A  
HETATM    7  C   UNL     1     -13.365   9.564  71.911  1.00  0.00    -0.518 A  
HETATM    8  C   UNL     1     -12.242   7.169  71.035  1.00  0.00    -0.384 A  
HETATM    9  C   UNL     1     -14.117   8.390  71.947  1.00  0.00    -0.516 A  
HETATM   10  C   UNL     1     -13.556   7.193  71.507  1.00  0.00    -0.408 A  
ENDBRANCH   4   5
ENDBRANCH   3   4
ENDBRANCH   2   3
BRANCH   2  11
HETATM   11  N   UNL     1     -11.181  10.272  67.585  1.00  0.00    -0.457 NA 
HETATM   12  H   UNL     1     -12.167  10.249  67.846  1.00  0.00     0.000 HD 
BRANCH  11  13
HETATM   13  C   UNL     1     -10.564  11.535  68.014  1.00  0.00    -0.190 C  
BRANCH  13  14
HETATM   14  C   UNL     1     -11.609  12.674  68.154  1.00  0.00    -0.338 C  
HETATM   15  H   UNL     1     -12.070  14.012  69.512  1.00  0.00     0.000 HD 
HETATM   16  O   UNL     1     -11.430  13.315  69.426  1.00  0.00    -0.267 OA 
BRANCH  14  17
HETATM   17  C   UNL     1     -11.518  13.680  67.013  1.00  0.00    -0.368 A  
HETATM   18  C   UNL     1     -10.608  15.729  66.011  1.00  0.00    -0.334 A  
HETATM   19  H   UNL     1     -12.209  16.386  63.194  1.00  0.00     0.000 HD 
HETATM   20  C   UNL     1     -11.487  15.575  64.933  1.00  0.00    -0.279 A  
HETATM   21  C   UNL     1     -12.341  14.480  64.863  1.00  0.00    -0.378 A  
HETATM   22  O   UNL     1     -11.612  16.492  63.926  1.00  0.00    -1.175 OA 
HETATM   23  C   UNL     1     -12.371  13.549  65.905  1.00  0.00    -0.507 A  
HETATM   24  C   UNL     1     -10.636  14.775  67.045  1.00  0.00    -0.290 A  
BRANCH  18  25
HETATM   25  C   UNL     1      -9.657  16.870  66.158  1.00  0.00    -0.254 C  
HETATM   26  O   UNL     1      -8.488  16.789  65.803  1.00  0.00    -0.472 OA 
HETATM   27  H1  UNL     1      -9.479  18.819  66.792  1.00  0.00     0.000 HD 
HETATM   28  H2  UNL     1     -11.103  18.128  66.981  1.00  0.00     0.000 HD 
HETATM   29  N   UNL     1     -10.129  18.039  66.691  1.00  0.00    -0.353 N  
ENDBRANCH  18  25
ENDBRANCH  14  17
ENDBRANCH  13  14
ENDBRANCH  11  13
ENDBRANCH   2  11
TORSDOF 8
ENDMDL
MODEL       42
REMARK 921   NORMALIZED FREE ENERGY PREDICTED BY IDOCK:   -5.67 KCAL/MOL
REMARK 922        TOTAL FREE ENERGY PREDICTED BY IDOCK:   -9.87 KCAL/MOL
REMARK 923 INTER-LIGAND FREE ENERGY PREDICTED BY IDOCK:   -9.23 KCAL/MOL
REMARK 924 INTRA-LIGAND FREE ENERGY PREDICTED BY IDOCK:   -0.64 KCAL/MOL
REMARK 927      BINDING AFFINITY PREDICTED BY RF-SCORE:    0.00 PKD
ROOT
HETATM    1  C   UNL     1     -13.015  12.033  71.577  1.00  0.00    -0.407 C  
HETATM    2  C   UNL     1     -12.365  10.840  70.865  1.00  0.00    -0.396 C  
ENDROOT
BRANCH   2   3
HETATM    3  C   UNL     1     -13.084   9.543  71.299  1.00  0.00    -0.402 C  
BRANCH   3   4
HETATM    4  C   UNL     1     -12.405   8.829  72.474  1.00  0.00    -0.358 C  
BRANCH   4   5
HETATM    5  C   UNL     1     -11.689   7.573  72.031  1.00  0.00    -0.333 A  
HETATM    6  C   UNL     1     -11.806   7.104  70.715  1.00  0.00    -0.367 A  
HETATM    7  C   UNL     1     -11.142   5.944  70.315  1.00  0.00    -0.368 A  
HETATM    8  C   UNL     1     -10.882   6.864  72.931  1.00  0.00    -0.318 A  
HETATM    9  C   UNL     1     -10.349   5.241  71.222  1.00  0.00    -0.292 A  
HETATM   10  C   UNL     1     -10.218   5.703  72.530  1.00  0.00    -0.225 A  
ENDBRANCH   4   5
ENDBRANCH   3   4
ENDBRANCH   2   3
BRANCH   2  11
HETATM   11  N   UNL     1     -12.407  10.969  69.404  1.00  0.00    -0.509 NA 
HETATM   12  H   UNL     1     -13.368  10.921  69.067  1.00  0.00     0.000 HD 
BRANCH  11  13
HETATM   13  C   UNL     1     -11.741  12.174  68.890  1.00  0.00    -0.327 C  
BRANCH  13  14
HETATM   14  C   UNL     1     -10.979  11.896  67.566  1.00  0.00    -0.247 C  
HETATM   15  H   UNL     1     -11.020  10.517  66.172  1.00  0.00     0.000 HD 
HETATM   16  O   UNL     1     -11.486  10.687  66.982  1.00  0.00    -0.304 OA 
BRANCH  14  17
HETATM   17  C   UNL     1     -11.079  13.063  66.590  1.00  0.00    -0.318 A  
HETATM   18  C   UNL     1     -10.640  15.398  65.967  1.00  0.00    -0.330 A  
HETATM   19  H   UNL     1     -12.224  16.106  63.153  1.00  0.00     0.000 HD 
HETATM   20  C   UNL     1     -11.407  15.218  64.811  1.00  0.00    -0.391 A  
HETATM   21  C   UNL     1     -11.973  13.982  64.517  1.00  0.00    -0.470 A  
HETATM   22  O   UNL     1     -11.703  16.229  63.938  1.00  0.00    -0.986 OA 
HETATM   23  C   UNL     1     -11.826  12.916  65.410  1.00  0.00    -0.444 A  
HETATM   24  C   UNL     1     -10.485  14.312  66.849  1.00  0.00    -0.272 A  
BRANCH  18  25
HETATM   25  C   UNL     1      -9.995  16.688  66.350  1.00  0.00    -0.302 C  
HETATM   26  O   UNL     1      -8.986  17.100  65.792  1.00  0.00    -0.523 OA 
HETATM   27  H1  UNL     1     -10.133  18.309  67.609  1.00  0.00     0.000 HD 
HETATM   28  H2  UNL     1     -11.421  17.105  67.814  1.00  0.00     0.000 HD 
HETATM   29  N   UNL     1     -10.574  17.427  67.347  1.00  0.00    -0.337 N  
ENDBRANCH  18  25
ENDBRANCH  14  17
ENDBRANCH  13  14
ENDBRANCH  11  13
ENDBRANCH   2  11
TORSDOF 8
ENDMDL
MODEL       43
REMARK 921   NORMALIZED FREE ENERGY PREDICTED BY IDOCK:   -5.66 KCAL/MOL
REMARK 922        TOTAL FREE ENERGY PREDICTED BY IDOCK:   -9.86 KCAL/MOL
REMARK 923 INTER-LIGAND FREE ENERGY PREDICTED BY IDOCK:   -9.06 KCAL/MOL
REMARK 924 INTRA-LIGAND FREE ENERGY PREDICTED BY IDOCK:   -0.79 KCAL/MOL
REMARK 927      BINDING AFFINITY PREDICTED BY RF-SCORE:    0.00 PKD
ROOT
HETATM    1  C   UNL     1     -11.080  10.508  67.929  1.00  0.00    -0.367 C  
HETATM    2  C   UNL     1     -11.490  11.747  68.734  1.00  0.00    -0.291 C  
ENDROOT
BRANCH   2   3
HETATM    3  C   UNL     1     -12.258  11.294  69.997  1.00  0.00    -0.389 C  
BRANCH   3   4
HETATM    4  C   UNL     1     -11.461  10.333  70.887  1.00  0.00    -0.425 C  
BRANCH   4   5
HETATM    5  C   UNL     1     -12.256   9.092  71.225  1.00  0.00    -0.373 A  
HETATM    6  C   UNL     1     -13.636   9.162  71.458  1.00  0.00    -0.406 A  
HETATM    7  C   UNL     1     -14.361   8.011  71.770  1.00  0.00    -0.583 A  
HETATM    8  C   UNL     1     -11.621   7.844  71.296  1.00  0.00    -0.304 A  
HETATM    9  C   UNL     1     -13.718   6.776  71.848  1.00  0.00    -0.119 A  
HETATM   10  C   UNL     1     -12.347   6.693  71.609  1.00  0.00    -0.382 A  
ENDBRANCH   4   5
ENDBRANCH   3   4
ENDBRANCH   2   3
BRANCH   2  11
HETATM   11  N   UNL     1     -10.339  12.572  69.119  1.00  0.00    -0.422 NA 
HETATM   12  H   UNL     1     -10.124  12.448  70.108  1.00  0.00     0.000 HD 
BRANCH  11  13
HETATM   13  C   UNL     1      -9.141  12.347  68.299  1.00  0.00    -0.183 C  
BRANCH  13  14
HETATM   14  C   UNL     1      -8.550  13.676  67.757  1.00  0.00    -0.182 C  
HETATM   15  H   UNL     1      -6.886  14.231  66.880  1.00  0.00     0.000 HD 
HETATM   16  O   UNL     1      -7.248  13.418  67.212  1.00  0.00    -0.139 OA 
BRANCH  14  17
HETATM   17  C   UNL     1      -9.460  14.329  66.724  1.00  0.00    -0.287 A  
HETATM   18  C   UNL     1     -10.951  14.204  64.776  1.00  0.00    -0.409 A  
HETATM   19  H   UNL     1     -11.729  17.259  63.782  1.00  0.00     0.000 HD 
HETATM   20  C   UNL     1     -11.024  15.601  64.761  1.00  0.00    -0.400 A  
HETATM   21  C   UNL     1     -10.367  16.359  65.724  1.00  0.00    -0.388 A  
HETATM   22  O   UNL     1     -11.679  16.311  63.792  1.00  0.00    -0.969 OA 
HETATM   23  C   UNL     1      -9.574  15.728  66.688  1.00  0.00    -0.266 A  
HETATM   24  C   UNL     1     -10.163  13.581  65.762  1.00  0.00    -0.305 A  
BRANCH  18  25
HETATM   25  C   UNL     1     -11.630  13.320  63.784  1.00  0.00    -0.375 C  
HETATM   26  O   UNL     1     -12.778  13.527  63.409  1.00  0.00    -0.706 OA 
HETATM   27  H1  UNL     1     -11.392  11.657  62.597  1.00  0.00     0.000 HD 
HETATM   28  H2  UNL     1      -9.967  12.081  63.566  1.00  0.00     0.000 HD 
HETATM   29  N   UNL     1     -10.927  12.261  63.275  1.00  0.00    -0.393 N  
ENDBRANCH  18  25
ENDBRANCH  14  17
ENDBRANCH  13  14
ENDBRANCH  11  13
ENDBRANCH   2  11
TORSDOF 8
ENDMDL
MODEL       44
REMARK 921   NORMALIZED FREE ENERGY PREDICTED BY IDOCK:   -5.63 KCAL/MOL
REMARK 922        TOTAL FREE ENERGY PREDICTED BY IDOCK:   -9.82 KCAL/MOL
REMARK 923 INTER-LIGAND FREE ENERGY PREDICTED BY IDOCK:   -9.00 KCAL/MOL
REMARK 924 INTRA-LIGAND FREE ENERGY PREDICTED BY IDOCK:   -0.82 KCAL/MOL
REMARK 927      BINDING AFFINITY PREDICTED BY RF-SCORE:    0.00 PKD
ROOT
HETATM    1  C   UNL     1     -14.090   8.469  71.892  1.00  0.00    -0.519 C  
HETATM    2  C   UNL     1     -13.037   9.566  71.698  1.00  0.00    -0.401 C  
ENDROOT
BRANCH   2   3
HETATM    3  C   UNL     1     -11.631   8.952  71.888  1.00  0.00    -0.442 C  
BRANCH   3   4
HETATM    4  C   UNL     1     -11.654   7.539  72.481  1.00  0.00    -0.352 C  
BRANCH   4   5
HETATM    5  C   UNL     1     -11.097   6.516  71.517  1.00  0.00    -0.310 A  
HETATM    6  C   UNL     1     -10.291   5.463  71.971  1.00  0.00    -0.268 A  
HETATM    7  C   UNL     1      -9.781   4.523  71.074  1.00  0.00    -0.259 A  
HETATM    8  C   UNL     1     -11.394   6.598  70.149  1.00  0.00    -0.440 A  
HETATM    9  C   UNL     1     -10.075   4.621  69.714  1.00  0.00    -0.243 A  
HETATM   10  C   UNL     1     -10.883   5.658  69.253  1.00  0.00    -0.309 A  
ENDBRANCH   4   5
ENDBRANCH   3   4
ENDBRANCH   2   3
BRANCH   2  11
HETATM   11  N   UNL     1     -13.128  10.205  70.380  1.00  0.00    -0.583 NA 
HETATM   12  H   UNL     1     -14.103  10.360  70.124  1.00  0.00     0.000 HD 
BRANCH  11  13
HETATM   13  C   UNL     1     -12.360  11.453  70.265  1.00  0.00    -0.297 C  
BRANCH  13  14
HETATM   14  C   UNL     1     -11.274  11.366  69.159  1.00  0.00    -0.272 C  
HETATM   15  H   UNL     1     -10.549   9.965  67.994  1.00  0.00     0.000 HD 
HETATM   16  O   UNL     1     -11.214  10.018  68.671  1.00  0.00    -0.206 OA 
BRANCH  14  17
HETATM   17  C   UNL     1     -11.532  12.351  68.024  1.00  0.00    -0.377 A  
HETATM   18  C   UNL     1     -11.890  12.858  65.648  1.00  0.00    -0.464 A  
HETATM   19  H   UNL     1     -11.932  16.135  65.212  1.00  0.00     0.000 HD 
HETATM   20  C   UNL     1     -11.878  14.223  65.953  1.00  0.00    -0.380 A  
HETATM   21  C   UNL     1     -11.736  14.658  67.266  1.00  0.00    -0.406 A  
HETATM   22  O   UNL     1     -11.941  15.208  65.005  1.00  0.00    -0.241 OA 
HETATM   23  C   UNL     1     -11.545  13.729  68.292  1.00  0.00    -0.373 A  
HETATM   24  C   UNL     1     -11.715  11.933  66.693  1.00  0.00    -0.264 A  
BRANCH  18  25
HETATM   25  C   UNL     1     -12.044  12.311  64.268  1.00  0.00    -0.412 C  
HETATM   26  O   UNL     1     -13.139  12.209  63.729  1.00  0.00    -0.774 OA 
HETATM   27  H1  UNL     1     -11.019  11.558  62.651  1.00  0.00     0.000 HD 
HETATM   28  H2  UNL     1      -9.993  12.022  64.023  1.00  0.00     0.000 HD 
HETATM   29  N   UNL     1     -10.914  11.932  63.594  1.00  0.00    -0.408 N  
ENDBRANCH  18  25
ENDBRANCH  14  17
ENDBRANCH  13  14
ENDBRANCH  11  13
ENDBRANCH   2  11
TORSDOF 8
ENDMDL
MODEL       45
REMARK 921   NORMALIZED FREE ENERGY PREDICTED BY IDOCK:   -5.62 KCAL/MOL
REMARK 922        TOTAL FREE ENERGY PREDICTED BY IDOCK:   -9.80 KCAL/MOL
REMARK 923 INTER-LIGAND FREE ENERGY PREDICTED BY IDOCK:   -8.34 KCAL/MOL
REMARK 924 INTRA-LIGAND FREE ENERGY PREDICTED BY IDOCK:   -1.46 KCAL/MOL
REMARK 927      BINDING AFFINITY PREDICTED BY RF-SCORE:    0.00 PKD
ROOT
HETATM    1  C   UNL     1     -12.700  15.188  70.513  1.00  0.00    -0.416 C  
HETATM    2  C   UNL     1     -11.589  14.163  70.250  1.00  0.00    -0.201 C  
ENDROOT
BRANCH   2   3
HETATM    3  C   UNL     1     -12.159  13.016  69.385  1.00  0.00    -0.267 C  
BRANCH   3   4
HETATM    4  C   UNL     1     -11.169  11.867  69.162  1.00  0.00    -0.314 C  
BRANCH   4   5
HETATM    5  C   UNL     1     -11.518  10.655  69.995  1.00  0.00    -0.404 A  
HETATM    6  C   UNL     1     -12.484  10.731  71.008  1.00  0.00    -0.522 A  
HETATM    7  C   UNL     1     -12.800   9.607  71.773  1.00  0.00    -0.514 A  
HETATM    8  C   UNL     1     -10.887   9.426  69.755  1.00  0.00    -0.250 A  
HETATM    9  C   UNL     1     -12.158   8.393  71.532  1.00  0.00    -0.342 A  
HETATM   10  C   UNL     1     -11.203   8.302  70.521  1.00  0.00    -0.247 A  
ENDBRANCH   4   5
ENDBRANCH   3   4
ENDBRANCH   2   3
BRANCH   2  11
HETATM   11  N   UNL     1     -10.424  14.758  69.585  1.00  0.00    -0.407 NA 
HETATM   12  H   UNL     1      -9.746  14.038  69.339  1.00  0.00     0.000 HD 
BRANCH  11  13
HETATM   13  C   UNL     1     -10.759  15.574  68.409  1.00  0.00    -0.263 C  
BRANCH  13  14
HETATM   14  C   UNL     1      -9.920  15.172  67.166  1.00  0.00    -0.237 C  
HETATM   15  H   UNL     1      -8.171  14.346  66.846  1.00  0.00     0.000 HD 
HETATM   16  O   UNL     1      -8.684  14.592  67.607  1.00  0.00    -0.162 OA 
BRANCH  14  17
HETATM   17  C   UNL     1     -10.677  14.222  66.246  1.00  0.00    -0.297 A  
HETATM   18  C   UNL     1     -10.731  12.421  64.576  1.00  0.00    -0.355 A  
HETATM   19  H   UNL     1     -13.828  12.006  63.498  1.00  0.00     0.000 HD 
HETATM   20  C   UNL     1     -12.116  12.580  64.471  1.00  0.00    -0.425 A  
HETATM   21  C   UNL     1     -12.788  13.509  65.258  1.00  0.00    -0.410 A  
HETATM   22  O   UNL     1     -12.887  11.898  63.569  1.00  0.00    -0.691 OA 
HETATM   23  C   UNL     1     -12.071  14.337  66.126  1.00  0.00    -0.424 A  
HETATM   24  C   UNL     1     -10.023  13.250  65.466  1.00  0.00    -0.222 A  
BRANCH  18  25
HETATM   25  C   UNL     1      -9.937  11.445  63.772  1.00  0.00    -0.341 C  
HETATM   26  O   UNL     1      -9.376  11.766  62.732  1.00  0.00    -0.351 OA 
HETATM   27  H1  UNL     1      -9.289   9.494  63.688  1.00  0.00     0.000 HD 
HETATM   28  H2  UNL     1     -10.282   9.881  65.108  1.00  0.00     0.000 HD 
HETATM   29  N   UNL     1      -9.831  10.162  64.237  1.00  0.00    -0.281 N  
ENDBRANCH  18  25
ENDBRANCH  14  17
ENDBRANCH  13  14
ENDBRANCH  11  13
ENDBRANCH   2  11
TORSDOF 8
ENDMDL
MODEL       46
REMARK 921   NORMALIZED FREE ENERGY PREDICTED BY IDOCK:   -5.61 KCAL/MOL
REMARK 922        TOTAL FREE ENERGY PREDICTED BY IDOCK:   -9.79 KCAL/MOL
REMARK 923 INTER-LIGAND FREE ENERGY PREDICTED BY IDOCK:   -8.32 KCAL/MOL
REMARK 924 INTRA-LIGAND FREE ENERGY PREDICTED BY IDOCK:   -1.47 KCAL/MOL
REMARK 927      BINDING AFFINITY PREDICTED BY RF-SCORE:    0.00 PKD
ROOT
HETATM    1  C   UNL     1     -11.858  15.223  72.371  1.00  0.00    -0.532 C  
HETATM    2  C   UNL     1     -12.288  15.613  70.952  1.00  0.00    -0.429 C  
ENDROOT
BRANCH   2   3
HETATM    3  C   UNL     1     -11.079  16.232  70.214  1.00  0.00    -0.340 C  
BRANCH   3   4
HETATM    4  C   UNL     1     -11.368  16.583  68.750  1.00  0.00    -0.221 C  
BRANCH   4   5
HETATM    5  C   UNL     1     -10.354  17.557  68.194  1.00  0.00    -0.375 A  
HETATM    6  C   UNL     1      -8.989  17.415  68.479  1.00  0.00    -0.276 A  
HETATM    7  C   UNL     1      -8.060  18.320  67.962  1.00  0.00    -0.279 A  
HETATM    8  C   UNL     1     -10.766  18.614  67.370  1.00  0.00    -0.456 A  
HETATM    9  C   UNL     1      -8.483  19.373  67.151  1.00  0.00    -0.317 A  
HETATM   10  C   UNL     1      -9.837  19.518  66.854  1.00  0.00    -0.476 A  
ENDBRANCH   4   5
ENDBRANCH   3   4
ENDBRANCH   2   3
BRANCH   2  11
HETATM   11  N   UNL     1     -12.806  14.472  70.189  1.00  0.00    -0.538 NA 
HETATM   12  H   UNL     1     -12.382  14.437  69.262  1.00  0.00     0.000 HD 
BRANCH  11  13
HETATM   13  C   UNL     1     -12.658  13.179  70.872  1.00  0.00    -0.295 C  
BRANCH  13  14
HETATM   14  C   UNL     1     -11.804  12.180  70.045  1.00  0.00    -0.306 C  
HETATM   15  H   UNL     1     -12.061  10.391  69.284  1.00  0.00     0.000 HD 
HETATM   16  O   UNL     1     -12.583  11.002  69.790  1.00  0.00    -0.249 OA 
BRANCH  14  17
HETATM   17  C   UNL     1     -11.297  12.797  68.747  1.00  0.00    -0.332 A  
HETATM   18  C   UNL     1     -11.590  13.391  66.382  1.00  0.00    -0.381 A  
HETATM   19  H   UNL     1      -8.741  14.554  65.174  1.00  0.00     0.000 HD 
HETATM   20  C   UNL     1     -10.262  13.830  66.343  1.00  0.00    -0.292 A  
HETATM   21  C   UNL     1      -9.467  13.795  67.484  1.00  0.00    -0.220 A  
HETATM   22  O   UNL     1      -9.643  14.256  65.201  1.00  0.00    -0.071 OA 
HETATM   23  C   UNL     1      -9.975  13.264  68.673  1.00  0.00    -0.127 A  
HETATM   24  C   UNL     1     -12.094  12.875  67.590  1.00  0.00    -0.239 A  
BRANCH  18  25
HETATM   25  C   UNL     1     -12.509  13.401  65.206  1.00  0.00    -0.483 C  
HETATM   26  O   UNL     1     -13.394  14.238  65.081  1.00  0.00    -0.626 OA 
HETATM   27  H1  UNL     1     -12.959  12.454  63.436  1.00  0.00     0.000 HD 
HETATM   28  H2  UNL     1     -11.591  11.750  64.322  1.00  0.00     0.000 HD 
HETATM   29  N   UNL     1     -12.331  12.448  64.240  1.00  0.00    -0.453 N  
ENDBRANCH  18  25
ENDBRANCH  14  17
ENDBRANCH  13  14
ENDBRANCH  11  13
ENDBRANCH   2  11
TORSDOF 8
ENDMDL
MODEL       47
REMARK 921   NORMALIZED FREE ENERGY PREDICTED BY IDOCK:   -5.61 KCAL/MOL
REMARK 922        TOTAL FREE ENERGY PREDICTED BY IDOCK:   -9.79 KCAL/MOL
REMARK 923 INTER-LIGAND FREE ENERGY PREDICTED BY IDOCK:   -8.79 KCAL/MOL
REMARK 924 INTRA-LIGAND FREE ENERGY PREDICTED BY IDOCK:   -1.00 KCAL/MOL
REMARK 927      BINDING AFFINITY PREDICTED BY RF-SCORE:    0.00 PKD
ROOT
HETATM    1  C   UNL     1     -10.860  19.586  65.507  1.00  0.00    -0.247 C  
HETATM    2  C   UNL     1     -10.055  18.431  66.116  1.00  0.00    -0.360 C  
ENDROOT
BRANCH   2   3
HETATM    3  C   UNL     1     -10.334  18.372  67.635  1.00  0.00    -0.427 C  
BRANCH   3   4
HETATM    4  C   UNL     1      -9.863  19.618  68.395  1.00  0.00    -0.531 C  
BRANCH   4   5
HETATM    5  C   UNL     1      -8.372  19.828  68.261  1.00  0.00    -0.312 A  
HETATM    6  C   UNL     1      -7.466  19.013  68.953  1.00  0.00    -0.364 A  
HETATM    7  C   UNL     1      -6.090  19.215  68.824  1.00  0.00    -0.252 A  
HETATM    8  C   UNL     1      -7.872  20.837  67.426  1.00  0.00    -0.293 A  
HETATM    9  C   UNL     1      -5.605  20.228  67.998  1.00  0.00    -0.242 A  
HETATM   10  C   UNL     1      -6.497  21.038  67.298  1.00  0.00    -0.418 A  
ENDBRANCH   4   5
ENDBRANCH   3   4
ENDBRANCH   2   3
BRANCH   2  11
HETATM   11  N   UNL     1     -10.374  17.138  65.500  1.00  0.00    -0.631 NA 
HETATM   12  H   UNL     1      -9.950  17.067  64.576  1.00  0.00     0.000 HD 
BRANCH  11  13
HETATM   13  C   UNL     1     -10.012  15.977  66.325  1.00  0.00    -0.310 C  
BRANCH  13  14
HETATM   14  C   UNL     1     -11.023  14.810  66.160  1.00  0.00    -0.332 C  
HETATM   15  H   UNL     1     -11.065  13.099  65.202  1.00  0.00     0.000 HD 
HETATM   16  O   UNL     1     -10.446  13.813  65.304  1.00  0.00    -0.325 OA 
BRANCH  14  17
HETATM   17  C   UNL     1     -11.434  14.213  67.501  1.00  0.00    -0.365 A  
HETATM   18  C   UNL     1     -12.081  14.447  69.859  1.00  0.00    -0.398 A  
HETATM   19  H   UNL     1     -12.243  11.457  71.261  1.00  0.00     0.000 HD 
HETATM   20  C   UNL     1     -12.061  13.054  69.987  1.00  0.00    -0.297 A  
HETATM   21  C   UNL     1     -11.774  12.242  68.894  1.00  0.00    -0.380 A  
HETATM   22  O   UNL     1     -12.256  12.403  71.175  1.00  0.00    -0.241 OA 
HETATM   23  C   UNL     1     -11.443  12.818  67.664  1.00  0.00    -0.387 A  
HETATM   24  C   UNL     1     -11.763  15.013  68.610  1.00  0.00    -0.363 A  
BRANCH  18  25
HETATM   25  C   UNL     1     -12.385  15.385  70.979  1.00  0.00    -0.392 C  
HETATM   26  O   UNL     1     -11.535  16.130  71.449  1.00  0.00    -0.421 OA 
HETATM   27  H1  UNL     1     -13.871  16.053  72.235  1.00  0.00     0.000 HD 
HETATM   28  H2  UNL     1     -14.386  14.806  71.082  1.00  0.00     0.000 HD 
HETATM   29  N   UNL     1     -13.663  15.411  71.470  1.00  0.00    -0.501 N  
ENDBRANCH  18  25
ENDBRANCH  14  17
ENDBRANCH  13  14
ENDBRANCH  11  13
ENDBRANCH   2  11
TORSDOF 8
ENDMDL
MODEL       48
REMARK 921   NORMALIZED FREE ENERGY PREDICTED BY IDOCK:   -5.60 KCAL/MOL
REMARK 922        TOTAL FREE ENERGY PREDICTED BY IDOCK:   -9.78 KCAL/MOL
REMARK 923 INTER-LIGAND FREE ENERGY PREDICTED BY IDOCK:   -8.96 KCAL/MOL
REMARK 924 INTRA-LIGAND FREE ENERGY PREDICTED BY IDOCK:   -0.82 KCAL/MOL
REMARK 927      BINDING AFFINITY PREDICTED BY RF-SCORE:    0.00 PKD
ROOT
HETATM    1  C   UNL     1     -10.111  16.664  66.973  1.00  0.00    -0.281 C  
HETATM    2  C   UNL     1     -10.342  15.308  67.651  1.00  0.00    -0.250 C  
ENDROOT
BRANCH   2   3
HETATM    3  C   UNL     1     -11.719  15.325  68.353  1.00  0.00    -0.340 C  
BRANCH   3   4
HETATM    4  C   UNL     1     -11.889  14.216  69.398  1.00  0.00    -0.378 C  
BRANCH   4   5
HETATM    5  C   UNL     1     -12.293  14.770  70.745  1.00  0.00    -0.397 A  
HETATM    6  C   UNL     1     -11.587  15.831  71.328  1.00  0.00    -0.499 A  
HETATM    7  C   UNL     1     -11.966  16.336  72.573  1.00  0.00    -0.648 A  
HETATM    8  C   UNL     1     -13.396  14.237  71.427  1.00  0.00    -0.411 A  
HETATM    9  C   UNL     1     -13.059  15.792  73.247  1.00  0.00    -0.692 A  
HETATM   10  C   UNL     1     -13.775  14.743  72.672  1.00  0.00    -0.547 A  
ENDBRANCH   4   5
ENDBRANCH   3   4
ENDBRANCH   2   3
BRANCH   2  11
HETATM   11  N   UNL     1     -10.279  14.189  66.704  1.00  0.00    -0.265 NA 
HETATM   12  H   UNL     1     -10.243  13.300  67.201  1.00  0.00     0.000 HD 
BRANCH  11  13
HETATM   13  C   UNL     1     -11.366  14.182  65.714  1.00  0.00    -0.317 C  
BRANCH  13  14
HETATM   14  C   UNL     1     -11.993  12.771  65.551  1.00  0.00    -0.449 C  
HETATM   15  H   UNL     1     -13.563  12.015  64.650  1.00  0.00     0.000 HD 
HETATM   16  O   UNL     1     -13.179  12.878  64.750  1.00  0.00    -0.764 OA 
BRANCH  14  17
HETATM   17  C   UNL     1     -11.011  11.773  64.950  1.00  0.00    -0.358 A  
HETATM   18  C   UNL     1      -9.452   9.886  65.159  1.00  0.00    -0.338 A  
HETATM   19  H   UNL     1      -7.895   9.415  62.282  1.00  0.00     0.000 HD 
HETATM   20  C   UNL     1      -9.109  10.039  63.812  1.00  0.00    -0.267 A  
HETATM   21  C   UNL     1      -9.723  11.008  63.026  1.00  0.00    -0.381 A  
HETATM   22  O   UNL     1      -8.128   9.311  63.197  1.00  0.00    -0.140 OA 
HETATM   23  C   UNL     1     -10.654  11.882  63.596  1.00  0.00    -0.500 A  
HETATM   24  C   UNL     1     -10.403  10.761  65.716  1.00  0.00    -0.295 A  
BRANCH  18  25
HETATM   25  C   UNL     1      -8.845   8.869  66.067  1.00  0.00    -0.172 C  
HETATM   26  O   UNL     1      -9.401   7.807  66.315  1.00  0.00    -0.185 OA 
HETATM   27  H1  UNL     1      -7.205   8.446  67.235  1.00  0.00     0.000 HD 
HETATM   28  H2  UNL     1      -7.136  10.016  66.409  1.00  0.00     0.000 HD 
HETATM   29  N   UNL     1      -7.620   9.142  66.615  1.00  0.00    -0.089 N  
ENDBRANCH  18  25
ENDBRANCH  14  17
ENDBRANCH  13  14
ENDBRANCH  11  13
ENDBRANCH   2  11
TORSDOF 8
ENDMDL
MODEL       49
REMARK 921   NORMALIZED FREE ENERGY PREDICTED BY IDOCK:   -5.60 KCAL/MOL
REMARK 922        TOTAL FREE ENERGY PREDICTED BY IDOCK:   -9.78 KCAL/MOL
REMARK 923 INTER-LIGAND FREE ENERGY PREDICTED BY IDOCK:   -8.90 KCAL/MOL
REMARK 924 INTRA-LIGAND FREE ENERGY PREDICTED BY IDOCK:   -0.87 KCAL/MOL
REMARK 927      BINDING AFFINITY PREDICTED BY RF-SCORE:    0.00 PKD
ROOT
HETATM    1  C   UNL     1     -11.411  14.975  71.086  1.00  0.00    -0.355 C  
HETATM    2  C   UNL     1     -11.392  14.574  69.606  1.00  0.00    -0.273 C  
ENDROOT
BRANCH   2   3
HETATM    3  C   UNL     1     -11.640  15.831  68.741  1.00  0.00    -0.401 C  
BRANCH   3   4
HETATM    4  C   UNL     1     -10.503  16.133  67.758  1.00  0.00    -0.295 C  
BRANCH   4   5
HETATM    5  C   UNL     1     -10.362  17.616  67.501  1.00  0.00    -0.365 A  
HETATM    6  C   UNL     1     -10.531  18.143  66.213  1.00  0.00    -0.374 A  
HETATM    7  C   UNL     1     -10.398  19.514  65.985  1.00  0.00    -0.604 A  
HETATM    8  C   UNL     1     -10.072  18.492  68.557  1.00  0.00    -0.414 A  
HETATM    9  C   UNL     1     -10.101  20.374  67.042  1.00  0.00    -0.507 A  
HETATM   10  C   UNL     1      -9.940  19.863  68.328  1.00  0.00    -0.552 A  
ENDBRANCH   4   5
ENDBRANCH   3   4
ENDBRANCH   2   3
BRANCH   2  11
HETATM   11  N   UNL     1     -10.129  13.939  69.213  1.00  0.00    -0.423 NA 
HETATM   12  H   UNL     1      -9.517  13.829  70.021  1.00  0.00     0.000 HD 
BRANCH  11  13
HETATM   13  C   UNL     1     -10.295  12.657  68.513  1.00  0.00    -0.221 C  
BRANCH  13  14
HETATM   14  C   UNL     1     -11.662  11.995  68.833  1.00  0.00    -0.326 C  
HETATM   15  H   UNL     1     -13.032  11.019  67.824  1.00  0.00     0.000 HD 
HETATM   16  O   UNL     1     -12.195  11.424  67.629  1.00  0.00    -0.485 OA 
BRANCH  14  17
HETATM   17  C   UNL     1     -11.549  10.948  69.935  1.00  0.00    -0.410 A  
HETATM   18  C   UNL     1     -10.363   9.108  71.049  1.00  0.00    -0.363 A  
HETATM   19  H   UNL     1     -12.279   7.836  73.423  1.00  0.00     0.000 HD 
HETATM   20  C   UNL     1     -11.452   8.948  71.911  1.00  0.00    -0.372 A  
HETATM   21  C   UNL     1     -12.558   9.787  71.825  1.00  0.00    -0.506 A  
HETATM   22  O   UNL     1     -11.539   7.945  72.838  1.00  0.00    -0.383 OA 
HETATM   23  C   UNL     1     -12.614  10.768  70.831  1.00  0.00    -0.498 A  
HETATM   24  C   UNL     1     -10.425  10.112  70.064  1.00  0.00    -0.325 A  
BRANCH  18  25
HETATM   25  C   UNL     1      -9.139   8.255  71.080  1.00  0.00    -0.162 C  
HETATM   26  O   UNL     1      -8.993   7.301  70.326  1.00  0.00    -0.150 OA 
HETATM   27  H1  UNL     1      -7.315   7.992  71.996  1.00  0.00     0.000 HD 
HETATM   28  H2  UNL     1      -8.251   9.373  72.601  1.00  0.00     0.000 HD 
HETATM   29  N   UNL     1      -8.152   8.575  71.974  1.00  0.00    -0.137 N  
ENDBRANCH  18  25
ENDBRANCH  14  17
ENDBRANCH  13  14
ENDBRANCH  11  13
ENDBRANCH   2  11
TORSDOF 8
ENDMDL
MODEL       50
REMARK 921   NORMALIZED FREE ENERGY PREDICTED BY IDOCK:   -5.60 KCAL/MOL
REMARK 922        TOTAL FREE ENERGY PREDICTED BY IDOCK:   -9.77 KCAL/MOL
REMARK 923 INTER-LIGAND FREE ENERGY PREDICTED BY IDOCK:   -8.87 KCAL/MOL
REMARK 924 INTRA-LIGAND FREE ENERGY PREDICTED BY IDOCK:   -0.91 KCAL/MOL
REMARK 927      BINDING AFFINITY PREDICTED BY RF-SCORE:    0.00 PKD
ROOT
HETATM    1  C   UNL     1     -10.886  11.712  63.668  1.00  0.00    -0.503 C  
HETATM    2  C   UNL     1     -11.378  13.039  64.258  1.00  0.00    -0.376 C  
ENDROOT
BRANCH   2   3
HETATM    3  C   UNL     1     -12.152  12.752  65.565  1.00  0.00    -0.517 C  
BRANCH   3   4
HETATM    4  C   UNL     1     -11.373  11.888  66.562  1.00  0.00    -0.403 C  
BRANCH   4   5
HETATM    5  C   UNL     1     -11.701  12.248  67.994  1.00  0.00    -0.417 A  
HETATM    6  C   UNL     1     -11.922  13.580  68.368  1.00  0.00    -0.378 A  
HETATM    7  C   UNL     1     -12.224  13.903  69.692  1.00  0.00    -0.374 A  
HETATM    8  C   UNL     1     -11.803  11.245  68.969  1.00  0.00    -0.421 A  
HETATM    9  C   UNL     1     -12.313  12.899  70.656  1.00  0.00    -0.385 A  
HETATM   10  C   UNL     1     -12.104  11.570  70.293  1.00  0.00    -0.444 A  
ENDBRANCH   4   5
ENDBRANCH   3   4
ENDBRANCH   2   3
BRANCH   2  11
HETATM   11  N   UNL     1     -10.280  13.976  64.525  1.00  0.00    -0.689 NA 
HETATM   12  H   UNL     1      -9.704  14.100  63.692  1.00  0.00     0.000 HD 
BRANCH  11  13
HETATM   13  C   UNL     1     -10.718  15.278  65.047  1.00  0.00    -0.439 C  
BRANCH  13  14
HETATM   14  C   UNL     1     -10.038  15.619  66.400  1.00  0.00    -0.287 C  
HETATM   15  H   UNL     1      -8.369  15.131  67.308  1.00  0.00     0.000 HD 
HETATM   16  O   UNL     1      -8.786  14.923  66.480  1.00  0.00    -0.254 OA 
BRANCH  14  17
HETATM   17  C   UNL     1      -9.846  17.120  66.584  1.00  0.00    -0.295 A  
HETATM   18  C   UNL     1      -8.437  19.132  66.569  1.00  0.00    -0.324 A  
HETATM   19  H   UNL     1     -10.159  21.695  67.750  1.00  0.00     0.000 HD 
HETATM   20  C   UNL     1      -9.516  19.873  67.062  1.00  0.00    -0.380 A  
HETATM   21  C   UNL     1     -10.752  19.273  67.279  1.00  0.00    -0.594 A  
HETATM   22  O   UNL     1      -9.426  21.192  67.416  1.00  0.00    -0.303 OA 
HETATM   23  C   UNL     1     -10.910  17.902  67.060  1.00  0.00    -0.107 A  
HETATM   24  C   UNL     1      -8.615  17.756  66.336  1.00  0.00    -0.260 A  
BRANCH  18  25
HETATM   25  C   UNL     1      -7.083  19.702  66.304  1.00  0.00    -0.247 C  
HETATM   26  O   UNL     1      -6.209  19.724  67.161  1.00  0.00    -0.184 OA 
HETATM   27  H1  UNL     1      -5.899  20.584  64.871  1.00  0.00     0.000 HD 
HETATM   28  H2  UNL     1      -7.536  20.172  64.323  1.00  0.00     0.000 HD 
HETATM   29  N   UNL     1      -6.824  20.194  65.053  1.00  0.00    -0.284 N  
ENDBRANCH  18  25
ENDBRANCH  14  17
ENDBRANCH  13  14
ENDBRANCH  11  13
ENDBRANCH   2  11
TORSDOF 8
ENDMDL
MODEL       51
REMARK 921   NORMALIZED FREE ENERGY PREDICTED BY IDOCK:   -5.59 KCAL/MOL
REMARK 922        TOTAL FREE ENERGY PREDICTED BY IDOCK:   -9.76 KCAL/MOL
REMARK 923 INTER-LIGAND FREE ENERGY PREDICTED BY IDOCK:   -8.37 KCAL/MOL
REMARK 924 INTRA-LIGAND FREE ENERGY PREDICTED BY IDOCK:   -1.39 KCAL/MOL
REMARK 927      BINDING AFFINITY PREDICTED BY RF-SCORE:    0.00 PKD
ROOT
HETATM    1  C   UNL     1     -11.120   4.850  73.464  1.00  0.00    -0.405 C  
HETATM    2  C   UNL     1     -10.861   6.266  72.934  1.00  0.00    -0.256 C  
ENDROOT
BRANCH   2   3
HETATM    3  C   UNL     1      -9.949   6.177  71.689  1.00  0.00    -0.203 C  
BRANCH   3   4
HETATM    4  C   UNL     1     -10.616   5.500  70.487  1.00  0.00    -0.339 C  
BRANCH   4   5
HETATM    5  C   UNL     1     -10.459   6.315  69.224  1.00  0.00    -0.298 A  
HETATM    6  C   UNL     1      -9.989   7.635  69.273  1.00  0.00    -0.180 A  
HETATM    7  C   UNL     1      -9.847   8.380  68.101  1.00  0.00    -0.196 A  
HETATM    8  C   UNL     1     -10.768   5.754  67.976  1.00  0.00    -0.290 A  
HETATM    9  C   UNL     1     -10.168   7.815  66.867  1.00  0.00    -0.373 A  
HETATM   10  C   UNL     1     -10.626   6.501  66.806  1.00  0.00    -0.323 A  
ENDBRANCH   4   5
ENDBRANCH   3   4
ENDBRANCH   2   3
BRANCH   2  11
HETATM   11  N   UNL     1     -12.101   6.973  72.594  1.00  0.00    -0.495 NA 
HETATM   12  H   UNL     1     -12.824   6.784  73.288  1.00  0.00     0.000 HD 
BRANCH  11  13
HETATM   13  C   UNL     1     -11.932   8.421  72.409  1.00  0.00    -0.384 C  
BRANCH  13  14
HETATM   14  C   UNL     1     -13.180   9.072  71.753  1.00  0.00    -0.389 C  
HETATM   15  H   UNL     1     -14.993   9.552  72.329  1.00  0.00     0.000 HD 
HETATM   16  O   UNL     1     -14.229   9.154  72.729  1.00  0.00    -0.552 OA 
BRANCH  14  17
HETATM   17  C   UNL     1     -12.870  10.443  71.163  1.00  0.00    -0.511 A  
HETATM   18  C   UNL     1     -11.951  11.869  69.387  1.00  0.00    -0.350 A  
HETATM   19  H   UNL     1     -11.996  15.025  70.370  1.00  0.00     0.000 HD 
HETATM   20  C   UNL     1     -12.202  12.993  70.181  1.00  0.00    -0.272 A  
HETATM   21  C   UNL     1     -12.809  12.865  71.425  1.00  0.00    -0.377 A  
HETATM   22  O   UNL     1     -11.825  14.261  69.831  1.00  0.00    -0.284 OA 
HETATM   23  C   UNL     1     -13.123  11.597  71.921  1.00  0.00    -0.490 A  
HETATM   24  C   UNL     1     -12.288  10.599  69.891  1.00  0.00    -0.304 A  
BRANCH  18  25
HETATM   25  C   UNL     1     -11.310  11.922  68.040  1.00  0.00    -0.288 C  
HETATM   26  O   UNL     1     -11.965  11.871  67.007  1.00  0.00    -0.615 OA 
HETATM   27  H1  UNL     1      -9.510  12.085  67.058  1.00  0.00     0.000 HD 
HETATM   28  H2  UNL     1      -9.387  12.105  68.828  1.00  0.00     0.000 HD 
HETATM   29  N   UNL     1      -9.948  12.049  67.978  1.00  0.00    -0.191 N  
ENDBRANCH  18  25
ENDBRANCH  14  17
ENDBRANCH  13  14
ENDBRANCH  11  13
ENDBRANCH   2  11
TORSDOF 8
ENDMDL
MODEL       52
REMARK 921   NORMALIZED FREE ENERGY PREDICTED BY IDOCK:   -5.58 KCAL/MOL
REMARK 922        TOTAL FREE ENERGY PREDICTED BY IDOCK:   -9.74 KCAL/MOL
REMARK 923 INTER-LIGAND FREE ENERGY PREDICTED BY IDOCK:   -8.07 KCAL/MOL
REMARK 924 INTRA-LIGAND FREE ENERGY PREDICTED BY IDOCK:   -1.67 KCAL/MOL
REMARK 927      BINDING AFFINITY PREDICTED BY RF-SCORE:    0.00 PKD
ROOT
HETATM    1  C   UNL     1      -9.193  11.415  62.744  1.00  0.00    -0.309 C  
HETATM    2  C   UNL     1     -10.605  11.668  63.287  1.00  0.00    -0.356 C  
ENDROOT
BRANCH   2   3
HETATM    3  C   UNL     1     -10.785  10.879  64.604  1.00  0.00    -0.254 C  
BRANCH   3   4
HETATM    4  C   UNL     1      -9.597   9.972  64.944  1.00  0.00    -0.375 C  
BRANCH   4   5
HETATM    5  C   UNL     1      -9.584   9.587  66.406  1.00  0.00    -0.273 A  
HETATM    6  C   UNL     1     -10.365   8.524  66.877  1.00  0.00    -0.367 A  
HETATM    7  C   UNL     1     -10.347   8.176  68.229  1.00  0.00    -0.241 A  
HETATM    8  C   UNL     1      -8.773  10.284  67.313  1.00  0.00    -0.125 A  
HETATM    9  C   UNL     1      -9.544   8.882  69.124  1.00  0.00    -0.162 A  
HETATM   10  C   UNL     1      -8.755   9.935  68.665  1.00  0.00    -0.124 A  
ENDBRANCH   4   5
ENDBRANCH   3   4
ENDBRANCH   2   3
BRANCH   2  11
HETATM   11  N   UNL     1     -10.870  13.093  63.519  1.00  0.00    -0.458 NA 
HETATM   12  H   UNL     1     -11.850  13.309  63.340  1.00  0.00     0.000 HD 
BRANCH  11  13
HETATM   13  C   UNL     1     -10.473  13.565  64.854  1.00  0.00    -0.402 C  
BRANCH  13  14
HETATM   14  C   UNL     1     -11.618  14.342  65.558  1.00  0.00    -0.347 C  
HETATM   15  H   UNL     1     -13.523  14.667  65.223  1.00  0.00     0.000 HD 
HETATM   16  O   UNL     1     -12.822  14.191  64.792  1.00  0.00    -0.677 OA 
BRANCH  14  17
HETATM   17  C   UNL     1     -11.821  13.885  66.998  1.00  0.00    -0.447 A  
HETATM   18  C   UNL     1     -12.195  14.358  69.379  1.00  0.00    -0.305 A  
HETATM   19  H   UNL     1     -11.971  11.551  71.111  1.00  0.00     0.000 HD 
HETATM   20  C   UNL     1     -12.059  12.993  69.656  1.00  0.00    -0.241 A  
HETATM   21  C   UNL     1     -11.848  12.077  68.632  1.00  0.00    -0.366 A  
HETATM   22  O   UNL     1     -12.063  12.478  70.923  1.00  0.00    -0.285 OA 
HETATM   23  C   UNL     1     -11.710  12.522  67.314  1.00  0.00    -0.431 A  
HETATM   24  C   UNL     1     -12.072  14.790  68.046  1.00  0.00    -0.163 A  
BRANCH  18  25
HETATM   25  C   UNL     1     -12.429  15.403  70.419  1.00  0.00    -0.404 C  
HETATM   26  O   UNL     1     -13.546  15.635  70.864  1.00  0.00    -0.568 OA 
HETATM   27  H1  UNL     1     -11.509  16.815  71.598  1.00  0.00     0.000 HD 
HETATM   28  H2  UNL     1     -10.410  15.911  70.537  1.00  0.00     0.000 HD 
HETATM   29  N   UNL     1     -11.348  16.100  70.888  1.00  0.00    -0.392 N  
ENDBRANCH  18  25
ENDBRANCH  14  17
ENDBRANCH  13  14
ENDBRANCH  11  13
ENDBRANCH   2  11
TORSDOF 8
ENDMDL
MODEL       53
REMARK 921   NORMALIZED FREE ENERGY PREDICTED BY IDOCK:   -5.57 KCAL/MOL
REMARK 922        TOTAL FREE ENERGY PREDICTED BY IDOCK:   -9.73 KCAL/MOL
REMARK 923 INTER-LIGAND FREE ENERGY PREDICTED BY IDOCK:   -8.61 KCAL/MOL
REMARK 924 INTRA-LIGAND FREE ENERGY PREDICTED BY IDOCK:   -1.12 KCAL/MOL
REMARK 927      BINDING AFFINITY PREDICTED BY RF-SCORE:    0.00 PKD
ROOT
HETATM    1  C   UNL     1     -10.709  14.721  66.485  1.00  0.00    -0.319 C  
HETATM    2  C   UNL     1     -10.011  14.953  67.831  1.00  0.00    -0.219 C  
ENDROOT
BRANCH   2   3
HETATM    3  C   UNL     1     -10.877  15.903  68.689  1.00  0.00    -0.291 C  
BRANCH   3   4
HETATM    4  C   UNL     1     -10.562  15.836  70.187  1.00  0.00    -0.334 C  
BRANCH   4   5
HETATM    5  C   UNL     1     -11.807  15.601  71.013  1.00  0.00    -0.442 A  
HETATM    6  C   UNL     1     -12.882  14.864  70.500  1.00  0.00    -0.376 A  
HETATM    7  C   UNL     1     -14.028  14.652  71.270  1.00  0.00    -0.400 A  
HETATM    8  C   UNL     1     -11.896  16.109  72.317  1.00  0.00    -0.631 A  
HETATM    9  C   UNL     1     -14.109  15.170  72.562  1.00  0.00    -0.535 A  
HETATM   10  C   UNL     1     -13.042  15.897  73.086  1.00  0.00    -0.673 A  
ENDBRANCH   4   5
ENDBRANCH   3   4
ENDBRANCH   2   3
BRANCH   2  11
HETATM   11  N   UNL     1      -9.770  13.703  68.561  1.00  0.00    -0.319 NA 
HETATM   12  H   UNL     1     -10.600  13.429  69.086  1.00  0.00     0.000 HD 
BRANCH  11  13
HETATM   13  C   UNL     1      -9.309  12.595  67.712  1.00  0.00    -0.198 C  
BRANCH  13  14
HETATM   14  C   UNL     1     -10.377  11.474  67.589  1.00  0.00    -0.186 C  
HETATM   15  H   UNL     1     -10.683   9.935  66.414  1.00  0.00     0.000 HD 
HETATM   16  O   UNL     1     -10.029  10.620  66.490  1.00  0.00    -0.200 OA 
BRANCH  14  17
HETATM   17  C   UNL     1     -10.524  10.678  68.880  1.00  0.00    -0.232 A  
HETATM   18  C   UNL     1     -11.784  10.043  70.891  1.00  0.00    -0.462 A  
HETATM   19  H   UNL     1      -9.895   8.139  72.823  1.00  0.00     0.000 HD 
HETATM   20  C   UNL     1     -10.689   9.285  71.319  1.00  0.00    -0.352 A  
HETATM   21  C   UNL     1      -9.544   9.184  70.538  1.00  0.00    -0.293 A  
HETATM   22  O   UNL     1     -10.638   8.653  72.532  1.00  0.00    -0.300 OA 
HETATM   23  C   UNL     1      -9.454   9.892  69.335  1.00  0.00    -0.226 A  
HETATM   24  C   UNL     1     -11.688  10.736  69.670  1.00  0.00    -0.395 A  
BRANCH  18  25
HETATM   25  C   UNL     1     -13.050  10.196  71.667  1.00  0.00    -0.447 C  
HETATM   26  O   UNL     1     -13.352  11.250  72.213  1.00  0.00    -0.394 OA 
HETATM   27  H1  UNL     1     -14.759   9.226  72.274  1.00  0.00     0.000 HD 
HETATM   28  H2  UNL     1     -13.664   8.240  71.285  1.00  0.00     0.000 HD 
HETATM   29  N   UNL     1     -13.894   9.121  71.744  1.00  0.00    -0.385 N  
ENDBRANCH  18  25
ENDBRANCH  14  17
ENDBRANCH  13  14
ENDBRANCH  11  13
ENDBRANCH   2  11
TORSDOF 8
ENDMDL
MODEL       54
REMARK 921   NORMALIZED FREE ENERGY PREDICTED BY IDOCK:   -5.57 KCAL/MOL
REMARK 922        TOTAL FREE ENERGY PREDICTED BY IDOCK:   -9.73 KCAL/MOL
REMARK 923 INTER-LIGAND FREE ENERGY PREDICTED BY IDOCK:   -8.86 KCAL/MOL
REMARK 924 INTRA-LIGAND FREE ENERGY PREDICTED BY IDOCK:   -0.87 KCAL/MOL
REMARK 927      BINDING AFFINITY PREDICTED BY RF-SCORE:    0.00 PKD
ROOT
HETATM    1  C   UNL     1     -10.758  13.406  68.508  1.00  0.00    -0.278 C  
HETATM    2  C   UNL     1     -11.667  14.536  68.008  1.00  0.00    -0.342 C  
ENDROOT
BRANCH   2   3
HETATM    3  C   UNL     1     -10.790  15.735  67.581  1.00  0.00    -0.310 C  
BRANCH   3   4
HETATM    4  C   UNL     1     -10.604  16.782  68.684  1.00  0.00    -0.353 C  
BRANCH   4   5
HETATM    5  C   UNL     1      -9.996  18.059  68.150  1.00  0.00    -0.356 A  
HETATM    6  C   UNL     1     -10.723  18.900  67.296  1.00  0.00    -0.523 A  
HETATM    7  C   UNL     1     -10.154  20.077  66.806  1.00  0.00    -0.607 A  
HETATM    8  C   UNL     1      -8.694  18.430  68.515  1.00  0.00    -0.336 A  
HETATM    9  C   UNL     1      -8.854  20.430  67.169  1.00  0.00    -0.435 A  
HETATM   10  C   UNL     1      -8.126  19.607  68.026  1.00  0.00    -0.344 A  
ENDBRANCH   4   5
ENDBRANCH   3   4
ENDBRANCH   2   3
BRANCH   2  11
HETATM   11  N   UNL     1     -12.519  14.117  66.888  1.00  0.00    -0.549 NA 
HETATM   12  H   UNL     1     -13.406  14.619  66.905  1.00  0.00     0.000 HD 
BRANCH  11  13
HETATM   13  C   UNL     1     -11.880  14.245  65.571  1.00  0.00    -0.363 C  
BRANCH  13  14
HETATM   14  C   UNL     1     -12.344  13.134  64.590  1.00  0.00    -0.405 C  
HETATM   15  H   UNL     1     -12.922  13.050  62.718  1.00  0.00     0.000 HD 
HETATM   16  O   UNL     1     -12.638  13.730  63.319  1.00  0.00    -0.830 OA 
BRANCH  14  17
HETATM   17  C   UNL     1     -11.310  12.023  64.451  1.00  0.00    -0.411 A  
HETATM   18  C   UNL     1     -10.013  10.155  65.380  1.00  0.00    -0.377 A  
HETATM   19  H   UNL     1      -7.762   9.167  63.169  1.00  0.00     0.000 HD 
HETATM   20  C   UNL     1      -9.301  10.072  64.178  1.00  0.00    -0.280 A  
HETATM   21  C   UNL     1      -9.602  10.913  63.113  1.00  0.00    -0.384 A  
HETATM   22  O   UNL     1      -8.245   9.223  63.985  1.00  0.00    -0.144 OA 
HETATM   23  C   UNL     1     -10.587  11.895  63.255  1.00  0.00    -0.420 A  
HETATM   24  C   UNL     1     -11.014  11.136  65.504  1.00  0.00    -0.143 A  
BRANCH  18  25
HETATM   25  C   UNL     1      -9.756   9.286  66.566  1.00  0.00    -0.240 C  
HETATM   26  O   UNL     1     -10.340   8.223  66.730  1.00  0.00    -0.310 OA 
HETATM   27  H1  UNL     1      -8.647   9.106  68.290  1.00  0.00     0.000 HD 
HETATM   28  H2  UNL     1      -8.318  10.576  67.352  1.00  0.00     0.000 HD 
HETATM   29  N   UNL     1      -8.823   9.700  67.479  1.00  0.00    -0.125 N  
ENDBRANCH  18  25
ENDBRANCH  14  17
ENDBRANCH  13  14
ENDBRANCH  11  13
ENDBRANCH   2  11
TORSDOF 8
ENDMDL
MODEL       55
REMARK 921   NORMALIZED FREE ENERGY PREDICTED BY IDOCK:   -5.56 KCAL/MOL
REMARK 922        TOTAL FREE ENERGY PREDICTED BY IDOCK:   -9.71 KCAL/MOL
REMARK 923 INTER-LIGAND FREE ENERGY PREDICTED BY IDOCK:   -8.95 KCAL/MOL
REMARK 924 INTRA-LIGAND FREE ENERGY PREDICTED BY IDOCK:   -0.77 KCAL/MOL
REMARK 927      BINDING AFFINITY PREDICTED BY RF-SCORE:    0.00 PKD
ROOT
HETATM    1  C   UNL     1     -12.476  13.315  65.203  1.00  0.00    -0.525 C  
HETATM    2  C   UNL     1     -11.618  14.015  66.264  1.00  0.00    -0.369 C  
ENDROOT
BRANCH   2   3
HETATM    3  C   UNL     1     -10.979  15.277  65.642  1.00  0.00    -0.348 C  
BRANCH   3   4
HETATM    4  C   UNL     1      -9.735  15.769  66.392  1.00  0.00    -0.305 C  
BRANCH   4   5
HETATM    5  C   UNL     1      -9.946  17.142  66.988  1.00  0.00    -0.287 A  
HETATM    6  C   UNL     1     -10.351  18.219  66.189  1.00  0.00    -0.414 A  
HETATM    7  C   UNL     1     -10.542  19.484  66.748  1.00  0.00    -0.597 A  
HETATM    8  C   UNL     1      -9.752  17.354  68.360  1.00  0.00    -0.304 A  
HETATM    9  C   UNL     1     -10.336  19.686  68.112  1.00  0.00    -0.561 A  
HETATM   10  C   UNL     1      -9.943  18.619  68.919  1.00  0.00    -0.399 A  
ENDBRANCH   4   5
ENDBRANCH   3   4
ENDBRANCH   2   3
BRANCH   2  11
HETATM   11  N   UNL     1     -12.391  14.383  67.456  1.00  0.00    -0.600 NA 
HETATM   12  H   UNL     1     -13.359  14.078  67.364  1.00  0.00     0.000 HD 
BRANCH  11  13
HETATM   13  C   UNL     1     -11.814  13.895  68.717  1.00  0.00    -0.361 C  
BRANCH  13  14
HETATM   14  C   UNL     1     -11.121  12.517  68.543  1.00  0.00    -0.262 C  
HETATM   15  H   UNL     1      -9.277  11.871  68.376  1.00  0.00     0.000 HD 
HETATM   16  O   UNL     1      -9.701  12.715  68.483  1.00  0.00    -0.206 OA 
BRANCH  14  17
HETATM   17  C   UNL     1     -11.494  11.542  69.654  1.00  0.00    -0.373 A  
HETATM   18  C   UNL     1     -11.376   9.329  70.712  1.00  0.00    -0.349 A  
HETATM   19  H   UNL     1     -13.492   9.203  73.249  1.00  0.00     0.000 HD 
HETATM   20  C   UNL     1     -12.319   9.747  71.658  1.00  0.00    -0.408 A  
HETATM   21  C   UNL     1     -12.819  11.044  71.638  1.00  0.00    -0.540 A  
HETATM   22  O   UNL     1     -12.852   8.919  72.607  1.00  0.00    -0.393 OA 
HETATM   23  C   UNL     1     -12.424  11.930  70.632  1.00  0.00    -0.347 A  
HETATM   24  C   UNL     1     -10.974  10.236  69.715  1.00  0.00    -0.338 A  
BRANCH  18  25
HETATM   25  C   UNL     1     -10.787   7.958  70.668  1.00  0.00    -0.237 C  
HETATM   26  O   UNL     1     -11.141   7.127  69.842  1.00  0.00    -0.259 OA 
HETATM   27  H1  UNL     1      -9.409   6.709  71.547  1.00  0.00     0.000 HD 
HETATM   28  H2  UNL     1      -9.496   8.330  72.264  1.00  0.00     0.000 HD 
HETATM   29  N   UNL     1      -9.811   7.646  71.577  1.00  0.00    -0.166 N  
ENDBRANCH  18  25
ENDBRANCH  14  17
ENDBRANCH  13  14
ENDBRANCH  11  13
ENDBRANCH   2  11
TORSDOF 8
ENDMDL
MODEL       56
REMARK 921   NORMALIZED FREE ENERGY PREDICTED BY IDOCK:   -5.53 KCAL/MOL
REMARK 922        TOTAL FREE ENERGY PREDICTED BY IDOCK:   -9.67 KCAL/MOL
REMARK 923 INTER-LIGAND FREE ENERGY PREDICTED BY IDOCK:   -8.46 KCAL/MOL
REMARK 924 INTRA-LIGAND FREE ENERGY PREDICTED BY IDOCK:   -1.21 KCAL/MOL
REMARK 927      BINDING AFFINITY PREDICTED BY RF-SCORE:    0.00 PKD
ROOT
HETATM    1  C   UNL     1     -10.607  15.269  69.473  1.00  0.00    -0.272 C  
HETATM    2  C   UNL     1     -10.289  14.300  68.328  1.00  0.00    -0.242 C  
ENDROOT
BRANCH   2   3
HETATM    3  C   UNL     1      -9.760  15.106  67.120  1.00  0.00    -0.230 C  
BRANCH   3   4
HETATM    4  C   UNL     1     -10.838  15.430  66.079  1.00  0.00    -0.315 C  
BRANCH   4   5
HETATM    5  C   UNL     1     -11.204  14.217  65.254  1.00  0.00    -0.337 A  
HETATM    6  C   UNL     1     -10.231  13.525  64.520  1.00  0.00    -0.296 A  
HETATM    7  C   UNL     1     -10.578  12.407  63.760  1.00  0.00    -0.486 A  
HETATM    8  C   UNL     1     -12.528  13.756  65.223  1.00  0.00    -0.512 A  
HETATM    9  C   UNL     1     -11.900  11.964  63.729  1.00  0.00    -0.558 A  
HETATM   10  C   UNL     1     -12.874  12.638  64.462  1.00  0.00    -0.356 A  
ENDBRANCH   4   5
ENDBRANCH   3   4
ENDBRANCH   2   3
BRANCH   2  11
HETATM   11  N   UNL     1      -9.308  13.279  68.713  1.00  0.00    -0.398 NA 
HETATM   12  H   UNL     1      -9.039  13.391  69.691  1.00  0.00     0.000 HD 
BRANCH  11  13
HETATM   13  C   UNL     1      -9.747  11.900  68.455  1.00  0.00    -0.201 C  
BRANCH  13  14
HETATM   14  C   UNL     1     -11.293  11.764  68.505  1.00  0.00    -0.273 C  
HETATM   15  H   UNL     1     -12.687  11.025  67.341  1.00  0.00     0.000 HD 
HETATM   16  O   UNL     1     -11.741  11.108  67.310  1.00  0.00    -0.540 OA 
BRANCH  14  17
HETATM   17  C   UNL     1     -11.763  11.021  69.750  1.00  0.00    -0.410 A  
HETATM   18  C   UNL     1     -11.889   8.997  71.136  1.00  0.00    -0.362 A  
HETATM   19  H   UNL     1     -13.973   9.509  73.651  1.00  0.00     0.000 HD 
HETATM   20  C   UNL     1     -12.765   9.662  72.001  1.00  0.00    -0.385 A  
HETATM   21  C   UNL     1     -13.111  10.991  71.780  1.00  0.00    -0.554 A  
HETATM   22  O   UNL     1     -13.378   9.057  73.063  1.00  0.00    -0.300 OA 
HETATM   23  C   UNL     1     -12.629  11.660  70.652  1.00  0.00    -0.319 A  
HETATM   24  C   UNL     1     -11.396   9.688  70.014  1.00  0.00    -0.239 A  
BRANCH  18  25
HETATM   25  C   UNL     1     -11.464   7.577  71.306  1.00  0.00    -0.274 C  
HETATM   26  O   UNL     1     -11.959   6.669  70.651  1.00  0.00    -0.395 OA 
HETATM   27  H1  UNL     1     -10.186   6.332  72.330  1.00  0.00     0.000 HD 
HETATM   28  H2  UNL     1     -10.044   8.048  72.759  1.00  0.00     0.000 HD 
HETATM   29  N   UNL     1     -10.476   7.303  72.214  1.00  0.00    -0.208 N  
ENDBRANCH  18  25
ENDBRANCH  14  17
ENDBRANCH  13  14
ENDBRANCH  11  13
ENDBRANCH   2  11
TORSDOF 8
ENDMDL
MODEL       57
REMARK 921   NORMALIZED FREE ENERGY PREDICTED BY IDOCK:   -5.52 KCAL/MOL
REMARK 922        TOTAL FREE ENERGY PREDICTED BY IDOCK:   -9.66 KCAL/MOL
REMARK 923 INTER-LIGAND FREE ENERGY PREDICTED BY IDOCK:   -7.93 KCAL/MOL
REMARK 924 INTRA-LIGAND FREE ENERGY PREDICTED BY IDOCK:   -1.73 KCAL/MOL
REMARK 927      BINDING AFFINITY PREDICTED BY RF-SCORE:    0.00 PKD
ROOT
HETATM    1  C   UNL     1     -11.593   7.128  72.474  1.00  0.00    -0.265 C  
HETATM    2  C   UNL     1     -12.507   7.570  71.324  1.00  0.00    -0.323 C  
ENDROOT
BRANCH   2   3
HETATM    3  C   UNL     1     -12.240   9.060  71.015  1.00  0.00    -0.275 C  
BRANCH   3   4
HETATM    4  C   UNL     1     -13.154  10.021  71.784  1.00  0.00    -0.562 C  
BRANCH   4   5
HETATM    5  C   UNL     1     -12.919  11.460  71.387  1.00  0.00    -0.468 A  
HETATM    6  C   UNL     1     -13.447  12.512  72.148  1.00  0.00    -0.523 A  
HETATM    7  C   UNL     1     -13.225  13.838  71.773  1.00  0.00    -0.467 A  
HETATM    8  C   UNL     1     -12.152  11.765  70.253  1.00  0.00    -0.426 A  
HETATM    9  C   UNL     1     -12.469  14.129  70.637  1.00  0.00    -0.432 A  
HETATM   10  C   UNL     1     -11.931  13.091  69.879  1.00  0.00    -0.381 A  
ENDBRANCH   4   5
ENDBRANCH   3   4
ENDBRANCH   2   3
BRANCH   2  11
HETATM   11  N   UNL     1     -12.311   6.766  70.112  1.00  0.00    -0.546 NA 
HETATM   12  H   UNL     1     -12.623   7.279  69.288  1.00  0.00     0.000 HD 
BRANCH  11  13
HETATM   13  C   UNL     1     -10.935   6.284  69.930  1.00  0.00    -0.370 C  
BRANCH  13  14
HETATM   14  C   UNL     1     -10.349   6.708  68.555  1.00  0.00    -0.192 C  
HETATM   15  H   UNL     1     -10.920   6.604  66.682  1.00  0.00     0.000 HD 
HETATM   16  O   UNL     1     -11.278   6.345  67.523  1.00  0.00    -0.347 OA 
BRANCH  14  17
HETATM   17  C   UNL     1     -10.022   8.195  68.504  1.00  0.00    -0.204 A  
HETATM   18  C   UNL     1     -10.173  10.402  67.435  1.00  0.00    -0.259 A  
HETATM   19  H   UNL     1      -8.184  12.526  69.004  1.00  0.00     0.000 HD 
HETATM   20  C   UNL     1      -9.282  10.907  68.388  1.00  0.00    -0.168 A  
HETATM   21  C   UNL     1      -8.793  10.096  69.407  1.00  0.00    -0.197 A  
HETATM   22  O   UNL     1      -8.789  12.183  68.357  1.00  0.00    -0.181 OA 
HETATM   23  C   UNL     1      -9.146   8.744  69.453  1.00  0.00    -0.145 A  
HETATM   24  C   UNL     1     -10.533   9.043  67.504  1.00  0.00    -0.338 A  
BRANCH  18  25
HETATM   25  C   UNL     1     -10.746  11.206  66.317  1.00  0.00    -0.240 C  
HETATM   26  O   UNL     1     -10.382  11.057  65.157  1.00  0.00    -0.269 OA 
HETATM   27  H1  UNL     1     -12.112  12.672  65.849  1.00  0.00     0.000 HD 
HETATM   28  H2  UNL     1     -12.044  12.250  67.571  1.00  0.00     0.000 HD 
HETATM   29  N   UNL     1     -11.720  12.121  66.613  1.00  0.00    -0.352 N  
ENDBRANCH  18  25
ENDBRANCH  14  17
ENDBRANCH  13  14
ENDBRANCH  11  13
ENDBRANCH   2  11
TORSDOF 8
ENDMDL
MODEL       58
REMARK 921   NORMALIZED FREE ENERGY PREDICTED BY IDOCK:   -5.51 KCAL/MOL
REMARK 922        TOTAL FREE ENERGY PREDICTED BY IDOCK:   -9.64 KCAL/MOL
REMARK 923 INTER-LIGAND FREE ENERGY PREDICTED BY IDOCK:   -8.72 KCAL/MOL
REMARK 924 INTRA-LIGAND FREE ENERGY PREDICTED BY IDOCK:   -0.92 KCAL/MOL
REMARK 927      BINDING AFFINITY PREDICTED BY RF-SCORE:    0.00 PKD
ROOT
HETATM    1  C   UNL     1      -7.795   9.976  70.169  1.00  0.00    -0.141 C  
HETATM    2  C   UNL     1      -8.277  10.564  68.837  1.00  0.00    -0.141 C  
ENDROOT
BRANCH   2   3
HETATM    3  C   UNL     1      -9.753  10.163  68.616  1.00  0.00    -0.167 C  
BRANCH   3   4
HETATM    4  C   UNL     1     -10.750  11.055  69.365  1.00  0.00    -0.247 C  
BRANCH   4   5
HETATM    5  C   UNL     1     -11.538  10.276  70.394  1.00  0.00    -0.411 A  
HETATM    6  C   UNL     1     -11.175   8.967  70.739  1.00  0.00    -0.329 A  
HETATM    7  C   UNL     1     -11.908   8.256  71.690  1.00  0.00    -0.345 A  
HETATM    8  C   UNL     1     -12.640  10.862  71.033  1.00  0.00    -0.517 A  
HETATM    9  C   UNL     1     -13.009   8.846  72.312  1.00  0.00    -0.479 A  
HETATM   10  C   UNL     1     -13.373  10.150  71.984  1.00  0.00    -0.492 A  
ENDBRANCH   4   5
ENDBRANCH   3   4
ENDBRANCH   2   3
BRANCH   2  11
HETATM   11  N   UNL     1      -8.145  12.025  68.788  1.00  0.00    -0.330 NA 
HETATM   12  H   UNL     1      -7.281  12.322  69.241  1.00  0.00     0.000 HD 
BRANCH  11  13
HETATM   13  C   UNL     1      -8.237  12.588  67.434  1.00  0.00    -0.183 C  
BRANCH  13  14
HETATM   14  C   UNL     1      -8.386  14.134  67.457  1.00  0.00    -0.185 C  
HETATM   15  H   UNL     1      -7.213  15.673  67.142  1.00  0.00     0.000 HD 
HETATM   16  O   UNL     1      -7.122  14.728  67.127  1.00  0.00    -0.192 OA 
BRANCH  14  17
HETATM   17  C   UNL     1      -9.484  14.619  66.518  1.00  0.00    -0.319 A  
HETATM   18  C   UNL     1     -11.369  14.193  65.001  1.00  0.00    -0.350 A  
HETATM   19  H   UNL     1     -12.269  17.018  63.538  1.00  0.00     0.000 HD 
HETATM   20  C   UNL     1     -11.409  15.557  64.692  1.00  0.00    -0.357 A  
HETATM   21  C   UNL     1     -10.537  16.451  65.304  1.00  0.00    -0.320 A  
HETATM   22  O   UNL     1     -12.241  16.092  63.748  1.00  0.00    -0.934 OA 
HETATM   23  C   UNL     1      -9.568  15.983  66.197  1.00  0.00    -0.366 A  
HETATM   24  C   UNL     1     -10.400  13.737  65.914  1.00  0.00    -0.315 A  
BRANCH  18  25
HETATM   25  C   UNL     1     -12.272  13.172  64.394  1.00  0.00    -0.398 C  
HETATM   26  O   UNL     1     -13.334  12.854  64.914  1.00  0.00    -0.716 OA 
HETATM   27  H1  UNL     1     -12.509  11.898  62.796  1.00  0.00     0.000 HD 
HETATM   28  H2  UNL     1     -11.017  12.858  62.758  1.00  0.00     0.000 HD 
HETATM   29  N   UNL     1     -11.892  12.596  63.211  1.00  0.00    -0.489 N  
ENDBRANCH  18  25
ENDBRANCH  14  17
ENDBRANCH  13  14
ENDBRANCH  11  13
ENDBRANCH   2  11
TORSDOF 8
ENDMDL
MODEL       59
REMARK 921   NORMALIZED FREE ENERGY PREDICTED BY IDOCK:   -5.51 KCAL/MOL
REMARK 922        TOTAL FREE ENERGY PREDICTED BY IDOCK:   -9.64 KCAL/MOL
REMARK 923 INTER-LIGAND FREE ENERGY PREDICTED BY IDOCK:   -8.79 KCAL/MOL
REMARK 924 INTRA-LIGAND FREE ENERGY PREDICTED BY IDOCK:   -0.86 KCAL/MOL
REMARK 927      BINDING AFFINITY PREDICTED BY RF-SCORE:    0.00 PKD
ROOT
HETATM    1  C   UNL     1     -11.564   8.257  72.026  1.00  0.00    -0.403 C  
HETATM    2  C   UNL     1     -11.725   9.165  70.800  1.00  0.00    -0.256 C  
ENDROOT
BRANCH   2   3
HETATM    3  C   UNL     1     -12.398  10.485  71.238  1.00  0.00    -0.502 C  
BRANCH   3   4
HETATM    4  C   UNL     1     -12.042  11.680  70.346  1.00  0.00    -0.462 C  
BRANCH   4   5
HETATM    5  C   UNL     1     -12.605  12.974  70.889  1.00  0.00    -0.364 A  
HETATM    6  C   UNL     1     -13.385  12.987  72.052  1.00  0.00    -0.588 A  
HETATM    7  C   UNL     1     -13.902  14.186  72.546  1.00  0.00    -0.590 A  
HETATM    8  C   UNL     1     -12.340  14.188  70.239  1.00  0.00    -0.421 A  
HETATM    9  C   UNL     1     -13.640  15.387  71.886  1.00  0.00    -0.590 A  
HETATM   10  C   UNL     1     -12.857  15.387  70.733  1.00  0.00    -0.524 A  
ENDBRANCH   4   5
ENDBRANCH   3   4
ENDBRANCH   2   3
BRANCH   2  11
HETATM   11  N   UNL     1     -10.444   9.451  70.143  1.00  0.00    -0.221 NA 
HETATM   12  H   UNL     1      -9.678   8.991  70.634  1.00  0.00     0.000 HD 
BRANCH  11  13
HETATM   13  C   UNL     1     -10.417   9.113  68.713  1.00  0.00    -0.212 C  
BRANCH  13  14
HETATM   14  C   UNL     1      -9.294   9.873  67.958  1.00  0.00    -0.130 C  
HETATM   15  H   UNL     1      -7.594   9.401  67.101  1.00  0.00     0.000 HD 
HETATM   16  O   UNL     1      -8.282   8.936  67.563  1.00  0.00    -0.108 OA 
BRANCH  14  17
HETATM   17  C   UNL     1      -9.830  10.643  66.756  1.00  0.00    -0.240 A  
HETATM   18  C   UNL     1     -10.947  12.595  65.768  1.00  0.00    -0.313 A  
HETATM   19  H   UNL     1     -11.487  12.047  62.553  1.00  0.00     0.000 HD 
HETATM   20  C   UNL     1     -10.918  11.960  64.521  1.00  0.00    -0.322 A  
HETATM   21  C   UNL     1     -10.327  10.711  64.371  1.00  0.00    -0.347 A  
HETATM   22  O   UNL     1     -11.506  12.477  63.399  1.00  0.00    -0.472 OA 
HETATM   23  C   UNL     1      -9.803  10.048  65.485  1.00  0.00    -0.373 A  
HETATM   24  C   UNL     1     -10.400  11.924  66.877  1.00  0.00    -0.238 A  
BRANCH  18  25
HETATM   25  C   UNL     1     -11.555  13.935  66.010  1.00  0.00    -0.349 C  
HETATM   26  O   UNL     1     -10.896  14.882  66.423  1.00  0.00    -0.313 OA 
HETATM   27  H1  UNL     1     -13.304  15.014  65.908  1.00  0.00     0.000 HD 
HETATM   28  H2  UNL     1     -13.449  13.323  65.387  1.00  0.00     0.000 HD 
HETATM   29  N   UNL     1     -12.888  14.097  65.742  1.00  0.00    -0.447 N  
ENDBRANCH  18  25
ENDBRANCH  14  17
ENDBRANCH  13  14
ENDBRANCH  11  13
ENDBRANCH   2  11
TORSDOF 8
ENDMDL
MODEL       60
REMARK 921   NORMALIZED FREE ENERGY PREDICTED BY IDOCK:   -5.51 KCAL/MOL
REMARK 922        TOTAL FREE ENERGY PREDICTED BY IDOCK:   -9.64 KCAL/MOL
REMARK 923 INTER-LIGAND FREE ENERGY PREDICTED BY IDOCK:   -7.99 KCAL/MOL
REMARK 924 INTRA-LIGAND FREE ENERGY PREDICTED BY IDOCK:   -1.65 KCAL/MOL
REMARK 927      BINDING AFFINITY PREDICTED BY RF-SCORE:    0.00 PKD
ROOT
HETATM    1  C   UNL     1      -6.872   9.897  68.022  1.00  0.00    -0.072 C  
HETATM    2  C   UNL     1      -8.395   9.751  68.132  1.00  0.00    -0.110 C  
ENDROOT
BRANCH   2   3
HETATM    3  C   UNL     1      -8.836  10.147  69.559  1.00  0.00    -0.198 C  
BRANCH   3   4
HETATM    4  C   UNL     1      -8.591   9.052  70.603  1.00  0.00    -0.245 C  
BRANCH   4   5
HETATM    5  C   UNL     1      -9.871   8.339  70.980  1.00  0.00    -0.225 A  
HETATM    6  C   UNL     1     -10.589   7.600  70.030  1.00  0.00    -0.240 A  
HETATM    7  C   UNL     1     -11.770   6.946  70.387  1.00  0.00    -0.377 A  
HETATM    8  C   UNL     1     -10.350   8.396  72.296  1.00  0.00    -0.403 A  
HETATM    9  C   UNL     1     -12.243   7.017  71.697  1.00  0.00    -0.395 A  
HETATM   10  C   UNL     1     -11.531   7.741  72.652  1.00  0.00    -0.430 A  
ENDBRANCH   4   5
ENDBRANCH   3   4
ENDBRANCH   2   3
BRANCH   2  11
HETATM   11  N   UNL     1      -9.110  10.569  67.144  1.00  0.00    -0.143 NA 
HETATM   12  H   UNL     1      -8.852  10.293  66.197  1.00  0.00     0.000 HD 
BRANCH  11  13
HETATM   13  C   UNL     1     -10.571  10.558  67.304  1.00  0.00    -0.264 C  
BRANCH  13  14
HETATM   14  C   UNL     1     -11.152  11.993  67.422  1.00  0.00    -0.281 C  
HETATM   15  H   UNL     1     -12.448  13.081  66.431  1.00  0.00     0.000 HD 
HETATM   16  O   UNL     1     -12.093  12.203  66.359  1.00  0.00    -0.630 OA 
BRANCH  14  17
HETATM   17  C   UNL     1     -11.793  12.243  68.782  1.00  0.00    -0.356 A  
HETATM   18  C   UNL     1     -12.607  13.754  70.539  1.00  0.00    -0.361 A  
HETATM   19  H   UNL     1     -13.459  11.993  73.204  1.00  0.00     0.000 HD 
HETATM   20  C   UNL     1     -12.861  12.646  71.354  1.00  0.00    -0.261 A  
HETATM   21  C   UNL     1     -12.628  11.355  70.893  1.00  0.00    -0.453 A  
HETATM   22  O   UNL     1     -13.287  12.746  72.650  1.00  0.00    -0.418 OA 
HETATM   23  C   UNL     1     -12.079  11.155  69.623  1.00  0.00    -0.406 A  
HETATM   24  C   UNL     1     -12.072  13.539  69.255  1.00  0.00    -0.335 A  
BRANCH  18  25
HETATM   25  C   UNL     1     -12.836  15.169  70.956  1.00  0.00    -0.412 C  
HETATM   26  O   UNL     1     -13.961  15.629  71.100  1.00  0.00    -0.564 OA 
HETATM   27  H1  UNL     1     -11.897  16.923  71.480  1.00  0.00     0.000 HD 
HETATM   28  H2  UNL     1     -10.796  15.586  71.092  1.00  0.00     0.000 HD 
HETATM   29  N   UNL     1     -11.741  15.956  71.196  1.00  0.00    -0.410 N  
ENDBRANCH  18  25
ENDBRANCH  14  17
ENDBRANCH  13  14
ENDBRANCH  11  13
ENDBRANCH   2  11
TORSDOF 8
ENDMDL
MODEL       61
REMARK 921   NORMALIZED FREE ENERGY PREDICTED BY IDOCK:   -5.50 KCAL/MOL
REMARK 922        TOTAL FREE ENERGY PREDICTED BY IDOCK:   -9.63 KCAL/MOL
REMARK 923 INTER-LIGAND FREE ENERGY PREDICTED BY IDOCK:   -8.34 KCAL/MOL
REMARK 924 INTRA-LIGAND FREE ENERGY PREDICTED BY IDOCK:   -1.29 KCAL/MOL
REMARK 927      BINDING AFFINITY PREDICTED BY RF-SCORE:    0.00 PKD
ROOT
HETATM    1  C   UNL     1      -7.716   8.078  67.149  1.00  0.00    -0.101 C  
HETATM    2  C   UNL     1      -8.974   7.698  66.358  1.00  0.00    -0.167 C  
ENDROOT
BRANCH   2   3
HETATM    3  C   UNL     1     -10.222   8.048  67.201  1.00  0.00    -0.362 C  
BRANCH   3   4
HETATM    4  C   UNL     1      -9.924   8.982  68.380  1.00  0.00    -0.200 C  
BRANCH   4   5
HETATM    5  C   UNL     1     -10.594   8.512  69.652  1.00  0.00    -0.221 A  
HETATM    6  C   UNL     1     -10.715   9.364  70.758  1.00  0.00    -0.373 A  
HETATM    7  C   UNL     1     -11.335   8.922  71.928  1.00  0.00    -0.446 A  
HETATM    8  C   UNL     1     -11.119   7.215  69.737  1.00  0.00    -0.239 A  
HETATM    9  C   UNL     1     -11.845   7.627  72.004  1.00  0.00    -0.342 A  
HETATM   10  C   UNL     1     -11.738   6.774  70.907  1.00  0.00    -0.424 A  
ENDBRANCH   4   5
ENDBRANCH   3   4
ENDBRANCH   2   3
BRANCH   2  11
HETATM   11  N   UNL     1      -9.045   8.374  65.058  1.00  0.00    -0.400 NA 
HETATM   12  H   UNL     1     -10.016   8.534  64.789  1.00  0.00     0.000 HD 
BRANCH  11  13
HETATM   13  C   UNL     1      -8.279   9.627  64.992  1.00  0.00    -0.136 C  
BRANCH  13  14
HETATM   14  C   UNL     1      -8.794  10.564  63.867  1.00  0.00    -0.194 C  
HETATM   15  H   UNL     1      -9.516  10.338  62.057  1.00  0.00     0.000 HD 
HETATM   16  O   UNL     1      -9.202   9.765  62.747  1.00  0.00    -0.273 OA 
BRANCH  14  17
HETATM   17  C   UNL     1      -9.929  11.463  64.343  1.00  0.00    -0.321 A  
HETATM   18  C   UNL     1     -11.416  12.310  66.105  1.00  0.00    -0.429 A  
HETATM   19  H   UNL     1     -13.718  14.265  64.762  1.00  0.00     0.000 HD 
HETATM   20  C   UNL     1     -12.114  13.046  65.142  1.00  0.00    -0.433 A  
HETATM   21  C   UNL     1     -11.716  13.032  63.809  1.00  0.00    -0.547 A  
HETATM   22  O   UNL     1     -13.244  13.766  65.416  1.00  0.00    -0.722 OA 
HETATM   23  C   UNL     1     -10.643  12.231  63.409  1.00  0.00    -0.427 A  
HETATM   24  C   UNL     1     -10.326  11.522  65.692  1.00  0.00    -0.308 A  
BRANCH  18  25
HETATM   25  C   UNL     1     -11.774  12.277  67.553  1.00  0.00    -0.332 C  
HETATM   26  O   UNL     1     -12.238  11.276  68.084  1.00  0.00    -0.622 OA 
HETATM   27  H1  UNL     1     -11.799  13.382  69.289  1.00  0.00     0.000 HD 
HETATM   28  H2  UNL     1     -11.158  14.243  67.876  1.00  0.00     0.000 HD 
HETATM   29  N   UNL     1     -11.554  13.405  68.299  1.00  0.00    -0.321 N  
ENDBRANCH  18  25
ENDBRANCH  14  17
ENDBRANCH  13  14
ENDBRANCH  11  13
ENDBRANCH   2  11
TORSDOF 8
ENDMDL
MODEL       62
REMARK 921   NORMALIZED FREE ENERGY PREDICTED BY IDOCK:   -5.50 KCAL/MOL
REMARK 922        TOTAL FREE ENERGY PREDICTED BY IDOCK:   -9.63 KCAL/MOL
REMARK 923 INTER-LIGAND FREE ENERGY PREDICTED BY IDOCK:   -8.35 KCAL/MOL
REMARK 924 INTRA-LIGAND FREE ENERGY PREDICTED BY IDOCK:   -1.28 KCAL/MOL
REMARK 927      BINDING AFFINITY PREDICTED BY RF-SCORE:    0.00 PKD
ROOT
HETATM    1  C   UNL     1      -8.732  10.354  63.881  1.00  0.00    -0.202 C  
HETATM    2  C   UNL     1     -10.045  10.414  64.671  1.00  0.00    -0.308 C  
ENDROOT
BRANCH   2   3
HETATM    3  C   UNL     1      -9.782  11.098  66.032  1.00  0.00    -0.263 C  
BRANCH   3   4
HETATM    4  C   UNL     1      -9.307  10.131  67.123  1.00  0.00    -0.176 C  
BRANCH   4   5
HETATM    5  C   UNL     1     -10.165  10.221  68.365  1.00  0.00    -0.189 A  
HETATM    6  C   UNL     1      -9.783   9.580  69.551  1.00  0.00    -0.201 A  
HETATM    7  C   UNL     1     -10.582   9.668  70.693  1.00  0.00    -0.386 A  
HETATM    8  C   UNL     1     -11.354  10.964  68.351  1.00  0.00    -0.370 A  
HETATM    9  C   UNL     1     -11.767  10.402  70.664  1.00  0.00    -0.444 A  
HETATM   10  C   UNL     1     -12.152  11.052  69.493  1.00  0.00    -0.400 A  
ENDBRANCH   4   5
ENDBRANCH   3   4
ENDBRANCH   2   3
BRANCH   2  11
HETATM   11  N   UNL     1     -11.103  11.131  63.949  1.00  0.00    -0.486 NA 
HETATM   12  H   UNL     1     -12.005  10.989  64.402  1.00  0.00     0.000 HD 
BRANCH  11  13
HETATM   13  C   UNL     1     -10.836  12.565  63.767  1.00  0.00    -0.446 C  
BRANCH  13  14
HETATM   14  C   UNL     1     -11.971  13.445  64.356  1.00  0.00    -0.411 C  
HETATM   15  H   UNL     1     -13.639  13.133  65.340  1.00  0.00     0.000 HD 
HETATM   16  O   UNL     1     -12.944  12.594  64.979  1.00  0.00    -0.812 OA 
BRANCH  14  17
HETATM   17  C   UNL     1     -11.440  14.485  65.336  1.00  0.00    -0.348 A  
HETATM   18  C   UNL     1     -11.114  15.328  67.620  1.00  0.00    -0.323 A  
HETATM   19  H   UNL     1      -9.809  18.363  67.501  1.00  0.00     0.000 HD 
HETATM   20  C   UNL     1     -10.556  16.497  67.092  1.00  0.00    -0.270 A  
HETATM   21  C   UNL     1     -10.401  16.656  65.720  1.00  0.00    -0.338 A  
HETATM   22  O   UNL     1     -10.188  17.569  67.859  1.00  0.00    -0.315 OA 
HETATM   23  C   UNL     1     -10.858  15.664  64.846  1.00  0.00    -0.438 A  
HETATM   24  C   UNL     1     -11.554  14.330  66.730  1.00  0.00    -0.407 A  
BRANCH  18  25
HETATM   25  C   UNL     1     -11.309  15.078  69.078  1.00  0.00    -0.290 C  
HETATM   26  O   UNL     1     -12.383  14.707  69.535  1.00  0.00    -0.280 OA 
HETATM   27  H1  UNL     1     -10.372  15.088  70.910  1.00  0.00     0.000 HD 
HETATM   28  H2  UNL     1      -9.334  15.556  69.548  1.00  0.00     0.000 HD 
HETATM   29  N   UNL     1     -10.238  15.259  69.913  1.00  0.00    -0.250 N  
ENDBRANCH  18  25
ENDBRANCH  14  17
ENDBRANCH  13  14
ENDBRANCH  11  13
ENDBRANCH   2  11
TORSDOF 8
ENDMDL
MODEL       63
REMARK 921   NORMALIZED FREE ENERGY PREDICTED BY IDOCK:   -5.49 KCAL/MOL
REMARK 922        TOTAL FREE ENERGY PREDICTED BY IDOCK:   -9.62 KCAL/MOL
REMARK 923 INTER-LIGAND FREE ENERGY PREDICTED BY IDOCK:   -8.61 KCAL/MOL
REMARK 924 INTRA-LIGAND FREE ENERGY PREDICTED BY IDOCK:   -1.01 KCAL/MOL
REMARK 927      BINDING AFFINITY PREDICTED BY RF-SCORE:    0.00 PKD
ROOT
HETATM    1  C   UNL     1      -7.662  14.393  68.858  1.00  0.00    -0.128 C  
HETATM    2  C   UNL     1      -8.952  14.920  68.218  1.00  0.00    -0.177 C  
ENDROOT
BRANCH   2   3
HETATM    3  C   UNL     1     -10.044  15.031  69.306  1.00  0.00    -0.236 C  
BRANCH   3   4
HETATM    4  C   UNL     1     -11.063  13.887  69.273  1.00  0.00    -0.261 C  
BRANCH   4   5
HETATM    5  C   UNL     1     -12.126  14.050  70.336  1.00  0.00    -0.426 A  
HETATM    6  C   UNL     1     -12.548  12.957  71.105  1.00  0.00    -0.373 A  
HETATM    7  C   UNL     1     -13.531  13.117  72.083  1.00  0.00    -0.653 A  
HETATM    8  C   UNL     1     -12.696  15.308  70.578  1.00  0.00    -0.440 A  
HETATM    9  C   UNL     1     -14.098  14.371  72.309  1.00  0.00    -0.609 A  
HETATM   10  C   UNL     1     -13.678  15.467  71.557  1.00  0.00    -0.601 A  
ENDBRANCH   4   5
ENDBRANCH   3   4
ENDBRANCH   2   3
BRANCH   2  11
HETATM   11  N   UNL     1      -8.764  16.220  67.565  1.00  0.00    -0.180 NA 
HETATM   12  H   UNL     1      -7.835  16.590  67.763  1.00  0.00     0.000 HD 
BRANCH  11  13
HETATM   13  C   UNL     1      -9.014  16.204  66.116  1.00  0.00    -0.337 C  
BRANCH  13  14
HETATM   14  C   UNL     1     -10.532  16.199  65.789  1.00  0.00    -0.367 C  
HETATM   15  H   UNL     1     -11.751  17.293  64.712  1.00  0.00     0.000 HD 
HETATM   16  O   UNL     1     -10.823  17.296  64.912  1.00  0.00    -0.773 OA 
BRANCH  14  17
HETATM   17  C   UNL     1     -10.984  14.875  65.183  1.00  0.00    -0.410 A  
HETATM   18  C   UNL     1     -10.693  12.466  64.804  1.00  0.00    -0.332 A  
HETATM   19  H   UNL     1     -12.940  11.413  62.619  1.00  0.00     0.000 HD 
HETATM   20  C   UNL     1     -11.789  12.486  63.935  1.00  0.00    -0.463 A  
HETATM   21  C   UNL     1     -12.502  13.659  63.715  1.00  0.00    -0.262 A  
HETATM   22  O   UNL     1     -12.195  11.399  63.209  1.00  0.00    -0.196 OA 
HETATM   23  C   UNL     1     -12.090  14.850  64.320  1.00  0.00    -0.373 A  
HETATM   24  C   UNL     1     -10.300  13.668  65.420  1.00  0.00    -0.345 A  
BRANCH  18  25
HETATM   25  C   UNL     1      -9.881  11.249  65.098  1.00  0.00    -0.252 C  
HETATM   26  O   UNL     1      -8.947  10.904  64.385  1.00  0.00    -0.179 OA 
HETATM   27  H1  UNL     1      -9.640   9.685  66.414  1.00  0.00     0.000 HD 
HETATM   28  H2  UNL     1     -10.961  10.797  66.824  1.00  0.00     0.000 HD 
HETATM   29  N   UNL     1     -10.194  10.518  66.212  1.00  0.00    -0.237 N  
ENDBRANCH  18  25
ENDBRANCH  14  17
ENDBRANCH  13  14
ENDBRANCH  11  13
ENDBRANCH   2  11
TORSDOF 8
ENDMDL
MODEL       64
REMARK 921   NORMALIZED FREE ENERGY PREDICTED BY IDOCK:   -5.47 KCAL/MOL
REMARK 922        TOTAL FREE ENERGY PREDICTED BY IDOCK:   -9.59 KCAL/MOL
REMARK 923 INTER-LIGAND FREE ENERGY PREDICTED BY IDOCK:   -8.45 KCAL/MOL
REMARK 924 INTRA-LIGAND FREE ENERGY PREDICTED BY IDOCK:   -1.14 KCAL/MOL
REMARK 927      BINDING AFFINITY PREDICTED BY RF-SCORE:    0.00 PKD
ROOT
HETATM    1  C   UNL     1      -8.384  16.211  67.863  1.00  0.00    -0.165 C  
HETATM    2  C   UNL     1      -9.662  15.421  68.170  1.00  0.00    -0.212 C  
ENDROOT
BRANCH   2   3
HETATM    3  C   UNL     1     -10.606  16.304  69.018  1.00  0.00    -0.286 C  
BRANCH   3   4
HETATM    4  C   UNL     1     -12.014  15.719  69.179  1.00  0.00    -0.312 C  
BRANCH   4   5
HETATM    5  C   UNL     1     -12.322  15.383  70.620  1.00  0.00    -0.451 A  
HETATM    6  C   UNL     1     -13.125  14.282  70.947  1.00  0.00    -0.368 A  
HETATM    7  C   UNL     1     -13.404  13.980  72.281  1.00  0.00    -0.574 A  
HETATM    8  C   UNL     1     -11.793  16.166  71.657  1.00  0.00    -0.557 A  
HETATM    9  C   UNL     1     -12.880  14.771  73.304  1.00  0.00    -0.621 A  
HETATM   10  C   UNL     1     -12.073  15.863  72.990  1.00  0.00    -0.615 A  
ENDBRANCH   4   5
ENDBRANCH   3   4
ENDBRANCH   2   3
BRANCH   2  11
HETATM   11  N   UNL     1     -10.353  14.977  66.954  1.00  0.00    -0.262 NA 
HETATM   12  H   UNL     1     -10.004  15.481  66.139  1.00  0.00     0.000 HD 
BRANCH  11  13
HETATM   13  C   UNL     1     -10.293  13.526  66.728  1.00  0.00    -0.264 C  
BRANCH  13  14
HETATM   14  C   UNL     1     -11.603  12.815  67.162  1.00  0.00    -0.364 C  
HETATM   15  H   UNL     1     -13.175  12.069  66.257  1.00  0.00     0.000 HD 
HETATM   16  O   UNL     1     -12.373  12.504  65.992  1.00  0.00    -0.615 OA 
BRANCH  14  17
HETATM   17  C   UNL     1     -11.331  11.566  67.991  1.00  0.00    -0.368 A  
HETATM   18  C   UNL     1     -10.656   9.212  68.187  1.00  0.00    -0.235 A  
HETATM   19  H   UNL     1     -11.129   8.183  71.293  1.00  0.00     0.000 HD 
HETATM   20  C   UNL     1     -10.968   9.252  69.551  1.00  0.00    -0.151 A  
HETATM   21  C   UNL     1     -11.416  10.427  70.144  1.00  0.00    -0.396 A  
HETATM   22  O   UNL     1     -10.917   8.156  70.368  1.00  0.00    -0.246 OA 
HETATM   23  C   UNL     1     -11.614  11.571  69.366  1.00  0.00    -0.388 A  
HETATM   24  C   UNL     1     -10.844  10.376  67.419  1.00  0.00    -0.344 A  
BRANCH  18  25
HETATM   25  C   UNL     1     -10.166   7.995  67.477  1.00  0.00    -0.245 C  
HETATM   26  O   UNL     1     -10.859   6.993  67.351  1.00  0.00    -0.285 OA 
HETATM   27  H1  UNL     1      -8.570   7.192  66.456  1.00  0.00     0.000 HD 
HETATM   28  H2  UNL     1      -8.319   8.854  67.027  1.00  0.00     0.000 HD 
HETATM   29  N   UNL     1      -8.906   8.024  66.942  1.00  0.00    -0.128 N  
ENDBRANCH  18  25
ENDBRANCH  14  17
ENDBRANCH  13  14
ENDBRANCH  11  13
ENDBRANCH   2  11
TORSDOF 8
ENDMDL
MODEL       65
REMARK 921   NORMALIZED FREE ENERGY PREDICTED BY IDOCK:   -5.45 KCAL/MOL
REMARK 922        TOTAL FREE ENERGY PREDICTED BY IDOCK:   -9.55 KCAL/MOL
REMARK 923 INTER-LIGAND FREE ENERGY PREDICTED BY IDOCK:   -8.88 KCAL/MOL
REMARK 924 INTRA-LIGAND FREE ENERGY PREDICTED BY IDOCK:   -0.67 KCAL/MOL
REMARK 927      BINDING AFFINITY PREDICTED BY RF-SCORE:    0.00 PKD
ROOT
HETATM    1  C   UNL     1     -11.987  14.062  66.429  1.00  0.00    -0.462 C  
HETATM    2  C   UNL     1     -10.672  14.668  66.934  1.00  0.00    -0.294 C  
ENDROOT
BRANCH   2   3
HETATM    3  C   UNL     1     -10.102  15.607  65.847  1.00  0.00    -0.378 C  
BRANCH   3   4
HETATM    4  C   UNL     1      -8.858  16.381  66.296  1.00  0.00    -0.367 C  
BRANCH   4   5
HETATM    5  C   UNL     1      -9.166  17.838  66.558  1.00  0.00    -0.280 A  
HETATM    6  C   UNL     1     -10.365  18.412  66.112  1.00  0.00    -0.431 A  
HETATM    7  C   UNL     1     -10.641  19.758  66.358  1.00  0.00    -0.575 A  
HETATM    8  C   UNL     1      -8.258  18.637  67.268  1.00  0.00    -0.261 A  
HETATM    9  C   UNL     1      -9.725  20.545  67.057  1.00  0.00    -0.548 A  
HETATM   10  C   UNL     1      -8.535  19.982  67.513  1.00  0.00    -0.393 A  
ENDBRANCH   4   5
ENDBRANCH   3   4
ENDBRANCH   2   3
BRANCH   2  11
HETATM   11  N   UNL     1     -10.840  15.404  68.192  1.00  0.00    -0.274 NA 
HETATM   12  H   UNL     1     -10.531  16.370  68.085  1.00  0.00     0.000 HD 
BRANCH  11  13
HETATM   13  C   UNL     1     -12.205  15.356  68.736  1.00  0.00    -0.030 C  
BRANCH  13  14
HETATM   14  C   UNL     1     -12.211  15.085  70.264  1.00  0.00    -0.340 C  
HETATM   15  H   UNL     1     -13.295  15.652  71.797  1.00  0.00     0.000 HD 
HETATM   16  O   UNL     1     -13.291  15.817  70.862  1.00  0.00    -0.576 OA 
BRANCH  14  17
HETATM   17  C   UNL     1     -12.311  13.598  70.583  1.00  0.00    -0.440 A  
HETATM   18  C   UNL     1     -11.899  11.241  70.030  1.00  0.00    -0.448 A  
HETATM   19  H   UNL     1     -13.435   9.305  72.225  1.00  0.00     0.000 HD 
HETATM   20  C   UNL     1     -12.638  10.863  71.155  1.00  0.00    -0.428 A  
HETATM   21  C   UNL     1     -13.177  11.820  72.008  1.00  0.00    -0.460 A  
HETATM   22  O   UNL     1     -12.933   9.562  71.461  1.00  0.00    -0.342 OA 
HETATM   23  C   UNL     1     -13.031  13.179  71.713  1.00  0.00    -0.435 A  
HETATM   24  C   UNL     1     -11.744  12.612  69.754  1.00  0.00    -0.354 A  
BRANCH  18  25
HETATM   25  C   UNL     1     -11.284  10.277  69.070  1.00  0.00    -0.208 C  
HETATM   26  O   UNL     1     -11.508  10.327  67.867  1.00  0.00    -0.346 OA 
HETATM   27  H1  UNL     1     -10.013   8.667  68.911  1.00  0.00     0.000 HD 
HETATM   28  H2  UNL     1     -10.226   9.277  70.564  1.00  0.00     0.000 HD 
HETATM   29  N   UNL     1     -10.433   9.326  69.567  1.00  0.00    -0.214 N  
ENDBRANCH  18  25
ENDBRANCH  14  17
ENDBRANCH  13  14
ENDBRANCH  11  13
ENDBRANCH   2  11
TORSDOF 8
ENDMDL
MODEL       66
REMARK 921   NORMALIZED FREE ENERGY PREDICTED BY IDOCK:   -5.44 KCAL/MOL
REMARK 922        TOTAL FREE ENERGY PREDICTED BY IDOCK:   -9.54 KCAL/MOL
REMARK 923 INTER-LIGAND FREE ENERGY PREDICTED BY IDOCK:   -8.57 KCAL/MOL
REMARK 924 INTRA-LIGAND FREE ENERGY PREDICTED BY IDOCK:   -0.98 KCAL/MOL
REMARK 927      BINDING AFFINITY PREDICTED BY RF-SCORE:    0.00 PKD
ROOT
HETATM    1  C   UNL     1     -11.960  13.400  67.400  1.00  0.00    -0.391 C  
HETATM    2  C   UNL     1     -10.688  13.509  68.249  1.00  0.00    -0.258 C  
ENDROOT
BRANCH   2   3
HETATM    3  C   UNL     1     -10.645  14.905  68.912  1.00  0.00    -0.247 C  
BRANCH   3   4
HETATM    4  C   UNL     1     -12.031  15.469  69.245  1.00  0.00    -0.338 C  
BRANCH   4   5
HETATM    5  C   UNL     1     -12.357  15.327  70.715  1.00  0.00    -0.433 A  
HETATM    6  C   UNL     1     -11.750  16.154  71.670  1.00  0.00    -0.558 A  
HETATM    7  C   UNL     1     -12.057  16.015  73.024  1.00  0.00    -0.628 A  
HETATM    8  C   UNL     1     -13.289  14.370  71.143  1.00  0.00    -0.392 A  
HETATM    9  C   UNL     1     -12.978  15.054  73.440  1.00  0.00    -0.622 A  
HETATM   10  C   UNL     1     -13.595  14.233  72.498  1.00  0.00    -0.620 A  
ENDBRANCH   4   5
ENDBRANCH   3   4
ENDBRANCH   2   3
BRANCH   2  11
HETATM   11  N   UNL     1     -10.609  12.466  69.278  1.00  0.00    -0.432 NA 
HETATM   12  H   UNL     1     -10.427  12.878  70.193  1.00  0.00     0.000 HD 
BRANCH  11  13
HETATM   13  C   UNL     1     -11.788  11.590  69.333  1.00  0.00    -0.350 C  
BRANCH  13  14
HETATM   14  C   UNL     1     -11.891  10.840  70.688  1.00  0.00    -0.360 C  
HETATM   15  H   UNL     1     -13.328  10.361  71.935  1.00  0.00     0.000 HD 
HETATM   16  O   UNL     1     -13.264  10.820  71.105  1.00  0.00    -0.324 OA 
BRANCH  14  17
HETATM   17  C   UNL     1     -11.319   9.429  70.609  1.00  0.00    -0.352 A  
HETATM   18  C   UNL     1     -10.786   7.257  71.625  1.00  0.00    -0.239 A  
HETATM   19  H   UNL     1      -9.003   5.454  69.503  1.00  0.00     0.000 HD 
HETATM   20  C   UNL     1     -10.133   6.883  70.445  1.00  0.00    -0.187 A  
HETATM   21  C   UNL     1     -10.100   7.737  69.348  1.00  0.00    -0.195 A  
HETATM   22  O   UNL     1      -9.446   5.708  70.304  1.00  0.00    -0.154 OA 
HETATM   23  C   UNL     1     -10.672   9.010  69.436  1.00  0.00    -0.202 A  
HETATM   24  C   UNL     1     -11.373   8.534  71.694  1.00  0.00    -0.362 A  
BRANCH  18  25
HETATM   25  C   UNL     1     -10.872   6.398  72.841  1.00  0.00    -0.256 C  
HETATM   26  O   UNL     1     -11.439   5.313  72.830  1.00  0.00    -0.307 OA 
HETATM   27  H1  UNL     1     -10.338   6.258  74.823  1.00  0.00     0.000 HD 
HETATM   28  H2  UNL     1      -9.792   7.741  74.015  1.00  0.00     0.000 HD 
HETATM   29  N   UNL     1     -10.279   6.846  73.991  1.00  0.00    -0.361 N  
ENDBRANCH  18  25
ENDBRANCH  14  17
ENDBRANCH  13  14
ENDBRANCH  11  13
ENDBRANCH   2  11
TORSDOF 8
ENDMDL
MODEL       67
REMARK 921   NORMALIZED FREE ENERGY PREDICTED BY IDOCK:   -5.43 KCAL/MOL
REMARK 922        TOTAL FREE ENERGY PREDICTED BY IDOCK:   -9.53 KCAL/MOL
REMARK 923 INTER-LIGAND FREE ENERGY PREDICTED BY IDOCK:   -7.99 KCAL/MOL
REMARK 924 INTRA-LIGAND FREE ENERGY PREDICTED BY IDOCK:   -1.53 KCAL/MOL
REMARK 927      BINDING AFFINITY PREDICTED BY RF-SCORE:    0.00 PKD
ROOT
HETATM    1  C   UNL     1     -13.472   9.394  72.193  1.00  0.00    -0.543 C  
HETATM    2  C   UNL     1     -13.010  10.047  70.885  1.00  0.00    -0.318 C  
ENDROOT
BRANCH   2   3
HETATM    3  C   UNL     1     -12.395  11.429  71.204  1.00  0.00    -0.404 C  
BRANCH   3   4
HETATM    4  C   UNL     1     -13.351  12.370  71.944  1.00  0.00    -0.450 C  
BRANCH   4   5
HETATM    5  C   UNL     1     -12.781  13.765  72.072  1.00  0.00    -0.321 A  
HETATM    6  C   UNL     1     -12.817  14.448  73.295  1.00  0.00    -0.413 A  
HETATM    7  C   UNL     1     -12.288  15.735  73.403  1.00  0.00    -0.638 A  
HETATM    8  C   UNL     1     -12.191  14.391  70.964  1.00  0.00    -0.422 A  
HETATM    9  C   UNL     1     -11.713  16.352  72.292  1.00  0.00    -0.463 A  
HETATM   10  C   UNL     1     -11.663  15.679  71.074  1.00  0.00    -0.444 A  
ENDBRANCH   4   5
ENDBRANCH   3   4
ENDBRANCH   2   3
BRANCH   2  11
HETATM   11  N   UNL     1     -12.036   9.223  70.160  1.00  0.00    -0.454 NA 
HETATM   12  H   UNL     1     -12.313   9.114  69.185  1.00  0.00     0.000 HD 
BRANCH  11  13
HETATM   13  C   UNL     1     -10.653   9.713  70.250  1.00  0.00    -0.278 C  
BRANCH  13  14
HETATM   14  C   UNL     1     -10.020   9.929  68.849  1.00  0.00    -0.181 C  
HETATM   15  H   UNL     1     -10.100   9.031  67.107  1.00  0.00     0.000 HD 
HETATM   16  O   UNL     1     -10.487   8.900  67.965  1.00  0.00    -0.220 OA 
BRANCH  14  17
HETATM   17  C   UNL     1     -10.323  11.314  68.290  1.00  0.00    -0.200 A  
HETATM   18  C   UNL     1      -9.746  13.678  67.954  1.00  0.00    -0.234 A  
HETATM   19  H   UNL     1     -12.290  15.245  66.538  1.00  0.00     0.000 HD 
HETATM   20  C   UNL     1     -10.991  13.880  67.349  1.00  0.00    -0.288 A  
HETATM   21  C   UNL     1     -11.879  12.823  67.176  1.00  0.00    -0.415 A  
HETATM   22  O   UNL     1     -11.444  15.107  66.949  1.00  0.00    -0.314 OA 
HETATM   23  C   UNL     1     -11.555  11.553  67.660  1.00  0.00    -0.320 A  
HETATM   24  C   UNL     1      -9.425  12.390  68.421  1.00  0.00    -0.169 A  
BRANCH  18  25
HETATM   25  C   UNL     1      -8.737  14.755  68.171  1.00  0.00    -0.168 C  
HETATM   26  O   UNL     1      -9.020  15.806  68.733  1.00  0.00    -0.187 OA 
HETATM   27  H1  UNL     1      -6.767  15.275  67.885  1.00  0.00     0.000 HD 
HETATM   28  H2  UNL     1      -7.200  13.664  67.278  1.00  0.00     0.000 HD 
HETATM   29  N   UNL     1      -7.457  14.538  67.737  1.00  0.00    -0.151 N  
ENDBRANCH  18  25
ENDBRANCH  14  17
ENDBRANCH  13  14
ENDBRANCH  11  13
ENDBRANCH   2  11
TORSDOF 8
ENDMDL
MODEL       68
REMARK 921   NORMALIZED FREE ENERGY PREDICTED BY IDOCK:   -5.42 KCAL/MOL
REMARK 922        TOTAL FREE ENERGY PREDICTED BY IDOCK:   -9.50 KCAL/MOL
REMARK 923 INTER-LIGAND FREE ENERGY PREDICTED BY IDOCK:   -8.45 KCAL/MOL
REMARK 924 INTRA-LIGAND FREE ENERGY PREDICTED BY IDOCK:   -1.06 KCAL/MOL
REMARK 927      BINDING AFFINITY PREDICTED BY RF-SCORE:    0.00 PKD
ROOT
HETATM    1  C   UNL     1     -11.486  14.140  63.893  1.00  0.00     0.093 C  
HETATM    2  C   UNL     1     -11.104  14.462  65.343  1.00  0.00    -0.331 C  
ENDROOT
BRANCH   2   3
HETATM    3  C   UNL     1     -10.916  15.989  65.486  1.00  0.00    -0.215 C  
BRANCH   3   4
HETATM    4  C   UNL     1      -9.547  16.389  66.048  1.00  0.00    -0.352 C  
BRANCH   4   5
HETATM    5  C   UNL     1      -9.552  17.801  66.588  1.00  0.00    -0.311 A  
HETATM    6  C   UNL     1      -8.633  18.200  67.568  1.00  0.00    -0.249 A  
HETATM    7  C   UNL     1      -8.645  19.506  68.061  1.00  0.00    -0.365 A  
HETATM    8  C   UNL     1     -10.473  18.741  66.103  1.00  0.00    -0.499 A  
HETATM    9  C   UNL     1      -9.572  20.429  67.577  1.00  0.00    -0.560 A  
HETATM   10  C   UNL     1     -10.484  20.046  66.597  1.00  0.00    -0.519 A  
ENDBRANCH   4   5
ENDBRANCH   3   4
ENDBRANCH   2   3
BRANCH   2  11
HETATM   11  N   UNL     1     -12.108  13.991  66.305  1.00  0.00    -0.435 NA 
HETATM   12  H   UNL     1     -13.048  14.113  65.931  1.00  0.00     0.000 HD 
BRANCH  11  13
HETATM   13  C   UNL     1     -11.906  12.605  66.750  1.00  0.00    -0.370 C  
BRANCH  13  14
HETATM   14  C   UNL     1     -10.844  12.505  67.878  1.00  0.00    -0.222 C  
HETATM   15  H   UNL     1      -8.889  12.606  67.993  1.00  0.00     0.000 HD 
HETATM   16  O   UNL     1      -9.539  12.667  67.303  1.00  0.00    -0.195 OA 
BRANCH  14  17
HETATM   17  C   UNL     1     -11.087  13.523  68.986  1.00  0.00    -0.293 A  
HETATM   18  C   UNL     1     -12.385  14.366  70.893  1.00  0.00    -0.419 A  
HETATM   19  H   UNL     1     -11.219  17.324  71.800  1.00  0.00     0.000 HD 
HETATM   20  C   UNL     1     -11.564  15.499  70.931  1.00  0.00    -0.375 A  
HETATM   21  C   UNL     1     -10.499  15.637  70.047  1.00  0.00    -0.333 A  
HETATM   22  O   UNL     1     -11.777  16.555  71.775  1.00  0.00    -0.435 OA 
HETATM   23  C   UNL     1     -10.274  14.664  69.069  1.00  0.00    -0.222 A  
HETATM   24  C   UNL     1     -12.136  13.386  69.915  1.00  0.00    -0.389 A  
BRANCH  18  25
HETATM   25  C   UNL     1     -13.541  14.140  71.809  1.00  0.00    -0.399 C  
HETATM   26  O   UNL     1     -14.382  15.005  72.017  1.00  0.00    -0.488 OA 
HETATM   27  H1  UNL     1     -14.448  12.762  73.038  1.00  0.00     0.000 HD 
HETATM   28  H2  UNL     1     -12.973  12.180  72.240  1.00  0.00     0.000 HD 
HETATM   29  N   UNL     1     -13.657  12.916  72.412  1.00  0.00    -0.564 N  
ENDBRANCH  18  25
ENDBRANCH  14  17
ENDBRANCH  13  14
ENDBRANCH  11  13
ENDBRANCH   2  11
TORSDOF 8
ENDMDL
MODEL       69
REMARK 921   NORMALIZED FREE ENERGY PREDICTED BY IDOCK:   -5.41 KCAL/MOL
REMARK 922        TOTAL FREE ENERGY PREDICTED BY IDOCK:   -9.49 KCAL/MOL
REMARK 923 INTER-LIGAND FREE ENERGY PREDICTED BY IDOCK:   -8.19 KCAL/MOL
REMARK 924 INTRA-LIGAND FREE ENERGY PREDICTED BY IDOCK:   -1.31 KCAL/MOL
REMARK 927      BINDING AFFINITY PREDICTED BY RF-SCORE:    0.00 PKD
ROOT
HETATM    1  C   UNL     1      -8.257  14.036  68.275  1.00  0.00    -0.153 C  
HETATM    2  C   UNL     1      -8.500  15.340  67.506  1.00  0.00    -0.177 C  
ENDROOT
BRANCH   2   3
HETATM    3  C   UNL     1      -7.190  16.159  67.478  1.00  0.00    -0.188 C  
BRANCH   3   4
HETATM    4  C   UNL     1      -7.213  17.386  68.397  1.00  0.00    -0.223 C  
BRANCH   4   5
HETATM    5  C   UNL     1      -8.201  18.426  67.921  1.00  0.00    -0.273 A  
HETATM    6  C   UNL     1      -7.926  19.221  66.801  1.00  0.00    -0.285 A  
HETATM    7  C   UNL     1      -8.844  20.180  66.369  1.00  0.00    -0.332 A  
HETATM    8  C   UNL     1      -9.422  18.599  68.589  1.00  0.00    -0.396 A  
HETATM    9  C   UNL     1     -10.051  20.350  67.047  1.00  0.00    -0.507 A  
HETATM   10  C   UNL     1     -10.339  19.558  68.157  1.00  0.00    -0.550 A  
ENDBRANCH   4   5
ENDBRANCH   3   4
ENDBRANCH   2   3
BRANCH   2  11
HETATM   11  N   UNL     1      -8.971  15.104  66.136  1.00  0.00    -0.468 NA 
HETATM   12  H   UNL     1      -8.885  14.117  65.893  1.00  0.00     0.000 HD 
BRANCH  11  13
HETATM   13  C   UNL     1     -10.338  15.580  65.883  1.00  0.00    -0.347 C  
BRANCH  13  14
HETATM   14  C   UNL     1     -11.349  14.407  65.769  1.00  0.00    -0.330 C  
HETATM   15  H   UNL     1     -11.488  12.755  64.722  1.00  0.00     0.000 HD 
HETATM   16  O   UNL     1     -10.869  13.473  64.792  1.00  0.00    -0.337 OA 
BRANCH  14  17
HETATM   17  C   UNL     1     -11.591  13.726  67.111  1.00  0.00    -0.392 A  
HETATM   18  C   UNL     1     -12.098  13.810  69.513  1.00  0.00    -0.386 A  
HETATM   19  H   UNL     1     -11.796  10.785  70.812  1.00  0.00     0.000 HD 
HETATM   20  C   UNL     1     -11.899  12.427  69.588  1.00  0.00    -0.311 A  
HETATM   21  C   UNL     1     -11.590  11.690  68.450  1.00  0.00    -0.376 A  
HETATM   22  O   UNL     1     -11.931  11.724  70.761  1.00  0.00    -0.319 OA 
HETATM   23  C   UNL     1     -11.418  12.337  67.223  1.00  0.00    -0.426 A  
HETATM   24  C   UNL     1     -11.939  14.447  68.268  1.00  0.00    -0.323 A  
BRANCH  18  25
HETATM   25  C   UNL     1     -12.438  14.671  70.684  1.00  0.00    -0.344 C  
HETATM   26  O   UNL     1     -13.586  14.783  71.095  1.00  0.00    -0.385 OA 
HETATM   27  H1  UNL     1     -11.651  15.923  72.114  1.00  0.00     0.000 HD 
HETATM   28  H2  UNL     1     -10.456  15.242  70.993  1.00  0.00     0.000 HD 
HETATM   29  N   UNL     1     -11.419  15.334  71.314  1.00  0.00    -0.359 N  
ENDBRANCH  18  25
ENDBRANCH  14  17
ENDBRANCH  13  14
ENDBRANCH  11  13
ENDBRANCH   2  11
TORSDOF 8
ENDMDL
MODEL       70
REMARK 921   NORMALIZED FREE ENERGY PREDICTED BY IDOCK:   -5.39 KCAL/MOL
REMARK 922        TOTAL FREE ENERGY PREDICTED BY IDOCK:   -9.47 KCAL/MOL
REMARK 923 INTER-LIGAND FREE ENERGY PREDICTED BY IDOCK:   -8.27 KCAL/MOL
REMARK 924 INTRA-LIGAND FREE ENERGY PREDICTED BY IDOCK:   -1.20 KCAL/MOL
REMARK 927      BINDING AFFINITY PREDICTED BY RF-SCORE:    0.00 PKD
ROOT
HETATM    1  C   UNL     1     -12.319  12.797  65.258  1.00  0.00    -0.546 C  
HETATM    2  C   UNL     1     -11.207  13.111  66.266  1.00  0.00    -0.301 C  
ENDROOT
BRANCH   2   3
HETATM    3  C   UNL     1     -11.732  12.839  67.694  1.00  0.00    -0.422 C  
BRANCH   3   4
HETATM    4  C   UNL     1     -11.433  13.971  68.683  1.00  0.00    -0.337 C  
BRANCH   4   5
HETATM    5  C   UNL     1     -12.189  13.797  69.981  1.00  0.00    -0.407 A  
HETATM    6  C   UNL     1     -12.300  12.537  70.586  1.00  0.00    -0.369 A  
HETATM    7  C   UNL     1     -13.000  12.385  71.784  1.00  0.00    -0.422 A  
HETATM    8  C   UNL     1     -12.779  14.902  70.610  1.00  0.00    -0.422 A  
HETATM    9  C   UNL     1     -13.591  13.491  72.395  1.00  0.00    -0.709 A  
HETATM   10  C   UNL     1     -13.479  14.749  71.808  1.00  0.00    -0.470 A  
ENDBRANCH   4   5
ENDBRANCH   3   4
ENDBRANCH   2   3
BRANCH   2  11
HETATM   11  N   UNL     1      -9.991  12.325  66.024  1.00  0.00    -0.248 NA 
HETATM   12  H   UNL     1      -9.175  12.933  65.976  1.00  0.00     0.000 HD 
BRANCH  11  13
HETATM   13  C   UNL     1      -9.774  11.245  66.997  1.00  0.00    -0.186 C  
BRANCH  13  14
HETATM   14  C   UNL     1     -10.230   9.867  66.446  1.00  0.00    -0.222 C  
HETATM   15  H   UNL     1      -9.501   8.523  65.218  1.00  0.00     0.000 HD 
HETATM   16  O   UNL     1      -9.222   9.366  65.555  1.00  0.00    -0.200 OA 
BRANCH  14  17
HETATM   17  C   UNL     1     -10.522   8.871  67.562  1.00  0.00    -0.337 A  
HETATM   18  C   UNL     1     -10.773   8.309  69.940  1.00  0.00    -0.234 A  
HETATM   19  H   UNL     1     -11.166   5.042  70.267  1.00  0.00     0.000 HD 
HETATM   20  C   UNL     1     -10.940   6.965  69.589  1.00  0.00    -0.259 A  
HETATM   21  C   UNL     1     -10.940   6.572  68.255  1.00  0.00    -0.362 A  
HETATM   22  O   UNL     1     -11.052   5.955  70.505  1.00  0.00    -0.311 OA 
HETATM   23  C   UNL     1     -10.713   7.516  67.249  1.00  0.00    -0.365 A  
HETATM   24  C   UNL     1     -10.563   9.251  68.917  1.00  0.00    -0.222 A  
BRANCH  18  25
HETATM   25  C   UNL     1     -10.768   8.812  71.345  1.00  0.00    -0.286 C  
HETATM   26  O   UNL     1     -11.797   9.143  71.919  1.00  0.00    -0.354 OA 
HETATM   27  H1  UNL     1      -9.564   9.225  72.962  1.00  0.00     0.000 HD 
HETATM   28  H2  UNL     1      -8.703   8.598  71.542  1.00  0.00     0.000 HD 
HETATM   29  N   UNL     1      -9.568   8.881  72.001  1.00  0.00    -0.283 N  
ENDBRANCH  18  25
ENDBRANCH  14  17
ENDBRANCH  13  14
ENDBRANCH  11  13
ENDBRANCH   2  11
TORSDOF 8
ENDMDL
MODEL       71
REMARK 921   NORMALIZED FREE ENERGY PREDICTED BY IDOCK:   -5.39 KCAL/MOL
REMARK 922        TOTAL FREE ENERGY PREDICTED BY IDOCK:   -9.46 KCAL/MOL
REMARK 923 INTER-LIGAND FREE ENERGY PREDICTED BY IDOCK:   -8.51 KCAL/MOL
REMARK 924 INTRA-LIGAND FREE ENERGY PREDICTED BY IDOCK:   -0.95 KCAL/MOL
REMARK 927      BINDING AFFINITY PREDICTED BY RF-SCORE:    0.00 PKD
ROOT
HETATM    1  C   UNL     1     -10.977  11.930  67.076  1.00  0.00    -0.326 C  
HETATM    2  C   UNL     1     -10.873  12.663  68.419  1.00  0.00    -0.245 C  
ENDROOT
BRANCH   2   3
HETATM    3  C   UNL     1     -12.090  13.602  68.574  1.00  0.00    -0.321 C  
BRANCH   3   4
HETATM    4  C   UNL     1     -11.762  14.920  69.286  1.00  0.00    -0.344 C  
BRANCH   4   5
HETATM    5  C   UNL     1     -12.192  14.898  70.735  1.00  0.00    -0.387 A  
HETATM    6  C   UNL     1     -11.591  15.743  71.677  1.00  0.00    -0.537 A  
HETATM    7  C   UNL     1     -11.993  15.716  73.013  1.00  0.00    -0.590 A  
HETATM    8  C   UNL     1     -13.215  14.036  71.156  1.00  0.00    -0.337 A  
HETATM    9  C   UNL     1     -13.005  14.848  73.423  1.00  0.00    -0.597 A  
HETATM   10  C   UNL     1     -13.617  14.009  72.493  1.00  0.00    -0.670 A  
ENDBRANCH   4   5
ENDBRANCH   3   4
ENDBRANCH   2   3
BRANCH   2  11
HETATM   11  N   UNL     1     -10.807  11.740  69.558  1.00  0.00    -0.462 NA 
HETATM   12  H   UNL     1     -10.650  12.252  70.426  1.00  0.00     0.000 HD 
BRANCH  11  13
HETATM   13  C   UNL     1     -11.978  10.860  69.683  1.00  0.00    -0.343 C  
BRANCH  13  14
HETATM   14  C   UNL     1     -12.105  10.262  71.111  1.00  0.00    -0.395 C  
HETATM   15  H   UNL     1     -13.558   9.949  72.390  1.00  0.00     0.000 HD 
HETATM   16  O   UNL     1     -13.480  10.314  71.516  1.00  0.00    -0.329 OA 
BRANCH  14  17
HETATM   17  C   UNL     1     -11.562   8.840  71.188  1.00  0.00    -0.344 A  
HETATM   18  C   UNL     1     -10.587   6.843  70.140  1.00  0.00    -0.249 A  
HETATM   19  H   UNL     1     -10.457   4.389  72.350  1.00  0.00     0.000 HD 
HETATM   20  C   UNL     1     -10.692   6.170  71.362  1.00  0.00    -0.255 A  
HETATM   21  C   UNL     1     -11.182   6.816  72.491  1.00  0.00    -0.305 A  
HETATM   22  O   UNL     1     -10.386   4.846  71.521  1.00  0.00    -0.200 OA 
HETATM   23  C   UNL     1     -11.632   8.136  72.400  1.00  0.00    -0.463 A  
HETATM   24  C   UNL     1     -11.027   8.178  70.067  1.00  0.00    -0.199 A  
BRANCH  18  25
HETATM   25  C   UNL     1     -10.066   6.225  68.886  1.00  0.00    -0.168 C  
HETATM   26  O   UNL     1      -8.920   5.803  68.798  1.00  0.00    -0.116 OA 
HETATM   27  H1  UNL     1     -10.560   5.696  66.960  1.00  0.00     0.000 HD 
HETATM   28  H2  UNL     1     -11.878   6.454  67.877  1.00  0.00     0.000 HD 
HETATM   29  N   UNL     1     -10.916   6.119  67.818  1.00  0.00    -0.331 N  
ENDBRANCH  18  25
ENDBRANCH  14  17
ENDBRANCH  13  14
ENDBRANCH  11  13
ENDBRANCH   2  11
TORSDOF 8
ENDMDL
MODEL       72
REMARK 921   NORMALIZED FREE ENERGY PREDICTED BY IDOCK:   -5.39 KCAL/MOL
REMARK 922        TOTAL FREE ENERGY PREDICTED BY IDOCK:   -9.46 KCAL/MOL
REMARK 923 INTER-LIGAND FREE ENERGY PREDICTED BY IDOCK:   -7.84 KCAL/MOL
REMARK 924 INTRA-LIGAND FREE ENERGY PREDICTED BY IDOCK:   -1.62 KCAL/MOL
REMARK 927      BINDING AFFINITY PREDICTED BY RF-SCORE:    0.00 PKD
ROOT
HETATM    1  C   UNL     1      -7.492   9.824  69.148  1.00  0.00    -0.082 C  
HETATM    2  C   UNL     1      -7.837   8.337  69.001  1.00  0.00    -0.103 C  
ENDROOT
BRANCH   2   3
HETATM    3  C   UNL     1      -8.981   7.988  69.980  1.00  0.00    -0.144 C  
BRANCH   3   4
HETATM    4  C   UNL     1      -9.555   9.206  70.712  1.00  0.00    -0.338 C  
BRANCH   4   5
HETATM    5  C   UNL     1     -10.998   8.993  71.112  1.00  0.00    -0.371 A  
HETATM    6  C   UNL     1     -11.532   7.702  71.218  1.00  0.00    -0.293 A  
HETATM    7  C   UNL     1     -12.865   7.515  71.587  1.00  0.00    -0.392 A  
HETATM    8  C   UNL     1     -11.821  10.091  71.398  1.00  0.00    -0.447 A  
HETATM    9  C   UNL     1     -13.678   8.615  71.860  1.00  0.00    -0.462 A  
HETATM   10  C   UNL     1     -13.154   9.903  71.767  1.00  0.00    -0.553 A  
ENDBRANCH   4   5
ENDBRANCH   3   4
ENDBRANCH   2   3
BRANCH   2  11
HETATM   11  N   UNL     1      -8.229   7.985  67.631  1.00  0.00    -0.123 NA 
HETATM   12  H   UNL     1      -9.031   7.356  67.638  1.00  0.00     0.000 HD 
BRANCH  11  13
HETATM   13  C   UNL     1      -8.491   9.145  66.767  1.00  0.00    -0.123 C  
BRANCH  13  14
HETATM   14  C   UNL     1      -9.947   9.148  66.226  1.00  0.00    -0.282 C  
HETATM   15  H   UNL     1     -11.550   8.048  66.473  1.00  0.00     0.000 HD 
HETATM   16  O   UNL     1     -10.660   8.046  66.804  1.00  0.00    -0.320 OA 
BRANCH  14  17
HETATM   17  C   UNL     1     -10.657  10.469  66.500  1.00  0.00    -0.240 A  
HETATM   18  C   UNL     1     -11.499  12.657  65.769  1.00  0.00    -0.399 A  
HETATM   19  H   UNL     1     -12.605  14.346  68.387  1.00  0.00     0.000 HD 
HETATM   20  C   UNL     1     -11.860  12.943  67.090  1.00  0.00    -0.362 A  
HETATM   21  C   UNL     1     -11.666  12.006  68.099  1.00  0.00    -0.398 A  
HETATM   22  O   UNL     1     -12.360  14.152  67.490  1.00  0.00    -0.296 OA 
HETATM   23  C   UNL     1     -11.051  10.784  67.810  1.00  0.00    -0.381 A  
HETATM   24  C   UNL     1     -10.897  11.417  65.488  1.00  0.00    -0.282 A  
BRANCH  18  25
HETATM   25  C   UNL     1     -11.679  13.604  64.630  1.00  0.00    -0.388 C  
HETATM   26  O   UNL     1     -12.420  13.352  63.688  1.00  0.00    -0.711 OA 
HETATM   27  H1  UNL     1     -11.123  15.440  63.885  1.00  0.00     0.000 HD 
HETATM   28  H2  UNL     1     -10.388  15.024  65.446  1.00  0.00     0.000 HD 
HETATM   29  N   UNL     1     -11.000  14.793  64.664  1.00  0.00    -0.354 N  
ENDBRANCH  18  25
ENDBRANCH  14  17
ENDBRANCH  13  14
ENDBRANCH  11  13
ENDBRANCH   2  11
TORSDOF 8
ENDMDL
MODEL       73
REMARK 921   NORMALIZED FREE ENERGY PREDICTED BY IDOCK:   -5.38 KCAL/MOL
REMARK 922        TOTAL FREE ENERGY PREDICTED BY IDOCK:   -9.46 KCAL/MOL
REMARK 923 INTER-LIGAND FREE ENERGY PREDICTED BY IDOCK:   -7.85 KCAL/MOL
REMARK 924 INTRA-LIGAND FREE ENERGY PREDICTED BY IDOCK:   -1.60 KCAL/MOL
REMARK 927      BINDING AFFINITY PREDICTED BY RF-SCORE:    0.00 PKD
ROOT
HETATM    1  C   UNL     1     -10.545  18.657  67.960  1.00  0.00    -0.350 C  
HETATM    2  C   UNL     1     -10.382  17.143  67.779  1.00  0.00    -0.347 C  
ENDROOT
BRANCH   2   3
HETATM    3  C   UNL     1     -11.398  16.415  68.688  1.00  0.00    -0.289 C  
BRANCH   3   4
HETATM    4  C   UNL     1     -10.761  15.756  69.917  1.00  0.00    -0.332 C  
BRANCH   4   5
HETATM    5  C   UNL     1     -11.771  15.525  71.018  1.00  0.00    -0.423 A  
HETATM    6  C   UNL     1     -11.379  15.513  72.363  1.00  0.00    -0.349 A  
HETATM    7  C   UNL     1     -12.318  15.299  73.373  1.00  0.00    -0.620 A  
HETATM    8  C   UNL     1     -13.125  15.333  70.707  1.00  0.00    -0.468 A  
HETATM    9  C   UNL     1     -13.661  15.099  73.051  1.00  0.00    -0.484 A  
HETATM   10  C   UNL     1     -14.063  15.119  71.718  1.00  0.00    -0.645 A  
ENDBRANCH   4   5
ENDBRANCH   3   4
ENDBRANCH   2   3
BRANCH   2  11
HETATM   11  N   UNL     1     -10.568  16.721  66.386  1.00  0.00    -0.244 NA 
HETATM   12  H   UNL     1     -10.363  17.490  65.748  1.00  0.00     0.000 HD 
BRANCH  11  13
HETATM   13  C   UNL     1      -9.800  15.525  66.015  1.00  0.00    -0.335 C  
BRANCH  13  14
HETATM   14  C   UNL     1     -10.719  14.300  65.759  1.00  0.00    -0.305 C  
HETATM   15  H   UNL     1     -10.880  12.915  64.381  1.00  0.00     0.000 HD 
HETATM   16  O   UNL     1     -10.317  13.664  64.537  1.00  0.00    -0.433 OA 
BRANCH  14  17
HETATM   17  C   UNL     1     -10.701  13.317  66.924  1.00  0.00    -0.274 A  
HETATM   18  C   UNL     1      -9.578  11.615  68.293  1.00  0.00    -0.198 A  
HETATM   19  H   UNL     1     -11.733  10.332  70.447  1.00  0.00     0.000 HD 
HETATM   20  C   UNL     1     -10.767  11.423  69.004  1.00  0.00    -0.205 A  
HETATM   21  C   UNL     1     -11.898  12.182  68.719  1.00  0.00    -0.356 A  
HETATM   22  O   UNL     1     -10.925  10.462  69.964  1.00  0.00    -0.276 OA 
HETATM   23  C   UNL     1     -11.870  13.109  67.672  1.00  0.00    -0.405 A  
HETATM   24  C   UNL     1      -9.559  12.564  67.254  1.00  0.00    -0.205 A  
BRANCH  18  25
HETATM   25  C   UNL     1      -8.322  10.848  68.542  1.00  0.00    -0.142 C  
HETATM   26  O   UNL     1      -7.570  11.119  69.469  1.00  0.00    -0.069 OA 
HETATM   27  H1  UNL     1      -7.170   9.279  67.878  1.00  0.00     0.000 HD 
HETATM   28  H2  UNL     1      -8.650   9.556  66.938  1.00  0.00     0.000 HD 
HETATM   29  N   UNL     1      -8.028   9.803  67.708  1.00  0.00    -0.101 N  
ENDBRANCH  18  25
ENDBRANCH  14  17
ENDBRANCH  13  14
ENDBRANCH  11  13
ENDBRANCH   2  11
TORSDOF 8
ENDMDL
MODEL       74
REMARK 921   NORMALIZED FREE ENERGY PREDICTED BY IDOCK:   -5.37 KCAL/MOL
REMARK 922        TOTAL FREE ENERGY PREDICTED BY IDOCK:   -9.43 KCAL/MOL
REMARK 923 INTER-LIGAND FREE ENERGY PREDICTED BY IDOCK:   -8.22 KCAL/MOL
REMARK 924 INTRA-LIGAND FREE ENERGY PREDICTED BY IDOCK:   -1.21 KCAL/MOL
REMARK 927      BINDING AFFINITY PREDICTED BY RF-SCORE:    0.00 PKD
ROOT
HETATM    1  C   UNL     1     -10.896  13.675  67.009  1.00  0.00    -0.291 C  
HETATM    2  C   UNL     1      -9.839  13.895  68.098  1.00  0.00    -0.240 C  
ENDROOT
BRANCH   2   3
HETATM    3  C   UNL     1     -10.348  14.973  69.081  1.00  0.00    -0.249 C  
BRANCH   3   4
HETATM    4  C   UNL     1     -11.863  15.196  69.017  1.00  0.00    -0.331 C  
BRANCH   4   5
HETATM    5  C   UNL     1     -12.568  14.617  70.223  1.00  0.00    -0.370 A  
HETATM    6  C   UNL     1     -12.382  13.278  70.591  1.00  0.00    -0.416 A  
HETATM    7  C   UNL     1     -13.037  12.752  71.706  1.00  0.00    -0.455 A  
HETATM    8  C   UNL     1     -13.411  15.422  71.003  1.00  0.00    -0.545 A  
HETATM    9  C   UNL     1     -13.881  13.559  72.469  1.00  0.00    -0.624 A  
HETATM   10  C   UNL     1     -14.065  14.895  72.118  1.00  0.00    -0.616 A  
ENDBRANCH   4   5
ENDBRANCH   3   4
ENDBRANCH   2   3
BRANCH   2  11
HETATM   11  N   UNL     1      -9.522  12.663  68.829  1.00  0.00    -0.408 NA 
HETATM   12  H   UNL     1      -9.627  12.805  69.833  1.00  0.00     0.000 HD 
BRANCH  11  13
HETATM   13  C   UNL     1     -10.296  11.492  68.391  1.00  0.00    -0.202 C  
BRANCH  13  14
HETATM   14  C   UNL     1      -9.500  10.171  68.572  1.00  0.00    -0.158 C  
HETATM   15  H   UNL     1      -7.610   9.656  68.641  1.00  0.00     0.000 HD 
HETATM   16  O   UNL     1      -8.096  10.464  68.531  1.00  0.00    -0.106 OA 
BRANCH  14  17
HETATM   17  C   UNL     1      -9.875   9.447  69.860  1.00  0.00    -0.235 A  
HETATM   18  C   UNL     1     -11.543   8.548  71.422  1.00  0.00    -0.344 A  
HETATM   19  H   UNL     1     -10.032   7.495  74.167  1.00  0.00     0.000 HD 
HETATM   20  C   UNL     1     -10.514   8.223  72.311  1.00  0.00    -0.321 A  
HETATM   21  C   UNL     1      -9.184   8.463  71.980  1.00  0.00    -0.304 A  
HETATM   22  O   UNL     1     -10.731   7.716  73.563  1.00  0.00    -0.348 OA 
HETATM   23  C   UNL     1      -8.868   9.089  70.770  1.00  0.00    -0.281 A  
HETATM   24  C   UNL     1     -11.210   9.161  70.200  1.00  0.00    -0.211 A  
BRANCH  18  25
HETATM   25  C   UNL     1     -12.992   8.317  71.699  1.00  0.00    -0.337 C  
HETATM   26  O   UNL     1     -13.594   7.355  71.241  1.00  0.00    -0.355 OA 
HETATM   27  H1  UNL     1     -14.635   9.053  72.695  1.00  0.00     0.000 HD 
HETATM   28  H2  UNL     1     -13.155  10.011  72.905  1.00  0.00     0.000 HD 
HETATM   29  N   UNL     1     -13.644   9.211  72.506  1.00  0.00    -0.476 N  
ENDBRANCH  18  25
ENDBRANCH  14  17
ENDBRANCH  13  14
ENDBRANCH  11  13
ENDBRANCH   2  11
TORSDOF 8
ENDMDL
MODEL       75
REMARK 921   NORMALIZED FREE ENERGY PREDICTED BY IDOCK:   -5.37 KCAL/MOL
REMARK 922        TOTAL FREE ENERGY PREDICTED BY IDOCK:   -9.43 KCAL/MOL
REMARK 923 INTER-LIGAND FREE ENERGY PREDICTED BY IDOCK:   -8.13 KCAL/MOL
REMARK 924 INTRA-LIGAND FREE ENERGY PREDICTED BY IDOCK:   -1.30 KCAL/MOL
REMARK 927      BINDING AFFINITY PREDICTED BY RF-SCORE:    0.00 PKD
ROOT
HETATM    1  C   UNL     1      -5.561  16.481  70.156  1.00  0.00    -0.200 C  
HETATM    2  C   UNL     1      -6.413  17.135  69.063  1.00  0.00    -0.208 C  
ENDROOT
BRANCH   2   3
HETATM    3  C   UNL     1      -5.954  18.599  68.876  1.00  0.00    -0.225 C  
BRANCH   3   4
HETATM    4  C   UNL     1      -6.978  19.630  69.364  1.00  0.00    -0.355 C  
BRANCH   4   5
HETATM    5  C   UNL     1      -8.183  19.700  68.454  1.00  0.00    -0.350 A  
HETATM    6  C   UNL     1      -8.054  20.106  67.119  1.00  0.00    -0.370 A  
HETATM    7  C   UNL     1      -9.172  20.168  66.286  1.00  0.00    -0.383 A  
HETATM    8  C   UNL     1      -9.452  19.344  68.932  1.00  0.00    -0.448 A  
HETATM    9  C   UNL     1     -10.431  19.821  66.775  1.00  0.00    -0.610 A  
HETATM   10  C   UNL     1     -10.570  19.407  68.098  1.00  0.00    -0.391 A  
ENDBRANCH   4   5
ENDBRANCH   3   4
ENDBRANCH   2   3
BRANCH   2  11
HETATM   11  N   UNL     1      -6.331  16.419  67.784  1.00  0.00    -0.129 NA 
HETATM   12  H   UNL     1      -5.453  15.905  67.717  1.00  0.00     0.000 HD 
BRANCH  11  13
HETATM   13  C   UNL     1      -7.471  15.529  67.522  1.00  0.00    -0.182 C  
BRANCH  13  14
HETATM   14  C   UNL     1      -8.684  16.298  66.931  1.00  0.00    -0.208 C  
HETATM   15  H   UNL     1      -8.982  17.548  65.450  1.00  0.00     0.000 HD 
HETATM   16  O   UNL     1      -8.240  17.077  65.811  1.00  0.00    -0.486 OA 
BRANCH  14  17
HETATM   17  C   UNL     1      -9.820  15.362  66.536  1.00  0.00    -0.288 A  
HETATM   18  C   UNL     1     -11.078  13.268  66.793  1.00  0.00    -0.313 A  
HETATM   19  H   UNL     1     -13.319  13.022  64.376  1.00  0.00     0.000 HD 
HETATM   20  C   UNL     1     -11.851  13.614  65.680  1.00  0.00    -0.364 A  
HETATM   21  C   UNL     1     -11.651  14.822  65.022  1.00  0.00    -0.378 A  
HETATM   22  O   UNL     1     -12.794  12.788  65.132  1.00  0.00    -0.726 OA 
HETATM   23  C   UNL     1     -10.629  15.682  65.435  1.00  0.00    -0.436 A  
HETATM   24  C   UNL     1     -10.064  14.151  67.210  1.00  0.00    -0.256 A  
BRANCH  18  25
HETATM   25  C   UNL     1     -11.233  11.996  67.557  1.00  0.00    -0.294 C  
HETATM   26  O   UNL     1     -10.717  10.949  67.186  1.00  0.00    -0.240 OA 
HETATM   27  H1  UNL     1     -12.071  11.153  69.237  1.00  0.00     0.000 HD 
HETATM   28  H2  UNL     1     -12.391  12.888  69.045  1.00  0.00     0.000 HD 
HETATM   29  N   UNL     1     -11.965  12.023  68.714  1.00  0.00    -0.291 N  
ENDBRANCH  18  25
ENDBRANCH  14  17
ENDBRANCH  13  14
ENDBRANCH  11  13
ENDBRANCH   2  11
TORSDOF 8
ENDMDL
MODEL       76
REMARK 921   NORMALIZED FREE ENERGY PREDICTED BY IDOCK:   -5.36 KCAL/MOL
REMARK 922        TOTAL FREE ENERGY PREDICTED BY IDOCK:   -9.42 KCAL/MOL
REMARK 923 INTER-LIGAND FREE ENERGY PREDICTED BY IDOCK:   -8.86 KCAL/MOL
REMARK 924 INTRA-LIGAND FREE ENERGY PREDICTED BY IDOCK:   -0.56 KCAL/MOL
REMARK 927      BINDING AFFINITY PREDICTED BY RF-SCORE:    0.00 PKD
ROOT
HETATM    1  C   UNL     1     -14.226  15.234  71.961  1.00  0.00    -0.679 C  
HETATM    2  C   UNL     1     -13.016  14.490  71.383  1.00  0.00    -0.333 C  
ENDROOT
BRANCH   2   3
HETATM    3  C   UNL     1     -13.139  12.988  71.729  1.00  0.00    -0.469 C  
BRANCH   3   4
HETATM    4  C   UNL     1     -12.462  12.066  70.708  1.00  0.00    -0.372 C  
BRANCH   4   5
HETATM    5  C   UNL     1     -12.393  10.638  71.200  1.00  0.00    -0.505 A  
HETATM    6  C   UNL     1     -11.243   9.862  70.996  1.00  0.00    -0.435 A  
HETATM    7  C   UNL     1     -11.188   8.545  71.453  1.00  0.00    -0.327 A  
HETATM    8  C   UNL     1     -13.478  10.072  71.883  1.00  0.00    -0.449 A  
HETATM    9  C   UNL     1     -12.277   7.989  72.124  1.00  0.00    -0.377 A  
HETATM   10  C   UNL     1     -13.422   8.754  72.340  1.00  0.00    -0.446 A  
ENDBRANCH   4   5
ENDBRANCH   3   4
ENDBRANCH   2   3
BRANCH   2  11
HETATM   11  N   UNL     1     -12.895  14.659  69.931  1.00  0.00    -0.566 NA 
HETATM   12  H   UNL     1     -13.806  14.857  69.516  1.00  0.00     0.000 HD 
BRANCH  11  13
HETATM   13  C   UNL     1     -11.913  15.675  69.526  1.00  0.00    -0.345 C  
BRANCH  13  14
HETATM   14  C   UNL     1     -10.511  15.057  69.270  1.00  0.00    -0.249 C  
HETATM   15  H   UNL     1      -9.819  13.357  68.580  1.00  0.00     0.000 HD 
HETATM   16  O   UNL     1     -10.676  13.736  68.737  1.00  0.00    -0.247 OA 
BRANCH  14  17
HETATM   17  C   UNL     1      -9.664  15.923  68.345  1.00  0.00    -0.214 A  
HETATM   18  C   UNL     1      -8.580  18.052  67.777  1.00  0.00    -0.244 A  
HETATM   19  H   UNL     1      -7.324  17.872  64.724  1.00  0.00     0.000 HD 
HETATM   20  C   UNL     1      -8.204  17.514  66.541  1.00  0.00    -0.276 A  
HETATM   21  C   UNL     1      -8.510  16.197  66.216  1.00  0.00    -0.357 A  
HETATM   22  O   UNL     1      -7.580  18.238  65.563  1.00  0.00    -0.518 OA 
HETATM   23  C   UNL     1      -9.252  15.412  67.104  1.00  0.00    -0.226 A  
HETATM   24  C   UNL     1      -9.311  17.246  68.669  1.00  0.00    -0.267 A  
BRANCH  18  25
HETATM   25  C   UNL     1      -8.285  19.452  68.203  1.00  0.00    -0.324 C  
HETATM   26  O   UNL     1      -8.937  20.405  67.796  1.00  0.00    -0.280 OA 
HETATM   27  H1  UNL     1      -7.061  20.610  69.383  1.00  0.00     0.000 HD 
HETATM   28  H2  UNL     1      -6.717  18.870  69.450  1.00  0.00     0.000 HD 
HETATM   29  N   UNL     1      -7.262  19.654  69.091  1.00  0.00    -0.353 N  
ENDBRANCH  18  25
ENDBRANCH  14  17
ENDBRANCH  13  14
ENDBRANCH  11  13
ENDBRANCH   2  11
TORSDOF 8
ENDMDL
MODEL       77
REMARK 921   NORMALIZED FREE ENERGY PREDICTED BY IDOCK:   -5.35 KCAL/MOL
REMARK 922        TOTAL FREE ENERGY PREDICTED BY IDOCK:   -9.41 KCAL/MOL
REMARK 923 INTER-LIGAND FREE ENERGY PREDICTED BY IDOCK:   -8.23 KCAL/MOL
REMARK 924 INTRA-LIGAND FREE ENERGY PREDICTED BY IDOCK:   -1.18 KCAL/MOL
REMARK 927      BINDING AFFINITY PREDICTED BY RF-SCORE:    0.00 PKD
ROOT
HETATM    1  C   UNL     1     -10.057  11.839  63.414  1.00  0.00    -0.470 C  
HETATM    2  C   UNL     1     -10.411  11.779  64.904  1.00  0.00    -0.287 C  
ENDROOT
BRANCH   2   3
HETATM    3  C   UNL     1     -11.903  12.144  65.082  1.00  0.00    -0.356 C  
BRANCH   3   4
HETATM    4  C   UNL     1     -12.226  13.598  64.719  1.00  0.00    -0.440 C  
BRANCH   4   5
HETATM    5  C   UNL     1     -11.658  14.569  65.729  1.00  0.00    -0.347 A  
HETATM    6  C   UNL     1     -10.811  15.611  65.328  1.00  0.00    -0.420 A  
HETATM    7  C   UNL     1     -10.291  16.502  66.267  1.00  0.00    -0.327 A  
HETATM    8  C   UNL     1     -11.986  14.449  67.087  1.00  0.00    -0.419 A  
HETATM    9  C   UNL     1     -10.616  16.367  67.617  1.00  0.00    -0.313 A  
HETATM   10  C   UNL     1     -11.465  15.341  68.026  1.00  0.00    -0.351 A  
ENDBRANCH   4   5
ENDBRANCH   3   4
ENDBRANCH   2   3
BRANCH   2  11
HETATM   11  N   UNL     1     -10.148  10.460  65.491  1.00  0.00    -0.287 NA 
HETATM   12  H   UNL     1      -9.574   9.897  64.864  1.00  0.00     0.000 HD 
BRANCH  11  13
HETATM   13  C   UNL     1      -9.548  10.510  66.832  1.00  0.00    -0.175 C  
BRANCH  13  14
HETATM   14  C   UNL     1     -10.116   9.406  67.764  1.00  0.00    -0.198 C  
HETATM   15  H   UNL     1      -9.386   7.887  68.767  1.00  0.00     0.000 HD 
HETATM   16  O   UNL     1      -9.039   8.563  68.197  1.00  0.00    -0.138 OA 
BRANCH  14  17
HETATM   17  C   UNL     1     -10.870   9.991  68.953  1.00  0.00    -0.250 A  
HETATM   18  C   UNL     1     -12.033   9.744  71.102  1.00  0.00    -0.463 A  
HETATM   19  H   UNL     1     -13.401  12.631  71.955  1.00  0.00     0.000 HD 
HETATM   20  C   UNL     1     -12.369  11.102  71.059  1.00  0.00    -0.382 A  
HETATM   21  C   UNL     1     -11.938  11.909  70.011  1.00  0.00    -0.409 A  
HETATM   22  O   UNL     1     -13.173  11.709  71.984  1.00  0.00    -0.501 OA 
HETATM   23  C   UNL     1     -11.210  11.353  68.955  1.00  0.00    -0.319 A  
HETATM   24  C   UNL     1     -11.285   9.201  70.041  1.00  0.00    -0.168 A  
BRANCH  18  25
HETATM   25  C   UNL     1     -12.450   8.814  72.192  1.00  0.00    -0.393 C  
HETATM   26  O   UNL     1     -11.641   8.127  72.803  1.00  0.00    -0.411 OA 
HETATM   27  H1  UNL     1     -14.064   8.117  73.261  1.00  0.00     0.000 HD 
HETATM   28  H2  UNL     1     -14.465   9.327  72.026  1.00  0.00     0.000 HD 
HETATM   29  N   UNL     1     -13.779   8.753  72.516  1.00  0.00    -0.402 N  
ENDBRANCH  18  25
ENDBRANCH  14  17
ENDBRANCH  13  14
ENDBRANCH  11  13
ENDBRANCH   2  11
TORSDOF 8
ENDMDL
MODEL       78
REMARK 921   NORMALIZED FREE ENERGY PREDICTED BY IDOCK:   -5.34 KCAL/MOL
REMARK 922        TOTAL FREE ENERGY PREDICTED BY IDOCK:   -9.40 KCAL/MOL
REMARK 923 INTER-LIGAND FREE ENERGY PREDICTED BY IDOCK:   -8.73 KCAL/MOL
REMARK 924 INTRA-LIGAND FREE ENERGY PREDICTED BY IDOCK:   -0.66 KCAL/MOL
REMARK 927      BINDING AFFINITY PREDICTED BY RF-SCORE:    0.00 PKD
ROOT
HETATM    1  C   UNL     1      -8.729   9.739  69.881  1.00  0.00    -0.238 C  
HETATM    2  C   UNL     1     -10.220  10.088  69.807  1.00  0.00    -0.250 C  
ENDROOT
BRANCH   2   3
HETATM    3  C   UNL     1     -10.894   9.699  71.142  1.00  0.00    -0.404 C  
BRANCH   3   4
HETATM    4  C   UNL     1     -11.703   8.399  71.066  1.00  0.00    -0.296 C  
BRANCH   4   5
HETATM    5  C   UNL     1     -11.269   7.404  72.117  1.00  0.00    -0.302 A  
HETATM    6  C   UNL     1     -10.383   7.775  73.138  1.00  0.00    -0.403 A  
HETATM    7  C   UNL     1      -9.987   6.849  74.104  1.00  0.00    -0.351 A  
HETATM    8  C   UNL     1     -11.760   6.091  72.094  1.00  0.00    -0.335 A  
HETATM    9  C   UNL     1     -10.475   5.543  74.066  1.00  0.00    -0.308 A  
HETATM   10  C   UNL     1     -11.363   5.166  73.061  1.00  0.00    -0.381 A  
ENDBRANCH   4   5
ENDBRANCH   3   4
ENDBRANCH   2   3
BRANCH   2  11
HETATM   11  N   UNL     1     -10.450  11.510  69.528  1.00  0.00    -0.439 NA 
HETATM   12  H   UNL     1     -10.095  12.087  70.290  1.00  0.00     0.000 HD 
BRANCH  11  13
HETATM   13  C   UNL     1      -9.904  11.963  68.240  1.00  0.00    -0.199 C  
BRANCH  13  14
HETATM   14  C   UNL     1     -10.988  11.991  67.128  1.00  0.00    -0.270 C  
HETATM   15  H   UNL     1     -12.934  11.762  67.042  1.00  0.00     0.000 HD 
HETATM   16  O   UNL     1     -12.271  11.746  67.722  1.00  0.00    -0.536 OA 
BRANCH  14  17
HETATM   17  C   UNL     1     -10.982  13.304  66.354  1.00  0.00    -0.301 A  
HETATM   18  C   UNL     1     -10.574  15.722  66.212  1.00  0.00    -0.313 A  
HETATM   19  H   UNL     1     -11.674  16.858  63.309  1.00  0.00     0.000 HD 
HETATM   20  C   UNL     1     -11.113  15.722  64.921  1.00  0.00    -0.399 A  
HETATM   21  C   UNL     1     -11.546  14.539  64.331  1.00  0.00    -0.325 A  
HETATM   22  O   UNL     1     -11.308  16.859  64.186  1.00  0.00    -1.208 OA 
HETATM   23  C   UNL     1     -11.498  13.341  65.050  1.00  0.00    -0.329 A  
HETATM   24  C   UNL     1     -10.515  14.506  66.918  1.00  0.00    -0.269 A  
BRANCH  18  25
HETATM   25  C   UNL     1     -10.083  16.945  66.913  1.00  0.00    -0.289 C  
HETATM   26  O   UNL     1     -10.800  17.596  67.661  1.00  0.00    -0.350 OA 
HETATM   27  H1  UNL     1      -8.446  18.160  67.192  1.00  0.00     0.000 HD 
HETATM   28  H2  UNL     1      -8.167  16.787  66.103  1.00  0.00     0.000 HD 
HETATM   29  N   UNL     1      -8.782  17.324  66.714  1.00  0.00    -0.239 N  
ENDBRANCH  18  25
ENDBRANCH  14  17
ENDBRANCH  13  14
ENDBRANCH  11  13
ENDBRANCH   2  11
TORSDOF 8
ENDMDL
MODEL       79
REMARK 921   NORMALIZED FREE ENERGY PREDICTED BY IDOCK:   -5.34 KCAL/MOL
REMARK 922        TOTAL FREE ENERGY PREDICTED BY IDOCK:   -9.39 KCAL/MOL
REMARK 923 INTER-LIGAND FREE ENERGY PREDICTED BY IDOCK:   -8.16 KCAL/MOL
REMARK 924 INTRA-LIGAND FREE ENERGY PREDICTED BY IDOCK:   -1.23 KCAL/MOL
REMARK 927      BINDING AFFINITY PREDICTED BY RF-SCORE:    0.00 PKD
ROOT
HETATM    1  C   UNL     1     -11.363  11.759  64.256  1.00  0.00    -0.400 C  
HETATM    2  C   UNL     1     -10.762  12.229  65.586  1.00  0.00    -0.267 C  
ENDROOT
BRANCH   2   3
HETATM    3  C   UNL     1     -11.888  12.826  66.462  1.00  0.00    -0.471 C  
BRANCH   3   4
HETATM    4  C   UNL     1     -11.825  14.352  66.587  1.00  0.00    -0.417 C  
BRANCH   4   5
HETATM    5  C   UNL     1     -11.656  14.791  68.024  1.00  0.00    -0.367 A  
HETATM    6  C   UNL     1     -12.047  13.959  69.082  1.00  0.00    -0.377 A  
HETATM    7  C   UNL     1     -11.889  14.373  70.405  1.00  0.00    -0.381 A  
HETATM    8  C   UNL     1     -11.089  16.039  68.321  1.00  0.00    -0.351 A  
HETATM    9  C   UNL     1     -11.332  15.620  70.688  1.00  0.00    -0.392 A  
HETATM   10  C   UNL     1     -10.931  16.452  69.644  1.00  0.00    -0.329 A  
ENDBRANCH   4   5
ENDBRANCH   3   4
ENDBRANCH   2   3
BRANCH   2  11
HETATM   11  N   UNL     1     -10.087  11.147  66.311  1.00  0.00    -0.225 NA 
HETATM   12  H   UNL     1      -9.212  11.478  66.716  1.00  0.00     0.000 HD 
BRANCH  11  13
HETATM   13  C   UNL     1     -10.920  10.505  67.339  1.00  0.00    -0.288 C  
BRANCH  13  14
HETATM   14  C   UNL     1     -10.125  10.237  68.645  1.00  0.00    -0.174 C  
HETATM   15  H   UNL     1      -8.815  11.213  69.730  1.00  0.00     0.000 HD 
HETATM   16  O   UNL     1      -9.301  11.377  68.931  1.00  0.00    -0.142 OA 
BRANCH  14  17
HETATM   17  C   UNL     1     -11.042   9.913  69.818  1.00  0.00    -0.294 A  
HETATM   18  C   UNL     1     -11.693   8.505  71.723  1.00  0.00    -0.392 A  
HETATM   19  H   UNL     1     -14.598   9.537  72.918  1.00  0.00     0.000 HD 
HETATM   20  C   UNL     1     -12.841   9.288  71.890  1.00  0.00    -0.404 A  
HETATM   21  C   UNL     1     -13.078  10.387  71.072  1.00  0.00    -0.450 A  
HETATM   22  O   UNL     1     -13.819   9.006  72.804  1.00  0.00    -0.430 OA 
HETATM   23  C   UNL     1     -12.194  10.686  70.030  1.00  0.00    -0.373 A  
HETATM   24  C   UNL     1     -10.803   8.828  70.682  1.00  0.00    -0.273 A  
BRANCH  18  25
HETATM   25  C   UNL     1     -11.363   7.316  72.561  1.00  0.00    -0.296 C  
HETATM   26  O   UNL     1     -10.634   7.396  73.542  1.00  0.00    -0.376 OA 
HETATM   27  H1  UNL     1     -11.688   5.297  72.791  1.00  0.00     0.000 HD 
HETATM   28  H2  UNL     1     -12.533   6.028  71.411  1.00  0.00     0.000 HD 
HETATM   29  N   UNL     1     -11.914   6.110  72.218  1.00  0.00    -0.294 N  
ENDBRANCH  18  25
ENDBRANCH  14  17
ENDBRANCH  13  14
ENDBRANCH  11  13
ENDBRANCH   2  11
TORSDOF 8
ENDMDL
MODEL       80
REMARK 921   NORMALIZED FREE ENERGY PREDICTED BY IDOCK:   -5.34 KCAL/MOL
REMARK 922        TOTAL FREE ENERGY PREDICTED BY IDOCK:   -9.38 KCAL/MOL
REMARK 923 INTER-LIGAND FREE ENERGY PREDICTED BY IDOCK:   -7.82 KCAL/MOL
REMARK 924 INTRA-LIGAND FREE ENERGY PREDICTED BY IDOCK:   -1.57 KCAL/MOL
REMARK 927      BINDING AFFINITY PREDICTED BY RF-SCORE:    0.00 PKD
ROOT
HETATM    1  C   UNL     1     -12.946  15.936  73.559  1.00  0.00    -0.707 C  
HETATM    2  C   UNL     1     -13.624  15.150  72.429  1.00  0.00    -0.470 C  
ENDROOT
BRANCH   2   3
HETATM    3  C   UNL     1     -12.938  15.503  71.090  1.00  0.00    -0.560 C  
BRANCH   3   4
HETATM    4  C   UNL     1     -11.410  15.579  71.185  1.00  0.00    -0.442 C  
BRANCH   4   5
HETATM    5  C   UNL     1     -10.763  15.602  69.818  1.00  0.00    -0.309 A  
HETATM    6  C   UNL     1     -11.262  16.424  68.799  1.00  0.00    -0.313 A  
HETATM    7  C   UNL     1     -10.658  16.438  67.540  1.00  0.00    -0.309 A  
HETATM    8  C   UNL     1      -9.638  14.806  69.555  1.00  0.00     0.055 A  
HETATM    9  C   UNL     1      -9.546  15.635  67.287  1.00  0.00    -0.220 A  
HETATM   10  C   UNL     1      -9.035  14.821  68.296  1.00  0.00    -0.181 A  
ENDBRANCH   4   5
ENDBRANCH   3   4
ENDBRANCH   2   3
BRANCH   2  11
HETATM   11  N   UNL     1     -13.575  13.700  72.647  1.00  0.00    -0.693 NA 
HETATM   12  H   UNL     1     -14.355  13.398  73.231  1.00  0.00     0.000 HD 
BRANCH  11  13
HETATM   13  C   UNL     1     -13.522  12.910  71.409  1.00  0.00     0.065 C  
BRANCH  13  14
HETATM   14  C   UNL     1     -12.611  11.661  71.555  1.00  0.00    -0.236 C  
HETATM   15  H   UNL     1     -12.835   9.809  72.159  1.00  0.00     0.000 HD 
HETATM   16  O   UNL     1     -13.392  10.573  72.069  1.00  0.00    -0.434 OA 
BRANCH  14  17
HETATM   17  C   UNL     1     -11.940  11.283  70.240  1.00  0.00    -0.466 A  
HETATM   18  C   UNL     1     -11.448  11.703  67.870  1.00  0.00    -0.381 A  
HETATM   19  H   UNL     1      -9.832   9.113  66.602  1.00  0.00     0.000 HD 
HETATM   20  C   UNL     1     -10.787  10.472  67.805  1.00  0.00    -0.294 A  
HETATM   21  C   UNL     1     -10.663   9.670  68.934  1.00  0.00    -0.230 A  
HETATM   22  O   UNL     1     -10.281   9.950  66.646  1.00  0.00    -0.223 OA 
HETATM   23  C   UNL     1     -11.252  10.064  70.139  1.00  0.00    -0.367 A  
HETATM   24  C   UNL     1     -12.021  12.096  69.094  1.00  0.00    -0.311 A  
BRANCH  18  25
HETATM   25  C   UNL     1     -11.619  12.624  66.708  1.00  0.00    -0.374 C  
HETATM   26  O   UNL     1     -10.929  12.532  65.701  1.00  0.00    -0.274 OA 
HETATM   27  H1  UNL     1     -12.710  14.212  65.988  1.00  0.00     0.000 HD 
HETATM   28  H2  UNL     1     -13.185  13.666  67.608  1.00  0.00     0.000 HD 
HETATM   29  N   UNL     1     -12.593  13.583  66.782  1.00  0.00    -0.144 N  
ENDBRANCH  18  25
ENDBRANCH  14  17
ENDBRANCH  13  14
ENDBRANCH  11  13
ENDBRANCH   2  11
TORSDOF 8
ENDMDL
MODEL       81
REMARK 921   NORMALIZED FREE ENERGY PREDICTED BY IDOCK:   -5.33 KCAL/MOL
REMARK 922        TOTAL FREE ENERGY PREDICTED BY IDOCK:   -9.38 KCAL/MOL
REMARK 923 INTER-LIGAND FREE ENERGY PREDICTED BY IDOCK:   -7.61 KCAL/MOL
REMARK 924 INTRA-LIGAND FREE ENERGY PREDICTED BY IDOCK:   -1.77 KCAL/MOL
REMARK 927      BINDING AFFINITY PREDICTED BY RF-SCORE:    0.00 PKD
ROOT
HETATM    1  C   UNL     1     -12.794  11.611  63.171  1.00  0.00     0.066 C  
HETATM    2  C   UNL     1     -12.016  12.648  63.990  1.00  0.00    -0.451 C  
ENDROOT
BRANCH   2   3
HETATM    3  C   UNL     1     -10.501  12.390  63.818  1.00  0.00    -0.475 C  
BRANCH   3   4
HETATM    4  C   UNL     1     -10.054  11.009  64.312  1.00  0.00    -0.398 C  
BRANCH   4   5
HETATM    5  C   UNL     1      -9.925  10.966  65.818  1.00  0.00    -0.299 A  
HETATM    6  C   UNL     1      -9.344  12.030  66.521  1.00  0.00    -0.226 A  
HETATM    7  C   UNL     1      -9.228  11.981  67.911  1.00  0.00    -0.190 A  
HETATM    8  C   UNL     1     -10.401   9.861  66.537  1.00  0.00    -0.259 A  
HETATM    9  C   UNL     1      -9.696  10.872  68.615  1.00  0.00    -0.188 A  
HETATM   10  C   UNL     1     -10.285   9.813  67.927  1.00  0.00    -0.237 A  
ENDBRANCH   4   5
ENDBRANCH   3   4
ENDBRANCH   2   3
BRANCH   2  11
HETATM   11  N   UNL     1     -12.334  14.026  63.598  1.00  0.00    -1.059 NA 
HETATM   12  H   UNL     1     -13.227  14.062  63.106  1.00  0.00     0.000 HD 
BRANCH  11  13
HETATM   13  C   UNL     1     -12.321  14.984  64.713  1.00  0.00    -0.156 C  
BRANCH  13  14
HETATM   14  C   UNL     1     -11.023  15.835  64.731  1.00  0.00    -0.393 C  
HETATM   15  H   UNL     1     -10.561  17.718  64.432  1.00  0.00     0.000 HD 
HETATM   16  O   UNL     1     -11.355  17.196  64.421  1.00  0.00    -1.115 OA 
BRANCH  14  17
HETATM   17  C   UNL     1     -10.291  15.737  66.064  1.00  0.00    -0.356 A  
HETATM   18  C   UNL     1      -8.229  15.532  67.383  1.00  0.00    -0.199 A  
HETATM   19  H   UNL     1      -8.995  15.107  70.571  1.00  0.00     0.000 HD 
HETATM   20  C   UNL     1      -9.000  15.427  68.545  1.00  0.00    -0.192 A  
HETATM   21  C   UNL     1     -10.387  15.513  68.489  1.00  0.00    -0.225 A  
HETATM   22  O   UNL     1      -8.470  15.178  69.782  1.00  0.00    -0.157 OA 
HETATM   23  C   UNL     1     -11.029  15.647  67.255  1.00  0.00    -0.275 A  
HETATM   24  C   UNL     1      -8.887  15.685  66.149  1.00  0.00    -0.311 A  
BRANCH  18  25
HETATM   25  C   UNL     1      -6.739  15.456  67.359  1.00  0.00    -0.144 C  
HETATM   26  O   UNL     1      -6.048  16.392  66.976  1.00  0.00    -0.223 OA 
HETATM   27  H1  UNL     1      -5.125  14.253  67.783  1.00  0.00     0.000 HD 
HETATM   28  H2  UNL     1      -6.703  13.520  68.134  1.00  0.00     0.000 HD 
HETATM   29  N   UNL     1      -6.143  14.305  67.799  1.00  0.00    -0.146 N  
ENDBRANCH  18  25
ENDBRANCH  14  17
ENDBRANCH  13  14
ENDBRANCH  11  13
ENDBRANCH   2  11
TORSDOF 8
ENDMDL
MODEL       82
REMARK 921   NORMALIZED FREE ENERGY PREDICTED BY IDOCK:   -5.33 KCAL/MOL
REMARK 922        TOTAL FREE ENERGY PREDICTED BY IDOCK:   -9.38 KCAL/MOL
REMARK 923 INTER-LIGAND FREE ENERGY PREDICTED BY IDOCK:   -8.16 KCAL/MOL
REMARK 924 INTRA-LIGAND FREE ENERGY PREDICTED BY IDOCK:   -1.22 KCAL/MOL
REMARK 927      BINDING AFFINITY PREDICTED BY RF-SCORE:    0.00 PKD
ROOT
HETATM    1  C   UNL     1     -10.970   5.307  72.588  1.00  0.00    -0.316 C  
HETATM    2  C   UNL     1     -11.114   6.674  71.909  1.00  0.00    -0.253 C  
ENDROOT
BRANCH   2   3
HETATM    3  C   UNL     1     -11.602   6.466  70.458  1.00  0.00    -0.424 C  
BRANCH   3   4
HETATM    4  C   UNL     1     -10.466   6.238  69.454  1.00  0.00    -0.298 C  
BRANCH   4   5
HETATM    5  C   UNL     1     -10.262   7.437  68.555  1.00  0.00    -0.201 A  
HETATM    6  C   UNL     1     -10.713   7.427  67.229  1.00  0.00    -0.379 A  
HETATM    7  C   UNL     1     -10.519   8.537  66.406  1.00  0.00     0.072 A  
HETATM    8  C   UNL     1      -9.627   8.587  69.044  1.00  0.00    -0.167 A  
HETATM    9  C   UNL     1      -9.877   9.673  66.900  1.00  0.00    -0.257 A  
HETATM   10  C   UNL     1      -9.433   9.697  68.221  1.00  0.00    -0.145 A  
ENDBRANCH   4   5
ENDBRANCH   3   4
ENDBRANCH   2   3
BRANCH   2  11
HETATM   11  N   UNL     1     -12.038   7.562  72.624  1.00  0.00    -0.558 NA 
HETATM   12  H   UNL     1     -12.027   7.360  73.624  1.00  0.00     0.000 HD 
BRANCH  11  13
HETATM   13  C   UNL     1     -11.801   8.992  72.385  1.00  0.00    -0.142 C  
BRANCH  13  14
HETATM   14  C   UNL     1     -12.989   9.662  71.644  1.00  0.00    -0.407 C  
HETATM   15  H   UNL     1     -14.886   9.991  72.019  1.00  0.00     0.000 HD 
HETATM   16  O   UNL     1     -14.158   9.582  72.472  1.00  0.00    -0.324 OA 
BRANCH  14  17
HETATM   17  C   UNL     1     -12.685  11.105  71.258  1.00  0.00    -0.531 A  
HETATM   18  C   UNL     1     -12.855  13.524  71.649  1.00  0.00    -0.419 A  
HETATM   19  H   UNL     1     -11.577  15.152  69.072  1.00  0.00     0.000 HD 
HETATM   20  C   UNL     1     -12.207  13.751  70.431  1.00  0.00    -0.363 A  
HETATM   21  C   UNL     1     -11.767  12.688  69.649  1.00  0.00    -0.373 A  
HETATM   22  O   UNL     1     -12.017  14.997  69.900  1.00  0.00    -0.296 OA 
HETATM   23  C   UNL     1     -12.021  11.374  70.051  1.00  0.00    -0.442 A  
HETATM   24  C   UNL     1     -13.089  12.195  72.051  1.00  0.00    -0.462 A  
BRANCH  18  25
HETATM   25  C   UNL     1     -13.352  14.607  72.547  1.00  0.00    -0.448 C  
HETATM   26  O   UNL     1     -14.389  15.216  72.317  1.00  0.00    -0.508 OA 
HETATM   27  H1  UNL     1     -12.961  15.644  74.281  1.00  0.00     0.000 HD 
HETATM   28  H2  UNL     1     -11.762  14.397  73.881  1.00  0.00     0.000 HD 
HETATM   29  N   UNL     1     -12.621  14.903  73.667  1.00  0.00    -0.519 N  
ENDBRANCH  18  25
ENDBRANCH  14  17
ENDBRANCH  13  14
ENDBRANCH  11  13
ENDBRANCH   2  11
TORSDOF 8
ENDMDL
MODEL       83
REMARK 921   NORMALIZED FREE ENERGY PREDICTED BY IDOCK:   -5.32 KCAL/MOL
REMARK 922        TOTAL FREE ENERGY PREDICTED BY IDOCK:   -9.37 KCAL/MOL
REMARK 923 INTER-LIGAND FREE ENERGY PREDICTED BY IDOCK:   -8.72 KCAL/MOL
REMARK 924 INTRA-LIGAND FREE ENERGY PREDICTED BY IDOCK:   -0.65 KCAL/MOL
REMARK 927      BINDING AFFINITY PREDICTED BY RF-SCORE:    0.00 PKD
ROOT
HETATM    1  C   UNL     1     -11.665  11.006  68.465  1.00  0.00    -0.348 C  
HETATM    2  C   UNL     1     -12.042  11.527  69.858  1.00  0.00    -0.316 C  
ENDROOT
BRANCH   2   3
HETATM    3  C   UNL     1     -11.481  10.559  70.924  1.00  0.00    -0.304 C  
BRANCH   3   4
HETATM    4  C   UNL     1     -12.399   9.366  71.214  1.00  0.00    -0.422 C  
BRANCH   4   5
HETATM    5  C   UNL     1     -11.619   8.157  71.679  1.00  0.00    -0.325 A  
HETATM    6  C   UNL     1     -11.107   8.088  72.982  1.00  0.00    -0.301 A  
HETATM    7  C   UNL     1     -10.388   6.968  73.402  1.00  0.00    -0.370 A  
HETATM    8  C   UNL     1     -11.409   7.075  70.812  1.00  0.00    -0.339 A  
HETATM    9  C   UNL     1     -10.177   5.902  72.528  1.00  0.00    -0.214 A  
HETATM   10  C   UNL     1     -10.690   5.956  71.233  1.00  0.00    -0.325 A  
ENDBRANCH   4   5
ENDBRANCH   3   4
ENDBRANCH   2   3
BRANCH   2  11
HETATM   11  N   UNL     1     -11.541  12.884  70.103  1.00  0.00    -0.535 NA 
HETATM   12  H   UNL     1     -10.610  13.000  69.706  1.00  0.00     0.000 HD 
BRANCH  11  13
HETATM   13  C   UNL     1     -12.439  13.948  69.631  1.00  0.00    -0.143 C  
BRANCH  13  14
HETATM   14  C   UNL     1     -11.903  15.361  69.986  1.00  0.00    -0.343 C  
HETATM   15  H   UNL     1     -10.833  16.147  71.429  1.00  0.00     0.000 HD 
HETATM   16  O   UNL     1     -11.161  15.282  71.211  1.00  0.00    -0.349 OA 
BRANCH  14  17
HETATM   17  C   UNL     1     -11.054  15.950  68.865  1.00  0.00    -0.316 A  
HETATM   18  C   UNL     1     -10.499  16.208  66.487  1.00  0.00    -0.298 A  
HETATM   19  H   UNL     1      -7.689  17.924  66.188  1.00  0.00     0.000 HD 
HETATM   20  C   UNL     1      -9.376  16.961  66.846  1.00  0.00    -0.241 A  
HETATM   21  C   UNL     1      -9.106  17.245  68.180  1.00  0.00    -0.257 A  
HETATM   22  O   UNL     1      -8.452  17.412  65.944  1.00  0.00    -0.530 OA 
HETATM   23  C   UNL     1      -9.929  16.727  69.184  1.00  0.00    -0.252 A  
HETATM   24  C   UNL     1     -11.329  15.707  67.507  1.00  0.00    -0.198 A  
BRANCH  18  25
HETATM   25  C   UNL     1     -10.862  15.866  65.080  1.00  0.00    -0.426 C  
HETATM   26  O   UNL     1     -11.173  16.724  64.263  1.00  0.00    -1.163 OA 
HETATM   27  H1  UNL     1     -11.071  14.316  63.744  1.00  0.00     0.000 HD 
HETATM   28  H2  UNL     1     -10.554  13.824  65.369  1.00  0.00     0.000 HD 
HETATM   29  N   UNL     1     -10.823  14.550  64.705  1.00  0.00    -0.406 N  
ENDBRANCH  18  25
ENDBRANCH  14  17
ENDBRANCH  13  14
ENDBRANCH  11  13
ENDBRANCH   2  11
TORSDOF 8
ENDMDL
MODEL       84
REMARK 921   NORMALIZED FREE ENERGY PREDICTED BY IDOCK:   -5.32 KCAL/MOL
REMARK 922        TOTAL FREE ENERGY PREDICTED BY IDOCK:   -9.36 KCAL/MOL
REMARK 923 INTER-LIGAND FREE ENERGY PREDICTED BY IDOCK:   -8.81 KCAL/MOL
REMARK 924 INTRA-LIGAND FREE ENERGY PREDICTED BY IDOCK:   -0.55 KCAL/MOL
REMARK 927      BINDING AFFINITY PREDICTED BY RF-SCORE:    0.00 PKD
ROOT
HETATM    1  C   UNL     1     -12.211  13.674  64.559  1.00  0.00    -0.444 C  
HETATM    2  C   UNL     1     -10.777  14.175  64.768  1.00  0.00    -0.419 C  
ENDROOT
BRANCH   2   3
HETATM    3  C   UNL     1     -10.819  15.667  65.169  1.00  0.00    -0.448 C  
BRANCH   3   4
HETATM    4  C   UNL     1      -9.567  16.137  65.918  1.00  0.00    -0.359 C  
BRANCH   4   5
HETATM    5  C   UNL     1      -9.803  17.441  66.645  1.00  0.00    -0.300 A  
HETATM    6  C   UNL     1      -9.508  17.569  68.009  1.00  0.00    -0.280 A  
HETATM    7  C   UNL     1      -9.729  18.777  68.672  1.00  0.00    -0.437 A  
HETATM    8  C   UNL     1     -10.310  18.553  65.956  1.00  0.00    -0.423 A  
HETATM    9  C   UNL     1     -10.243  19.873  67.979  1.00  0.00    -0.572 A  
HETATM   10  C   UNL     1     -10.531  19.760  66.620  1.00  0.00    -0.615 A  
ENDBRANCH   4   5
ENDBRANCH   3   4
ENDBRANCH   2   3
BRANCH   2  11
HETATM   11  N   UNL     1     -10.057  13.404  65.788  1.00  0.00    -0.301 NA 
HETATM   12  H   UNL     1      -9.289  13.952  66.176  1.00  0.00     0.000 HD 
BRANCH  11  13
HETATM   13  C   UNL     1     -10.915  12.887  66.864  1.00  0.00    -0.266 C  
BRANCH  13  14
HETATM   14  C   UNL     1     -11.065  11.343  66.796  1.00  0.00    -0.281 C  
HETATM   15  H   UNL     1     -10.193   9.879  65.826  1.00  0.00     0.000 HD 
HETATM   16  O   UNL     1     -10.102  10.823  65.868  1.00  0.00    -0.237 OA 
BRANCH  14  17
HETATM   17  C   UNL     1     -10.917  10.692  68.166  1.00  0.00    -0.321 A  
HETATM   18  C   UNL     1     -11.705  10.280  70.456  1.00  0.00    -0.418 A  
HETATM   19  H   UNL     1      -9.407   8.594  72.129  1.00  0.00     0.000 HD 
HETATM   20  C   UNL     1     -10.528   9.572  70.718  1.00  0.00    -0.314 A  
HETATM   21  C   UNL     1      -9.573   9.385  69.724  1.00  0.00    -0.216 A  
HETATM   22  O   UNL     1     -10.206   9.075  71.951  1.00  0.00    -0.343 OA 
HETATM   23  C   UNL     1      -9.757   9.958  68.462  1.00  0.00    -0.163 A  
HETATM   24  C   UNL     1     -11.886  10.837  69.176  1.00  0.00    -0.347 A  
BRANCH  18  25
HETATM   25  C   UNL     1     -12.780  10.519  71.463  1.00  0.00    -0.452 C  
HETATM   26  O   UNL     1     -13.410   9.599  71.969  1.00  0.00    -0.409 OA 
HETATM   27  H1  UNL     1     -13.777  11.974  72.522  1.00  0.00     0.000 HD 
HETATM   28  H2  UNL     1     -12.519  12.588  71.431  1.00  0.00     0.000 HD 
HETATM   29  N   UNL     1     -13.042  11.811  71.833  1.00  0.00    -0.445 N  
ENDBRANCH  18  25
ENDBRANCH  14  17
ENDBRANCH  13  14
ENDBRANCH  11  13
ENDBRANCH   2  11
TORSDOF 8
ENDMDL
MODEL       85
REMARK 921   NORMALIZED FREE ENERGY PREDICTED BY IDOCK:   -5.32 KCAL/MOL
REMARK 922        TOTAL FREE ENERGY PREDICTED BY IDOCK:   -9.36 KCAL/MOL
REMARK 923 INTER-LIGAND FREE ENERGY PREDICTED BY IDOCK:   -8.10 KCAL/MOL
REMARK 924 INTRA-LIGAND FREE ENERGY PREDICTED BY IDOCK:   -1.26 KCAL/MOL
REMARK 927      BINDING AFFINITY PREDICTED BY RF-SCORE:    0.00 PKD
ROOT
HETATM    1  C   UNL     1      -7.671   9.723  69.119  1.00  0.00    -0.092 C  
HETATM    2  C   UNL     1      -8.921  10.270  68.419  1.00  0.00    -0.132 C  
ENDROOT
BRANCH   2   3
HETATM    3  C   UNL     1     -10.154   9.468  68.893  1.00  0.00    -0.199 C  
BRANCH   3   4
HETATM    4  C   UNL     1     -10.775  10.005  70.188  1.00  0.00    -0.361 C  
BRANCH   4   5
HETATM    5  C   UNL     1     -11.764   9.029  70.784  1.00  0.00    -0.286 A  
HETATM    6  C   UNL     1     -12.987   9.471  71.306  1.00  0.00    -0.407 A  
HETATM    7  C   UNL     1     -13.893   8.563  71.855  1.00  0.00    -0.473 A  
HETATM    8  C   UNL     1     -11.475   7.657  70.810  1.00  0.00    -0.295 A  
HETATM    9  C   UNL     1     -13.591   7.201  71.884  1.00  0.00    -0.279 A  
HETATM   10  C   UNL     1     -12.382   6.749  71.359  1.00  0.00    -0.403 A  
ENDBRANCH   4   5
ENDBRANCH   3   4
ENDBRANCH   2   3
BRANCH   2  11
HETATM   11  N   UNL     1      -9.128  11.700  68.676  1.00  0.00    -0.336 NA 
HETATM   12  H   UNL     1      -8.331  12.093  69.177  1.00  0.00     0.000 HD 
BRANCH  11  13
HETATM   13  C   UNL     1      -9.418  12.489  67.470  1.00  0.00    -0.185 C  
BRANCH  13  14
HETATM   14  C   UNL     1     -10.806  13.181  67.550  1.00  0.00    -0.255 C  
HETATM   15  H   UNL     1     -12.677  12.626  67.358  1.00  0.00     0.000 HD 
HETATM   16  O   UNL     1     -11.827  12.202  67.310  1.00  0.00    -0.530 OA 
BRANCH  14  17
HETATM   17  C   UNL     1     -11.020  13.885  68.884  1.00  0.00    -0.290 A  
HETATM   18  C   UNL     1     -12.242  14.185  70.994  1.00  0.00    -0.432 A  
HETATM   19  H   UNL     1     -11.113  16.873  72.552  1.00  0.00     0.000 HD 
HETATM   20  C   UNL     1     -11.452  15.304  71.275  1.00  0.00    -0.380 A  
HETATM   21  C   UNL     1     -10.437  15.696  70.408  1.00  0.00    -0.211 A  
HETATM   22  O   UNL     1     -11.650  16.113  72.361  1.00  0.00    -0.443 OA 
HETATM   23  C   UNL     1     -10.235  15.002  69.211  1.00  0.00    -0.244 A  
HETATM   24  C   UNL     1     -12.017  13.485  69.794  1.00  0.00    -0.405 A  
BRANCH  18  25
HETATM   25  C   UNL     1     -13.344  13.697  71.873  1.00  0.00    -0.425 C  
HETATM   26  O   UNL     1     -13.310  12.594  72.405  1.00  0.00    -0.514 OA 
HETATM   27  H1  UNL     1     -15.163  14.194  72.696  1.00  0.00     0.000 HD 
HETATM   28  H2  UNL     1     -14.449  15.454  71.670  1.00  0.00     0.000 HD 
HETATM   29  N   UNL     1     -14.409  14.528  72.095  1.00  0.00    -0.519 N  
ENDBRANCH  18  25
ENDBRANCH  14  17
ENDBRANCH  13  14
ENDBRANCH  11  13
ENDBRANCH   2  11
TORSDOF 8
ENDMDL
MODEL       86
REMARK 921   NORMALIZED FREE ENERGY PREDICTED BY IDOCK:   -5.31 KCAL/MOL
REMARK 922        TOTAL FREE ENERGY PREDICTED BY IDOCK:   -9.35 KCAL/MOL
REMARK 923 INTER-LIGAND FREE ENERGY PREDICTED BY IDOCK:   -8.48 KCAL/MOL
REMARK 924 INTRA-LIGAND FREE ENERGY PREDICTED BY IDOCK:   -0.87 KCAL/MOL
REMARK 927      BINDING AFFINITY PREDICTED BY RF-SCORE:    0.00 PKD
ROOT
HETATM    1  C   UNL     1     -10.976   4.943  73.528  1.00  0.00    -0.397 C  
HETATM    2  C   UNL     1     -10.622   6.327  72.969  1.00  0.00    -0.239 C  
ENDROOT
BRANCH   2   3
HETATM    3  C   UNL     1      -9.828   6.150  71.654  1.00  0.00    -0.191 C  
BRANCH   3   4
HETATM    4  C   UNL     1     -10.181   4.867  70.893  1.00  0.00    -0.272 C  
BRANCH   4   5
HETATM    5  C   UNL     1     -10.280   5.106  69.404  1.00  0.00    -0.293 A  
HETATM    6  C   UNL     1     -11.031   6.174  68.895  1.00  0.00    -0.424 A  
HETATM    7  C   UNL     1     -11.117   6.387  67.518  1.00  0.00    -0.401 A  
HETATM    8  C   UNL     1      -9.604   4.267  68.506  1.00  0.00    -0.202 A  
HETATM    9  C   UNL     1     -10.449   5.540  66.634  1.00  0.00    -0.355 A  
HETATM   10  C   UNL     1      -9.691   4.481  67.130  1.00  0.00    -0.227 A  
ENDBRANCH   4   5
ENDBRANCH   3   4
ENDBRANCH   2   3
BRANCH   2  11
HETATM   11  N   UNL     1     -11.809   7.155  72.727  1.00  0.00    -0.530 NA 
HETATM   12  H   UNL     1     -12.378   7.221  73.571  1.00  0.00     0.000 HD 
BRANCH  11  13
HETATM   13  C   UNL     1     -11.507   8.495  72.203  1.00  0.00    -0.376 C  
BRANCH  13  14
HETATM   14  C   UNL     1     -12.768   9.188  71.621  1.00  0.00    -0.358 C  
HETATM   15  H   UNL     1     -14.511   9.765  72.311  1.00  0.00     0.000 HD 
HETATM   16  O   UNL     1     -13.739   9.341  72.667  1.00  0.00    -0.450 OA 
BRANCH  14  17
HETATM   17  C   UNL     1     -12.439  10.529  70.975  1.00  0.00    -0.501 A  
HETATM   18  C   UNL     1     -12.573  12.981  70.905  1.00  0.00    -0.364 A  
HETATM   19  H   UNL     1     -11.254  14.079  68.080  1.00  0.00     0.000 HD 
HETATM   20  C   UNL     1     -11.914  12.966  69.671  1.00  0.00    -0.292 A  
HETATM   21  C   UNL     1     -11.486  11.770  69.107  1.00  0.00    -0.358 A  
HETATM   22  O   UNL     1     -11.701  14.088  68.918  1.00  0.00    -0.295 OA 
HETATM   23  C   UNL     1     -11.764  10.558  69.745  1.00  0.00    -0.354 A  
HETATM   24  C   UNL     1     -12.831  11.754  71.546  1.00  0.00    -0.450 A  
BRANCH  18  25
HETATM   25  C   UNL     1     -13.058  14.220  71.580  1.00  0.00    -0.346 C  
HETATM   26  O   UNL     1     -14.248  14.504  71.637  1.00  0.00    -0.435 OA 
HETATM   27  H1  UNL     1     -12.463  15.891  72.623  1.00  0.00     0.000 HD 
HETATM   28  H2  UNL     1     -11.138  14.816  72.134  1.00  0.00     0.000 HD 
HETATM   29  N   UNL     1     -12.132  15.043  72.162  1.00  0.00    -0.367 N  
ENDBRANCH  18  25
ENDBRANCH  14  17
ENDBRANCH  13  14
ENDBRANCH  11  13
ENDBRANCH   2  11
TORSDOF 8
ENDMDL
MODEL       87
REMARK 921   NORMALIZED FREE ENERGY PREDICTED BY IDOCK:   -5.30 KCAL/MOL
REMARK 922        TOTAL FREE ENERGY PREDICTED BY IDOCK:   -9.33 KCAL/MOL
REMARK 923 INTER-LIGAND FREE ENERGY PREDICTED BY IDOCK:   -8.24 KCAL/MOL
REMARK 924 INTRA-LIGAND FREE ENERGY PREDICTED BY IDOCK:   -1.09 KCAL/MOL
REMARK 927      BINDING AFFINITY PREDICTED BY RF-SCORE:    0.00 PKD
ROOT
HETATM    1  C   UNL     1      -9.850  14.452  69.012  1.00  0.00    -0.106 C  
HETATM    2  C   UNL     1     -11.236  14.934  68.565  1.00  0.00    -0.279 C  
ENDROOT
BRANCH   2   3
HETATM    3  C   UNL     1     -11.256  15.045  67.023  1.00  0.00    -0.328 C  
BRANCH   3   4
HETATM    4  C   UNL     1     -12.291  14.132  66.356  1.00  0.00    -0.431 C  
BRANCH   4   5
HETATM    5  C   UNL     1     -11.654  13.206  65.344  1.00  0.00    -0.362 A  
HETATM    6  C   UNL     1     -10.364  12.698  65.545  1.00  0.00    -0.305 A  
HETATM    7  C   UNL     1      -9.784  11.845  64.605  1.00  0.00    -0.138 A  
HETATM    8  C   UNL     1     -12.357  12.829  64.191  1.00  0.00    -0.485 A  
HETATM    9  C   UNL     1     -10.489  11.484  63.457  1.00  0.00    -0.486 A  
HETATM   10  C   UNL     1     -11.777  11.975  63.252  1.00  0.00    -0.425 A  
ENDBRANCH   4   5
ENDBRANCH   3   4
ENDBRANCH   2   3
BRANCH   2  11
HETATM   11  N   UNL     1     -12.312  14.044  69.015  1.00  0.00    -0.501 NA 
HETATM   12  H   UNL     1     -12.794  13.632  68.217  1.00  0.00     0.000 HD 
BRANCH  11  13
HETATM   13  C   UNL     1     -11.871  12.997  69.947  1.00  0.00    -0.307 C  
BRANCH  13  14
HETATM   14  C   UNL     1     -12.530  11.626  69.634  1.00  0.00     0.015 C  
HETATM   15  H   UNL     1     -12.634  10.427  68.085  1.00  0.00     0.000 HD 
HETATM   16  O   UNL     1     -12.231  11.266  68.278  1.00  0.00    -0.611 OA 
BRANCH  14  17
HETATM   17  C   UNL     1     -12.083  10.539  70.604  1.00  0.00    -0.452 A  
HETATM   18  C   UNL     1     -10.425   8.915  71.408  1.00  0.00    -0.375 A  
HETATM   19  H   UNL     1     -11.766   7.057  73.791  1.00  0.00     0.000 HD 
HETATM   20  C   UNL     1     -11.358   8.447  72.340  1.00  0.00    -0.378 A  
HETATM   21  C   UNL     1     -12.617   9.029  72.441  1.00  0.00    -0.403 A  
HETATM   22  O   UNL     1     -11.133   7.374  73.158  1.00  0.00    -0.353 OA 
HETATM   23  C   UNL     1     -12.984  10.056  71.565  1.00  0.00    -0.535 A  
HETATM   24  C   UNL     1     -10.801   9.960  70.545  1.00  0.00    -0.391 A  
BRANCH  18  25
HETATM   25  C   UNL     1      -9.054   8.350  71.242  1.00  0.00    -0.178 C  
HETATM   26  O   UNL     1      -8.109   8.728  71.923  1.00  0.00    -0.282 OA 
HETATM   27  H1  UNL     1      -7.933   6.981  70.192  1.00  0.00     0.000 HD 
HETATM   28  H2  UNL     1      -9.648   7.031  69.739  1.00  0.00     0.000 HD 
HETATM   29  N   UNL     1      -8.870   7.367  70.306  1.00  0.00    -0.146 N  
ENDBRANCH  18  25
ENDBRANCH  14  17
ENDBRANCH  13  14
ENDBRANCH  11  13
ENDBRANCH   2  11
TORSDOF 8
ENDMDL
MODEL       88
REMARK 921   NORMALIZED FREE ENERGY PREDICTED BY IDOCK:   -5.29 KCAL/MOL
REMARK 922        TOTAL FREE ENERGY PREDICTED BY IDOCK:   -9.32 KCAL/MOL
REMARK 923 INTER-LIGAND FREE ENERGY PREDICTED BY IDOCK:   -8.72 KCAL/MOL
REMARK 924 INTRA-LIGAND FREE ENERGY PREDICTED BY IDOCK:   -0.60 KCAL/MOL
REMARK 927      BINDING AFFINITY PREDICTED BY RF-SCORE:    0.00 PKD
ROOT
HETATM    1  C   UNL     1     -11.777  12.839  66.824  1.00  0.00    -0.459 C  
HETATM    2  C   UNL     1     -11.752  13.669  68.113  1.00  0.00    -0.357 C  
ENDROOT
BRANCH   2   3
HETATM    3  C   UNL     1     -11.715  12.711  69.326  1.00  0.00    -0.379 C  
BRANCH   3   4
HETATM    4  C   UNL     1     -11.565  11.236  68.939  1.00  0.00    -0.386 C  
BRANCH   4   5
HETATM    5  C   UNL     1     -11.792  10.319  70.120  1.00  0.00    -0.343 A  
HETATM    6  C   UNL     1     -13.053  10.221  70.723  1.00  0.00    -0.360 A  
HETATM    7  C   UNL     1     -13.253   9.373  71.813  1.00  0.00    -0.487 A  
HETATM    8  C   UNL     1     -10.740   9.538  70.621  1.00  0.00    -0.375 A  
HETATM    9  C   UNL     1     -12.197   8.608  72.309  1.00  0.00    -0.447 A  
HETATM   10  C   UNL     1     -10.942   8.690  71.711  1.00  0.00    -0.396 A  
ENDBRANCH   4   5
ENDBRANCH   3   4
ENDBRANCH   2   3
BRANCH   2  11
HETATM   11  N   UNL     1     -10.608  14.587  68.167  1.00  0.00    -0.235 NA 
HETATM   12  H   UNL     1      -9.755  14.114  67.872  1.00  0.00     0.000 HD 
BRANCH  11  13
HETATM   13  C   UNL     1     -10.801  15.827  67.403  1.00  0.00    -0.306 C  
BRANCH  13  14
HETATM   14  C   UNL     1     -10.941  17.065  68.330  1.00  0.00    -0.269 C  
HETATM   15  H   UNL     1     -10.890  17.398  70.262  1.00  0.00     0.000 HD 
HETATM   16  O   UNL     1     -10.803  16.642  69.694  1.00  0.00    -0.341 OA 
BRANCH  14  17
HETATM   17  C   UNL     1      -9.934  18.156  67.987  1.00  0.00    -0.353 A  
HETATM   18  C   UNL     1      -7.826  19.351  68.392  1.00  0.00    -0.377 A  
HETATM   19  H   UNL     1      -7.664  22.002  66.424  1.00  0.00     0.000 HD 
HETATM   20  C   UNL     1      -8.172  20.268  67.394  1.00  0.00    -0.338 A  
HETATM   21  C   UNL     1      -9.352  20.124  66.672  1.00  0.00    -0.490 A  
HETATM   22  O   UNL     1      -7.429  21.379  67.102  1.00  0.00    -0.417 OA 
HETATM   23  C   UNL     1     -10.237  19.086  66.980  1.00  0.00    -0.460 A  
HETATM   24  C   UNL     1      -8.717  18.300  68.679  1.00  0.00    -0.290 A  
BRANCH  18  25
HETATM   25  C   UNL     1      -6.578  19.431  69.206  1.00  0.00    -0.326 C  
HETATM   26  O   UNL     1      -6.438  20.258  70.099  1.00  0.00    -0.334 OA 
HETATM   27  H1  UNL     1      -4.724  18.590  69.499  1.00  0.00     0.000 HD 
HETATM   28  H2  UNL     1      -5.682  17.832  68.211  1.00  0.00     0.000 HD 
HETATM   29  N   UNL     1      -5.577  18.535  68.943  1.00  0.00    -0.197 N  
ENDBRANCH  18  25
ENDBRANCH  14  17
ENDBRANCH  13  14
ENDBRANCH  11  13
ENDBRANCH   2  11
TORSDOF 8
ENDMDL
MODEL       89
REMARK 921   NORMALIZED FREE ENERGY PREDICTED BY IDOCK:   -5.29 KCAL/MOL
REMARK 922        TOTAL FREE ENERGY PREDICTED BY IDOCK:   -9.31 KCAL/MOL
REMARK 923 INTER-LIGAND FREE ENERGY PREDICTED BY IDOCK:   -7.42 KCAL/MOL
REMARK 924 INTRA-LIGAND FREE ENERGY PREDICTED BY IDOCK:   -1.90 KCAL/MOL
REMARK 927      BINDING AFFINITY PREDICTED BY RF-SCORE:    0.00 PKD
ROOT
HETATM    1  C   UNL     1     -10.955   5.883  69.978  1.00  0.00    -0.430 C  
HETATM    2  C   UNL     1     -10.486   7.297  70.343  1.00  0.00    -0.220 C  
ENDROOT
BRANCH   2   3
HETATM    3  C   UNL     1     -10.294   8.113  69.046  1.00  0.00    -0.229 C  
BRANCH   3   4
HETATM    4  C   UNL     1      -8.825   8.394  68.709  1.00  0.00    -0.140 C  
BRANCH   4   5
HETATM    5  C   UNL     1      -8.634   9.780  68.138  1.00  0.00    -0.118 A  
HETATM    6  C   UNL     1      -8.235  10.847  68.955  1.00  0.00    -0.141 A  
HETATM    7  C   UNL     1      -8.062  12.124  68.419  1.00  0.00    -0.149 A  
HETATM    8  C   UNL     1      -8.841  10.017  66.771  1.00  0.00    -0.144 A  
HETATM    9  C   UNL     1      -8.279  12.349  67.060  1.00  0.00    -0.141 A  
HETATM   10  C   UNL     1      -8.667  11.294  66.236  1.00  0.00    -0.184 A  
ENDBRANCH   4   5
ENDBRANCH   3   4
ENDBRANCH   2   3
BRANCH   2  11
HETATM   11  N   UNL     1     -11.428   7.987  71.232  1.00  0.00    -0.264 NA 
HETATM   12  H   UNL     1     -11.406   7.578  72.166  1.00  0.00     0.000 HD 
BRANCH  11  13
HETATM   13  C   UNL     1     -11.227   9.441  71.303  1.00  0.00    -0.367 C  
BRANCH  13  14
HETATM   14  C   UNL     1     -12.538  10.223  71.015  1.00  0.00    -0.390 C  
HETATM   15  H   UNL     1     -13.994  10.985  72.084  1.00  0.00     0.000 HD 
HETATM   16  O   UNL     1     -13.192  10.507  72.260  1.00  0.00    -0.402 OA 
BRANCH  14  17
HETATM   17  C   UNL     1     -12.282  11.500  70.224  1.00  0.00    -0.415 A  
HETATM   18  C   UNL     1     -12.279  13.948  70.021  1.00  0.00    -0.408 A  
HETATM   19  H   UNL     1     -11.566  14.797  66.906  1.00  0.00     0.000 HD 
HETATM   20  C   UNL     1     -11.918  13.821  68.675  1.00  0.00    -0.366 A  
HETATM   21  C   UNL     1     -11.701  12.568  68.111  1.00  0.00    -0.400 A  
HETATM   22  O   UNL     1     -11.812  14.884  67.820  1.00  0.00    -0.345 OA 
HETATM   23  C   UNL     1     -11.901  11.415  68.875  1.00  0.00    -0.413 A  
HETATM   24  C   UNL     1     -12.460  12.779  70.783  1.00  0.00    -0.357 A  
BRANCH  18  25
HETATM   25  C   UNL     1     -12.523  15.254  70.701  1.00  0.00    -0.406 C  
HETATM   26  O   UNL     1     -13.654  15.682  70.897  1.00  0.00    -0.568 OA 
HETATM   27  H1  UNL     1     -11.606  16.864  71.593  1.00  0.00     0.000 HD 
HETATM   28  H2  UNL     1     -10.491  15.625  70.984  1.00  0.00     0.000 HD 
HETATM   29  N   UNL     1     -11.439  15.972  71.128  1.00  0.00    -0.419 N  
ENDBRANCH  18  25
ENDBRANCH  14  17
ENDBRANCH  13  14
ENDBRANCH  11  13
ENDBRANCH   2  11
TORSDOF 8
ENDMDL
MODEL       90
REMARK 921   NORMALIZED FREE ENERGY PREDICTED BY IDOCK:   -5.26 KCAL/MOL
REMARK 922        TOTAL FREE ENERGY PREDICTED BY IDOCK:   -9.28 KCAL/MOL
REMARK 923 INTER-LIGAND FREE ENERGY PREDICTED BY IDOCK:   -8.21 KCAL/MOL
REMARK 924 INTRA-LIGAND FREE ENERGY PREDICTED BY IDOCK:   -1.07 KCAL/MOL
REMARK 927      BINDING AFFINITY PREDICTED BY RF-SCORE:    0.00 PKD
ROOT
HETATM    1  C   UNL     1     -10.833  14.607  66.529  1.00  0.00    -0.315 C  
HETATM    2  C   UNL     1     -10.786  14.649  68.061  1.00  0.00    -0.246 C  
ENDROOT
BRANCH   2   3
HETATM    3  C   UNL     1     -11.979  13.843  68.622  1.00  0.00    -0.401 C  
BRANCH   3   4
HETATM    4  C   UNL     1     -11.753  13.323  70.047  1.00  0.00    -0.295 C  
BRANCH   4   5
HETATM    5  C   UNL     1     -12.389  14.224  71.081  1.00  0.00    -0.440 A  
HETATM    6  C   UNL     1     -13.782  14.294  71.215  1.00  0.00    -0.328 A  
HETATM    7  C   UNL     1     -14.361  15.129  72.172  1.00  0.00    -0.647 A  
HETATM    8  C   UNL     1     -11.588  14.995  71.936  1.00  0.00    -0.426 A  
HETATM    9  C   UNL     1     -13.555  15.899  73.011  1.00  0.00    -0.616 A  
HETATM   10  C   UNL     1     -12.168  15.829  72.893  1.00  0.00    -0.586 A  
ENDBRANCH   4   5
ENDBRANCH   3   4
ENDBRANCH   2   3
BRANCH   2  11
HETATM   11  N   UNL     1      -9.528  14.118  68.599  1.00  0.00    -0.296 NA 
HETATM   12  H   UNL     1      -9.038  13.572  67.891  1.00  0.00     0.000 HD 
BRANCH  11  13
HETATM   13  C   UNL     1      -8.639  15.143  69.165  1.00  0.00    -0.218 C  
BRANCH  13  14
HETATM   14  C   UNL     1      -7.363  15.344  68.304  1.00  0.00    -0.112 C  
HETATM   15  H   UNL     1      -6.432  14.342  66.898  1.00  0.00     0.000 HD 
HETATM   16  O   UNL     1      -7.213  14.220  67.425  1.00  0.00    -0.185 OA 
BRANCH  14  17
HETATM   17  C   UNL     1      -7.397  16.653  67.523  1.00  0.00    -0.173 A  
HETATM   18  C   UNL     1      -8.559  18.675  66.752  1.00  0.00    -0.291 A  
HETATM   19  H   UNL     1      -6.665  20.268  64.560  1.00  0.00     0.000 HD 
HETATM   20  C   UNL     1      -7.450  18.992  65.961  1.00  0.00    -0.254 A  
HETATM   21  C   UNL     1      -6.315  18.188  65.970  1.00  0.00    -0.275 A  
HETATM   22  O   UNL     1      -7.419  20.053  65.097  1.00  0.00    -0.311 OA 
HETATM   23  C   UNL     1      -6.296  17.016  66.732  1.00  0.00    -0.246 A  
HETATM   24  C   UNL     1      -8.520  17.501  67.527  1.00  0.00    -0.216 A  
BRANCH  18  25
HETATM   25  C   UNL     1      -9.810  19.487  66.803  1.00  0.00    -0.382 C  
HETATM   26  O   UNL     1     -10.424  19.797  65.790  1.00  0.00    -0.511 OA 
HETATM   27  H1  UNL     1     -11.133  20.429  68.065  1.00  0.00     0.000 HD 
HETATM   28  H2  UNL     1      -9.786  19.614  68.885  1.00  0.00     0.000 HD 
HETATM   29  N   UNL     1     -10.278  19.874  68.030  1.00  0.00    -0.439 N  
ENDBRANCH  18  25
ENDBRANCH  14  17
ENDBRANCH  13  14
ENDBRANCH  11  13
ENDBRANCH   2  11
TORSDOF 8
ENDMDL
MODEL       91
REMARK 921   NORMALIZED FREE ENERGY PREDICTED BY IDOCK:   -5.26 KCAL/MOL
REMARK 922        TOTAL FREE ENERGY PREDICTED BY IDOCK:   -9.27 KCAL/MOL
REMARK 923 INTER-LIGAND FREE ENERGY PREDICTED BY IDOCK:   -8.58 KCAL/MOL
REMARK 924 INTRA-LIGAND FREE ENERGY PREDICTED BY IDOCK:   -0.69 KCAL/MOL
REMARK 927      BINDING AFFINITY PREDICTED BY RF-SCORE:    0.00 PKD
ROOT
HETATM    1  C   UNL     1      -9.396   9.779  69.389  1.00  0.00    -0.212 C  
HETATM    2  C   UNL     1     -10.911   9.631  69.205  1.00  0.00    -0.151 C  
ENDROOT
BRANCH   2   3
HETATM    3  C   UNL     1     -11.632  10.405  70.331  1.00  0.00    -0.423 C  
BRANCH   3   4
HETATM    4  C   UNL     1     -12.647   9.558  71.107  1.00  0.00    -0.383 C  
BRANCH   4   5
HETATM    5  C   UNL     1     -11.994   8.362  71.764  1.00  0.00    -0.380 A  
HETATM    6  C   UNL     1     -12.527   7.075  71.607  1.00  0.00    -0.413 A  
HETATM    7  C   UNL     1     -11.918   5.977  72.217  1.00  0.00    -0.259 A  
HETATM    8  C   UNL     1     -10.832   8.523  72.531  1.00  0.00    -0.304 A  
HETATM    9  C   UNL     1     -10.768   6.151  72.986  1.00  0.00    -0.276 A  
HETATM   10  C   UNL     1     -10.224   7.425  73.141  1.00  0.00    -0.363 A  
ENDBRANCH   4   5
ENDBRANCH   3   4
ENDBRANCH   2   3
BRANCH   2  11
HETATM   11  N   UNL     1     -11.368  10.114  67.896  1.00  0.00    -0.576 NA 
HETATM   12  H   UNL     1     -12.339   9.849  67.735  1.00  0.00     0.000 HD 
BRANCH  11  13
HETATM   13  C   UNL     1     -11.188  11.560  67.697  1.00  0.00    -0.281 C  
BRANCH  13  14
HETATM   14  C   UNL     1     -10.215  11.868  66.527  1.00  0.00    -0.203 C  
HETATM   15  H   UNL     1      -9.718  11.007  64.836  1.00  0.00     0.000 HD 
HETATM   16  O   UNL     1     -10.313  10.819  65.552  1.00  0.00    -0.265 OA 
BRANCH  14  17
HETATM   17  C   UNL     1     -10.485  13.230  65.899  1.00  0.00    -0.289 A  
HETATM   18  C   UNL     1     -10.029  15.634  65.682  1.00  0.00    -0.388 A  
HETATM   19  H   UNL     1     -12.290  17.012  63.703  1.00  0.00     0.000 HD 
HETATM   20  C   UNL     1     -11.113  15.745  64.804  1.00  0.00    -0.400 A  
HETATM   21  C   UNL     1     -11.853  14.624  64.442  1.00  0.00    -0.405 A  
HETATM   22  O   UNL     1     -11.554  16.937  64.298  1.00  0.00    -1.032 OA 
HETATM   23  C   UNL     1     -11.553  13.379  65.001  1.00  0.00    -0.339 A  
HETATM   24  C   UNL     1      -9.727  14.371  66.223  1.00  0.00    -0.330 A  
BRANCH  18  25
HETATM   25  C   UNL     1      -9.183  16.784  66.115  1.00  0.00    -0.249 C  
HETATM   26  O   UNL     1      -8.008  16.885  65.785  1.00  0.00    -0.374 OA 
HETATM   27  H1  UNL     1      -9.181  18.540  67.186  1.00  0.00     0.000 HD 
HETATM   28  H2  UNL     1     -10.740  17.692  67.164  1.00  0.00     0.000 HD 
HETATM   29  N   UNL     1      -9.759  17.754  66.890  1.00  0.00    -0.288 N  
ENDBRANCH  18  25
ENDBRANCH  14  17
ENDBRANCH  13  14
ENDBRANCH  11  13
ENDBRANCH   2  11
TORSDOF 8
ENDMDL
MODEL       92
REMARK 921   NORMALIZED FREE ENERGY PREDICTED BY IDOCK:   -5.25 KCAL/MOL
REMARK 922        TOTAL FREE ENERGY PREDICTED BY IDOCK:   -9.26 KCAL/MOL
REMARK 923 INTER-LIGAND FREE ENERGY PREDICTED BY IDOCK:   -8.24 KCAL/MOL
REMARK 924 INTRA-LIGAND FREE ENERGY PREDICTED BY IDOCK:   -1.01 KCAL/MOL
REMARK 927      BINDING AFFINITY PREDICTED BY RF-SCORE:    0.00 PKD
ROOT
HETATM    1  C   UNL     1     -10.256   5.113  67.551  1.00  0.00    -0.210 C  
HETATM    2  C   UNL     1     -10.887   6.391  68.117  1.00  0.00    -0.308 C  
ENDROOT
BRANCH   2   3
HETATM    3  C   UNL     1     -11.216   6.171  69.611  1.00  0.00    -0.488 C  
BRANCH   3   4
HETATM    4  C   UNL     1     -10.518   7.165  70.546  1.00  0.00    -0.228 C  
BRANCH   4   5
HETATM    5  C   UNL     1     -11.453   8.265  70.994  1.00  0.00    -0.303 A  
HETATM    6  C   UNL     1     -12.564   7.982  71.800  1.00  0.00    -0.353 A  
HETATM    7  C   UNL     1     -13.422   9.004  72.209  1.00  0.00    -0.529 A  
HETATM    8  C   UNL     1     -11.212   9.595  70.620  1.00  0.00    -0.385 A  
HETATM    9  C   UNL     1     -13.177  10.322  71.822  1.00  0.00    -0.534 A  
HETATM   10  C   UNL     1     -12.070  10.616  71.029  1.00  0.00    -0.473 A  
ENDBRANCH   4   5
ENDBRANCH   3   4
ENDBRANCH   2   3
BRANCH   2  11
HETATM   11  N   UNL     1     -10.014   7.562  67.966  1.00  0.00    -0.165 NA 
HETATM   12  H   UNL     1      -9.071   7.274  67.706  1.00  0.00     0.000 HD 
BRANCH  11  13
HETATM   13  C   UNL     1     -10.523   8.570  67.025  1.00  0.00    -0.292 C  
BRANCH  13  14
HETATM   14  C   UNL     1      -9.467   9.667  66.723  1.00  0.00    -0.161 C  
HETATM   15  H   UNL     1      -8.302  10.133  65.216  1.00  0.00     0.000 HD 
HETATM   16  O   UNL     1      -8.949   9.462  65.401  1.00  0.00    -0.179 OA 
BRANCH  14  17
HETATM   17  C   UNL     1     -10.038  11.072  66.880  1.00  0.00    -0.248 A  
HETATM   18  C   UNL     1     -11.460  12.920  66.109  1.00  0.00    -0.393 A  
HETATM   19  H   UNL     1     -10.935  15.580  68.000  1.00  0.00     0.000 HD 
HETATM   20  C   UNL     1     -10.960  13.717  67.145  1.00  0.00    -0.288 A  
HETATM   21  C   UNL     1     -10.048  13.204  68.060  1.00  0.00    -0.232 A  
HETATM   22  O   UNL     1     -11.274  15.039  67.297  1.00  0.00    -0.327 OA 
HETATM   23  C   UNL     1      -9.575  11.896  67.917  1.00  0.00    -0.193 A  
HETATM   24  C   UNL     1     -10.989  11.600  65.987  1.00  0.00    -0.338 A  
BRANCH  18  25
HETATM   25  C   UNL     1     -12.444  13.392  65.091  1.00  0.00    -0.459 C  
HETATM   26  O   UNL     1     -13.478  13.967  65.407  1.00  0.00    -0.672 OA 
HETATM   27  H1  UNL     1     -12.830  13.505  63.074  1.00  0.00     0.000 HD 
HETATM   28  H2  UNL     1     -11.294  12.716  63.488  1.00  0.00     0.000 HD 
HETATM   29  N   UNL     1     -12.157  13.182  63.769  1.00  0.00    -0.485 N  
ENDBRANCH  18  25
ENDBRANCH  14  17
ENDBRANCH  13  14
ENDBRANCH  11  13
ENDBRANCH   2  11
TORSDOF 8
ENDMDL
MODEL       93
REMARK 921   NORMALIZED FREE ENERGY PREDICTED BY IDOCK:   -5.24 KCAL/MOL
REMARK 922        TOTAL FREE ENERGY PREDICTED BY IDOCK:   -9.25 KCAL/MOL
REMARK 923 INTER-LIGAND FREE ENERGY PREDICTED BY IDOCK:   -7.94 KCAL/MOL
REMARK 924 INTRA-LIGAND FREE ENERGY PREDICTED BY IDOCK:   -1.31 KCAL/MOL
REMARK 927      BINDING AFFINITY PREDICTED BY RF-SCORE:    0.00 PKD
ROOT
HETATM    1  C   UNL     1      -9.457  10.304  69.987  1.00  0.00     0.039 C  
HETATM    2  C   UNL     1     -10.730   9.463  70.148  1.00  0.00    -0.243 C  
ENDROOT
BRANCH   2   3
HETATM    3  C   UNL     1     -11.962  10.378  69.967  1.00  0.00    -0.324 C  
BRANCH   3   4
HETATM    4  C   UNL     1     -11.604  11.839  69.670  1.00  0.00    -0.393 C  
BRANCH   4   5
HETATM    5  C   UNL     1     -12.350  12.795  70.573  1.00  0.00    -0.355 A  
HETATM    6  C   UNL     1     -12.269  14.181  70.378  1.00  0.00    -0.427 A  
HETATM    7  C   UNL     1     -12.960  15.056  71.217  1.00  0.00    -0.448 A  
HETATM    8  C   UNL     1     -13.149  12.305  71.616  1.00  0.00    -0.408 A  
HETATM    9  C   UNL     1     -13.745  14.558  72.257  1.00  0.00    -0.559 A  
HETATM   10  C   UNL     1     -13.840  13.182  72.454  1.00  0.00    -0.583 A  
ENDBRANCH   4   5
ENDBRANCH   3   4
ENDBRANCH   2   3
BRANCH   2  11
HETATM   11  N   UNL     1     -10.792   8.350  69.194  1.00  0.00    -0.419 NA 
HETATM   12  H   UNL     1     -11.557   8.485  68.534  1.00  0.00     0.000 HD 
BRANCH  11  13
HETATM   13  C   UNL     1      -9.531   8.105  68.479  1.00  0.00    -0.143 C  
BRANCH  13  14
HETATM   14  C   UNL     1      -9.770   7.763  66.983  1.00  0.00    -0.197 C  
HETATM   15  H   UNL     1     -11.165   6.858  65.944  1.00  0.00     0.000 HD 
HETATM   16  O   UNL     1     -11.018   7.068  66.859  1.00  0.00    -0.371 OA 
BRANCH  14  17
HETATM   17  C   UNL     1      -9.740   9.004  66.099  1.00  0.00    -0.354 A  
HETATM   18  C   UNL     1     -10.415  11.312  65.598  1.00  0.00    -0.317 A  
HETATM   19  H   UNL     1      -9.344  12.146  62.583  1.00  0.00     0.000 HD 
HETATM   20  C   UNL     1      -9.757  11.221  64.367  1.00  0.00    -0.254 A  
HETATM   21  C   UNL     1      -9.068  10.067  64.011  1.00  0.00    -0.296 A  
HETATM   22  O   UNL     1      -9.791  12.208  63.420  1.00  0.00    -0.368 OA 
HETATM   23  C   UNL     1      -9.076   8.959  64.863  1.00  0.00    -0.061 A  
HETATM   24  C   UNL     1     -10.400  10.196  66.454  1.00  0.00    -0.258 A  
BRANCH  18  25
HETATM   25  C   UNL     1     -11.170  12.515  66.056  1.00  0.00    -0.315 C  
HETATM   26  O   UNL     1     -12.389  12.589  65.966  1.00  0.00    -0.615 OA 
HETATM   27  H1  UNL     1     -10.979  14.373  66.919  1.00  0.00     0.000 HD 
HETATM   28  H2  UNL     1      -9.449  13.501  66.699  1.00  0.00     0.000 HD 
HETATM   29  N   UNL     1     -10.463  13.551  66.606  1.00  0.00    -0.272 N  
ENDBRANCH  18  25
ENDBRANCH  14  17
ENDBRANCH  13  14
ENDBRANCH  11  13
ENDBRANCH   2  11
TORSDOF 8
ENDMDL
MODEL       94
REMARK 921   NORMALIZED FREE ENERGY PREDICTED BY IDOCK:   -5.24 KCAL/MOL
REMARK 922        TOTAL FREE ENERGY PREDICTED BY IDOCK:   -9.25 KCAL/MOL
REMARK 923 INTER-LIGAND FREE ENERGY PREDICTED BY IDOCK:   -8.18 KCAL/MOL
REMARK 924 INTRA-LIGAND FREE ENERGY PREDICTED BY IDOCK:   -1.07 KCAL/MOL
REMARK 927      BINDING AFFINITY PREDICTED BY RF-SCORE:    0.00 PKD
ROOT
HETATM    1  C   UNL     1     -14.408   7.879  71.629  1.00  0.00    -0.595 C  
HETATM    2  C   UNL     1     -13.054   8.583  71.782  1.00  0.00    -0.355 C  
ENDROOT
BRANCH   2   3
HETATM    3  C   UNL     1     -13.295  10.096  71.984  1.00  0.00    -0.492 C  
BRANCH   3   4
HETATM    4  C   UNL     1     -12.425  10.981  71.084  1.00  0.00    -0.502 C  
BRANCH   4   5
HETATM    5  C   UNL     1     -12.719  12.450  71.288  1.00  0.00    -0.347 A  
HETATM    6  C   UNL     1     -12.044  13.429  70.545  1.00  0.00    -0.399 A  
HETATM    7  C   UNL     1     -12.322  14.783  70.740  1.00  0.00    -0.397 A  
HETATM    8  C   UNL     1     -13.688  12.856  72.217  1.00  0.00    -0.553 A  
HETATM    9  C   UNL     1     -13.280  15.175  71.674  1.00  0.00    -0.496 A  
HETATM   10  C   UNL     1     -13.964  14.210  72.411  1.00  0.00    -0.613 A  
ENDBRANCH   4   5
ENDBRANCH   3   4
ENDBRANCH   2   3
BRANCH   2  11
HETATM   11  N   UNL     1     -12.268   8.050  72.901  1.00  0.00    -0.640 NA 
HETATM   12  H   UNL     1     -12.568   7.102  73.130  1.00  0.00     0.000 HD 
BRANCH  11  13
HETATM   13  C   UNL     1     -10.815   8.093  72.685  1.00  0.00    -0.359 C  
BRANCH  13  14
HETATM   14  C   UNL     1     -10.267   6.739  72.158  1.00  0.00    -0.193 C  
HETATM   15  H   UNL     1     -10.764   4.849  72.326  1.00  0.00     0.000 HD 
HETATM   16  O   UNL     1     -11.100   5.678  72.647  1.00  0.00    -0.250 OA 
BRANCH  14  17
HETATM   17  C   UNL     1     -10.174   6.709  70.638  1.00  0.00    -0.215 A  
HETATM   18  C   UNL     1      -9.919   7.836  68.470  1.00  0.00    -0.193 A  
HETATM   19  H   UNL     1     -10.386   5.655  66.030  1.00  0.00     0.000 HD 
HETATM   20  C   UNL     1     -10.139   6.614  67.826  1.00  0.00    -0.148 A  
HETATM   21  C   UNL     1     -10.335   5.448  68.558  1.00  0.00    -0.219 A  
HETATM   22  O   UNL     1     -10.237   6.485  66.467  1.00  0.00    -0.152 OA 
HETATM   23  C   UNL     1     -10.371   5.499  69.955  1.00  0.00    -0.368 A  
HETATM   24  C   UNL     1      -9.940   7.870  69.876  1.00  0.00    -0.192 A  
BRANCH  18  25
HETATM   25  C   UNL     1      -9.694   9.128  67.758  1.00  0.00    -0.154 C  
HETATM   26  O   UNL     1     -10.543  10.011  67.733  1.00  0.00    -0.224 OA 
HETATM   27  H1  UNL     1      -8.338  10.204  66.646  1.00  0.00     0.000 HD 
HETATM   28  H2  UNL     1      -7.769   8.601  67.154  1.00  0.00     0.000 HD 
HETATM   29  N   UNL     1      -8.491   9.321  67.133  1.00  0.00    -0.123 N  
ENDBRANCH  18  25
ENDBRANCH  14  17
ENDBRANCH  13  14
ENDBRANCH  11  13
ENDBRANCH   2  11
TORSDOF 8
ENDMDL
MODEL       95
REMARK 921   NORMALIZED FREE ENERGY PREDICTED BY IDOCK:   -5.22 KCAL/MOL
REMARK 922        TOTAL FREE ENERGY PREDICTED BY IDOCK:   -9.22 KCAL/MOL
REMARK 923 INTER-LIGAND FREE ENERGY PREDICTED BY IDOCK:   -8.05 KCAL/MOL
REMARK 924 INTRA-LIGAND FREE ENERGY PREDICTED BY IDOCK:   -1.17 KCAL/MOL
REMARK 927      BINDING AFFINITY PREDICTED BY RF-SCORE:    0.00 PKD
ROOT
HETATM    1  C   UNL     1     -11.313  11.857  64.176  1.00  0.00    -0.455 C  
HETATM    2  C   UNL     1     -10.739  12.345  65.512  1.00  0.00    -0.280 C  
ENDROOT
BRANCH   2   3
HETATM    3  C   UNL     1     -11.907  12.708  66.457  1.00  0.00    -0.463 C  
BRANCH   3   4
HETATM    4  C   UNL     1     -12.113  14.217  66.626  1.00  0.00    -0.448 C  
BRANCH   4   5
HETATM    5  C   UNL     1     -11.779  14.677  68.027  1.00  0.00    -0.371 A  
HETATM    6  C   UNL     1     -11.985  13.836  69.129  1.00  0.00    -0.403 A  
HETATM    7  C   UNL     1     -11.674  14.268  70.419  1.00  0.00    -0.329 A  
HETATM    8  C   UNL     1     -11.240  15.953  68.243  1.00  0.00    -0.354 A  
HETATM    9  C   UNL     1     -11.148  15.544  70.622  1.00  0.00    -0.378 A  
HETATM   10  C   UNL     1     -10.929  16.385  69.533  1.00  0.00    -0.317 A  
ENDBRANCH   4   5
ENDBRANCH   3   4
ENDBRANCH   2   3
BRANCH   2  11
HETATM   11  N   UNL     1      -9.874  11.345  66.149  1.00  0.00    -0.214 NA 
HETATM   12  H   UNL     1      -8.958  11.743  66.354  1.00  0.00     0.000 HD 
BRANCH  11  13
HETATM   13  C   UNL     1     -10.452  10.736  67.355  1.00  0.00    -0.225 C  
BRANCH  13  14
HETATM   14  C   UNL     1      -9.369  10.416  68.421  1.00  0.00    -0.150 C  
HETATM   15  H   UNL     1      -8.028  11.436  69.425  1.00  0.00     0.000 HD 
HETATM   16  O   UNL     1      -8.691  11.631  68.773  1.00  0.00    -0.119 OA 
BRANCH  14  17
HETATM   17  C   UNL     1      -9.958   9.737  69.652  1.00  0.00    -0.244 A  
HETATM   18  C   UNL     1     -11.702   9.518  71.368  1.00  0.00    -0.465 A  
HETATM   19  H   UNL     1     -10.757   7.294  73.624  1.00  0.00     0.000 HD 
HETATM   20  C   UNL     1     -10.934   8.534  72.001  1.00  0.00    -0.340 A  
HETATM   21  C   UNL     1      -9.721   8.122  71.461  1.00  0.00    -0.230 A  
HETATM   22  O   UNL     1     -11.278   7.963  73.195  1.00  0.00    -0.382 OA 
HETATM   23  C   UNL     1      -9.227   8.733  70.305  1.00  0.00    -0.191 A  
HETATM   24  C   UNL     1     -11.201  10.113  70.195  1.00  0.00    -0.377 A  
BRANCH  18  25
HETATM   25  C   UNL     1     -13.015  10.011  71.878  1.00  0.00    -0.447 C  
HETATM   26  O   UNL     1     -13.925   9.247  72.171  1.00  0.00    -0.409 OA 
HETATM   27  H1  UNL     1     -14.079  11.699  72.380  1.00  0.00     0.000 HD 
HETATM   28  H2  UNL     1     -12.430  12.012  71.804  1.00  0.00     0.000 HD 
HETATM   29  N   UNL     1     -13.182  11.362  72.032  1.00  0.00    -0.455 N  
ENDBRANCH  18  25
ENDBRANCH  14  17
ENDBRANCH  13  14
ENDBRANCH  11  13
ENDBRANCH   2  11
TORSDOF 8
ENDMDL
MODEL       96
REMARK 921   NORMALIZED FREE ENERGY PREDICTED BY IDOCK:   -5.22 KCAL/MOL
REMARK 922        TOTAL FREE ENERGY PREDICTED BY IDOCK:   -9.22 KCAL/MOL
REMARK 923 INTER-LIGAND FREE ENERGY PREDICTED BY IDOCK:   -7.16 KCAL/MOL
REMARK 924 INTRA-LIGAND FREE ENERGY PREDICTED BY IDOCK:   -2.05 KCAL/MOL
REMARK 927      BINDING AFFINITY PREDICTED BY RF-SCORE:    0.00 PKD
ROOT
HETATM    1  C   UNL     1      -9.026   6.515  70.890  1.00  0.00    -0.147 C  
HETATM    2  C   UNL     1     -10.216   5.729  70.325  1.00  0.00    -0.230 C  
ENDROOT
BRANCH   2   3
HETATM    3  C   UNL     1     -11.510   6.544  70.555  1.00  0.00    -0.448 C  
BRANCH   3   4
HETATM    4  C   UNL     1     -11.454   7.448  71.791  1.00  0.00    -0.297 C  
BRANCH   4   5
HETATM    5  C   UNL     1     -11.844   8.872  71.463  1.00  0.00    -0.402 A  
HETATM    6  C   UNL     1     -11.161   9.597  70.478  1.00  0.00    -0.369 A  
HETATM    7  C   UNL     1     -11.528  10.911  70.182  1.00  0.00    -0.405 A  
HETATM    8  C   UNL     1     -12.912   9.485  72.135  1.00  0.00    -0.497 A  
HETATM    9  C   UNL     1     -12.585  11.514  70.864  1.00  0.00    -0.438 A  
HETATM   10  C   UNL     1     -13.278  10.799  71.839  1.00  0.00    -0.524 A  
ENDBRANCH   4   5
ENDBRANCH   3   4
ENDBRANCH   2   3
BRANCH   2  11
HETATM   11  N   UNL     1     -10.063   5.430  68.897  1.00  0.00    -0.183 NA 
HETATM   12  H   UNL     1     -10.965   5.470  68.423  1.00  0.00     0.000 HD 
BRANCH  11  13
HETATM   13  C   UNL     1      -9.082   6.281  68.209  1.00  0.00    -0.113 C  
BRANCH  13  14
HETATM   14  C   UNL     1      -9.733   7.116  67.074  1.00  0.00    -0.170 C  
HETATM   15  H   UNL     1     -11.520   7.276  66.281  1.00  0.00     0.000 HD 
HETATM   16  O   UNL     1     -11.121   6.765  66.976  1.00  0.00    -0.403 OA 
BRANCH  14  17
HETATM   17  C   UNL     1      -9.559   8.615  67.291  1.00  0.00    -0.216 A  
HETATM   18  C   UNL     1     -10.157  10.948  66.812  1.00  0.00    -0.259 A  
HETATM   19  H   UNL     1      -8.035  12.969  68.343  1.00  0.00     0.000 HD 
HETATM   20  C   UNL     1      -9.106  11.370  67.633  1.00  0.00    -0.155 A  
HETATM   21  C   UNL     1      -8.314  10.447  68.307  1.00  0.00    -0.119 A  
HETATM   22  O   UNL     1      -8.748  12.682  67.785  1.00  0.00    -0.159 OA 
HETATM   23  C   UNL     1      -8.527   9.078  68.122  1.00  0.00    -0.129 A  
HETATM   24  C   UNL     1     -10.371   9.567  66.648  1.00  0.00    -0.280 A  
BRANCH  18  25
HETATM   25  C   UNL     1     -11.055  11.874  66.061  1.00  0.00    -0.322 C  
HETATM   26  O   UNL     1     -12.133  12.239  66.512  1.00  0.00    -0.616 OA 
HETATM   27  H1  UNL     1     -11.249  12.963  64.326  1.00  0.00     0.000 HD 
HETATM   28  H2  UNL     1      -9.735  12.045  64.455  1.00  0.00     0.000 HD 
HETATM   29  N   UNL     1     -10.635  12.330  64.840  1.00  0.00    -0.282 N  
ENDBRANCH  18  25
ENDBRANCH  14  17
ENDBRANCH  13  14
ENDBRANCH  11  13
ENDBRANCH   2  11
TORSDOF 8
ENDMDL
MODEL       97
REMARK 921   NORMALIZED FREE ENERGY PREDICTED BY IDOCK:   -5.22 KCAL/MOL
REMARK 922        TOTAL FREE ENERGY PREDICTED BY IDOCK:   -9.21 KCAL/MOL
REMARK 923 INTER-LIGAND FREE ENERGY PREDICTED BY IDOCK:   -8.01 KCAL/MOL
REMARK 924 INTRA-LIGAND FREE ENERGY PREDICTED BY IDOCK:   -1.20 KCAL/MOL
REMARK 927      BINDING AFFINITY PREDICTED BY RF-SCORE:    0.00 PKD
ROOT
HETATM    1  C   UNL     1     -12.217  12.490  63.487  1.00  0.00    -0.652 C  
HETATM    2  C   UNL     1     -11.656  13.076  64.788  1.00  0.00    -0.329 C  
ENDROOT
BRANCH   2   3
HETATM    3  C   UNL     1     -11.941  14.595  64.819  1.00  0.00    -0.439 C  
BRANCH   3   4
HETATM    4  C   UNL     1     -10.680  15.453  64.966  1.00  0.00    -0.460 C  
BRANCH   4   5
HETATM    5  C   UNL     1     -10.199  15.504  66.399  1.00  0.00    -0.300 A  
HETATM    6  C   UNL     1     -10.926  16.194  67.378  1.00  0.00    -0.210 A  
HETATM    7  C   UNL     1     -10.474  16.236  68.698  1.00  0.00    -0.282 A  
HETATM    8  C   UNL     1      -9.020  14.844  66.773  1.00  0.00    -0.295 A  
HETATM    9  C   UNL     1      -9.294  15.584  69.056  1.00  0.00    -0.235 A  
HETATM   10  C   UNL     1      -8.569  14.886  68.093  1.00  0.00    -0.159 A  
ENDBRANCH   4   5
ENDBRANCH   3   4
ENDBRANCH   2   3
BRANCH   2  11
HETATM   11  N   UNL     1     -12.223  12.437  65.981  1.00  0.00    -0.624 NA 
HETATM   12  H   UNL     1     -13.063  11.912  65.742  1.00  0.00     0.000 HD 
BRANCH  11  13
HETATM   13  C   UNL     1     -11.274  11.585  66.712  1.00  0.00    -0.285 C  
BRANCH  13  14
HETATM   14  C   UNL     1     -10.945  12.155  68.118  1.00  0.00    -0.230 C  
HETATM   15  H   UNL     1     -11.761  13.448  69.346  1.00  0.00     0.000 HD 
HETATM   16  O   UNL     1     -11.961  13.099  68.486  1.00  0.00    -0.337 OA 
BRANCH  14  17
HETATM   17  C   UNL     1     -10.810  11.056  69.165  1.00  0.00    -0.283 A  
HETATM   18  C   UNL     1     -11.751   9.629  70.929  1.00  0.00    -0.412 A  
HETATM   19  H   UNL     1      -9.327   7.892  72.355  1.00  0.00     0.000 HD 
HETATM   20  C   UNL     1     -10.473   9.114  71.173  1.00  0.00    -0.315 A  
HETATM   21  C   UNL     1      -9.383   9.523  70.412  1.00  0.00    -0.311 A  
HETATM   22  O   UNL     1     -10.194   8.241  72.189  1.00  0.00    -0.233 OA 
HETATM   23  C   UNL     1      -9.547  10.502  69.428  1.00  0.00    -0.170 A  
HETATM   24  C   UNL     1     -11.905  10.600  69.923  1.00  0.00    -0.392 A  
BRANCH  18  25
HETATM   25  C   UNL     1     -12.971   9.238  71.695  1.00  0.00    -0.374 C  
HETATM   26  O   UNL     1     -13.579  10.036  72.396  1.00  0.00    -0.341 OA 
HETATM   27  H1  UNL     1     -14.251   7.681  72.107  1.00  0.00     0.000 HD 
HETATM   28  H2  UNL     1     -12.930   7.274  70.994  1.00  0.00     0.000 HD 
HETATM   29  N   UNL     1     -13.417   7.948  71.583  1.00  0.00    -0.348 N  
ENDBRANCH  18  25
ENDBRANCH  14  17
ENDBRANCH  13  14
ENDBRANCH  11  13
ENDBRANCH   2  11
TORSDOF 8
ENDMDL
MODEL       98
REMARK 921   NORMALIZED FREE ENERGY PREDICTED BY IDOCK:   -5.21 KCAL/MOL
REMARK 922        TOTAL FREE ENERGY PREDICTED BY IDOCK:   -9.20 KCAL/MOL
REMARK 923 INTER-LIGAND FREE ENERGY PREDICTED BY IDOCK:   -7.15 KCAL/MOL
REMARK 924 INTRA-LIGAND FREE ENERGY PREDICTED BY IDOCK:   -2.06 KCAL/MOL
REMARK 927      BINDING AFFINITY PREDICTED BY RF-SCORE:    0.00 PKD
ROOT
HETATM    1  C   UNL     1     -12.838  14.169  65.740  1.00  0.00    -0.363 C  
HETATM    2  C   UNL     1     -12.391  14.608  64.340  1.00  0.00    -0.398 C  
ENDROOT
BRANCH   2   3
HETATM    3  C   UNL     1     -11.077  15.413  64.462  1.00  0.00    -0.272 C  
BRANCH   3   4
HETATM    4  C   UNL     1     -10.001  14.709  65.296  1.00  0.00    -0.329 C  
BRANCH   4   5
HETATM    5  C   UNL     1      -9.638  15.502  66.531  1.00  0.00    -0.295 A  
HETATM    6  C   UNL     1      -9.902  16.877  66.607  1.00  0.00    -0.295 A  
HETATM    7  C   UNL     1      -9.563  17.601  67.751  1.00  0.00    -0.267 A  
HETATM    8  C   UNL     1      -9.042  14.867  67.629  1.00  0.00    -0.183 A  
HETATM    9  C   UNL     1      -8.962  16.961  68.834  1.00  0.00    -0.215 A  
HETATM   10  C   UNL     1      -8.703  15.593  68.773  1.00  0.00    -0.197 A  
ENDBRANCH   4   5
ENDBRANCH   3   4
ENDBRANCH   2   3
BRANCH   2  11
HETATM   11  N   UNL     1     -12.197  13.472  63.432  1.00  0.00    -0.942 NA 
HETATM   12  H   UNL     1     -11.279  13.519  62.991  1.00  0.00     0.000 HD 
BRANCH  11  13
HETATM   13  C   UNL     1     -12.399  12.160  64.063  1.00  0.00    -0.451 C  
BRANCH  13  14
HETATM   14  C   UNL     1     -11.107  11.299  64.040  1.00  0.00    -0.240 C  
HETATM   15  H   UNL     1      -9.434  11.286  63.016  1.00  0.00     0.000 HD 
HETATM   16  O   UNL     1     -10.225  11.812  63.031  1.00  0.00    -0.366 OA 
BRANCH  14  17
HETATM   17  C   UNL     1     -10.422  11.256  65.400  1.00  0.00    -0.326 A  
HETATM   18  C   UNL     1     -10.474  11.446  67.849  1.00  0.00    -0.212 A  
HETATM   19  H   UNL     1      -7.392  11.292  69.034  1.00  0.00     0.000 HD 
HETATM   20  C   UNL     1      -9.083  11.294  67.875  1.00  0.00    -0.150 A  
HETATM   21  C   UNL     1      -8.367  11.088  66.701  1.00  0.00    -0.155 A  
HETATM   22  O   UNL     1      -8.336  11.395  69.017  1.00  0.00    -0.084 OA 
HETATM   23  C   UNL     1      -9.030  11.088  65.470  1.00  0.00    -0.208 A  
HETATM   24  C   UNL     1     -11.130  11.426  66.605  1.00  0.00    -0.333 A  
BRANCH  18  25
HETATM   25  C   UNL     1     -11.314  11.664  69.063  1.00  0.00    -0.275 C  
HETATM   26  O   UNL     1     -11.881  12.728  69.277  1.00  0.00    -0.299 OA 
HETATM   27  H1  UNL     1     -12.033  10.775  70.773  1.00  0.00     0.000 HD 
HETATM   28  H2  UNL     1     -11.004   9.728  69.775  1.00  0.00     0.000 HD 
HETATM   29  N   UNL     1     -11.458  10.626  69.943  1.00  0.00    -0.291 N  
ENDBRANCH  18  25
ENDBRANCH  14  17
ENDBRANCH  13  14
ENDBRANCH  11  13
ENDBRANCH   2  11
TORSDOF 8
ENDMDL
MODEL       99
REMARK 921   NORMALIZED FREE ENERGY PREDICTED BY IDOCK:   -5.21 KCAL/MOL
REMARK 922        TOTAL FREE ENERGY PREDICTED BY IDOCK:   -9.20 KCAL/MOL
REMARK 923 INTER-LIGAND FREE ENERGY PREDICTED BY IDOCK:   -8.42 KCAL/MOL
REMARK 924 INTRA-LIGAND FREE ENERGY PREDICTED BY IDOCK:   -0.78 KCAL/MOL
REMARK 927      BINDING AFFINITY PREDICTED BY RF-SCORE:    0.00 PKD
ROOT
HETATM    1  C   UNL     1     -11.330  11.947  67.538  1.00  0.00    -0.381 C  
HETATM    2  C   UNL     1     -11.112  12.839  68.766  1.00  0.00    -0.260 C  
ENDROOT
BRANCH   2   3
HETATM    3  C   UNL     1     -11.930  14.139  68.594  1.00  0.00    -0.373 C  
BRANCH   3   4
HETATM    4  C   UNL     1     -11.399  15.313  69.423  1.00  0.00    -0.304 C  
BRANCH   4   5
HETATM    5  C   UNL     1     -12.165  15.480  70.716  1.00  0.00    -0.450 A  
HETATM    6  C   UNL     1     -11.539  15.985  71.864  1.00  0.00    -0.524 A  
HETATM    7  C   UNL     1     -12.254  16.135  73.053  1.00  0.00    -0.641 A  
HETATM    8  C   UNL     1     -13.525  15.144  70.781  1.00  0.00    -0.345 A  
HETATM    9  C   UNL     1     -13.604  15.788  73.108  1.00  0.00    -0.588 A  
HETATM   10  C   UNL     1     -14.239  15.294  71.970  1.00  0.00    -0.679 A  
ENDBRANCH   4   5
ENDBRANCH   3   4
ENDBRANCH   2   3
BRANCH   2  11
HETATM   11  N   UNL     1     -11.491  12.174  70.018  1.00  0.00    -0.526 NA 
HETATM   12  H   UNL     1     -12.237  12.688  70.485  1.00  0.00     0.000 HD 
BRANCH  11  13
HETATM   13  C   UNL     1     -11.862  10.761  69.855  1.00  0.00    -0.335 C  
BRANCH  13  14
HETATM   14  C   UNL     1     -12.319  10.123  71.195  1.00  0.00    -0.385 C  
HETATM   15  H   UNL     1     -13.899   9.153  71.834  1.00  0.00     0.000 HD 
HETATM   16  O   UNL     1     -13.619   9.544  71.014  1.00  0.00    -0.288 OA 
BRANCH  14  17
HETATM   17  C   UNL     1     -11.322   9.090  71.708  1.00  0.00    -0.447 A  
HETATM   18  C   UNL     1      -9.088   8.069  71.722  1.00  0.00    -0.207 A  
HETATM   19  H   UNL     1      -9.132   5.341  73.589  1.00  0.00     0.000 HD 
HETATM   20  C   UNL     1      -9.561   7.081  72.591  1.00  0.00    -0.143 A  
HETATM   21  C   UNL     1     -10.874   7.105  73.049  1.00  0.00    -0.367 A  
HETATM   22  O   UNL     1      -8.810   6.012  72.998  1.00  0.00    -0.123 OA 
HETATM   23  C   UNL     1     -11.754   8.092  72.595  1.00  0.00    -0.418 A  
HETATM   24  C   UNL     1      -9.980   9.067  71.286  1.00  0.00    -0.381 A  
BRANCH  18  25
HETATM   25  C   UNL     1      -7.694   8.118  71.191  1.00  0.00    -0.091 C  
HETATM   26  O   UNL     1      -7.416   7.731  70.062  1.00  0.00    -0.077 OA 
HETATM   27  H1  UNL     1      -5.761   8.662  71.635  1.00  0.00     0.000 HD 
HETATM   28  H2  UNL     1      -6.929   8.966  72.936  1.00  0.00     0.000 HD 
HETATM   29  N   UNL     1      -6.713   8.629  71.998  1.00  0.00    -0.084 N  
ENDBRANCH  18  25
ENDBRANCH  14  17
ENDBRANCH  13  14
ENDBRANCH  11  13
ENDBRANCH   2  11
TORSDOF 8
ENDMDL
MODEL      100
REMARK 921   NORMALIZED FREE ENERGY PREDICTED BY IDOCK:   -5.20 KCAL/MOL
REMARK 922        TOTAL FREE ENERGY PREDICTED BY IDOCK:   -9.19 KCAL/MOL
REMARK 923 INTER-LIGAND FREE ENERGY PREDICTED BY IDOCK:   -6.84 KCAL/MOL
REMARK 924 INTRA-LIGAND FREE ENERGY PREDICTED BY IDOCK:   -2.35 KCAL/MOL
REMARK 927      BINDING AFFINITY PREDICTED BY RF-SCORE:    0.00 PKD
ROOT
HETATM    1  C   UNL     1     -10.299   9.967  66.814  1.00  0.00    -0.283 C  
HETATM    2  C   UNL     1     -10.493  11.449  66.468  1.00  0.00    -0.249 C  
ENDROOT
BRANCH   2   3
HETATM    3  C   UNL     1      -9.159  12.196  66.695  1.00  0.00    -0.206 C  
BRANCH   3   4
HETATM    4  C   UNL     1      -8.931  12.618  68.151  1.00  0.00    -0.199 C  
BRANCH   4   5
HETATM    5  C   UNL     1      -8.101  13.877  68.247  1.00  0.00    -0.150 A  
HETATM    6  C   UNL     1      -7.807  14.635  67.106  1.00  0.00    -0.155 A  
HETATM    7  C   UNL     1      -7.039  15.797  67.204  1.00  0.00    -0.225 A  
HETATM    8  C   UNL     1      -7.622  14.315  69.490  1.00  0.00     0.149 A  
HETATM    9  C   UNL     1      -6.560  16.217  68.445  1.00  0.00    -0.134 A  
HETATM   10  C   UNL     1      -6.854  15.477  69.588  1.00  0.00    -0.178 A  
ENDBRANCH   4   5
ENDBRANCH   3   4
ENDBRANCH   2   3
BRANCH   2  11
HETATM   11  N   UNL     1     -10.947  11.647  65.087  1.00  0.00    -0.287 NA 
HETATM   12  H   UNL     1     -11.936  11.413  64.998  1.00  0.00     0.000 HD 
BRANCH  11  13
HETATM   13  C   UNL     1     -10.688  12.994  64.560  1.00  0.00    -0.385 C  
BRANCH  13  14
HETATM   14  C   UNL     1     -11.865  13.966  64.845  1.00  0.00    -0.387 C  
HETATM   15  H   UNL     1     -13.754  13.793  65.341  1.00  0.00     0.000 HD 
HETATM   16  O   UNL     1     -13.034  13.199  65.167  1.00  0.00    -0.695 OA 
BRANCH  14  17
HETATM   17  C   UNL     1     -11.534  14.957  65.955  1.00  0.00    -0.275 A  
HETATM   18  C   UNL     1     -10.540  17.061  66.743  1.00  0.00    -0.191 A  
HETATM   19  H   UNL     1     -10.649  17.164  70.046  1.00  0.00     0.000 HD 
HETATM   20  C   UNL     1     -10.835  16.689  68.059  1.00  0.00    -0.337 A  
HETATM   21  C   UNL     1     -11.499  15.498  68.331  1.00  0.00    -0.370 A  
HETATM   22  O   UNL     1     -10.449  17.417  69.152  1.00  0.00    -0.341 OA 
HETATM   23  C   UNL     1     -11.830  14.629  67.287  1.00  0.00    -0.375 A  
HETATM   24  C   UNL     1     -10.894  16.185  65.701  1.00  0.00    -0.246 A  
BRANCH  18  25
HETATM   25  C   UNL     1      -9.837  18.322  66.368  1.00  0.00    -0.357 C  
HETATM   26  O   UNL     1      -8.713  18.318  65.881  1.00  0.00    -0.500 OA 
HETATM   27  H1  UNL     1     -10.009  20.371  66.309  1.00  0.00     0.000 HD 
HETATM   28  H2  UNL     1     -11.431  19.530  66.958  1.00  0.00     0.000 HD 
HETATM   29  N   UNL     1     -10.490  19.509  66.565  1.00  0.00    -0.460 N  
ENDBRANCH  18  25
ENDBRANCH  14  17
ENDBRANCH  13  14
ENDBRANCH  11  13
ENDBRANCH   2  11
TORSDOF 8
ENDMDL
MODEL      101
REMARK 921   NORMALIZED FREE ENERGY PREDICTED BY IDOCK:   -5.20 KCAL/MOL
REMARK 922        TOTAL FREE ENERGY PREDICTED BY IDOCK:   -9.18 KCAL/MOL
REMARK 923 INTER-LIGAND FREE ENERGY PREDICTED BY IDOCK:   -7.98 KCAL/MOL
REMARK 924 INTRA-LIGAND FREE ENERGY PREDICTED BY IDOCK:   -1.21 KCAL/MOL
REMARK 927      BINDING AFFINITY PREDICTED BY RF-SCORE:    0.00 PKD
ROOT
HETATM    1  C   UNL     1      -9.085  10.993  66.646  1.00  0.00    -0.177 C  
HETATM    2  C   UNL     1      -9.809   9.796  67.275  1.00  0.00    -0.181 C  
ENDROOT
BRANCH   2   3
HETATM    3  C   UNL     1     -11.085  10.299  67.989  1.00  0.00    -0.336 C  
BRANCH   3   4
HETATM    4  C   UNL     1     -10.997  11.760  68.445  1.00  0.00    -0.274 C  
BRANCH   4   5
HETATM    5  C   UNL     1     -11.804  12.007  69.700  1.00  0.00    -0.401 A  
HETATM    6  C   UNL     1     -12.134  13.309  70.099  1.00  0.00    -0.403 A  
HETATM    7  C   UNL     1     -12.879  13.527  71.259  1.00  0.00    -0.420 A  
HETATM    8  C   UNL     1     -12.248  10.928  70.478  1.00  0.00    -0.459 A  
HETATM    9  C   UNL     1     -13.307  12.447  72.031  1.00  0.00    -0.511 A  
HETATM   10  C   UNL     1     -12.992  11.148  71.638  1.00  0.00    -0.548 A  
ENDBRANCH   4   5
ENDBRANCH   3   4
ENDBRANCH   2   3
BRANCH   2  11
HETATM   11  N   UNL     1     -10.163   8.772  66.286  1.00  0.00    -0.378 NA 
HETATM   12  H   UNL     1      -9.861   9.054  65.354  1.00  0.00     0.000 HD 
BRANCH  11  13
HETATM   13  C   UNL     1      -9.657   7.430  66.607  1.00  0.00    -0.190 C  
BRANCH  13  14
HETATM   14  C   UNL     1     -10.802   6.452  66.985  1.00  0.00    -0.392 C  
HETATM   15  H   UNL     1     -11.398   4.678  66.400  1.00  0.00     0.000 HD 
HETATM   16  O   UNL     1     -10.697   5.276  66.170  1.00  0.00    -0.266 OA 
BRANCH  14  17
HETATM   17  C   UNL     1     -10.789   6.098  68.467  1.00  0.00    -0.389 A  
HETATM   18  C   UNL     1     -11.478   6.506  70.789  1.00  0.00    -0.419 A  
HETATM   19  H   UNL     1      -9.826   4.473  72.806  1.00  0.00     0.000 HD 
HETATM   20  C   UNL     1     -10.625   5.479  71.207  1.00  0.00    -0.236 A  
HETATM   21  C   UNL     1      -9.892   4.742  70.283  1.00  0.00    -0.313 A  
HETATM   22  O   UNL     1     -10.406   5.170  72.522  1.00  0.00    -0.189 OA 
HETATM   23  C   UNL     1      -9.959   5.062  68.924  1.00  0.00    -0.236 A  
HETATM   24  C   UNL     1     -11.550   6.806  69.416  1.00  0.00    -0.136 A  
BRANCH  18  25
HETATM   25  C   UNL     1     -12.302   7.338  71.715  1.00  0.00    -0.341 C  
HETATM   26  O   UNL     1     -13.526   7.327  71.681  1.00  0.00    -0.375 OA 
HETATM   27  H1  UNL     1     -12.215   8.686  73.266  1.00  0.00     0.000 HD 
HETATM   28  H2  UNL     1     -10.633   8.129  72.684  1.00  0.00     0.000 HD 
HETATM   29  N   UNL     1     -11.652   8.117  72.634  1.00  0.00    -0.405 N  
ENDBRANCH  18  25
ENDBRANCH  14  17
ENDBRANCH  13  14
ENDBRANCH  11  13
ENDBRANCH   2  11
TORSDOF 8
ENDMDL
MODEL      102
REMARK 921   NORMALIZED FREE ENERGY PREDICTED BY IDOCK:   -5.19 KCAL/MOL
REMARK 922        TOTAL FREE ENERGY PREDICTED BY IDOCK:   -9.17 KCAL/MOL
REMARK 923 INTER-LIGAND FREE ENERGY PREDICTED BY IDOCK:   -8.24 KCAL/MOL
REMARK 924 INTRA-LIGAND FREE ENERGY PREDICTED BY IDOCK:   -0.93 KCAL/MOL
REMARK 927      BINDING AFFINITY PREDICTED BY RF-SCORE:    0.00 PKD
ROOT
HETATM    1  C   UNL     1     -13.361  11.466  71.932  1.00  0.00    -0.409 C  
HETATM    2  C   UNL     1     -12.390  10.369  71.479  1.00  0.00    -0.368 C  
ENDROOT
BRANCH   2   3
HETATM    3  C   UNL     1     -12.916   8.999  71.966  1.00  0.00    -0.470 C  
BRANCH   3   4
HETATM    4  C   UNL     1     -11.827   8.099  72.560  1.00  0.00    -0.438 C  
BRANCH   4   5
HETATM    5  C   UNL     1     -11.078   7.341  71.487  1.00  0.00    -0.264 A  
HETATM    6  C   UNL     1      -9.678   7.298  71.480  1.00  0.00    -0.168 A  
HETATM    7  C   UNL     1      -8.995   6.596  70.485  1.00  0.00    -0.152 A  
HETATM    8  C   UNL     1     -11.781   6.652  70.487  1.00  0.00    -0.453 A  
HETATM    9  C   UNL     1      -9.704   5.924  69.490  1.00  0.00    -0.190 A  
HETATM   10  C   UNL     1     -11.097   5.951  69.493  1.00  0.00    -0.403 A  
ENDBRANCH   4   5
ENDBRANCH   3   4
ENDBRANCH   2   3
BRANCH   2  11
HETATM   11  N   UNL     1     -12.210  10.344  70.023  1.00  0.00    -0.472 NA 
HETATM   12  H   UNL     1     -12.950  10.872  69.562  1.00  0.00     0.000 HD 
BRANCH  11  13
HETATM   13  C   UNL     1     -10.889  10.809  69.576  1.00  0.00    -0.242 C  
BRANCH  13  14
HETATM   14  C   UNL     1     -10.995  11.791  68.377  1.00  0.00    -0.231 C  
HETATM   15  H   UNL     1     -12.314  12.179  66.978  1.00  0.00     0.000 HD 
HETATM   16  O   UNL     1     -12.249  11.579  67.712  1.00  0.00    -0.560 OA 
BRANCH  14  17
HETATM   17  C   UNL     1     -10.840  13.244  68.809  1.00  0.00    -0.273 A  
HETATM   18  C   UNL     1     -11.518  15.174  70.168  1.00  0.00    -0.313 A  
HETATM   19  H   UNL     1      -9.845  17.854  69.193  1.00  0.00     0.000 HD 
HETATM   20  C   UNL     1     -10.595  15.966  69.477  1.00  0.00    -0.282 A  
HETATM   21  C   UNL     1      -9.777  15.414  68.497  1.00  0.00    -0.204 A  
HETATM   22  O   UNL     1     -10.472  17.316  69.662  1.00  0.00    -0.219 OA 
HETATM   23  C   UNL     1      -9.912  14.066  68.152  1.00  0.00    -0.242 A  
HETATM   24  C   UNL     1     -11.632  13.815  69.823  1.00  0.00    -0.324 A  
BRANCH  18  25
HETATM   25  C   UNL     1     -12.427  15.687  71.235  1.00  0.00    -0.444 C  
HETATM   26  O   UNL     1     -13.645  15.625  71.135  1.00  0.00    -0.582 OA 
HETATM   27  H1  UNL     1     -12.482  16.577  73.090  1.00  0.00     0.000 HD 
HETATM   28  H2  UNL     1     -10.848  16.275  72.466  1.00  0.00     0.000 HD 
HETATM   29  N   UNL     1     -11.861  16.226  72.360  1.00  0.00    -0.533 N  
ENDBRANCH  18  25
ENDBRANCH  14  17
ENDBRANCH  13  14
ENDBRANCH  11  13
ENDBRANCH   2  11
TORSDOF 8
ENDMDL
MODEL      103
REMARK 921   NORMALIZED FREE ENERGY PREDICTED BY IDOCK:   -5.19 KCAL/MOL
REMARK 922        TOTAL FREE ENERGY PREDICTED BY IDOCK:   -9.17 KCAL/MOL
REMARK 923 INTER-LIGAND FREE ENERGY PREDICTED BY IDOCK:   -8.00 KCAL/MOL
REMARK 924 INTRA-LIGAND FREE ENERGY PREDICTED BY IDOCK:   -1.17 KCAL/MOL
REMARK 927      BINDING AFFINITY PREDICTED BY RF-SCORE:    0.00 PKD
ROOT
HETATM    1  C   UNL     1      -9.854  10.689  68.938  1.00  0.00    -0.210 C  
HETATM    2  C   UNL     1     -10.326  11.736  67.921  1.00  0.00    -0.193 C  
ENDROOT
BRANCH   2   3
HETATM    3  C   UNL     1     -11.500  12.535  68.531  1.00  0.00    -0.346 C  
BRANCH   3   4
HETATM    4  C   UNL     1     -11.868  12.096  69.953  1.00  0.00    -0.392 C  
BRANCH   4   5
HETATM    5  C   UNL     1     -12.433  13.240  70.765  1.00  0.00    -0.403 A  
HETATM    6  C   UNL     1     -13.249  12.997  71.879  1.00  0.00    -0.527 A  
HETATM    7  C   UNL     1     -13.768  14.058  72.622  1.00  0.00    -0.586 A  
HETATM    8  C   UNL     1     -12.135  14.566  70.422  1.00  0.00    -0.389 A  
HETATM    9  C   UNL     1     -13.472  15.374  72.266  1.00  0.00    -0.573 A  
HETATM   10  C   UNL     1     -12.654  15.627  71.167  1.00  0.00    -0.511 A  
ENDBRANCH   4   5
ENDBRANCH   3   4
ENDBRANCH   2   3
BRANCH   2  11
HETATM   11  N   UNL     1      -9.252  12.654  67.523  1.00  0.00    -0.183 NA 
HETATM   12  H   UNL     1      -8.883  12.398  66.608  1.00  0.00     0.000 HD 
BRANCH  11  13
HETATM   13  C   UNL     1      -9.639  14.072  67.544  1.00  0.00    -0.228 C  
BRANCH  13  14
HETATM   14  C   UNL     1      -8.529  14.968  68.157  1.00  0.00    -0.151 C  
HETATM   15  H   UNL     1      -6.626  15.295  67.815  1.00  0.00     0.000 HD 
HETATM   16  O   UNL     1      -7.306  14.748  67.440  1.00  0.00    -0.192 OA 
BRANCH  14  17
HETATM   17  C   UNL     1      -8.913  16.443  68.150  1.00  0.00    -0.197 A  
HETATM   18  C   UNL     1      -8.368  18.815  68.480  1.00  0.00    -0.379 A  
HETATM   19  H   UNL     1     -11.120  20.628  68.212  1.00  0.00     0.000 HD 
HETATM   20  C   UNL     1      -9.709  19.140  68.249  1.00  0.00    -0.373 A  
HETATM   21  C   UNL     1     -10.637  18.152  67.935  1.00  0.00    -0.389 A  
HETATM   22  O   UNL     1     -10.210  20.407  68.370  1.00  0.00    -0.299 OA 
HETATM   23  C   UNL     1     -10.245  16.810  67.905  1.00  0.00    -0.300 A  
HETATM   24  C   UNL     1      -7.984  17.463  68.429  1.00  0.00    -0.259 A  
BRANCH  18  25
HETATM   25  C   UNL     1      -7.312  19.815  68.816  1.00  0.00    -0.304 C  
HETATM   26  O   UNL     1      -6.729  19.806  69.893  1.00  0.00    -0.331 OA 
HETATM   27  H1  UNL     1      -6.265  21.435  68.101  1.00  0.00     0.000 HD 
HETATM   28  H2  UNL     1      -7.453  20.766  66.965  1.00  0.00     0.000 HD 
HETATM   29  N   UNL     1      -6.987  20.751  67.872  1.00  0.00    -0.282 N  
ENDBRANCH  18  25
ENDBRANCH  14  17
ENDBRANCH  13  14
ENDBRANCH  11  13
ENDBRANCH   2  11
TORSDOF 8
ENDMDL
MODEL      104
REMARK 921   NORMALIZED FREE ENERGY PREDICTED BY IDOCK:   -5.17 KCAL/MOL
REMARK 922        TOTAL FREE ENERGY PREDICTED BY IDOCK:   -9.15 KCAL/MOL
REMARK 923 INTER-LIGAND FREE ENERGY PREDICTED BY IDOCK:   -7.62 KCAL/MOL
REMARK 924 INTRA-LIGAND FREE ENERGY PREDICTED BY IDOCK:   -1.53 KCAL/MOL
REMARK 927      BINDING AFFINITY PREDICTED BY RF-SCORE:    0.00 PKD
ROOT
HETATM    1  C   UNL     1     -14.371   7.438  71.574  1.00  0.00    -0.594 C  
HETATM    2  C   UNL     1     -12.886   7.817  71.625  1.00  0.00    -0.340 C  
ENDROOT
BRANCH   2   3
HETATM    3  C   UNL     1     -12.763   9.329  71.924  1.00  0.00    -0.474 C  
BRANCH   3   4
HETATM    4  C   UNL     1     -12.645  10.195  70.665  1.00  0.00    -0.353 C  
BRANCH   4   5
HETATM    5  C   UNL     1     -12.712  11.670  70.990  1.00  0.00    -0.395 A  
HETATM    6  C   UNL     1     -13.483  12.137  72.064  1.00  0.00    -0.388 A  
HETATM    7  C   UNL     1     -13.539  13.500  72.356  1.00  0.00    -0.709 A  
HETATM    8  C   UNL     1     -11.987  12.596  70.226  1.00  0.00    -0.363 A  
HETATM    9  C   UNL     1     -12.822  14.413  71.584  1.00  0.00    -0.416 A  
HETATM   10  C   UNL     1     -12.044  13.960  70.520  1.00  0.00    -0.426 A  
ENDBRANCH   4   5
ENDBRANCH   3   4
ENDBRANCH   2   3
BRANCH   2  11
HETATM   11  N   UNL     1     -12.145   7.048  72.632  1.00  0.00    -0.495 NA 
HETATM   12  H   UNL     1     -11.994   6.092  72.313  1.00  0.00     0.000 HD 
BRANCH  11  13
HETATM   13  C   UNL     1     -10.872   7.663  73.036  1.00  0.00    -0.400 C  
BRANCH  13  14
HETATM   14  C   UNL     1      -9.684   7.158  72.174  1.00  0.00    -0.146 C  
HETATM   15  H   UNL     1      -9.065   5.426  71.494  1.00  0.00     0.000 HD 
HETATM   16  O   UNL     1      -9.792   5.735  72.021  1.00  0.00    -0.154 OA 
BRANCH  14  17
HETATM   17  C   UNL     1      -9.620   7.854  70.820  1.00  0.00    -0.171 A  
HETATM   18  C   UNL     1      -9.736   7.815  68.367  1.00  0.00    -0.167 A  
HETATM   19  H   UNL     1      -8.868  10.773  67.173  1.00  0.00     0.000 HD 
HETATM   20  C   UNL     1      -9.364   9.164  68.343  1.00  0.00    -0.135 A  
HETATM   21  C   UNL     1      -9.159   9.867  69.525  1.00  0.00    -0.237 A  
HETATM   22  O   UNL     1      -9.121   9.858  67.189  1.00  0.00    -0.137 OA 
HETATM   23  C   UNL     1      -9.267   9.211  70.755  1.00  0.00    -0.321 A  
HETATM   24  C   UNL     1      -9.859   7.172  69.612  1.00  0.00    -0.162 A  
BRANCH  18  25
HETATM   25  C   UNL     1      -9.981   6.994  67.145  1.00  0.00    -0.189 C  
HETATM   26  O   UNL     1      -9.068   6.628  66.416  1.00  0.00    -0.147 OA 
HETATM   27  H1  UNL     1     -11.437   6.072  66.022  1.00  0.00     0.000 HD 
HETATM   28  H2  UNL     1     -12.041   6.919  67.460  1.00  0.00     0.000 HD 
HETATM   29  N   UNL     1     -11.270   6.633  66.857  1.00  0.00    -0.298 N  
ENDBRANCH  18  25
ENDBRANCH  14  17
ENDBRANCH  13  14
ENDBRANCH  11  13
ENDBRANCH   2  11
TORSDOF 8
ENDMDL
MODEL      105
REMARK 921   NORMALIZED FREE ENERGY PREDICTED BY IDOCK:   -5.17 KCAL/MOL
REMARK 922        TOTAL FREE ENERGY PREDICTED BY IDOCK:   -9.14 KCAL/MOL
REMARK 923 INTER-LIGAND FREE ENERGY PREDICTED BY IDOCK:   -7.59 KCAL/MOL
REMARK 924 INTRA-LIGAND FREE ENERGY PREDICTED BY IDOCK:   -1.55 KCAL/MOL
REMARK 927      BINDING AFFINITY PREDICTED BY RF-SCORE:    0.00 PKD
ROOT
HETATM    1  C   UNL     1     -10.726   6.783  67.292  1.00  0.00    -0.423 C  
HETATM    2  C   UNL     1     -10.606   8.296  67.070  1.00  0.00    -0.258 C  
ENDROOT
BRANCH   2   3
HETATM    3  C   UNL     1     -10.050   8.950  68.356  1.00  0.00    -0.215 C  
BRANCH   3   4
HETATM    4  C   UNL     1     -10.611   8.341  69.646  1.00  0.00    -0.222 C  
BRANCH   4   5
HETATM    5  C   UNL     1     -11.491   9.318  70.392  1.00  0.00    -0.255 A  
HETATM    6  C   UNL     1     -12.368   8.878  71.393  1.00  0.00    -0.368 A  
HETATM    7  C   UNL     1     -13.177   9.787  72.076  1.00  0.00    -0.557 A  
HETATM    8  C   UNL     1     -11.431  10.689  70.102  1.00  0.00    -0.411 A  
HETATM    9  C   UNL     1     -13.116  11.147  71.772  1.00  0.00    -0.536 A  
HETATM   10  C   UNL     1     -12.240  11.597  70.786  1.00  0.00    -0.443 A  
ENDBRANCH   4   5
ENDBRANCH   3   4
ENDBRANCH   2   3
BRANCH   2  11
HETATM   11  N   UNL     1      -9.746   8.629  65.929  1.00  0.00    -0.457 NA 
HETATM   12  H   UNL     1     -10.294   8.689  65.072  1.00  0.00     0.000 HD 
BRANCH  11  13
HETATM   13  C   UNL     1      -8.949   9.850  66.117  1.00  0.00    -0.150 C  
BRANCH  13  14
HETATM   14  C   UNL     1      -9.450  11.014  65.221  1.00  0.00    -0.223 C  
HETATM   15  H   UNL     1     -10.642  11.197  63.674  1.00  0.00     0.000 HD 
HETATM   16  O   UNL     1     -10.335  10.485  64.223  1.00  0.00    -0.332 OA 
BRANCH  14  17
HETATM   17  C   UNL     1     -10.129  12.112  66.032  1.00  0.00    -0.259 A  
HETATM   18  C   UNL     1     -10.133  14.338  67.069  1.00  0.00    -0.260 A  
HETATM   19  H   UNL     1     -12.858  14.696  68.906  1.00  0.00     0.000 HD 
HETATM   20  C   UNL     1     -11.376  14.052  67.643  1.00  0.00    -0.312 A  
HETATM   21  C   UNL     1     -12.013  12.841  67.394  1.00  0.00    -0.335 A  
HETATM   22  O   UNL     1     -12.014  14.890  68.516  1.00  0.00    -0.309 OA 
HETATM   23  C   UNL     1     -11.385  11.870  66.609  1.00  0.00    -0.400 A  
HETATM   24  C   UNL     1      -9.520  13.358  66.267  1.00  0.00    -0.196 A  
BRANCH  18  25
HETATM   25  C   UNL     1      -9.388  15.614  67.281  1.00  0.00    -0.215 C  
HETATM   26  O   UNL     1      -8.729  15.820  68.292  1.00  0.00    -0.167 OA 
HETATM   27  H1  UNL     1      -8.932  17.436  66.441  1.00  0.00     0.000 HD 
HETATM   28  H2  UNL     1      -9.975  16.404  65.442  1.00  0.00     0.000 HD 
HETATM   29  N   UNL     1      -9.441  16.563  66.296  1.00  0.00    -0.292 N  
ENDBRANCH  18  25
ENDBRANCH  14  17
ENDBRANCH  13  14
ENDBRANCH  11  13
ENDBRANCH   2  11
TORSDOF 8
ENDMDL
MODEL      106
REMARK 921   NORMALIZED FREE ENERGY PREDICTED BY IDOCK:   -5.17 KCAL/MOL
REMARK 922        TOTAL FREE ENERGY PREDICTED BY IDOCK:   -9.14 KCAL/MOL
REMARK 923 INTER-LIGAND FREE ENERGY PREDICTED BY IDOCK:   -7.57 KCAL/MOL
REMARK 924 INTRA-LIGAND FREE ENERGY PREDICTED BY IDOCK:   -1.57 KCAL/MOL
REMARK 927      BINDING AFFINITY PREDICTED BY RF-SCORE:    0.00 PKD
ROOT
HETATM    1  C   UNL     1     -11.968   6.603  70.705  1.00  0.00    -0.412 C  
HETATM    2  C   UNL     1     -10.852   7.100  71.633  1.00  0.00    -0.224 C  
ENDROOT
BRANCH   2   3
HETATM    3  C   UNL     1      -9.550   7.254  70.815  1.00  0.00    -0.171 C  
BRANCH   3   4
HETATM    4  C   UNL     1      -9.696   6.843  69.345  1.00  0.00    -0.157 C  
BRANCH   4   5
HETATM    5  C   UNL     1      -9.505   8.017  68.412  1.00  0.00    -0.148 A  
HETATM    6  C   UNL     1      -8.608   9.047  68.725  1.00  0.00    -0.132 A  
HETATM    7  C   UNL     1      -8.438  10.127  67.857  1.00  0.00    -0.118 A  
HETATM    8  C   UNL     1     -10.215   8.084  67.204  1.00  0.00    -0.362 A  
HETATM    9  C   UNL     1      -9.157  10.188  66.664  1.00  0.00    -0.164 A  
HETATM   10  C   UNL     1     -10.044   9.164  66.337  1.00  0.00    -0.345 A  
ENDBRANCH   4   5
ENDBRANCH   3   4
ENDBRANCH   2   3
BRANCH   2  11
HETATM   11  N   UNL     1     -11.188   8.373  72.281  1.00  0.00    -0.359 NA 
HETATM   12  H   UNL     1     -10.639   8.498  73.132  1.00  0.00     0.000 HD 
BRANCH  11  13
HETATM   13  C   UNL     1     -11.052   9.545  71.404  1.00  0.00    -0.368 C  
BRANCH  13  14
HETATM   14  C   UNL     1     -12.428  10.053  70.896  1.00  0.00    -0.337 C  
HETATM   15  H   UNL     1     -14.193  10.383  71.684  1.00  0.00     0.000 HD 
HETATM   16  O   UNL     1     -13.351  10.073  71.995  1.00  0.00    -0.429 OA 
BRANCH  14  17
HETATM   17  C   UNL     1     -12.326  11.423  70.238  1.00  0.00    -0.379 A  
HETATM   18  C   UNL     1     -11.877  12.854  68.293  1.00  0.00    -0.372 A  
HETATM   19  H   UNL     1     -11.907  16.026  69.224  1.00  0.00     0.000 HD 
HETATM   20  C   UNL     1     -12.026  13.982  69.106  1.00  0.00    -0.360 A  
HETATM   21  C   UNL     1     -12.357  13.851  70.451  1.00  0.00    -0.433 A  
HETATM   22  O   UNL     1     -11.805  15.260  68.671  1.00  0.00    -0.346 OA 
HETATM   23  C   UNL     1     -12.488  12.580  71.017  1.00  0.00    -0.353 A  
HETATM   24  C   UNL     1     -12.028  11.581  68.871  1.00  0.00    -0.364 A  
BRANCH  18  25
HETATM   25  C   UNL     1     -11.529  12.910  66.842  1.00  0.00    -0.341 C  
HETATM   26  O   UNL     1     -12.298  12.513  65.976  1.00  0.00    -0.615 OA 
HETATM   27  H1  UNL     1     -10.079  13.477  65.497  1.00  0.00     0.000 HD 
HETATM   28  H2  UNL     1      -9.670  13.786  67.197  1.00  0.00     0.000 HD 
HETATM   29  N   UNL     1     -10.317  13.440  66.489  1.00  0.00    -0.279 N  
ENDBRANCH  18  25
ENDBRANCH  14  17
ENDBRANCH  13  14
ENDBRANCH  11  13
ENDBRANCH   2  11
TORSDOF 8
ENDMDL
MODEL      107
REMARK 921   NORMALIZED FREE ENERGY PREDICTED BY IDOCK:   -5.15 KCAL/MOL
REMARK 922        TOTAL FREE ENERGY PREDICTED BY IDOCK:   -9.12 KCAL/MOL
REMARK 923 INTER-LIGAND FREE ENERGY PREDICTED BY IDOCK:   -8.35 KCAL/MOL
REMARK 924 INTRA-LIGAND FREE ENERGY PREDICTED BY IDOCK:   -0.77 KCAL/MOL
REMARK 927      BINDING AFFINITY PREDICTED BY RF-SCORE:    0.00 PKD
ROOT
HETATM    1  C   UNL     1      -8.556   8.682  69.421  1.00  0.00    -0.127 C  
HETATM    2  C   UNL     1      -9.600   7.824  68.696  1.00  0.00    -0.154 C  
ENDROOT
BRANCH   2   3
HETATM    3  C   UNL     1     -10.206   6.817  69.699  1.00  0.00    -0.207 C  
BRANCH   3   4
HETATM    4  C   UNL     1     -10.329   7.368  71.124  1.00  0.00    -0.209 C  
BRANCH   4   5
HETATM    5  C   UNL     1     -11.725   7.870  71.414  1.00  0.00    -0.311 A  
HETATM    6  C   UNL     1     -12.835   7.022  71.290  1.00  0.00    -0.376 A  
HETATM    7  C   UNL     1     -14.121   7.494  71.559  1.00  0.00    -0.550 A  
HETATM    8  C   UNL     1     -11.929   9.194  71.828  1.00  0.00    -0.449 A  
HETATM    9  C   UNL     1     -14.312   8.816  71.961  1.00  0.00    -0.466 A  
HETATM   10  C   UNL     1     -13.216   9.665  72.097  1.00  0.00    -0.535 A  
ENDBRANCH   4   5
ENDBRANCH   3   4
ENDBRANCH   2   3
BRANCH   2  11
HETATM   11  N   UNL     1     -10.667   8.630  68.092  1.00  0.00    -0.441 NA 
HETATM   12  H   UNL     1     -11.559   8.443  68.548  1.00  0.00     0.000 HD 
BRANCH  11  13
HETATM   13  C   UNL     1     -10.389  10.073  68.074  1.00  0.00    -0.198 C  
BRANCH  13  14
HETATM   14  C   UNL     1     -11.660  10.905  67.751  1.00  0.00    -0.146 C  
HETATM   15  H   UNL     1     -13.235  11.524  68.741  1.00  0.00     0.000 HD 
HETATM   16  O   UNL     1     -12.458  11.015  68.938  1.00  0.00    -0.460 OA 
BRANCH  14  17
HETATM   17  C   UNL     1     -11.318  12.280  67.189  1.00  0.00    -0.398 A  
HETATM   18  C   UNL     1     -11.507  14.009  65.455  1.00  0.00    -0.315 A  
HETATM   19  H   UNL     1      -9.396  16.467  66.111  1.00  0.00     0.000 HD 
HETATM   20  C   UNL     1     -10.551  14.773  66.133  1.00  0.00    -0.311 A  
HETATM   21  C   UNL     1     -10.010  14.331  67.335  1.00  0.00    -0.242 A  
HETATM   22  O   UNL     1     -10.045  15.949  65.650  1.00  0.00    -0.327 OA 
HETATM   23  C   UNL     1     -10.376  13.084  67.850  1.00  0.00    -0.233 A  
HETATM   24  C   UNL     1     -11.880  12.764  65.993  1.00  0.00    -0.495 A  
BRANCH  18  25
HETATM   25  C   UNL     1     -12.140  14.415  64.165  1.00  0.00    -0.376 C  
HETATM   26  O   UNL     1     -12.421  15.581  63.919  1.00  0.00    -0.656 OA 
HETATM   27  H1  UNL     1     -12.823  13.719  62.354  1.00  0.00     0.000 HD 
HETATM   28  H2  UNL     1     -12.151  12.467  63.418  1.00  0.00     0.000 HD 
HETATM   29  N   UNL     1     -12.390  13.442  63.235  1.00  0.00    -0.362 N  
ENDBRANCH  18  25
ENDBRANCH  14  17
ENDBRANCH  13  14
ENDBRANCH  11  13
ENDBRANCH   2  11
TORSDOF 8
ENDMDL
MODEL      108
REMARK 921   NORMALIZED FREE ENERGY PREDICTED BY IDOCK:   -5.14 KCAL/MOL
REMARK 922        TOTAL FREE ENERGY PREDICTED BY IDOCK:   -9.09 KCAL/MOL
REMARK 923 INTER-LIGAND FREE ENERGY PREDICTED BY IDOCK:   -7.91 KCAL/MOL
REMARK 924 INTRA-LIGAND FREE ENERGY PREDICTED BY IDOCK:   -1.18 KCAL/MOL
REMARK 927      BINDING AFFINITY PREDICTED BY RF-SCORE:    0.00 PKD
ROOT
HETATM    1  C   UNL     1      -8.007  10.840  65.662  1.00  0.00    -0.095 C  
HETATM    2  C   UNL     1      -9.404  10.952  65.041  1.00  0.00    -0.226 C  
ENDROOT
BRANCH   2   3
HETATM    3  C   UNL     1     -10.384  10.070  65.848  1.00  0.00    -0.202 C  
BRANCH   3   4
HETATM    4  C   UNL     1     -10.083  10.035  67.351  1.00  0.00    -0.256 C  
BRANCH   4   5
HETATM    5  C   UNL     1     -10.386   8.682  67.953  1.00  0.00    -0.286 A  
HETATM    6  C   UNL     1     -10.622   7.567  67.137  1.00  0.00    -0.415 A  
HETATM    7  C   UNL     1     -10.902   6.322  67.701  1.00  0.00    -0.433 A  
HETATM    8  C   UNL     1     -10.420   8.519  69.345  1.00  0.00    -0.223 A  
HETATM    9  C   UNL     1     -10.942   6.174  69.088  1.00  0.00    -0.450 A  
HETATM   10  C   UNL     1     -10.699   7.273  69.909  1.00  0.00    -0.257 A  
ENDBRANCH   4   5
ENDBRANCH   3   4
ENDBRANCH   2   3
BRANCH   2  11
HETATM   11  N   UNL     1      -9.893  12.335  65.004  1.00  0.00    -0.422 NA 
HETATM   12  H   UNL     1      -9.435  12.857  64.258  1.00  0.00     0.000 HD 
BRANCH  11  13
HETATM   13  C   UNL     1     -11.354  12.451  64.893  1.00  0.00    -0.317 C  
BRANCH  13  14
HETATM   14  C   UNL     1     -11.856  13.865  65.289  1.00  0.00    -0.357 C  
HETATM   15  H   UNL     1     -13.578  14.804  65.298  1.00  0.00     0.000 HD 
HETATM   16  O   UNL     1     -13.270  13.939  65.056  1.00  0.00    -0.729 OA 
BRANCH  14  17
HETATM   17  C   UNL     1     -11.518  14.210  66.735  1.00  0.00    -0.383 A  
HETATM   18  C   UNL     1     -11.612  13.738  69.144  1.00  0.00    -0.363 A  
HETATM   19  H   UNL     1     -10.333  16.285  70.819  1.00  0.00     0.000 HD 
HETATM   20  C   UNL     1     -10.979  14.960  69.393  1.00  0.00    -0.271 A  
HETATM   21  C   UNL     1     -10.583  15.783  68.344  1.00  0.00    -0.264 A  
HETATM   22  O   UNL     1     -10.763  15.455  70.650  1.00  0.00    -0.312 OA 
HETATM   23  C   UNL     1     -10.868  15.419  67.024  1.00  0.00    -0.320 A  
HETATM   24  C   UNL     1     -11.877  13.376  67.810  1.00  0.00    -0.395 A  
BRANCH  18  25
HETATM   25  C   UNL     1     -12.062  12.797  70.211  1.00  0.00    -0.297 C  
HETATM   26  O   UNL     1     -11.688  11.632  70.248  1.00  0.00    -0.325 OA 
HETATM   27  H1  UNL     1     -13.214  12.631  71.908  1.00  0.00     0.000 HD 
HETATM   28  H2  UNL     1     -13.218  14.245  71.170  1.00  0.00     0.000 HD 
HETATM   29  N   UNL     1     -12.906  13.274  71.178  1.00  0.00    -0.315 N  
ENDBRANCH  18  25
ENDBRANCH  14  17
ENDBRANCH  13  14
ENDBRANCH  11  13
ENDBRANCH   2  11
TORSDOF 8
ENDMDL
MODEL      109
REMARK 921   NORMALIZED FREE ENERGY PREDICTED BY IDOCK:   -5.11 KCAL/MOL
REMARK 922        TOTAL FREE ENERGY PREDICTED BY IDOCK:   -9.06 KCAL/MOL
REMARK 923 INTER-LIGAND FREE ENERGY PREDICTED BY IDOCK:   -6.24 KCAL/MOL
REMARK 924 INTRA-LIGAND FREE ENERGY PREDICTED BY IDOCK:   -2.82 KCAL/MOL
REMARK 927      BINDING AFFINITY PREDICTED BY RF-SCORE:    0.00 PKD
ROOT
HETATM    1  C   UNL     1     -10.900   4.093  73.681  1.00  0.00    -0.346 C  
HETATM    2  C   UNL     1      -9.452   3.869  73.228  1.00  0.00    -0.111 C  
ENDROOT
BRANCH   2   3
HETATM    3  C   UNL     1      -9.446   3.500  71.727  1.00  0.00    -0.212 C  
BRANCH   3   4
HETATM    4  C   UNL     1      -8.458   4.326  70.896  1.00  0.00    -0.103 C  
BRANCH   4   5
HETATM    5  C   UNL     1      -9.170   5.282  69.964  1.00  0.00    -0.180 A  
HETATM    6  C   UNL     1      -8.453   6.052  69.039  1.00  0.00    -0.117 A  
HETATM    7  C   UNL     1      -9.118   6.932  68.183  1.00  0.00    -0.124 A  
HETATM    8  C   UNL     1     -10.566   5.400  70.004  1.00  0.00    -0.354 A  
HETATM    9  C   UNL     1     -10.507   7.048  68.239  1.00  0.00    -0.237 A  
HETATM   10  C   UNL     1     -11.230   6.280  69.149  1.00  0.00    -0.439 A  
ENDBRANCH   4   5
ENDBRANCH   3   4
ENDBRANCH   2   3
BRANCH   2  11
HETATM   11  N   UNL     1      -8.604   5.045  73.455  1.00  0.00    -0.109 NA 
HETATM   12  H   UNL     1      -8.029   5.237  72.635  1.00  0.00     0.000 HD 
BRANCH  11  13
HETATM   13  C   UNL     1      -9.347   6.249  73.856  1.00  0.00    -0.140 C  
BRANCH  13  14
HETATM   14  C   UNL     1      -8.761   7.534  73.212  1.00  0.00    -0.165 C  
HETATM   15  H   UNL     1      -7.255   7.965  72.033  1.00  0.00     0.000 HD 
HETATM   16  O   UNL     1      -7.614   7.179  72.427  1.00  0.00    -0.087 OA 
BRANCH  14  17
HETATM   17  C   UNL     1      -9.794   8.277  72.372  1.00  0.00    -0.375 A  
HETATM   18  C   UNL     1     -12.120   8.815  71.792  1.00  0.00    -0.418 A  
HETATM   19  H   UNL     1     -12.175  10.668  69.055  1.00  0.00     0.000 HD 
HETATM   20  C   UNL     1     -11.659   9.570  70.709  1.00  0.00    -0.308 A  
HETATM   21  C   UNL     1     -10.296   9.718  70.472  1.00  0.00    -0.348 A  
HETATM   22  O   UNL     1     -12.488  10.155  69.791  1.00  0.00    -0.004 OA 
HETATM   23  C   UNL     1      -9.370   9.060  71.287  1.00  0.00    -0.324 A  
HETATM   24  C   UNL     1     -11.176   8.172  72.615  1.00  0.00    -0.447 A  
BRANCH  18  25
HETATM   25  C   UNL     1     -13.562   8.613  72.117  1.00  0.00    -0.406 C  
HETATM   26  O   UNL     1     -14.153   9.329  72.916  1.00  0.00    -0.443 OA 
HETATM   27  H1  UNL     1     -15.218   7.464  71.704  1.00  0.00     0.000 HD 
HETATM   28  H2  UNL     1     -13.758   7.003  70.805  1.00  0.00     0.000 HD 
HETATM   29  N   UNL     1     -14.232   7.602  71.482  1.00  0.00    -0.442 N  
ENDBRANCH  18  25
ENDBRANCH  14  17
ENDBRANCH  13  14
ENDBRANCH  11  13
ENDBRANCH   2  11
TORSDOF 8
ENDMDL
MODEL      110
REMARK 921   NORMALIZED FREE ENERGY PREDICTED BY IDOCK:   -5.11 KCAL/MOL
REMARK 922        TOTAL FREE ENERGY PREDICTED BY IDOCK:   -9.06 KCAL/MOL
REMARK 923 INTER-LIGAND FREE ENERGY PREDICTED BY IDOCK:   -8.04 KCAL/MOL
REMARK 924 INTRA-LIGAND FREE ENERGY PREDICTED BY IDOCK:   -1.02 KCAL/MOL
REMARK 927      BINDING AFFINITY PREDICTED BY RF-SCORE:    0.00 PKD
ROOT
HETATM    1  C   UNL     1      -8.126  14.717  68.348  1.00  0.00    -0.144 C  
HETATM    2  C   UNL     1      -8.555  15.541  67.128  1.00  0.00    -0.215 C  
ENDROOT
BRANCH   2   3
HETATM    3  C   UNL     1      -7.307  16.218  66.515  1.00  0.00    -0.118 C  
BRANCH   3   4
HETATM    4  C   UNL     1      -7.063  17.639  67.033  1.00  0.00    -0.209 C  
BRANCH   4   5
HETATM    5  C   UNL     1      -8.355  18.405  67.203  1.00  0.00    -0.248 A  
HETATM    6  C   UNL     1      -9.089  18.835  66.089  1.00  0.00    -0.152 A  
HETATM    7  C   UNL     1     -10.281  19.542  66.255  1.00  0.00    -0.582 A  
HETATM    8  C   UNL     1      -8.849  18.685  68.485  1.00  0.00    -0.361 A  
HETATM    9  C   UNL     1     -10.757  19.823  67.536  1.00  0.00    -0.494 A  
HETATM   10  C   UNL     1     -10.041  19.392  68.651  1.00  0.00    -0.515 A  
ENDBRANCH   4   5
ENDBRANCH   3   4
ENDBRANCH   2   3
BRANCH   2  11
HETATM   11  N   UNL     1      -9.231  14.728  66.110  1.00  0.00    -0.474 NA 
HETATM   12  H   UNL     1      -9.304  13.758  66.417  1.00  0.00     0.000 HD 
BRANCH  11  13
HETATM   13  C   UNL     1     -10.548  15.243  65.711  1.00  0.00    -0.347 C  
BRANCH  13  14
HETATM   14  C   UNL     1     -11.705  14.360  66.252  1.00  0.00    -0.385 C  
HETATM   15  H   UNL     1     -12.237  12.478  66.103  1.00  0.00     0.000 HD 
HETATM   16  O   UNL     1     -11.530  13.019  65.773  1.00  0.00    -0.310 OA 
BRANCH  14  17
HETATM   17  C   UNL     1     -11.790  14.394  67.774  1.00  0.00    -0.402 A  
HETATM   18  C   UNL     1     -12.076  13.280  69.944  1.00  0.00    -0.377 A  
HETATM   19  H   UNL     1     -12.289  15.554  72.334  1.00  0.00     0.000 HD 
HETATM   20  C   UNL     1     -12.069  14.530  70.570  1.00  0.00    -0.325 A  
HETATM   21  C   UNL     1     -11.888  15.695  69.832  1.00  0.00    -0.374 A  
HETATM   22  O   UNL     1     -12.294  14.704  71.908  1.00  0.00    -0.333 OA 
HETATM   23  C   UNL     1     -11.769  15.629  68.441  1.00  0.00    -0.301 A  
HETATM   24  C   UNL     1     -11.937  13.226  68.545  1.00  0.00    -0.340 A  
BRANCH  18  25
HETATM   25  C   UNL     1     -12.257  11.985  70.664  1.00  0.00    -0.316 C  
HETATM   26  O   UNL     1     -11.692  10.959  70.306  1.00  0.00    -0.294 OA 
HETATM   27  H1  UNL     1     -13.195  11.082  72.257  1.00  0.00     0.000 HD 
HETATM   28  H2  UNL     1     -13.540  12.815  72.084  1.00  0.00     0.000 HD 
HETATM   29  N   UNL     1     -13.071  11.967  71.765  1.00  0.00    -0.426 N  
ENDBRANCH  18  25
ENDBRANCH  14  17
ENDBRANCH  13  14
ENDBRANCH  11  13
ENDBRANCH   2  11
TORSDOF 8
ENDMDL
MODEL      111
REMARK 921   NORMALIZED FREE ENERGY PREDICTED BY IDOCK:   -5.11 KCAL/MOL
REMARK 922        TOTAL FREE ENERGY PREDICTED BY IDOCK:   -9.05 KCAL/MOL
REMARK 923 INTER-LIGAND FREE ENERGY PREDICTED BY IDOCK:   -8.11 KCAL/MOL
REMARK 924 INTRA-LIGAND FREE ENERGY PREDICTED BY IDOCK:   -0.94 KCAL/MOL
REMARK 927      BINDING AFFINITY PREDICTED BY RF-SCORE:    0.00 PKD
ROOT
HETATM    1  C   UNL     1     -12.772  14.214  65.088  1.00  0.00    -0.387 C  
HETATM    2  C   UNL     1     -11.382  14.794  64.801  1.00  0.00    -0.397 C  
ENDROOT
BRANCH   2   3
HETATM    3  C   UNL     1     -10.722  15.201  66.139  1.00  0.00    -0.327 C  
BRANCH   3   4
HETATM    4  C   UNL     1      -9.348  15.858  65.969  1.00  0.00    -0.385 C  
BRANCH   4   5
HETATM    5  C   UNL     1      -9.342  17.286  66.466  1.00  0.00    -0.283 A  
HETATM    6  C   UNL     1      -8.202  18.090  66.333  1.00  0.00    -0.285 A  
HETATM    7  C   UNL     1      -8.205  19.407  66.795  1.00  0.00    -0.311 A  
HETATM    8  C   UNL     1     -10.490  17.834  67.056  1.00  0.00    -0.324 A  
HETATM    9  C   UNL     1      -9.350  19.938  67.390  1.00  0.00    -0.468 A  
HETATM   10  C   UNL     1     -10.492  19.151  67.518  1.00  0.00    -0.549 A  
ENDBRANCH   4   5
ENDBRANCH   3   4
ENDBRANCH   2   3
BRANCH   2  11
HETATM   11  N   UNL     1     -10.517  13.849  64.086  1.00  0.00    -0.568 NA 
HETATM   12  H   UNL     1      -9.759  13.529  64.689  1.00  0.00     0.000 HD 
BRANCH  11  13
HETATM   13  C   UNL     1     -11.232  12.704  63.506  1.00  0.00    -0.429 C  
BRANCH  13  14
HETATM   14  C   UNL     1     -10.459  11.373  63.709  1.00  0.00    -0.399 C  
HETATM   15  H   UNL     1      -8.771  10.606  63.070  1.00  0.00     0.000 HD 
HETATM   16  O   UNL     1      -9.244  11.420  62.946  1.00  0.00    -0.333 OA 
BRANCH  14  17
HETATM   17  C   UNL     1     -10.175  11.093  65.180  1.00  0.00    -0.347 A  
HETATM   18  C   UNL     1     -10.738  11.295  67.562  1.00  0.00    -0.275 A  
HETATM   19  H   UNL     1      -8.275  10.058  69.388  1.00  0.00     0.000 HD 
HETATM   20  C   UNL     1      -9.534  10.659  67.885  1.00  0.00    -0.159 A  
HETATM   21  C   UNL     1      -8.677  10.208  66.887  1.00  0.00    -0.135 A  
HETATM   22  O   UNL     1      -9.092  10.491  69.168  1.00  0.00    -0.178 OA 
HETATM   23  C   UNL     1      -8.986  10.441  65.543  1.00  0.00    -0.199 A  
HETATM   24  C   UNL     1     -11.045  11.507  66.205  1.00  0.00    -0.321 A  
BRANCH  18  25
HETATM   25  C   UNL     1     -11.713  11.801  68.572  1.00  0.00    -0.330 C  
HETATM   26  O   UNL     1     -12.417  11.046  69.230  1.00  0.00    -0.400 OA 
HETATM   27  H1  UNL     1     -12.464  13.501  69.456  1.00  0.00     0.000 HD 
HETATM   28  H2  UNL     1     -11.210  13.798  68.235  1.00  0.00     0.000 HD 
HETATM   29  N   UNL     1     -11.797  13.154  68.766  1.00  0.00    -0.320 N  
ENDBRANCH  18  25
ENDBRANCH  14  17
ENDBRANCH  13  14
ENDBRANCH  11  13
ENDBRANCH   2  11
TORSDOF 8
ENDMDL
MODEL      112
REMARK 921   NORMALIZED FREE ENERGY PREDICTED BY IDOCK:   -5.08 KCAL/MOL
REMARK 922        TOTAL FREE ENERGY PREDICTED BY IDOCK:   -9.01 KCAL/MOL
REMARK 923 INTER-LIGAND FREE ENERGY PREDICTED BY IDOCK:   -8.17 KCAL/MOL
REMARK 924 INTRA-LIGAND FREE ENERGY PREDICTED BY IDOCK:   -0.84 KCAL/MOL
REMARK 927      BINDING AFFINITY PREDICTED BY RF-SCORE:    0.00 PKD
ROOT
HETATM    1  C   UNL     1     -12.900  11.131  71.486  1.00  0.00    -0.542 C  
HETATM    2  C   UNL     1     -11.869  10.043  71.161  1.00  0.00    -0.393 C  
ENDROOT
BRANCH   2   3
HETATM    3  C   UNL     1     -12.094   8.839  72.104  1.00  0.00    -0.441 C  
BRANCH   3   4
HETATM    4  C   UNL     1     -12.707   7.619  71.407  1.00  0.00    -0.357 C  
BRANCH   4   5
HETATM    5  C   UNL     1     -11.698   6.507  71.231  1.00  0.00    -0.386 A  
HETATM    6  C   UNL     1     -11.190   5.814  72.338  1.00  0.00    -0.343 A  
HETATM    7  C   UNL     1     -10.259   4.789  72.166  1.00  0.00    -0.258 A  
HETATM    8  C   UNL     1     -11.266   6.141  69.948  1.00  0.00    -0.484 A  
HETATM    9  C   UNL     1      -9.829   4.440  70.886  1.00  0.00    -0.266 A  
HETATM   10  C   UNL     1     -10.335   5.115  69.777  1.00  0.00    -0.332 A  
ENDBRANCH   4   5
ENDBRANCH   3   4
ENDBRANCH   2   3
BRANCH   2  11
HETATM   11  N   UNL     1     -11.941   9.602  69.763  1.00  0.00    -0.411 NA 
HETATM   12  H   UNL     1     -12.565  10.205  69.229  1.00  0.00     0.000 HD 
BRANCH  11  13
HETATM   13  C   UNL     1     -10.633   9.496  69.101  1.00  0.00    -0.222 C  
BRANCH  13  14
HETATM   14  C   UNL     1      -9.879  10.853  69.085  1.00  0.00    -0.145 C  
HETATM   15  H   UNL     1      -8.056  11.454  68.686  1.00  0.00     0.000 HD 
HETATM   16  O   UNL     1      -8.517  10.624  68.696  1.00  0.00    -0.127 OA 
BRANCH  14  17
HETATM   17  C   UNL     1     -10.549  11.870  68.169  1.00  0.00    -0.233 A  
HETATM   18  C   UNL     1     -11.344  14.144  67.686  1.00  0.00    -0.342 A  
HETATM   19  H   UNL     1     -13.054  14.138  64.856  1.00  0.00     0.000 HD 
HETATM   20  C   UNL     1     -11.910  13.677  66.494  1.00  0.00    -0.404 A  
HETATM   21  C   UNL     1     -11.773  12.346  66.115  1.00  0.00    -0.460 A  
HETATM   22  O   UNL     1     -12.670  14.455  65.665  1.00  0.00    -0.407 OA 
HETATM   23  C   UNL     1     -11.114  11.444  66.956  1.00  0.00    -0.364 A  
HETATM   24  C   UNL     1     -10.668  13.230  68.515  1.00  0.00    -0.280 A  
BRANCH  18  25
HETATM   25  C   UNL     1     -11.441  15.555  68.160  1.00  0.00    -0.326 C  
HETATM   26  O   UNL     1     -12.158  15.877  69.099  1.00  0.00    -0.339 OA 
HETATM   27  H1  UNL     1     -10.750  17.468  67.848  1.00  0.00     0.000 HD 
HETATM   28  H2  UNL     1     -10.072  16.251  66.749  1.00  0.00     0.000 HD 
HETATM   29  N   UNL     1     -10.684  16.503  67.524  1.00  0.00    -0.311 N  
ENDBRANCH  18  25
ENDBRANCH  14  17
ENDBRANCH  13  14
ENDBRANCH  11  13
ENDBRANCH   2  11
TORSDOF 8
ENDMDL
MODEL      113
REMARK 921   NORMALIZED FREE ENERGY PREDICTED BY IDOCK:   -5.07 KCAL/MOL
REMARK 922        TOTAL FREE ENERGY PREDICTED BY IDOCK:   -9.00 KCAL/MOL
REMARK 923 INTER-LIGAND FREE ENERGY PREDICTED BY IDOCK:   -8.10 KCAL/MOL
REMARK 924 INTRA-LIGAND FREE ENERGY PREDICTED BY IDOCK:   -0.90 KCAL/MOL
REMARK 927      BINDING AFFINITY PREDICTED BY RF-SCORE:    0.00 PKD
ROOT
HETATM    1  C   UNL     1     -14.340   7.411  71.555  1.00  0.00    -0.594 C  
HETATM    2  C   UNL     1     -12.885   7.887  71.640  1.00  0.00    -0.334 C  
ENDROOT
BRANCH   2   3
HETATM    3  C   UNL     1     -12.869   9.406  71.929  1.00  0.00    -0.497 C  
BRANCH   3   4
HETATM    4  C   UNL     1     -12.329  10.246  70.766  1.00  0.00    -0.445 C  
BRANCH   4   5
HETATM    5  C   UNL     1     -12.569  11.723  70.981  1.00  0.00    -0.409 A  
HETATM    6  C   UNL     1     -13.400  12.174  72.015  1.00  0.00    -0.470 A  
HETATM    7  C   UNL     1     -13.616  13.540  72.207  1.00  0.00    -0.690 A  
HETATM    8  C   UNL     1     -11.946  12.668  70.154  1.00  0.00    -0.375 A  
HETATM    9  C   UNL     1     -12.999  14.471  71.371  1.00  0.00    -0.403 A  
HETATM   10  C   UNL     1     -12.162  14.034  70.346  1.00  0.00    -0.433 A  
ENDBRANCH   4   5
ENDBRANCH   3   4
ENDBRANCH   2   3
BRANCH   2  11
HETATM   11  N   UNL     1     -12.121   7.176  72.671  1.00  0.00    -0.507 NA 
HETATM   12  H   UNL     1     -12.533   6.262  72.856  1.00  0.00     0.000 HD 
BRANCH  11  13
HETATM   13  C   UNL     1     -10.689   7.043  72.369  1.00  0.00    -0.231 C  
BRANCH  13  14
HETATM   14  C   UNL     1     -10.247   5.556  72.291  1.00  0.00    -0.199 C  
HETATM   15  H   UNL     1     -10.975   3.832  72.875  1.00  0.00     0.000 HD 
HETATM   16  O   UNL     1     -11.245   4.741  72.922  1.00  0.00    -0.243 OA 
BRANCH  14  17
HETATM   17  C   UNL     1      -9.995   5.107  70.857  1.00  0.00    -0.280 A  
HETATM   18  C   UNL     1     -10.018   5.510  68.434  1.00  0.00    -0.210 A  
HETATM   19  H   UNL     1      -9.268   2.712  66.841  1.00  0.00     0.000 HD 
HETATM   20  C   UNL     1      -9.635   4.182  68.224  1.00  0.00    -0.128 A  
HETATM   21  C   UNL     1      -9.394   3.332  69.299  1.00  0.00    -0.233 A  
HETATM   22  O   UNL     1      -9.529   3.615  66.984  1.00  0.00    -0.190 OA 
HETATM   23  C   UNL     1      -9.592   3.786  70.606  1.00  0.00    -0.259 A  
HETATM   24  C   UNL     1     -10.196   5.960  69.756  1.00  0.00    -0.281 A  
BRANCH  18  25
HETATM   25  C   UNL     1     -10.289   6.486  67.338  1.00  0.00    -0.208 C  
HETATM   26  O   UNL     1     -11.400   6.608  66.838  1.00  0.00    -0.333 OA 
HETATM   27  H1  UNL     1      -9.439   7.937  66.153  1.00  0.00     0.000 HD 
HETATM   28  H2  UNL     1      -8.326   7.190  67.316  1.00  0.00     0.000 HD 
HETATM   29  N   UNL     1      -9.255   7.271  66.903  1.00  0.00    -0.145 N  
ENDBRANCH  18  25
ENDBRANCH  14  17
ENDBRANCH  13  14
ENDBRANCH  11  13
ENDBRANCH   2  11
TORSDOF 8
ENDMDL
MODEL      114
REMARK 921   NORMALIZED FREE ENERGY PREDICTED BY IDOCK:   -5.06 KCAL/MOL
REMARK 922        TOTAL FREE ENERGY PREDICTED BY IDOCK:   -8.98 KCAL/MOL
REMARK 923 INTER-LIGAND FREE ENERGY PREDICTED BY IDOCK:   -8.07 KCAL/MOL
REMARK 924 INTRA-LIGAND FREE ENERGY PREDICTED BY IDOCK:   -0.92 KCAL/MOL
REMARK 927      BINDING AFFINITY PREDICTED BY RF-SCORE:    0.00 PKD
ROOT
HETATM    1  C   UNL     1     -11.674  14.487  69.033  1.00  0.00    -0.346 C  
HETATM    2  C   UNL     1     -10.538  14.028  68.111  1.00  0.00    -0.248 C  
ENDROOT
BRANCH   2   3
HETATM    3  C   UNL     1      -9.870  15.271  67.480  1.00  0.00    -0.213 C  
BRANCH   3   4
HETATM    4  C   UNL     1     -10.871  16.284  66.912  1.00  0.00    -0.151 C  
BRANCH   4   5
HETATM    5  C   UNL     1     -10.414  17.709  67.130  1.00  0.00    -0.319 A  
HETATM    6  C   UNL     1      -9.884  18.114  68.362  1.00  0.00    -0.380 A  
HETATM    7  C   UNL     1      -9.465  19.432  68.554  1.00  0.00    -0.451 A  
HETATM    8  C   UNL     1     -10.502  18.646  66.090  1.00  0.00    -0.473 A  
HETATM    9  C   UNL     1      -9.566  20.358  67.516  1.00  0.00    -0.560 A  
HETATM   10  C   UNL     1     -10.083  19.963  66.284  1.00  0.00    -0.613 A  
ENDBRANCH   4   5
ENDBRANCH   3   4
ENDBRANCH   2   3
BRANCH   2  11
HETATM   11  N   UNL     1      -9.531  13.227  68.817  1.00  0.00    -0.406 NA 
HETATM   12  H   UNL     1      -9.710  13.230  69.821  1.00  0.00     0.000 HD 
BRANCH  11  13
HETATM   13  C   UNL     1      -9.408  11.849  68.320  1.00  0.00    -0.193 C  
BRANCH  13  14
HETATM   14  C   UNL     1     -10.792  11.162  68.165  1.00  0.00    -0.219 C  
HETATM   15  H   UNL     1     -11.547   9.737  67.049  1.00  0.00     0.000 HD 
HETATM   16  O   UNL     1     -10.700  10.157  67.144  1.00  0.00    -0.250 OA 
BRANCH  14  17
HETATM   17  C   UNL     1     -11.289  10.569  69.478  1.00  0.00    -0.341 A  
HETATM   18  C   UNL     1     -11.062   9.013  71.365  1.00  0.00    -0.399 A  
HETATM   19  H   UNL     1     -13.792   9.128  73.225  1.00  0.00     0.000 HD 
HETATM   20  C   UNL     1     -12.317   9.420  71.831  1.00  0.00    -0.375 A  
HETATM   21  C   UNL     1     -13.037  10.407  71.168  1.00  0.00    -0.474 A  
HETATM   22  O   UNL     1     -12.940   8.851  72.908  1.00  0.00    -0.330 OA 
HETATM   23  C   UNL     1     -12.535  10.965  69.989  1.00  0.00    -0.332 A  
HETATM   24  C   UNL     1     -10.560   9.595  70.186  1.00  0.00    -0.320 A  
BRANCH  18  25
HETATM   25  C   UNL     1     -10.225   7.966  72.021  1.00  0.00    -0.211 C  
HETATM   26  O   UNL     1     -10.441   6.771  71.865  1.00  0.00    -0.199 OA 
HETATM   27  H1  UNL     1      -8.605   7.659  73.252  1.00  0.00     0.000 HD 
HETATM   28  H2  UNL     1      -8.976   9.365  72.934  1.00  0.00     0.000 HD 
HETATM   29  N   UNL     1      -9.178   8.374  72.803  1.00  0.00    -0.263 N  
ENDBRANCH  18  25
ENDBRANCH  14  17
ENDBRANCH  13  14
ENDBRANCH  11  13
ENDBRANCH   2  11
TORSDOF 8
ENDMDL
MODEL      115
REMARK 921   NORMALIZED FREE ENERGY PREDICTED BY IDOCK:   -5.05 KCAL/MOL
REMARK 922        TOTAL FREE ENERGY PREDICTED BY IDOCK:   -8.97 KCAL/MOL
REMARK 923 INTER-LIGAND FREE ENERGY PREDICTED BY IDOCK:   -8.07 KCAL/MOL
REMARK 924 INTRA-LIGAND FREE ENERGY PREDICTED BY IDOCK:   -0.90 KCAL/MOL
REMARK 927      BINDING AFFINITY PREDICTED BY RF-SCORE:    0.00 PKD
ROOT
HETATM    1  C   UNL     1     -11.666   6.077  71.948  1.00  0.00    -0.287 C  
HETATM    2  C   UNL     1     -10.574   7.132  72.165  1.00  0.00    -0.210 C  
ENDROOT
BRANCH   2   3
HETATM    3  C   UNL     1      -9.753   7.280  70.863  1.00  0.00    -0.170 C  
BRANCH   3   4
HETATM    4  C   UNL     1      -9.197   5.953  70.334  1.00  0.00    -0.174 C  
BRANCH   4   5
HETATM    5  C   UNL     1      -9.668   5.669  68.925  1.00  0.00    -0.181 A  
HETATM    6  C   UNL     1      -9.218   4.538  68.231  1.00  0.00    -0.174 A  
HETATM    7  C   UNL     1      -9.657   4.283  66.931  1.00  0.00    -0.225 A  
HETATM    8  C   UNL     1     -10.577   6.531  68.296  1.00  0.00    -0.302 A  
HETATM    9  C   UNL     1     -10.555   5.153  66.311  1.00  0.00    -0.325 A  
HETATM   10  C   UNL     1     -11.016   6.275  66.996  1.00  0.00    -0.442 A  
ENDBRANCH   4   5
ENDBRANCH   3   4
ENDBRANCH   2   3
BRANCH   2  11
HETATM   11  N   UNL     1     -11.122   8.434  72.560  1.00  0.00    -0.361 NA 
HETATM   12  H   UNL     1     -10.594   8.823  73.341  1.00  0.00     0.000 HD 
BRANCH  11  13
HETATM   13  C   UNL     1     -11.207   9.406  71.460  1.00  0.00    -0.386 C  
BRANCH  13  14
HETATM   14  C   UNL     1     -12.658   9.914  71.245  1.00  0.00    -0.381 C  
HETATM   15  H   UNL     1     -14.363   9.772  72.202  1.00  0.00     0.000 HD 
HETATM   16  O   UNL     1     -13.475   9.462  72.334  1.00  0.00    -0.457 OA 
BRANCH  14  17
HETATM   17  C   UNL     1     -12.720  11.430  71.102  1.00  0.00    -0.479 A  
HETATM   18  C   UNL     1     -12.104  13.516  69.961  1.00  0.00    -0.411 A  
HETATM   19  H   UNL     1     -13.203  16.097  71.711  1.00  0.00     0.000 HD 
HETATM   20  C   UNL     1     -12.763  14.240  70.961  1.00  0.00    -0.359 A  
HETATM   21  C   UNL     1     -13.424  13.585  71.995  1.00  0.00    -0.584 A  
HETATM   22  O   UNL     1     -12.756  15.606  71.032  1.00  0.00    -0.444 OA 
HETATM   23  C   UNL     1     -13.387  12.190  72.075  1.00  0.00    -0.470 A  
HETATM   24  C   UNL     1     -12.090  12.111  70.044  1.00  0.00    -0.352 A  
BRANCH  18  25
HETATM   25  C   UNL     1     -11.378  14.141  68.817  1.00  0.00    -0.278 C  
HETATM   26  O   UNL     1     -10.334  14.762  68.973  1.00  0.00    -0.234 OA 
HETATM   27  H1  UNL     1     -11.406  14.419  66.779  1.00  0.00     0.000 HD 
HETATM   28  H2  UNL     1     -12.764  13.468  67.411  1.00  0.00     0.000 HD 
HETATM   29  N   UNL     1     -11.902  13.991  67.561  1.00  0.00    -0.387 N  
ENDBRANCH  18  25
ENDBRANCH  14  17
ENDBRANCH  13  14
ENDBRANCH  11  13
ENDBRANCH   2  11
TORSDOF 8
ENDMDL
MODEL      116
REMARK 921   NORMALIZED FREE ENERGY PREDICTED BY IDOCK:   -5.05 KCAL/MOL
REMARK 922        TOTAL FREE ENERGY PREDICTED BY IDOCK:   -8.97 KCAL/MOL
REMARK 923 INTER-LIGAND FREE ENERGY PREDICTED BY IDOCK:   -8.17 KCAL/MOL
REMARK 924 INTRA-LIGAND FREE ENERGY PREDICTED BY IDOCK:   -0.79 KCAL/MOL
REMARK 927      BINDING AFFINITY PREDICTED BY RF-SCORE:    0.00 PKD
ROOT
HETATM    1  C   UNL     1     -12.945  15.261  70.470  1.00  0.00    -0.380 C  
HETATM    2  C   UNL     1     -11.718  14.697  69.743  1.00  0.00    -0.313 C  
ENDROOT
BRANCH   2   3
HETATM    3  C   UNL     1     -11.997  13.228  69.352  1.00  0.00    -0.356 C  
BRANCH   3   4
HETATM    4  C   UNL     1     -12.371  12.336  70.541  1.00  0.00    -0.349 C  
BRANCH   4   5
HETATM    5  C   UNL     1     -11.789  10.947  70.408  1.00  0.00    -0.449 A  
HETATM    6  C   UNL     1     -10.966  10.613  69.324  1.00  0.00    -0.294 A  
HETATM    7  C   UNL     1     -10.433   9.328  69.209  1.00  0.00    -0.228 A  
HETATM    8  C   UNL     1     -12.055   9.973  71.380  1.00  0.00    -0.498 A  
HETATM    9  C   UNL     1     -10.712   8.364  70.177  1.00  0.00    -0.238 A  
HETATM   10  C   UNL     1     -11.522   8.688  71.264  1.00  0.00    -0.341 A  
ENDBRANCH   4   5
ENDBRANCH   3   4
ENDBRANCH   2   3
BRANCH   2  11
HETATM   11  N   UNL     1     -11.367  15.473  68.548  1.00  0.00    -0.333 NA 
HETATM   12  H   UNL     1     -11.998  16.267  68.439  1.00  0.00     0.000 HD 
BRANCH  11  13
HETATM   13  C   UNL     1      -9.967  15.918  68.514  1.00  0.00    -0.216 C  
BRANCH  13  14
HETATM   14  C   UNL     1      -9.349  15.780  67.096  1.00  0.00    -0.213 C  
HETATM   15  H   UNL     1      -7.548  15.859  66.324  1.00  0.00     0.000 HD 
HETATM   16  O   UNL     1      -7.926  15.943  67.191  1.00  0.00    -0.169 OA 
BRANCH  14  17
HETATM   17  C   UNL     1      -9.707  14.451  66.441  1.00  0.00    -0.320 A  
HETATM   18  C   UNL     1     -11.063  13.103  64.899  1.00  0.00    -0.335 A  
HETATM   19  H   UNL     1     -10.316   9.905  65.279  1.00  0.00     0.000 HD 
HETATM   20  C   UNL     1     -10.415  11.952  65.360  1.00  0.00    -0.270 A  
HETATM   21  C   UNL     1      -9.405  12.036  66.312  1.00  0.00    -0.228 A  
HETATM   22  O   UNL     1     -10.756  10.687  64.966  1.00  0.00    -0.203 OA 
HETATM   23  C   UNL     1      -9.067  13.275  66.863  1.00  0.00    -0.235 A  
HETATM   24  C   UNL     1     -10.700  14.346  65.449  1.00  0.00    -0.359 A  
BRANCH  18  25
HETATM   25  C   UNL     1     -12.150  13.098  63.876  1.00  0.00    -0.470 C  
HETATM   26  O   UNL     1     -12.614  14.135  63.418  1.00  0.00    -0.818 OA 
HETATM   27  H1  UNL     1     -13.360  11.885  62.738  1.00  0.00     0.000 HD 
HETATM   28  H2  UNL     1     -12.234  11.016  63.798  1.00  0.00     0.000 HD 
HETATM   29  N   UNL     1     -12.617  11.889  63.437  1.00  0.00    -0.558 N  
ENDBRANCH  18  25
ENDBRANCH  14  17
ENDBRANCH  13  14
ENDBRANCH  11  13
ENDBRANCH   2  11
TORSDOF 8
ENDMDL
MODEL      117
REMARK 921   NORMALIZED FREE ENERGY PREDICTED BY IDOCK:   -5.04 KCAL/MOL
REMARK 922        TOTAL FREE ENERGY PREDICTED BY IDOCK:   -8.96 KCAL/MOL
REMARK 923 INTER-LIGAND FREE ENERGY PREDICTED BY IDOCK:   -8.21 KCAL/MOL
REMARK 924 INTRA-LIGAND FREE ENERGY PREDICTED BY IDOCK:   -0.74 KCAL/MOL
REMARK 927      BINDING AFFINITY PREDICTED BY RF-SCORE:    0.00 PKD
ROOT
HETATM    1  C   UNL     1     -13.637  12.795  72.127  1.00  0.00    -0.547 C  
HETATM    2  C   UNL     1     -12.609  13.045  71.016  1.00  0.00    -0.299 C  
ENDROOT
BRANCH   2   3
HETATM    3  C   UNL     1     -12.392  11.733  70.228  1.00  0.00    -0.320 C  
BRANCH   3   4
HETATM    4  C   UNL     1     -13.028  10.506  70.891  1.00  0.00    -0.455 C  
BRANCH   4   5
HETATM    5  C   UNL     1     -11.984   9.561  71.441  1.00  0.00    -0.464 A  
HETATM    6  C   UNL     1     -10.630   9.717  71.117  1.00  0.00    -0.327 A  
HETATM    7  C   UNL     1      -9.673   8.839  71.629  1.00  0.00    -0.366 A  
HETATM    8  C   UNL     1     -12.358   8.517  72.299  1.00  0.00    -0.450 A  
HETATM    9  C   UNL     1     -10.058   7.798  72.474  1.00  0.00    -0.301 A  
HETATM   10  C   UNL     1     -11.401   7.639  72.811  1.00  0.00    -0.419 A  
ENDBRANCH   4   5
ENDBRANCH   3   4
ENDBRANCH   2   3
BRANCH   2  11
HETATM   11  N   UNL     1     -13.022  14.115  70.100  1.00  0.00    -0.355 NA 
HETATM   12  H   UNL     1     -13.937  14.479  70.364  1.00  0.00     0.000 HD 
BRANCH  11  13
HETATM   13  C   UNL     1     -12.048  15.208  69.980  1.00  0.00    -0.345 C  
BRANCH  13  14
HETATM   14  C   UNL     1     -10.924  14.876  68.962  1.00  0.00    -0.245 C  
HETATM   15  H   UNL     1     -10.836  14.345  67.076  1.00  0.00     0.000 HD 
HETATM   16  O   UNL     1     -11.523  14.549  67.699  1.00  0.00    -0.320 OA 
BRANCH  14  17
HETATM   17  C   UNL     1      -9.924  16.017  68.817  1.00  0.00    -0.224 A  
HETATM   18  C   UNL     1      -9.379  18.355  68.299  1.00  0.00    -0.342 A  
HETATM   19  H   UNL     1      -6.097  18.746  68.278  1.00  0.00     0.000 HD 
HETATM   20  C   UNL     1      -8.020  18.054  68.440  1.00  0.00    -0.300 A  
HETATM   21  C   UNL     1      -7.608  16.776  68.800  1.00  0.00    -0.240 A  
HETATM   22  O   UNL     1      -7.020  18.950  68.182  1.00  0.00    -0.234 OA 
HETATM   23  C   UNL     1      -8.553  15.759  68.968  1.00  0.00    -0.236 A  
HETATM   24  C   UNL     1     -10.321  17.327  68.489  1.00  0.00    -0.371 A  
BRANCH  18  25
HETATM   25  C   UNL     1      -9.903  19.701  67.923  1.00  0.00    -0.399 C  
HETATM   26  O   UNL     1     -10.429  20.445  68.741  1.00  0.00    -0.230 OA 
HETATM   27  H1  UNL     1     -10.126  21.025  66.364  1.00  0.00     0.000 HD 
HETATM   28  H2  UNL     1      -9.321  19.504  65.930  1.00  0.00     0.000 HD 
HETATM   29  N   UNL     1      -9.767  20.106  66.622  1.00  0.00    -0.425 N  
ENDBRANCH  18  25
ENDBRANCH  14  17
ENDBRANCH  13  14
ENDBRANCH  11  13
ENDBRANCH   2  11
TORSDOF 8
ENDMDL
MODEL      118
REMARK 921   NORMALIZED FREE ENERGY PREDICTED BY IDOCK:   -5.04 KCAL/MOL
REMARK 922        TOTAL FREE ENERGY PREDICTED BY IDOCK:   -8.95 KCAL/MOL
REMARK 923 INTER-LIGAND FREE ENERGY PREDICTED BY IDOCK:   -6.66 KCAL/MOL
REMARK 924 INTRA-LIGAND FREE ENERGY PREDICTED BY IDOCK:   -2.30 KCAL/MOL
REMARK 927      BINDING AFFINITY PREDICTED BY RF-SCORE:    0.00 PKD
ROOT
HETATM    1  C   UNL     1     -11.974  15.648  68.818  1.00  0.00    -0.247 C  
HETATM    2  C   UNL     1     -10.486  15.631  69.190  1.00  0.00    -0.236 C  
ENDROOT
BRANCH   2   3
HETATM    3  C   UNL     1      -9.933  14.202  68.984  1.00  0.00    -0.067 C  
BRANCH   3   4
HETATM    4  C   UNL     1     -10.993  13.194  68.525  1.00  0.00    -0.289 C  
BRANCH   4   5
HETATM    5  C   UNL     1     -10.422  11.801  68.390  1.00  0.00    -0.231 A  
HETATM    6  C   UNL     1      -9.044  11.599  68.237  1.00  0.00    -0.187 A  
HETATM    7  C   UNL     1      -8.526  10.309  68.113  1.00  0.00    -0.123 A  
HETATM    8  C   UNL     1     -11.268  10.683  68.432  1.00  0.00    -0.347 A  
HETATM    9  C   UNL     1      -9.377   9.205  68.146  1.00  0.00    -0.147 A  
HETATM   10  C   UNL     1     -10.749   9.393  68.308  1.00  0.00    -0.220 A  
ENDBRANCH   4   5
ENDBRANCH   3   4
ENDBRANCH   2   3
BRANCH   2  11
HETATM   11  N   UNL     1      -9.701  16.588  68.403  1.00  0.00    -0.229 NA 
HETATM   12  H   UNL     1      -8.749  16.247  68.269  1.00  0.00     0.000 HD 
BRANCH  11  13
HETATM   13  C   UNL     1     -10.307  16.941  67.111  1.00  0.00    -0.304 C  
BRANCH  13  14
HETATM   14  C   UNL     1      -9.598  16.236  65.924  1.00  0.00    -0.301 C  
HETATM   15  H   UNL     1      -7.897  15.300  65.646  1.00  0.00     0.000 HD 
HETATM   16  O   UNL     1      -8.332  15.732  66.372  1.00  0.00    -0.284 OA 
BRANCH  14  17
HETATM   17  C   UNL     1     -10.451  15.125  65.324  1.00  0.00    -0.434 A  
HETATM   18  C   UNL     1     -10.734  12.830  64.496  1.00  0.00    -0.380 A  
HETATM   19  H   UNL     1     -13.728  12.508  63.133  1.00  0.00     0.000 HD 
HETATM   20  C   UNL     1     -12.035  13.150  64.095  1.00  0.00    -0.436 A  
HETATM   21  C   UNL     1     -12.561  14.416  64.332  1.00  0.00    -0.196 A  
HETATM   22  O   UNL     1     -12.845  12.290  63.405  1.00  0.00    -0.754 OA 
HETATM   23  C   UNL     1     -11.768  15.402  64.925  1.00  0.00    -0.174 A  
HETATM   24  C   UNL     1      -9.952  13.827  65.108  1.00  0.00    -0.240 A  
BRANCH  18  25
HETATM   25  C   UNL     1     -10.099  11.496  64.285  1.00  0.00    -0.291 C  
HETATM   26  O   UNL     1     -10.345  10.539  65.008  1.00  0.00    -0.316 OA 
HETATM   27  H1  UNL     1      -8.796  10.441  63.092  1.00  0.00     0.000 HD 
HETATM   28  H2  UNL     1      -9.023  12.136  62.617  1.00  0.00     0.000 HD 
HETATM   29  N   UNL     1      -9.230  11.353  63.236  1.00  0.00    -0.223 N  
ENDBRANCH  18  25
ENDBRANCH  14  17
ENDBRANCH  13  14
ENDBRANCH  11  13
ENDBRANCH   2  11
TORSDOF 8
ENDMDL
MODEL      119
REMARK 921   NORMALIZED FREE ENERGY PREDICTED BY IDOCK:   -5.04 KCAL/MOL
REMARK 922        TOTAL FREE ENERGY PREDICTED BY IDOCK:   -8.95 KCAL/MOL
REMARK 923 INTER-LIGAND FREE ENERGY PREDICTED BY IDOCK:   -8.17 KCAL/MOL
REMARK 924 INTRA-LIGAND FREE ENERGY PREDICTED BY IDOCK:   -0.78 KCAL/MOL
REMARK 927      BINDING AFFINITY PREDICTED BY RF-SCORE:    0.00 PKD
ROOT
HETATM    1  C   UNL     1      -7.277  13.534  67.572  1.00  0.00    -0.165 C  
HETATM    2  C   UNL     1      -8.532  14.277  67.097  1.00  0.00    -0.200 C  
ENDROOT
BRANCH   2   3
HETATM    3  C   UNL     1      -8.147  15.728  66.730  1.00  0.00    -0.297 C  
BRANCH   3   4
HETATM    4  C   UNL     1      -9.232  16.469  65.940  1.00  0.00    -0.209 C  
BRANCH   4   5
HETATM    5  C   UNL     1      -9.389  17.899  66.407  1.00  0.00    -0.268 A  
HETATM    6  C   UNL     1     -10.626  18.376  66.861  1.00  0.00    -0.381 A  
HETATM    7  C   UNL     1     -10.762  19.697  67.290  1.00  0.00    -0.583 A  
HETATM    8  C   UNL     1      -8.289  18.768  66.406  1.00  0.00    -0.294 A  
HETATM    9  C   UNL     1      -9.663  20.555  67.276  1.00  0.00    -0.600 A  
HETATM   10  C   UNL     1      -8.426  20.089  66.835  1.00  0.00    -0.385 A  
ENDBRANCH   4   5
ENDBRANCH   3   4
ENDBRANCH   2   3
BRANCH   2  11
HETATM   11  N   UNL     1      -9.168  13.624  65.947  1.00  0.00    -0.479 NA 
HETATM   12  H   UNL     1      -8.504  13.017  65.467  1.00  0.00     0.000 HD 
BRANCH  11  13
HETATM   13  C   UNL     1     -10.393  12.884  66.283  1.00  0.00    -0.268 C  
BRANCH  13  14
HETATM   14  C   UNL     1     -10.999  13.347  67.635  1.00  0.00    -0.259 C  
HETATM   15  H   UNL     1     -12.678  14.173  68.224  1.00  0.00     0.000 HD 
HETATM   16  O   UNL     1     -12.306  13.889  67.397  1.00  0.00    -0.316 OA 
BRANCH  14  17
HETATM   17  C   UNL     1     -11.050  12.218  68.658  1.00  0.00    -0.291 A  
HETATM   18  C   UNL     1     -12.028  11.144  70.638  1.00  0.00    -0.459 A  
HETATM   19  H   UNL     1     -10.172   8.554  71.520  1.00  0.00     0.000 HD 
HETATM   20  C   UNL     1     -11.015  10.179  70.596  1.00  0.00    -0.285 A  
HETATM   21  C   UNL     1     -10.056  10.197  69.590  1.00  0.00    -0.265 A  
HETATM   22  O   UNL     1     -10.859   9.209  71.548  1.00  0.00    -0.316 OA 
HETATM   23  C   UNL     1     -10.061  11.221  68.638  1.00  0.00    -0.216 A  
HETATM   24  C   UNL     1     -12.032  12.159  69.664  1.00  0.00    -0.351 A  
BRANCH  18  25
HETATM   25  C   UNL     1     -13.096  11.190  71.679  1.00  0.00    -0.424 C  
HETATM   26  O   UNL     1     -13.597  10.172  72.140  1.00  0.00    -0.368 OA 
HETATM   27  H1  UNL     1     -14.234  12.448  72.844  1.00  0.00     0.000 HD 
HETATM   28  H2  UNL     1     -13.088  13.274  71.768  1.00  0.00     0.000 HD 
HETATM   29  N   UNL     1     -13.503  12.416  72.132  1.00  0.00    -0.492 N  
ENDBRANCH  18  25
ENDBRANCH  14  17
ENDBRANCH  13  14
ENDBRANCH  11  13
ENDBRANCH   2  11
TORSDOF 8
ENDMDL
MODEL      120
REMARK 921   NORMALIZED FREE ENERGY PREDICTED BY IDOCK:   -5.04 KCAL/MOL
REMARK 922        TOTAL FREE ENERGY PREDICTED BY IDOCK:   -8.95 KCAL/MOL
REMARK 923 INTER-LIGAND FREE ENERGY PREDICTED BY IDOCK:   -7.75 KCAL/MOL
REMARK 924 INTRA-LIGAND FREE ENERGY PREDICTED BY IDOCK:   -1.19 KCAL/MOL
REMARK 927      BINDING AFFINITY PREDICTED BY RF-SCORE:    0.00 PKD
ROOT
HETATM    1  C   UNL     1     -12.060  13.175  66.058  1.00  0.00    -0.495 C  
HETATM    2  C   UNL     1     -10.872  13.946  66.646  1.00  0.00    -0.289 C  
ENDROOT
BRANCH   2   3
HETATM    3  C   UNL     1     -10.908  13.825  68.187  1.00  0.00    -0.261 C  
BRANCH   3   4
HETATM    4  C   UNL     1     -11.704  14.941  68.872  1.00  0.00    -0.343 C  
BRANCH   4   5
HETATM    5  C   UNL     1     -12.393  14.452  70.126  1.00  0.00    -0.406 A  
HETATM    6  C   UNL     1     -13.076  15.342  70.965  1.00  0.00    -0.565 A  
HETATM    7  C   UNL     1     -13.709  14.882  72.121  1.00  0.00    -0.550 A  
HETATM    8  C   UNL     1     -12.369  13.091  70.460  1.00  0.00    -0.365 A  
HETATM    9  C   UNL     1     -13.671  13.527  72.449  1.00  0.00    -0.704 A  
HETATM   10  C   UNL     1     -13.002  12.632  71.616  1.00  0.00    -0.400 A  
ENDBRANCH   4   5
ENDBRANCH   3   4
ENDBRANCH   2   3
BRANCH   2  11
HETATM   11  N   UNL     1      -9.583  13.462  66.138  1.00  0.00    -0.425 NA 
HETATM   12  H   UNL     1      -8.992  14.245  65.859  1.00  0.00     0.000 HD 
BRANCH  11  13
HETATM   13  C   UNL     1      -8.866  12.580  67.069  1.00  0.00    -0.212 C  
BRANCH  13  14
HETATM   14  C   UNL     1      -8.883  11.101  66.597  1.00  0.00    -0.166 C  
HETATM   15  H   UNL     1      -7.556   9.802  65.966  1.00  0.00     0.000 HD 
HETATM   16  O   UNL     1      -7.546  10.706  66.255  1.00  0.00    -0.126 OA 
BRANCH  14  17
HETATM   17  C   UNL     1      -9.480  10.171  67.646  1.00  0.00    -0.166 A  
HETATM   18  C   UNL     1     -10.401   7.998  68.329  1.00  0.00    -0.240 A  
HETATM   19  H   UNL     1     -11.579   8.218  71.410  1.00  0.00     0.000 HD 
HETATM   20  C   UNL     1     -10.699   8.537  69.585  1.00  0.00    -0.197 A  
HETATM   21  C   UNL     1     -10.366   9.851  69.893  1.00  0.00    -0.298 A  
HETATM   22  O   UNL     1     -11.377   7.852  70.557  1.00  0.00    -0.273 OA 
HETATM   23  C   UNL     1      -9.778  10.669  68.924  1.00  0.00    -0.210 A  
HETATM   24  C   UNL     1      -9.792   8.827  67.368  1.00  0.00    -0.250 A  
BRANCH  18  25
HETATM   25  C   UNL     1     -10.719   6.598  67.923  1.00  0.00    -0.274 C  
HETATM   26  O   UNL     1     -11.262   6.340  66.856  1.00  0.00    -0.335 OA 
HETATM   27  H1  UNL     1     -10.587   4.626  68.496  1.00  0.00     0.000 HD 
HETATM   28  H2  UNL     1      -9.905   5.780  69.660  1.00  0.00     0.000 HD 
HETATM   29  N   UNL     1     -10.369   5.584  68.774  1.00  0.00    -0.205 N  
ENDBRANCH  18  25
ENDBRANCH  14  17
ENDBRANCH  13  14
ENDBRANCH  11  13
ENDBRANCH   2  11
TORSDOF 8
ENDMDL
MODEL      121
REMARK 921   NORMALIZED FREE ENERGY PREDICTED BY IDOCK:   -5.03 KCAL/MOL
REMARK 922        TOTAL FREE ENERGY PREDICTED BY IDOCK:   -8.94 KCAL/MOL
REMARK 923 INTER-LIGAND FREE ENERGY PREDICTED BY IDOCK:   -7.36 KCAL/MOL
REMARK 924 INTRA-LIGAND FREE ENERGY PREDICTED BY IDOCK:   -1.58 KCAL/MOL
REMARK 927      BINDING AFFINITY PREDICTED BY RF-SCORE:    0.00 PKD
ROOT
HETATM    1  C   UNL     1     -11.584   7.129  72.470  1.00  0.00    -0.265 C  
HETATM    2  C   UNL     1     -12.487   7.578  71.315  1.00  0.00    -0.323 C  
ENDROOT
BRANCH   2   3
HETATM    3  C   UNL     1     -12.210   9.068  71.011  1.00  0.00    -0.275 C  
BRANCH   3   4
HETATM    4  C   UNL     1     -13.129  10.030  71.771  1.00  0.00    -0.562 C  
BRANCH   4   5
HETATM    5  C   UNL     1     -12.895  11.468  71.367  1.00  0.00    -0.489 A  
HETATM    6  C   UNL     1     -13.429  12.524  72.118  1.00  0.00    -0.523 A  
HETATM    7  C   UNL     1     -13.209  13.848  71.737  1.00  0.00    -0.455 A  
HETATM    8  C   UNL     1     -12.123  11.768  70.235  1.00  0.00    -0.426 A  
HETATM    9  C   UNL     1     -12.447  14.134  70.604  1.00  0.00    -0.432 A  
HETATM   10  C   UNL     1     -11.903  13.093  69.855  1.00  0.00    -0.378 A  
ENDBRANCH   4   5
ENDBRANCH   3   4
ENDBRANCH   2   3
BRANCH   2  11
HETATM   11  N   UNL     1     -12.286   6.776  70.102  1.00  0.00    -0.605 NA 
HETATM   12  H   UNL     1     -12.536   7.313  69.272  1.00  0.00     0.000 HD 
BRANCH  11  13
HETATM   13  C   UNL     1     -10.931   6.222  69.969  1.00  0.00    -0.358 C  
BRANCH  13  14
HETATM   14  C   UNL     1     -10.296   6.567  68.594  1.00  0.00    -0.191 C  
HETATM   15  H   UNL     1     -10.856   6.485  66.717  1.00  0.00     0.000 HD 
HETATM   16  O   UNL     1     -11.244   6.275  67.558  1.00  0.00    -0.328 OA 
BRANCH  14  17
HETATM   17  C   UNL     1      -9.831   8.016  68.524  1.00  0.00    -0.185 A  
HETATM   18  C   UNL     1      -8.285   9.819  69.150  1.00  0.00    -0.130 A  
HETATM   19  H   UNL     1      -9.420  12.700  67.992  1.00  0.00     0.000 HD 
HETATM   20  C   UNL     1      -9.093  10.731  68.463  1.00  0.00    -0.170 A  
HETATM   21  C   UNL     1     -10.229  10.304  67.783  1.00  0.00    -0.225 A  
HETATM   22  O   UNL     1      -8.871  12.081  68.458  1.00  0.00    -0.166 OA 
HETATM   23  C   UNL     1     -10.606   8.959  67.829  1.00  0.00    -0.266 A  
HETATM   24  C   UNL     1      -8.666   8.465  69.174  1.00  0.00    -0.142 A  
BRANCH  18  25
HETATM   25  C   UNL     1      -7.049  10.195  69.898  1.00  0.00    -0.144 C  
HETATM   26  O   UNL     1      -7.011  10.208  71.122  1.00  0.00    -0.279 OA 
HETATM   27  H1  UNL     1      -5.086  10.773  69.688  1.00  0.00     0.000 HD 
HETATM   28  H2  UNL     1      -5.942  10.498  68.157  1.00  0.00     0.000 HD 
HETATM   29  N   UNL     1      -5.931  10.515  69.177  1.00  0.00    -0.040 N  
ENDBRANCH  18  25
ENDBRANCH  14  17
ENDBRANCH  13  14
ENDBRANCH  11  13
ENDBRANCH   2  11
TORSDOF 8
ENDMDL
MODEL      122
REMARK 921   NORMALIZED FREE ENERGY PREDICTED BY IDOCK:   -5.02 KCAL/MOL
REMARK 922        TOTAL FREE ENERGY PREDICTED BY IDOCK:   -8.92 KCAL/MOL
REMARK 923 INTER-LIGAND FREE ENERGY PREDICTED BY IDOCK:   -7.72 KCAL/MOL
REMARK 924 INTRA-LIGAND FREE ENERGY PREDICTED BY IDOCK:   -1.20 KCAL/MOL
REMARK 927      BINDING AFFINITY PREDICTED BY RF-SCORE:    0.00 PKD
ROOT
HETATM    1  C   UNL     1     -12.705  14.060  65.643  1.00  0.00    -0.515 C  
HETATM    2  C   UNL     1     -11.409  14.349  66.411  1.00  0.00    -0.350 C  
ENDROOT
BRANCH   2   3
HETATM    3  C   UNL     1     -11.766  14.856  67.827  1.00  0.00    -0.340 C  
BRANCH   3   4
HETATM    4  C   UNL     1     -11.489  13.832  68.933  1.00  0.00    -0.344 C  
BRANCH   4   5
HETATM    5  C   UNL     1     -12.349  14.075  70.153  1.00  0.00    -0.409 A  
HETATM    6  C   UNL     1     -12.640  13.036  71.047  1.00  0.00    -0.386 A  
HETATM    7  C   UNL     1     -13.435  13.270  72.170  1.00  0.00    -0.655 A  
HETATM    8  C   UNL     1     -12.858  15.355  70.415  1.00  0.00    -0.355 A  
HETATM    9  C   UNL     1     -13.944  14.545  72.416  1.00  0.00    -0.580 A  
HETATM   10  C   UNL     1     -13.653  15.587  71.538  1.00  0.00    -0.571 A  
ENDBRANCH   4   5
ENDBRANCH   3   4
ENDBRANCH   2   3
BRANCH   2  11
HETATM   11  N   UNL     1     -10.539  13.171  66.508  1.00  0.00    -0.282 NA 
HETATM   12  H   UNL     1     -10.430  12.886  67.480  1.00  0.00     0.000 HD 
BRANCH  11  13
HETATM   13  C   UNL     1     -10.977  12.036  65.683  1.00  0.00    -0.297 C  
BRANCH  13  14
HETATM   14  C   UNL     1     -10.156  10.752  65.981  1.00  0.00    -0.249 C  
HETATM   15  H   UNL     1      -8.325  10.135  65.647  1.00  0.00     0.000 HD 
HETATM   16  O   UNL     1      -8.827  10.920  65.465  1.00  0.00    -0.190 OA 
BRANCH  14  17
HETATM   17  C   UNL     1     -10.131  10.419  67.468  1.00  0.00    -0.231 A  
HETATM   18  C   UNL     1      -8.968   9.632  69.483  1.00  0.00    -0.203 A  
HETATM   19  H   UNL     1     -11.137   9.316  71.957  1.00  0.00     0.000 HD 
HETATM   20  C   UNL     1     -10.175   9.695  70.186  1.00  0.00    -0.264 A  
HETATM   21  C   UNL     1     -11.337  10.145  69.568  1.00  0.00    -0.260 A  
HETATM   22  O   UNL     1     -10.317   9.273  71.480  1.00  0.00    -0.336 OA 
HETATM   23  C   UNL     1     -11.319  10.486  68.212  1.00  0.00    -0.332 A  
HETATM   24  C   UNL     1      -8.960   9.995  68.124  1.00  0.00    -0.122 A  
BRANCH  18  25
HETATM   25  C   UNL     1      -7.679   9.167  70.074  1.00  0.00    -0.088 C  
HETATM   26  O   UNL     1      -7.073   9.827  70.909  1.00  0.00    -0.296 OA 
HETATM   27  H1  UNL     1      -6.303   7.637  70.076  1.00  0.00     0.000 HD 
HETATM   28  H2  UNL     1      -7.682   7.387  68.987  1.00  0.00     0.000 HD 
HETATM   29  N   UNL     1      -7.184   7.955  69.672  1.00  0.00    -0.068 N  
ENDBRANCH  18  25
ENDBRANCH  14  17
ENDBRANCH  13  14
ENDBRANCH  11  13
ENDBRANCH   2  11
TORSDOF 8
ENDMDL
MODEL      123
REMARK 921   NORMALIZED FREE ENERGY PREDICTED BY IDOCK:   -5.01 KCAL/MOL
REMARK 922        TOTAL FREE ENERGY PREDICTED BY IDOCK:   -8.91 KCAL/MOL
REMARK 923 INTER-LIGAND FREE ENERGY PREDICTED BY IDOCK:   -8.20 KCAL/MOL
REMARK 924 INTRA-LIGAND FREE ENERGY PREDICTED BY IDOCK:   -0.71 KCAL/MOL
REMARK 927      BINDING AFFINITY PREDICTED BY RF-SCORE:    0.00 PKD
ROOT
HETATM    1  C   UNL     1     -11.123  10.362  68.882  1.00  0.00    -0.296 C  
HETATM    2  C   UNL     1     -12.136  11.081  69.781  1.00  0.00    -0.353 C  
ENDROOT
BRANCH   2   3
HETATM    3  C   UNL     1     -12.064  10.477  71.202  1.00  0.00    -0.473 C  
BRANCH   3   4
HETATM    4  C   UNL     1     -12.869   9.182  71.360  1.00  0.00    -0.376 C  
BRANCH   4   5
HETATM    5  C   UNL     1     -11.971   7.980  71.540  1.00  0.00    -0.331 A  
HETATM    6  C   UNL     1     -11.282   7.770  72.743  1.00  0.00    -0.456 A  
HETATM    7  C   UNL     1     -10.453   6.657  72.900  1.00  0.00    -0.254 A  
HETATM    8  C   UNL     1     -11.825   7.045  70.506  1.00  0.00    -0.337 A  
HETATM    9  C   UNL     1     -10.308   5.739  71.860  1.00  0.00    -0.263 A  
HETATM   10  C   UNL     1     -10.996   5.932  70.664  1.00  0.00    -0.357 A  
ENDBRANCH   4   5
ENDBRANCH   3   4
ENDBRANCH   2   3
BRANCH   2  11
HETATM   11  N   UNL     1     -11.904  12.529  69.843  1.00  0.00    -0.429 NA 
HETATM   12  H   UNL     1     -11.078  12.736  70.403  1.00  0.00     0.000 HD 
BRANCH  11  13
HETATM   13  C   UNL     1     -11.810  13.175  68.526  1.00  0.00    -0.342 C  
BRANCH  13  14
HETATM   14  C   UNL     1     -11.999  14.714  68.620  1.00  0.00    -0.270 C  
HETATM   15  H   UNL     1     -12.251  16.023  70.058  1.00  0.00     0.000 HD 
HETATM   16  O   UNL     1     -12.135  15.082  70.001  1.00  0.00    -0.302 OA 
BRANCH  14  17
HETATM   17  C   UNL     1     -10.857  15.474  67.957  1.00  0.00    -0.300 A  
HETATM   18  C   UNL     1      -9.677  17.562  67.426  1.00  0.00    -0.274 A  
HETATM   19  H   UNL     1      -7.242  16.939  65.279  1.00  0.00     0.000 HD 
HETATM   20  C   UNL     1      -8.802  16.841  66.606  1.00  0.00    -0.255 A  
HETATM   21  C   UNL     1      -8.915  15.460  66.485  1.00  0.00    -0.344 A  
HETATM   22  O   UNL     1      -7.836  17.428  65.836  1.00  0.00    -0.514 OA 
HETATM   23  C   UNL     1      -9.947  14.784  67.141  1.00  0.00    -0.236 A  
HETATM   24  C   UNL     1     -10.701  16.866  68.095  1.00  0.00    -0.375 A  
BRANCH  18  25
HETATM   25  C   UNL     1      -9.619  19.041  67.615  1.00  0.00    -0.309 C  
HETATM   26  O   UNL     1     -10.225  19.813  66.883  1.00  0.00    -0.393 OA 
HETATM   27  H1  UNL     1      -8.833  20.542  68.783  1.00  0.00     0.000 HD 
HETATM   28  H2  UNL     1      -8.371  18.902  69.281  1.00  0.00     0.000 HD 
HETATM   29  N   UNL     1      -8.873  19.530  68.654  1.00  0.00    -0.364 N  
ENDBRANCH  18  25
ENDBRANCH  14  17
ENDBRANCH  13  14
ENDBRANCH  11  13
ENDBRANCH   2  11
TORSDOF 8
ENDMDL
MODEL      124
REMARK 921   NORMALIZED FREE ENERGY PREDICTED BY IDOCK:   -5.01 KCAL/MOL
REMARK 922        TOTAL FREE ENERGY PREDICTED BY IDOCK:   -8.91 KCAL/MOL
REMARK 923 INTER-LIGAND FREE ENERGY PREDICTED BY IDOCK:   -7.58 KCAL/MOL
REMARK 924 INTRA-LIGAND FREE ENERGY PREDICTED BY IDOCK:   -1.33 KCAL/MOL
REMARK 927      BINDING AFFINITY PREDICTED BY RF-SCORE:    0.00 PKD
ROOT
HETATM    1  C   UNL     1      -8.286  10.546  62.449  1.00  0.00    -0.227 C  
HETATM    2  C   UNL     1      -9.592  10.578  63.252  1.00  0.00    -0.331 C  
ENDROOT
BRANCH   2   3
HETATM    3  C   UNL     1      -9.254  10.571  64.761  1.00  0.00    -0.266 C  
BRANCH   3   4
HETATM    4  C   UNL     1      -9.508   9.221  65.440  1.00  0.00    -0.281 C  
BRANCH   4   5
HETATM    5  C   UNL     1      -9.737   9.374  66.927  1.00  0.00    -0.242 A  
HETATM    6  C   UNL     1      -9.102   8.526  67.844  1.00  0.00    -0.145 A  
HETATM    7  C   UNL     1      -9.320   8.675  69.215  1.00  0.00    -0.153 A  
HETATM    8  C   UNL     1     -10.582  10.383  67.412  1.00  0.00    -0.321 A  
HETATM    9  C   UNL     1     -10.170   9.675  69.685  1.00  0.00    -0.239 A  
HETATM   10  C   UNL     1     -10.799  10.530  68.783  1.00  0.00    -0.269 A  
ENDBRANCH   4   5
ENDBRANCH   3   4
ENDBRANCH   2   3
BRANCH   2  11
HETATM   11  N   UNL     1     -10.419  11.748  62.932  1.00  0.00    -0.633 NA 
HETATM   12  H   UNL     1     -10.975  11.575  62.095  1.00  0.00     0.000 HD 
BRANCH  11  13
HETATM   13  C   UNL     1     -11.278  12.194  64.038  1.00  0.00    -0.390 C  
BRANCH  13  14
HETATM   14  C   UNL     1     -11.359  13.742  64.122  1.00  0.00    -0.256 C  
HETATM   15  H   UNL     1     -12.629  15.125  63.556  1.00  0.00     0.000 HD 
HETATM   16  O   UNL     1     -12.579  14.178  63.506  1.00  0.00    -0.834 OA 
BRANCH  14  17
HETATM   17  C   UNL     1     -11.256  14.246  65.557  1.00  0.00    -0.320 A  
HETATM   18  C   UNL     1     -10.267  15.708  67.264  1.00  0.00    -0.266 A  
HETATM   19  H   UNL     1     -11.403  14.849  70.247  1.00  0.00     0.000 HD 
HETATM   20  C   UNL     1     -11.015  15.046  68.243  1.00  0.00    -0.271 A  
HETATM   21  C   UNL     1     -11.899  14.030  67.898  1.00  0.00    -0.411 A  
HETATM   22  O   UNL     1     -10.895  15.298  69.583  1.00  0.00    -0.255 OA 
HETATM   23  C   UNL     1     -12.005  13.619  66.566  1.00  0.00    -0.465 A  
HETATM   24  C   UNL     1     -10.396  15.297  65.925  1.00  0.00    -0.346 A  
BRANCH  18  25
HETATM   25  C   UNL     1      -9.304  16.811  67.551  1.00  0.00    -0.231 C  
HETATM   26  O   UNL     1      -9.590  17.987  67.365  1.00  0.00    -0.265 OA 
HETATM   27  H1  UNL     1      -7.415  17.233  68.250  1.00  0.00     0.000 HD 
HETATM   28  H2  UNL     1      -7.823  15.506  68.226  1.00  0.00     0.000 HD 
HETATM   29  N   UNL     1      -8.074  16.480  68.054  1.00  0.00    -0.164 N  
ENDBRANCH  18  25
ENDBRANCH  14  17
ENDBRANCH  13  14
ENDBRANCH  11  13
ENDBRANCH   2  11
TORSDOF 8
ENDMDL
MODEL      125
REMARK 921   NORMALIZED FREE ENERGY PREDICTED BY IDOCK:   -5.01 KCAL/MOL
REMARK 922        TOTAL FREE ENERGY PREDICTED BY IDOCK:   -8.90 KCAL/MOL
REMARK 923 INTER-LIGAND FREE ENERGY PREDICTED BY IDOCK:   -7.96 KCAL/MOL
REMARK 924 INTRA-LIGAND FREE ENERGY PREDICTED BY IDOCK:   -0.94 KCAL/MOL
REMARK 927      BINDING AFFINITY PREDICTED BY RF-SCORE:    0.00 PKD
ROOT
HETATM    1  C   UNL     1      -9.807  19.428  66.055  1.00  0.00    -0.383 C  
HETATM    2  C   UNL     1     -10.500  18.150  66.543  1.00  0.00    -0.341 C  
ENDROOT
BRANCH   2   3
HETATM    3  C   UNL     1      -9.972  16.949  65.725  1.00  0.00    -0.209 C  
BRANCH   3   4
HETATM    4  C   UNL     1     -11.036  16.299  64.833  1.00  0.00    -0.321 C  
BRANCH   4   5
HETATM    5  C   UNL     1     -11.131  14.808  65.066  1.00  0.00    -0.412 A  
HETATM    6  C   UNL     1     -10.130  14.125  65.770  1.00  0.00    -0.352 A  
HETATM    7  C   UNL     1     -10.225  12.748  65.980  1.00  0.00    -0.290 A  
HETATM    8  C   UNL     1     -12.236  14.087  64.592  1.00  0.00    -0.460 A  
HETATM    9  C   UNL     1     -11.325  12.040  65.495  1.00  0.00    -0.381 A  
HETATM   10  C   UNL     1     -12.331  12.711  64.803  1.00  0.00    -0.556 A  
ENDBRANCH   4   5
ENDBRANCH   3   4
ENDBRANCH   2   3
BRANCH   2  11
HETATM   11  N   UNL     1     -10.290  17.909  67.975  1.00  0.00    -0.371 NA 
HETATM   12  H   UNL     1     -10.343  18.783  68.497  1.00  0.00     0.000 HD 
BRANCH  11  13
HETATM   13  C   UNL     1     -11.198  16.908  68.552  1.00  0.00    -0.112 C  
BRANCH  13  14
HETATM   14  C   UNL     1     -10.451  15.605  68.946  1.00  0.00    -0.220 C  
HETATM   15  H   UNL     1      -8.754  15.156  69.820  1.00  0.00     0.000 HD 
HETATM   16  O   UNL     1      -9.212  15.953  69.580  1.00  0.00    -0.255 OA 
BRANCH  14  17
HETATM   17  C   UNL     1     -11.295  14.708  69.844  1.00  0.00    -0.302 A  
HETATM   18  C   UNL     1     -12.229  12.515  70.439  1.00  0.00    -0.368 A  
HETATM   19  H   UNL     1     -14.385  12.869  72.919  1.00  0.00     0.000 HD 
HETATM   20  C   UNL     1     -12.970  13.124  71.457  1.00  0.00    -0.321 A  
HETATM   21  C   UNL     1     -12.858  14.488  71.702  1.00  0.00    -0.409 A  
HETATM   22  O   UNL     1     -13.882  12.455  72.228  1.00  0.00    -0.353 OA 
HETATM   23  C   UNL     1     -12.041  15.278  70.888  1.00  0.00    -0.396 A  
HETATM   24  C   UNL     1     -11.396  13.320  69.639  1.00  0.00    -0.191 A  
BRANCH  18  25
HETATM   25  C   UNL     1     -12.288  11.059  70.117  1.00  0.00    -0.311 C  
HETATM   26  O   UNL     1     -12.914  10.267  70.809  1.00  0.00    -0.370 OA 
HETATM   27  H1  UNL     1     -11.669   9.623  68.780  1.00  0.00     0.000 HD 
HETATM   28  H2  UNL     1     -11.113  11.266  68.406  1.00  0.00     0.000 HD 
HETATM   29  N   UNL     1     -11.629  10.618  69.000  1.00  0.00    -0.276 N  
ENDBRANCH  18  25
ENDBRANCH  14  17
ENDBRANCH  13  14
ENDBRANCH  11  13
ENDBRANCH   2  11
TORSDOF 8
ENDMDL
MODEL      126
REMARK 921   NORMALIZED FREE ENERGY PREDICTED BY IDOCK:   -5.00 KCAL/MOL
REMARK 922        TOTAL FREE ENERGY PREDICTED BY IDOCK:   -8.89 KCAL/MOL
REMARK 923 INTER-LIGAND FREE ENERGY PREDICTED BY IDOCK:   -7.99 KCAL/MOL
REMARK 924 INTRA-LIGAND FREE ENERGY PREDICTED BY IDOCK:   -0.90 KCAL/MOL
REMARK 927      BINDING AFFINITY PREDICTED BY RF-SCORE:    0.00 PKD
ROOT
HETATM    1  C   UNL     1      -8.061  14.736  67.265  1.00  0.00    -0.232 C  
HETATM    2  C   UNL     1      -8.283  16.204  66.879  1.00  0.00    -0.238 C  
ENDROOT
BRANCH   2   3
HETATM    3  C   UNL     1      -6.909  16.892  66.711  1.00  0.00    -0.267 C  
BRANCH   3   4
HETATM    4  C   UNL     1      -6.734  18.135  67.590  1.00  0.00    -0.199 C  
BRANCH   4   5
HETATM    5  C   UNL     1      -8.007  18.947  67.676  1.00  0.00    -0.273 A  
HETATM    6  C   UNL     1      -8.392  19.794  66.628  1.00  0.00    -0.360 A  
HETATM    7  C   UNL     1      -9.569  20.540  66.716  1.00  0.00    -0.450 A  
HETATM    8  C   UNL     1      -8.832  18.850  68.805  1.00  0.00    -0.331 A  
HETATM    9  C   UNL     1     -10.377  20.444  67.849  1.00  0.00    -0.312 A  
HETATM   10  C   UNL     1     -10.008  19.597  68.893  1.00  0.00    -0.524 A  
ENDBRANCH   4   5
ENDBRANCH   3   4
ENDBRANCH   2   3
BRANCH   2  11
HETATM   11  N   UNL     1      -9.067  16.347  65.647  1.00  0.00    -0.407 NA 
HETATM   12  H   UNL     1      -9.141  15.453  65.162  1.00  0.00     0.000 HD 
BRANCH  11  13
HETATM   13  C   UNL     1     -10.399  16.935  65.850  1.00  0.00    -0.315 C  
BRANCH  13  14
HETATM   14  C   UNL     1     -11.524  16.039  65.264  1.00  0.00     0.135 C  
HETATM   15  H   UNL     1     -12.127  15.516  63.473  1.00  0.00     0.000 HD 
HETATM   16  O   UNL     1     -11.439  16.063  63.832  1.00  0.00    -0.601 OA 
BRANCH  14  17
HETATM   17  C   UNL     1     -11.457  14.612  65.796  1.00  0.00    -0.338 A  
HETATM   18  C   UNL     1     -11.026  12.214  65.488  1.00  0.00    -0.343 A  
HETATM   19  H   UNL     1     -11.918  10.573  68.217  1.00  0.00     0.000 HD 
HETATM   20  C   UNL     1     -11.476  11.981  66.793  1.00  0.00    -0.345 A  
HETATM   21  C   UNL     1     -11.873  13.036  67.607  1.00  0.00    -0.401 A  
HETATM   22  O   UNL     1     -11.613  10.731  67.331  1.00  0.00    -0.485 OA 
HETATM   23  C   UNL     1     -11.882  14.341  67.106  1.00  0.00    -0.454 A  
HETATM   24  C   UNL     1     -11.024  13.534  65.002  1.00  0.00    -0.342 A  
BRANCH  18  25
HETATM   25  C   UNL     1     -10.577  11.140  64.555  1.00  0.00    -0.328 C  
HETATM   26  O   UNL     1     -10.044  10.113  64.956  1.00  0.00    -0.330 OA 
HETATM   27  H1  UNL     1     -10.485  10.584  62.576  1.00  0.00     0.000 HD 
HETATM   28  H2  UNL     1     -11.246  12.161  62.864  1.00  0.00     0.000 HD 
HETATM   29  N   UNL     1     -10.792  11.318  63.214  1.00  0.00    -0.252 N  
ENDBRANCH  18  25
ENDBRANCH  14  17
ENDBRANCH  13  14
ENDBRANCH  11  13
ENDBRANCH   2  11
TORSDOF 8
ENDMDL
MODEL      127
REMARK 921   NORMALIZED FREE ENERGY PREDICTED BY IDOCK:   -4.96 KCAL/MOL
REMARK 922        TOTAL FREE ENERGY PREDICTED BY IDOCK:   -8.83 KCAL/MOL
REMARK 923 INTER-LIGAND FREE ENERGY PREDICTED BY IDOCK:   -7.95 KCAL/MOL
REMARK 924 INTRA-LIGAND FREE ENERGY PREDICTED BY IDOCK:   -0.88 KCAL/MOL
REMARK 927      BINDING AFFINITY PREDICTED BY RF-SCORE:    0.00 PKD
ROOT
HETATM    1  C   UNL     1      -9.153  10.846  67.104  1.00  0.00    -0.152 C  
HETATM    2  C   UNL     1     -10.618  10.795  66.653  1.00  0.00    -0.232 C  
ENDROOT
BRANCH   2   3
HETATM    3  C   UNL     1     -11.529  11.040  67.877  1.00  0.00    -0.358 C  
BRANCH   3   4
HETATM    4  C   UNL     1     -10.765  11.135  69.202  1.00  0.00    -0.262 C  
BRANCH   4   5
HETATM    5  C   UNL     1     -11.432  10.331  70.295  1.00  0.00    -0.395 A  
HETATM    6  C   UNL     1     -12.564  10.821  70.960  1.00  0.00    -0.520 A  
HETATM    7  C   UNL     1     -13.173  10.072  71.968  1.00  0.00    -0.545 A  
HETATM    8  C   UNL     1     -10.932   9.070  70.650  1.00  0.00    -0.308 A  
HETATM    9  C   UNL     1     -12.662   8.823  72.320  1.00  0.00    -0.466 A  
HETATM   10  C   UNL     1     -11.542   8.322  71.659  1.00  0.00    -0.337 A  
ENDBRANCH   4   5
ENDBRANCH   3   4
ENDBRANCH   2   3
BRANCH   2  11
HETATM   11  N   UNL     1     -10.917  11.778  65.605  1.00  0.00    -0.300 NA 
HETATM   12  H   UNL     1     -11.920  11.949  65.549  1.00  0.00     0.000 HD 
BRANCH  11  13
HETATM   13  C   UNL     1     -10.184  13.044  65.746  1.00  0.00    -0.290 C  
BRANCH  13  14
HETATM   14  C   UNL     1     -11.131  14.273  65.678  1.00  0.00    -0.316 C  
HETATM   15  H   UNL     1     -12.968  14.676  66.233  1.00  0.00     0.000 HD 
HETATM   16  O   UNL     1     -12.388  13.925  66.275  1.00  0.00    -0.453 OA 
BRANCH  14  17
HETATM   17  C   UNL     1     -10.525  15.501  66.346  1.00  0.00    -0.310 A  
HETATM   18  C   UNL     1      -8.702  17.122  66.635  1.00  0.00    -0.281 A  
HETATM   19  H   UNL     1      -9.369  19.088  69.207  1.00  0.00     0.000 HD 
HETATM   20  C   UNL     1      -9.401  17.695  67.703  1.00  0.00    -0.246 A  
HETATM   21  C   UNL     1     -10.654  17.218  68.071  1.00  0.00    -0.394 A  
HETATM   22  O   UNL     1      -8.894  18.699  68.482  1.00  0.00    -0.322 OA 
HETATM   23  C   UNL     1     -11.204  16.116  67.410  1.00  0.00    -0.048 A  
HETATM   24  C   UNL     1      -9.275  16.024  65.966  1.00  0.00    -0.375 A  
BRANCH  18  25
HETATM   25  C   UNL     1      -7.358  17.578  66.174  1.00  0.00    -0.311 C  
HETATM   26  O   UNL     1      -7.220  18.547  65.437  1.00  0.00    -0.530 OA 
HETATM   27  H1  UNL     1      -5.339  17.203  66.296  1.00  0.00     0.000 HD 
HETATM   28  H2  UNL     1      -6.354  16.089  67.234  1.00  0.00     0.000 HD 
HETATM   29  N   UNL     1      -6.258  16.891  66.611  1.00  0.00    -0.202 N  
ENDBRANCH  18  25
ENDBRANCH  14  17
ENDBRANCH  13  14
ENDBRANCH  11  13
ENDBRANCH   2  11
TORSDOF 8
ENDMDL
MODEL      128
REMARK 921   NORMALIZED FREE ENERGY PREDICTED BY IDOCK:   -4.92 KCAL/MOL
REMARK 922        TOTAL FREE ENERGY PREDICTED BY IDOCK:   -8.77 KCAL/MOL
REMARK 923 INTER-LIGAND FREE ENERGY PREDICTED BY IDOCK:   -7.81 KCAL/MOL
REMARK 924 INTRA-LIGAND FREE ENERGY PREDICTED BY IDOCK:   -0.96 KCAL/MOL
REMARK 927      BINDING AFFINITY PREDICTED BY RF-SCORE:    0.00 PKD
ROOT
HETATM    1  C   UNL     1      -9.378  14.976  66.583  1.00  0.00    -0.290 C  
HETATM    2  C   UNL     1      -9.565  15.047  68.103  1.00  0.00    -0.207 C  
ENDROOT
BRANCH   2   3
HETATM    3  C   UNL     1     -10.986  15.572  68.410  1.00  0.00    -0.297 C  
BRANCH   3   4
HETATM    4  C   UNL     1     -11.070  16.402  69.696  1.00  0.00    -0.306 C  
BRANCH   4   5
HETATM    5  C   UNL     1     -11.782  15.655  70.801  1.00  0.00    -0.408 A  
HETATM    6  C   UNL     1     -11.811  16.160  72.108  1.00  0.00    -0.626 A  
HETATM    7  C   UNL     1     -12.470  15.463  73.123  1.00  0.00    -0.572 A  
HETATM    8  C   UNL     1     -12.439  14.446  70.529  1.00  0.00    -0.416 A  
HETATM    9  C   UNL     1     -13.112  14.257  72.842  1.00  0.00    -0.589 A  
HETATM   10  C   UNL     1     -13.097  13.750  71.544  1.00  0.00    -0.435 A  
ENDBRANCH   4   5
ENDBRANCH   3   4
ENDBRANCH   2   3
BRANCH   2  11
HETATM   11  N   UNL     1      -9.361  13.749  68.755  1.00  0.00    -0.395 NA 
HETATM   12  H   UNL     1      -9.764  13.751  69.692  1.00  0.00     0.000 HD 
BRANCH  11  13
HETATM   13  C   UNL     1      -9.864  12.605  67.981  1.00  0.00    -0.218 C  
BRANCH  13  14
HETATM   14  C   UNL     1     -10.890  11.764  68.787  1.00  0.00    -0.227 C  
HETATM   15  H   UNL     1     -12.668  11.005  68.457  1.00  0.00     0.000 HD 
HETATM   16  O   UNL     1     -12.040  11.519  67.964  1.00  0.00    -0.617 OA 
BRANCH  14  17
HETATM   17  C   UNL     1     -10.289  10.459  69.296  1.00  0.00    -0.250 A  
HETATM   18  C   UNL     1     -10.515   8.211  70.259  1.00  0.00    -0.219 A  
HETATM   19  H   UNL     1      -7.520   7.014  70.984  1.00  0.00     0.000 HD 
HETATM   20  C   UNL     1      -9.122   8.124  70.344  1.00  0.00    -0.150 A  
HETATM   21  C   UNL     1      -8.314   9.158  69.883  1.00  0.00    -0.146 A  
HETATM   22  O   UNL     1      -8.467   7.073  70.926  1.00  0.00    -0.131 OA 
HETATM   23  C   UNL     1      -8.894  10.326  69.380  1.00  0.00    -0.177 A  
HETATM   24  C   UNL     1     -11.086   9.385  69.734  1.00  0.00    -0.193 A  
BRANCH  18  25
HETATM   25  C   UNL     1     -11.450   7.144  70.724  1.00  0.00    -0.305 C  
HETATM   26  O   UNL     1     -11.678   6.145  70.055  1.00  0.00    -0.336 OA 
HETATM   27  H1  UNL     1     -12.687   6.570  72.264  1.00  0.00     0.000 HD 
HETATM   28  H2  UNL     1     -11.859   8.119  72.522  1.00  0.00     0.000 HD 
HETATM   29  N   UNL     1     -12.047   7.298  71.946  1.00  0.00    -0.305 N  
ENDBRANCH  18  25
ENDBRANCH  14  17
ENDBRANCH  13  14
ENDBRANCH  11  13
ENDBRANCH   2  11
TORSDOF 8
ENDMDL
MODEL      129
REMARK 921   NORMALIZED FREE ENERGY PREDICTED BY IDOCK:   -4.92 KCAL/MOL
REMARK 922        TOTAL FREE ENERGY PREDICTED BY IDOCK:   -8.77 KCAL/MOL
REMARK 923 INTER-LIGAND FREE ENERGY PREDICTED BY IDOCK:   -8.18 KCAL/MOL
REMARK 924 INTRA-LIGAND FREE ENERGY PREDICTED BY IDOCK:   -0.59 KCAL/MOL
REMARK 927      BINDING AFFINITY PREDICTED BY RF-SCORE:    0.00 PKD
ROOT
HETATM    1  C   UNL     1     -12.018  13.771  69.009  1.00  0.00    -0.399 C  
HETATM    2  C   UNL     1     -11.705  12.364  68.486  1.00  0.00    -0.326 C  
ENDROOT
BRANCH   2   3
HETATM    3  C   UNL     1     -12.446  11.327  69.361  1.00  0.00    -0.075 C  
BRANCH   3   4
HETATM    4  C   UNL     1     -12.044  11.373  70.839  1.00  0.00    -0.383 C  
BRANCH   4   5
HETATM    5  C   UNL     1     -11.581  10.022  71.337  1.00  0.00    -0.383 A  
HETATM    6  C   UNL     1     -10.264   9.590  71.127  1.00  0.00    -0.300 A  
HETATM    7  C   UNL     1      -9.846   8.341  71.590  1.00  0.00    -0.263 A  
HETATM    8  C   UNL     1     -12.463   9.185  72.035  1.00  0.00    -0.452 A  
HETATM    9  C   UNL     1     -10.735   7.513  72.274  1.00  0.00    -0.294 A  
HETATM   10  C   UNL     1     -12.044   7.937  72.498  1.00  0.00    -0.298 A  
ENDBRANCH   4   5
ENDBRANCH   3   4
ENDBRANCH   2   3
BRANCH   2  11
HETATM   11  N   UNL     1     -12.085  12.191  67.079  1.00  0.00    -0.546 NA 
HETATM   12  H   UNL     1     -12.253  13.095  66.639  1.00  0.00     0.000 HD 
BRANCH  11  13
HETATM   13  C   UNL     1     -11.124  11.405  66.292  1.00  0.00    -0.221 C  
BRANCH  13  14
HETATM   14  C   UNL     1     -10.953  11.967  64.855  1.00  0.00    -0.306 C  
HETATM   15  H   UNL     1     -11.913  11.813  63.152  1.00  0.00     0.000 HD 
HETATM   16  O   UNL     1     -12.017  11.470  64.031  1.00  0.00    -0.234 OA 
BRANCH  14  17
HETATM   17  C   UNL     1     -10.909  13.491  64.836  1.00  0.00    -0.371 A  
HETATM   18  C   UNL     1      -9.925  15.629  65.539  1.00  0.00    -0.364 A  
HETATM   19  H   UNL     1     -11.812  18.120  64.459  1.00  0.00     0.000 HD 
HETATM   20  C   UNL     1     -10.953  16.304  64.872  1.00  0.00    -0.307 A  
HETATM   21  C   UNL     1     -11.923  15.602  64.164  1.00  0.00    -0.048 A  
HETATM   22  O   UNL     1     -11.114  17.662  64.913  1.00  0.00    -0.854 OA 
HETATM   23  C   UNL     1     -11.913  14.204  64.163  1.00  0.00    -0.421 A  
HETATM   24  C   UNL     1      -9.916  14.222  65.515  1.00  0.00    -0.341 A  
BRANCH  18  25
HETATM   25  C   UNL     1      -8.845  16.307  66.313  1.00  0.00    -0.331 C  
HETATM   26  O   UNL     1      -8.388  17.392  65.976  1.00  0.00    -0.498 OA 
HETATM   27  H1  UNL     1      -7.635  16.152  67.970  1.00  0.00     0.000 HD 
HETATM   28  H2  UNL     1      -8.751  14.791  67.743  1.00  0.00     0.000 HD 
HETATM   29  N   UNL     1      -8.374  15.689  67.441  1.00  0.00    -0.165 N  
ENDBRANCH  18  25
ENDBRANCH  14  17
ENDBRANCH  13  14
ENDBRANCH  11  13
ENDBRANCH   2  11
TORSDOF 8
ENDMDL
MODEL      130
REMARK 921   NORMALIZED FREE ENERGY PREDICTED BY IDOCK:   -4.91 KCAL/MOL
REMARK 922        TOTAL FREE ENERGY PREDICTED BY IDOCK:   -8.77 KCAL/MOL
REMARK 923 INTER-LIGAND FREE ENERGY PREDICTED BY IDOCK:   -8.22 KCAL/MOL
REMARK 924 INTRA-LIGAND FREE ENERGY PREDICTED BY IDOCK:   -0.55 KCAL/MOL
REMARK 927      BINDING AFFINITY PREDICTED BY RF-SCORE:    0.00 PKD
ROOT
HETATM    1  C   UNL     1     -11.191  16.251  68.924  1.00  0.00    -0.337 C  
HETATM    2  C   UNL     1     -10.887  15.725  67.516  1.00  0.00    -0.315 C  
ENDROOT
BRANCH   2   3
HETATM    3  C   UNL     1     -10.243  16.857  66.685  1.00  0.00    -0.312 C  
BRANCH   3   4
HETATM    4  C   UNL     1     -10.563  18.262  67.209  1.00  0.00    -0.406 C  
BRANCH   4   5
HETATM    5  C   UNL     1      -9.309  19.038  67.541  1.00  0.00    -0.341 A  
HETATM    6  C   UNL     1      -9.028  20.256  66.909  1.00  0.00    -0.424 A  
HETATM    7  C   UNL     1      -7.867  20.965  67.221  1.00  0.00    -0.233 A  
HETATM    8  C   UNL     1      -8.412  18.553  68.504  1.00  0.00    -0.354 A  
HETATM    9  C   UNL     1      -6.977  20.469  68.173  1.00  0.00    -0.258 A  
HETATM   10  C   UNL     1      -7.252  19.263  68.816  1.00  0.00    -0.380 A  
ENDBRANCH   4   5
ENDBRANCH   3   4
ENDBRANCH   2   3
BRANCH   2  11
HETATM   11  N   UNL     1     -10.003  14.554  67.533  1.00  0.00    -0.223 NA 
HETATM   12  H   UNL     1      -9.908  14.190  68.481  1.00  0.00     0.000 HD 
BRANCH  11  13
HETATM   13  C   UNL     1     -10.409  13.484  66.610  1.00  0.00    -0.271 C  
BRANCH  13  14
HETATM   14  C   UNL     1     -11.748  12.825  67.038  1.00  0.00    -0.374 C  
HETATM   15  H   UNL     1     -13.227  11.908  66.133  1.00  0.00     0.000 HD 
HETATM   16  O   UNL     1     -12.407  12.311  65.872  1.00  0.00    -0.618 OA 
BRANCH  14  17
HETATM   17  C   UNL     1     -11.542  11.732  68.080  1.00  0.00    -0.386 A  
HETATM   18  C   UNL     1     -12.013  10.720  70.268  1.00  0.00    -0.438 A  
HETATM   19  H   UNL     1      -9.967   8.173  70.771  1.00  0.00     0.000 HD 
HETATM   20  C   UNL     1     -11.026   9.761  70.020  1.00  0.00    -0.277 A  
HETATM   21  C   UNL     1     -10.329   9.750  68.817  1.00  0.00    -0.227 A  
HETATM   22  O   UNL     1     -10.638   8.825  70.940  1.00  0.00    -0.199 OA 
HETATM   23  C   UNL     1     -10.572  10.740  67.861  1.00  0.00    -0.258 A  
HETATM   24  C   UNL     1     -12.260  11.701  69.290  1.00  0.00    -0.228 A  
BRANCH  18  25
HETATM   25  C   UNL     1     -12.809  10.796  71.528  1.00  0.00    -0.462 C  
HETATM   26  O   UNL     1     -13.114  11.866  72.039  1.00  0.00    -0.457 OA 
HETATM   27  H1  UNL     1     -13.757   9.675  72.969  1.00  0.00     0.000 HD 
HETATM   28  H2  UNL     1     -12.979   8.723  71.689  1.00  0.00     0.000 HD 
HETATM   29  N   UNL     1     -13.214   9.623  72.107  1.00  0.00    -0.441 N  
ENDBRANCH  18  25
ENDBRANCH  14  17
ENDBRANCH  13  14
ENDBRANCH  11  13
ENDBRANCH   2  11
TORSDOF 8
ENDMDL
MODEL      131
REMARK 921   NORMALIZED FREE ENERGY PREDICTED BY IDOCK:   -4.91 KCAL/MOL
REMARK 922        TOTAL FREE ENERGY PREDICTED BY IDOCK:   -8.76 KCAL/MOL
REMARK 923 INTER-LIGAND FREE ENERGY PREDICTED BY IDOCK:   -8.23 KCAL/MOL
REMARK 924 INTRA-LIGAND FREE ENERGY PREDICTED BY IDOCK:   -0.54 KCAL/MOL
REMARK 927      BINDING AFFINITY PREDICTED BY RF-SCORE:    0.00 PKD
ROOT
HETATM    1  C   UNL     1     -13.107  10.082  71.962  1.00  0.00    -0.541 C  
HETATM    2  C   UNL     1     -12.054   9.587  70.963  1.00  0.00    -0.318 C  
ENDROOT
BRANCH   2   3
HETATM    3  C   UNL     1     -12.152   8.049  70.851  1.00  0.00    -0.164 C  
BRANCH   3   4
HETATM    4  C   UNL     1     -11.992   7.324  72.193  1.00  0.00    -0.307 C  
BRANCH   4   5
HETATM    5  C   UNL     1     -11.281   5.999  72.035  1.00  0.00    -0.341 A  
HETATM    6  C   UNL     1     -10.608   5.681  70.847  1.00  0.00    -0.328 A  
HETATM    7  C   UNL     1      -9.955   4.455  70.710  1.00  0.00    -0.247 A  
HETATM    8  C   UNL     1     -11.272   5.072  73.086  1.00  0.00    -0.408 A  
HETATM    9  C   UNL     1      -9.961   3.536  71.759  1.00  0.00    -0.202 A  
HETATM   10  C   UNL     1     -10.619   3.846  72.948  1.00  0.00    -0.233 A  
ENDBRANCH   4   5
ENDBRANCH   3   4
ENDBRANCH   2   3
BRANCH   2  11
HETATM   11  N   UNL     1     -12.210  10.195  69.636  1.00  0.00    -0.499 NA 
HETATM   12  H   UNL     1     -13.102   9.927  69.222  1.00  0.00     0.000 HD 
BRANCH  11  13
HETATM   13  C   UNL     1     -12.054  11.656  69.626  1.00  0.00    -0.280 C  
BRANCH  13  14
HETATM   14  C   UNL     1     -11.348  12.155  68.336  1.00  0.00    -0.286 C  
HETATM   15  H   UNL     1     -11.607  11.932  66.405  1.00  0.00     0.000 HD 
HETATM   16  O   UNL     1     -12.039  11.627  67.194  1.00  0.00    -0.575 OA 
BRANCH  14  17
HETATM   17  C   UNL     1     -11.270  13.676  68.276  1.00  0.00    -0.302 A  
HETATM   18  C   UNL     1     -10.538  15.758  67.197  1.00  0.00    -0.313 A  
HETATM   19  H   UNL     1     -11.235  18.324  69.162  1.00  0.00     0.000 HD 
HETATM   20  C   UNL     1     -11.042  16.480  68.284  1.00  0.00    -0.321 A  
HETATM   21  C   UNL     1     -11.683  15.832  69.334  1.00  0.00    -0.379 A  
HETATM   22  O   UNL     1     -10.893  17.833  68.424  1.00  0.00    -0.260 OA 
HETATM   23  C   UNL     1     -11.779  14.438  69.340  1.00  0.00    -0.362 A  
HETATM   24  C   UNL     1     -10.657  14.356  67.207  1.00  0.00    -0.279 A  
BRANCH  18  25
HETATM   25  C   UNL     1      -9.844  16.378  66.031  1.00  0.00    -0.335 C  
HETATM   26  O   UNL     1     -10.412  16.565  64.963  1.00  0.00    -0.652 OA 
HETATM   27  H1  UNL     1      -8.062  17.180  65.387  1.00  0.00     0.000 HD 
HETATM   28  H2  UNL     1      -8.052  16.619  67.071  1.00  0.00     0.000 HD 
HETATM   29  N   UNL     1      -8.537  16.757  66.184  1.00  0.00    -0.295 N  
ENDBRANCH  18  25
ENDBRANCH  14  17
ENDBRANCH  13  14
ENDBRANCH  11  13
ENDBRANCH   2  11
TORSDOF 8
ENDMDL
MODEL      132
REMARK 921   NORMALIZED FREE ENERGY PREDICTED BY IDOCK:   -4.89 KCAL/MOL
REMARK 922        TOTAL FREE ENERGY PREDICTED BY IDOCK:   -8.73 KCAL/MOL
REMARK 923 INTER-LIGAND FREE ENERGY PREDICTED BY IDOCK:   -8.00 KCAL/MOL
REMARK 924 INTRA-LIGAND FREE ENERGY PREDICTED BY IDOCK:   -0.73 KCAL/MOL
REMARK 927      BINDING AFFINITY PREDICTED BY RF-SCORE:    0.00 PKD
ROOT
HETATM    1  C   UNL     1      -9.961   9.924  65.940  1.00  0.00    -0.347 C  
HETATM    2  C   UNL     1     -10.845   9.253  66.998  1.00  0.00    -0.007 C  
ENDROOT
BRANCH   2   3
HETATM    3  C   UNL     1      -9.969   8.324  67.869  1.00  0.00    -0.227 C  
BRANCH   3   4
HETATM    4  C   UNL     1     -10.723   7.107  68.418  1.00  0.00    -0.192 C  
BRANCH   4   5
HETATM    5  C   UNL     1     -10.347   5.837  67.689  1.00  0.00    -0.270 A  
HETATM    6  C   UNL     1     -10.675   5.659  66.338  1.00  0.00    -0.229 A  
HETATM    7  C   UNL     1     -10.325   4.482  65.673  1.00  0.00    -0.274 A  
HETATM    8  C   UNL     1      -9.648   4.820  68.354  1.00  0.00    -0.210 A  
HETATM    9  C   UNL     1      -9.638   3.474  66.348  1.00  0.00    -0.114 A  
HETATM   10  C   UNL     1      -9.298   3.645  67.688  1.00  0.00    -0.246 A  
ENDBRANCH   4   5
ENDBRANCH   3   4
ENDBRANCH   2   3
BRANCH   2  11
HETATM   11  N   UNL     1     -11.539  10.227  67.849  1.00  0.00    -0.670 NA 
HETATM   12  H   UNL     1     -11.754   9.818  68.759  1.00  0.00     0.000 HD 
BRANCH  11  13
HETATM   13  C   UNL     1     -10.819  11.498  68.013  1.00  0.00    -0.213 C  
BRANCH  13  14
HETATM   14  C   UNL     1     -11.790  12.704  68.129  1.00  0.00    -0.315 C  
HETATM   15  H   UNL     1     -12.216  14.051  69.489  1.00  0.00     0.000 HD 
HETATM   16  O   UNL     1     -11.622  13.313  69.417  1.00  0.00    -0.281 OA 
BRANCH  14  17
HETATM   17  C   UNL     1     -11.583  13.717  67.010  1.00  0.00    -0.389 A  
HETATM   18  C   UNL     1     -10.589  15.781  66.125  1.00  0.00    -0.318 A  
HETATM   19  H   UNL     1     -11.873  16.438  63.150  1.00  0.00     0.000 HD 
HETATM   20  C   UNL     1     -11.340  15.624  64.955  1.00  0.00    -0.253 A  
HETATM   21  C   UNL     1     -12.170  14.521  64.785  1.00  0.00    -0.441 A  
HETATM   22  O   UNL     1     -11.363  16.546  63.944  1.00  0.00    -1.057 OA 
HETATM   23  C   UNL     1     -12.306  13.584  65.813  1.00  0.00    -0.516 A  
HETATM   24  C   UNL     1     -10.721  14.821  67.145  1.00  0.00    -0.299 A  
BRANCH  18  25
HETATM   25  C   UNL     1      -9.673  16.931  66.382  1.00  0.00    -0.284 C  
HETATM   26  O   UNL     1      -8.598  17.044  65.806  1.00  0.00    -0.517 OA 
HETATM   27  H1  UNL     1      -9.444  18.671  67.455  1.00  0.00     0.000 HD 
HETATM   28  H2  UNL     1     -10.968  17.813  67.758  1.00  0.00     0.000 HD 
HETATM   29  N   UNL     1     -10.071  17.886  67.279  1.00  0.00    -0.329 N  
ENDBRANCH  18  25
ENDBRANCH  14  17
ENDBRANCH  13  14
ENDBRANCH  11  13
ENDBRANCH   2  11
TORSDOF 8
ENDMDL
MODEL      133
REMARK 921   NORMALIZED FREE ENERGY PREDICTED BY IDOCK:   -4.88 KCAL/MOL
REMARK 922        TOTAL FREE ENERGY PREDICTED BY IDOCK:   -8.72 KCAL/MOL
REMARK 923 INTER-LIGAND FREE ENERGY PREDICTED BY IDOCK:   -7.80 KCAL/MOL
REMARK 924 INTRA-LIGAND FREE ENERGY PREDICTED BY IDOCK:   -0.92 KCAL/MOL
REMARK 927      BINDING AFFINITY PREDICTED BY RF-SCORE:    0.00 PKD
ROOT
HETATM    1  C   UNL     1      -9.311   8.152  66.884  1.00  0.00    -0.219 C  
HETATM    2  C   UNL     1      -8.894   9.494  66.271  1.00  0.00    -0.149 C  
ENDROOT
BRANCH   2   3
HETATM    3  C   UNL     1      -9.766   9.770  65.025  1.00  0.00    -0.303 C  
BRANCH   3   4
HETATM    4  C   UNL     1      -9.299  10.978  64.205  1.00  0.00    -0.235 C  
BRANCH   4   5
HETATM    5  C   UNL     1     -10.305  12.106  64.244  1.00  0.00    -0.363 A  
HETATM    6  C   UNL     1     -11.540  11.993  63.591  1.00  0.00    -0.578 A  
HETATM    7  C   UNL     1     -12.463  13.039  63.632  1.00  0.00    -0.400 A  
HETATM    8  C   UNL     1     -10.021  13.283  64.951  1.00  0.00    -0.156 A  
HETATM    9  C   UNL     1     -12.165  14.209  64.330  1.00  0.00    -0.466 A  
HETATM   10  C   UNL     1     -10.944  14.329  64.992  1.00  0.00    -0.394 A  
ENDBRANCH   4   5
ENDBRANCH   3   4
ENDBRANCH   2   3
BRANCH   2  11
HETATM   11  N   UNL     1      -9.016  10.606  67.221  1.00  0.00    -0.136 NA 
HETATM   12  H   UNL     1      -9.622  11.335  66.844  1.00  0.00     0.000 HD 
BRANCH  11  13
HETATM   13  C   UNL     1      -9.467  10.202  68.560  1.00  0.00    -0.158 C  
BRANCH  13  14
HETATM   14  C   UNL     1     -10.520  11.185  69.140  1.00  0.00    -0.182 C  
HETATM   15  H   UNL     1     -12.023  12.226  68.432  1.00  0.00     0.000 HD 
HETATM   16  O   UNL     1     -11.379  11.625  68.078  1.00  0.00    -0.249 OA 
BRANCH  14  17
HETATM   17  C   UNL     1     -11.323  10.562  70.275  1.00  0.00    -0.407 A  
HETATM   18  C   UNL     1     -11.780   8.722  71.838  1.00  0.00    -0.429 A  
HETATM   19  H   UNL     1     -14.578   9.342  73.485  1.00  0.00     0.000 HD 
HETATM   20  C   UNL     1     -12.918   9.403  72.283  1.00  0.00    -0.400 A  
HETATM   21  C   UNL     1     -13.243  10.655  71.773  1.00  0.00    -0.526 A  
HETATM   22  O   UNL     1     -13.806   8.879  73.182  1.00  0.00    -0.268 OA 
HETATM   23  C   UNL     1     -12.462  11.222  70.762  1.00  0.00    -0.471 A  
HETATM   24  C   UNL     1     -10.992   9.312  70.832  1.00  0.00    -0.368 A  
BRANCH  18  25
HETATM   25  C   UNL     1     -11.359   7.381  72.338  1.00  0.00    -0.297 C  
HETATM   26  O   UNL     1     -10.918   7.219  73.469  1.00  0.00    -0.345 OA 
HETATM   27  H1  UNL     1     -11.204   5.391  71.840  1.00  0.00     0.000 HD 
HETATM   28  H2  UNL     1     -11.868   6.422  70.557  1.00  0.00     0.000 HD 
HETATM   29  N   UNL     1     -11.492   6.308  71.498  1.00  0.00    -0.297 N  
ENDBRANCH  18  25
ENDBRANCH  14  17
ENDBRANCH  13  14
ENDBRANCH  11  13
ENDBRANCH   2  11
TORSDOF 8
ENDMDL
MODEL      134
REMARK 921   NORMALIZED FREE ENERGY PREDICTED BY IDOCK:   -4.87 KCAL/MOL
REMARK 922        TOTAL FREE ENERGY PREDICTED BY IDOCK:   -8.70 KCAL/MOL
REMARK 923 INTER-LIGAND FREE ENERGY PREDICTED BY IDOCK:   -7.83 KCAL/MOL
REMARK 924 INTRA-LIGAND FREE ENERGY PREDICTED BY IDOCK:   -0.87 KCAL/MOL
REMARK 927      BINDING AFFINITY PREDICTED BY RF-SCORE:    0.00 PKD
ROOT
HETATM    1  C   UNL     1     -11.508  14.469  64.685  1.00  0.00    -0.389 C  
HETATM    2  C   UNL     1     -11.355  14.665  66.198  1.00  0.00    -0.350 C  
ENDROOT
BRANCH   2   3
HETATM    3  C   UNL     1     -12.204  13.601  66.931  1.00  0.00    -0.398 C  
BRANCH   3   4
HETATM    4  C   UNL     1     -11.825  12.160  66.571  1.00  0.00    -0.322 C  
BRANCH   4   5
HETATM    5  C   UNL     1     -11.475  11.348  67.797  1.00  0.00    -0.353 A  
HETATM    6  C   UNL     1     -10.615  10.245  67.708  1.00  0.00    -0.296 A  
HETATM    7  C   UNL     1     -10.297   9.501  68.846  1.00  0.00    -0.225 A  
HETATM    8  C   UNL     1     -11.996  11.699  69.050  1.00  0.00    -0.368 A  
HETATM    9  C   UNL     1     -10.830   9.854  70.085  1.00  0.00    -0.356 A  
HETATM   10  C   UNL     1     -11.678  10.954  70.187  1.00  0.00    -0.433 A  
ENDBRANCH   4   5
ENDBRANCH   3   4
ENDBRANCH   2   3
BRANCH   2  11
HETATM   11  N   UNL     1      -9.958  14.578  66.637  1.00  0.00    -0.262 NA 
HETATM   12  H   UNL     1      -9.332  14.929  65.913  1.00  0.00     0.000 HD 
BRANCH  11  13
HETATM   13  C   UNL     1      -9.690  15.246  67.918  1.00  0.00    -0.211 C  
BRANCH  13  14
HETATM   14  C   UNL     1     -10.542  16.533  68.090  1.00  0.00    -0.329 C  
HETATM   15  H   UNL     1     -11.559  17.373  69.541  1.00  0.00     0.000 HD 
HETATM   16  O   UNL     1     -11.038  16.586  69.435  1.00  0.00    -0.311 OA 
BRANCH  14  17
HETATM   17  C   UNL     1      -9.755  17.792  67.745  1.00  0.00    -0.285 A  
HETATM   18  C   UNL     1      -7.846  18.921  66.687  1.00  0.00    -0.271 A  
HETATM   19  H   UNL     1      -7.856  22.120  67.519  1.00  0.00     0.000 HD 
HETATM   20  C   UNL     1      -8.272  20.131  67.246  1.00  0.00    -0.336 A  
HETATM   21  C   UNL     1      -9.434  20.194  68.007  1.00  0.00    -0.389 A  
HETATM   22  O   UNL     1      -7.567  21.298  67.140  1.00  0.00    -0.371 OA 
HETATM   23  C   UNL     1     -10.160  19.029  68.271  1.00  0.00    -0.466 A  
HETATM   24  C   UNL     1      -8.596  17.758  66.946  1.00  0.00    -0.260 A  
BRANCH  18  25
HETATM   25  C   UNL     1      -6.617  18.770  65.855  1.00  0.00    -0.247 C  
HETATM   26  O   UNL     1      -6.647  18.848  64.633  1.00  0.00    -0.465 OA 
HETATM   27  H1  UNL     1      -4.585  18.453  65.927  1.00  0.00     0.000 HD 
HETATM   28  H2  UNL     1      -5.380  18.501  67.513  1.00  0.00     0.000 HD 
HETATM   29  N   UNL     1      -5.426  18.556  66.496  1.00  0.00    -0.141 N  
ENDBRANCH  18  25
ENDBRANCH  14  17
ENDBRANCH  13  14
ENDBRANCH  11  13
ENDBRANCH   2  11
TORSDOF 8
ENDMDL
MODEL      135
REMARK 921   NORMALIZED FREE ENERGY PREDICTED BY IDOCK:   -4.87 KCAL/MOL
REMARK 922        TOTAL FREE ENERGY PREDICTED BY IDOCK:   -8.70 KCAL/MOL
REMARK 923 INTER-LIGAND FREE ENERGY PREDICTED BY IDOCK:   -7.84 KCAL/MOL
REMARK 924 INTRA-LIGAND FREE ENERGY PREDICTED BY IDOCK:   -0.85 KCAL/MOL
REMARK 927      BINDING AFFINITY PREDICTED BY RF-SCORE:    0.00 PKD
ROOT
HETATM    1  C   UNL     1     -10.536  15.951  66.983  1.00  0.00    -0.306 C  
HETATM    2  C   UNL     1     -10.945  14.477  66.878  1.00  0.00    -0.316 C  
ENDROOT
BRANCH   2   3
HETATM    3  C   UNL     1     -10.824  14.025  65.405  1.00  0.00    -0.331 C  
BRANCH   3   4
HETATM    4  C   UNL     1     -11.606  12.746  65.089  1.00  0.00    -0.373 C  
BRANCH   4   5
HETATM    5  C   UNL     1     -10.704  11.649  64.570  1.00  0.00    -0.378 A  
HETATM    6  C   UNL     1     -10.188  10.673  65.433  1.00  0.00    -0.341 A  
HETATM    7  C   UNL     1      -9.356   9.664  64.945  1.00  0.00    -0.306 A  
HETATM    8  C   UNL     1     -10.382  11.585  63.207  1.00  0.00    -0.435 A  
HETATM    9  C   UNL     1      -9.034   9.616  63.589  1.00  0.00    -0.248 A  
HETATM   10  C   UNL     1      -9.549  10.576  62.720  1.00  0.00    -0.323 A  
ENDBRANCH   4   5
ENDBRANCH   3   4
ENDBRANCH   2   3
BRANCH   2  11
HETATM   11  N   UNL     1     -10.132  13.606  67.735  1.00  0.00    -0.237 NA 
HETATM   12  H   UNL     1      -9.328  14.115  68.102  1.00  0.00     0.000 HD 
BRANCH  11  13
HETATM   13  C   UNL     1     -10.883  12.971  68.827  1.00  0.00    -0.244 C  
BRANCH  13  14
HETATM   14  C   UNL     1     -10.677  11.433  68.856  1.00  0.00    -0.210 C  
HETATM   15  H   UNL     1      -9.143  10.211  68.895  1.00  0.00     0.000 HD 
HETATM   16  O   UNL     1      -9.269  11.152  68.878  1.00  0.00    -0.169 OA 
BRANCH  14  17
HETATM   17  C   UNL     1     -11.387  10.780  70.036  1.00  0.00    -0.397 A  
HETATM   18  C   UNL     1     -11.856   8.840  71.467  1.00  0.00    -0.377 A  
HETATM   19  H   UNL     1     -14.291   9.585  73.575  1.00  0.00     0.000 HD 
HETATM   20  C   UNL     1     -12.822   9.592  72.144  1.00  0.00    -0.389 A  
HETATM   21  C   UNL     1     -13.049  10.923  71.812  1.00  0.00    -0.564 A  
HETATM   22  O   UNL     1     -13.635   9.074  73.115  1.00  0.00    -0.214 OA 
HETATM   23  C   UNL     1     -12.350  11.508  70.752  1.00  0.00    -0.472 A  
HETATM   24  C   UNL     1     -11.146   9.446  70.414  1.00  0.00    -0.311 A  
BRANCH  18  25
HETATM   25  C   UNL     1     -11.547   7.411  71.766  1.00  0.00    -0.272 C  
HETATM   26  O   UNL     1     -11.032   7.066  72.822  1.00  0.00    -0.260 OA 
HETATM   27  H1  UNL     1     -11.661   5.493  71.031  1.00  0.00     0.000 HD 
HETATM   28  H2  UNL     1     -12.313   6.738  69.947  1.00  0.00     0.000 HD 
HETATM   29  N   UNL     1     -11.872   6.470  70.827  1.00  0.00    -0.371 N  
ENDBRANCH  18  25
ENDBRANCH  14  17
ENDBRANCH  13  14
ENDBRANCH  11  13
ENDBRANCH   2  11
TORSDOF 8
ENDMDL
MODEL      136
REMARK 921   NORMALIZED FREE ENERGY PREDICTED BY IDOCK:   -4.85 KCAL/MOL
REMARK 922        TOTAL FREE ENERGY PREDICTED BY IDOCK:   -8.68 KCAL/MOL
REMARK 923 INTER-LIGAND FREE ENERGY PREDICTED BY IDOCK:   -7.83 KCAL/MOL
REMARK 924 INTRA-LIGAND FREE ENERGY PREDICTED BY IDOCK:   -0.85 KCAL/MOL
REMARK 927      BINDING AFFINITY PREDICTED BY RF-SCORE:    0.00 PKD
ROOT
HETATM    1  C   UNL     1     -10.465  15.750  66.455  1.00  0.00    -0.304 C  
HETATM    2  C   UNL     1      -9.782  15.541  67.813  1.00  0.00    -0.211 C  
ENDROOT
BRANCH   2   3
HETATM    3  C   UNL     1     -10.824  15.008  68.822  1.00  0.00    -0.249 C  
BRANCH   3   4
HETATM    4  C   UNL     1     -11.515  16.111  69.631  1.00  0.00    -0.290 C  
BRANCH   4   5
HETATM    5  C   UNL     1     -12.102  15.579  70.919  1.00  0.00    -0.433 A  
HETATM    6  C   UNL     1     -12.915  14.438  70.922  1.00  0.00    -0.413 A  
HETATM    7  C   UNL     1     -13.453  13.954  72.116  1.00  0.00    -0.578 A  
HETATM    8  C   UNL     1     -11.827  16.216  72.138  1.00  0.00    -0.626 A  
HETATM    9  C   UNL     1     -13.181  14.601  73.321  1.00  0.00    -0.411 A  
HETATM   10  C   UNL     1     -12.365  15.731  73.331  1.00  0.00    -0.638 A  
ENDBRANCH   4   5
ENDBRANCH   3   4
ENDBRANCH   2   3
BRANCH   2  11
HETATM   11  N   UNL     1      -8.646  14.616  67.732  1.00  0.00    -0.164 NA 
HETATM   12  H   UNL     1      -8.107  14.783  66.883  1.00  0.00     0.000 HD 
BRANCH  11  13
HETATM   13  C   UNL     1      -7.770  14.641  68.913  1.00  0.00    -0.141 C  
BRANCH  13  14
HETATM   14  C   UNL     1      -6.403  15.310  68.607  1.00  0.00    -0.087 C  
HETATM   15  H   UNL     1      -5.277  15.568  67.022  1.00  0.00     0.000 HD 
HETATM   16  O   UNL     1      -6.113  15.159  67.210  1.00  0.00    -0.323 OA 
BRANCH  14  17
HETATM   17  C   UNL     1      -6.378  16.777  69.019  1.00  0.00    -0.187 A  
HETATM   18  C   UNL     1      -7.029  19.122  68.687  1.00  0.00    -0.336 A  
HETATM   19  H   UNL     1      -5.392  21.036  70.829  1.00  0.00     0.000 HD 
HETATM   20  C   UNL     1      -6.191  19.489  69.746  1.00  0.00    -0.308 A  
HETATM   21  C   UNL     1      -5.485  18.527  70.461  1.00  0.00    -0.229 A  
HETATM   22  O   UNL     1      -5.961  20.787  70.110  1.00  0.00    -0.482 OA 
HETATM   23  C   UNL     1      -5.563  17.183  70.087  1.00  0.00    -0.236 A  
HETATM   24  C   UNL     1      -7.112  17.763  68.333  1.00  0.00    -0.239 A  
BRANCH  18  25
HETATM   25  C   UNL     1      -7.824  20.090  67.876  1.00  0.00    -0.272 C  
HETATM   26  O   UNL     1      -7.290  20.946  67.181  1.00  0.00    -0.345 OA 
HETATM   27  H1  UNL     1      -9.733  20.654  67.355  1.00  0.00     0.000 HD 
HETATM   28  H2  UNL     1      -9.650  19.278  68.473  1.00  0.00     0.000 HD 
HETATM   29  N   UNL     1      -9.189  19.992  67.909  1.00  0.00    -0.331 N  
ENDBRANCH  18  25
ENDBRANCH  14  17
ENDBRANCH  13  14
ENDBRANCH  11  13
ENDBRANCH   2  11
TORSDOF 8
ENDMDL
MODEL      137
REMARK 921   NORMALIZED FREE ENERGY PREDICTED BY IDOCK:   -4.85 KCAL/MOL
REMARK 922        TOTAL FREE ENERGY PREDICTED BY IDOCK:   -8.68 KCAL/MOL
REMARK 923 INTER-LIGAND FREE ENERGY PREDICTED BY IDOCK:   -7.57 KCAL/MOL
REMARK 924 INTRA-LIGAND FREE ENERGY PREDICTED BY IDOCK:   -1.11 KCAL/MOL
REMARK 927      BINDING AFFINITY PREDICTED BY RF-SCORE:    0.00 PKD
ROOT
HETATM    1  C   UNL     1     -10.664  13.681  64.826  1.00  0.00    -0.420 C  
HETATM    2  C   UNL     1     -10.248  14.022  66.262  1.00  0.00    -0.296 C  
ENDROOT
BRANCH   2   3
HETATM    3  C   UNL     1     -11.050  13.135  67.242  1.00  0.00    -0.305 C  
BRANCH   3   4
HETATM    4  C   UNL     1     -11.977  13.929  68.169  1.00  0.00    -0.385 C  
BRANCH   4   5
HETATM    5  C   UNL     1     -12.284  13.170  69.441  1.00  0.00    -0.189 A  
HETATM    6  C   UNL     1     -12.085  11.785  69.518  1.00  0.00    -0.314 A  
HETATM    7  C   UNL     1     -12.371  11.093  70.696  1.00  0.00    -0.482 A  
HETATM    8  C   UNL     1     -12.760  13.849  70.572  1.00  0.00    -0.318 A  
HETATM    9  C   UNL     1     -12.853  11.777  71.812  1.00  0.00    -0.403 A  
HETATM   10  C   UNL     1     -13.046  13.156  71.749  1.00  0.00    -0.478 A  
ENDBRANCH   4   5
ENDBRANCH   3   4
ENDBRANCH   2   3
BRANCH   2  11
HETATM   11  N   UNL     1      -8.810  13.839  66.488  1.00  0.00    -0.453 NA 
HETATM   12  H   UNL     1      -8.271  14.493  65.921  1.00  0.00     0.000 HD 
BRANCH  11  13
HETATM   13  C   UNL     1      -8.409  13.930  67.900  1.00  0.00    -0.167 C  
BRANCH  13  14
HETATM   14  C   UNL     1      -7.487  15.151  68.164  1.00  0.00    -0.114 C  
HETATM   15  H   UNL     1      -5.883  15.918  67.336  1.00  0.00     0.000 HD 
HETATM   16  O   UNL     1      -6.448  15.171  67.175  1.00  0.00    -0.291 OA 
BRANCH  14  17
HETATM   17  C   UNL     1      -8.262  16.464  68.174  1.00  0.00    -0.170 A  
HETATM   18  C   UNL     1      -8.469  18.851  67.636  1.00  0.00    -0.304 A  
HETATM   19  H   UNL     1     -11.212  20.064  69.025  1.00  0.00     0.000 HD 
HETATM   20  C   UNL     1      -9.679  18.889  68.335  1.00  0.00    -0.379 A  
HETATM   21  C   UNL     1     -10.203  17.738  68.914  1.00  0.00    -0.345 A  
HETATM   22  O   UNL     1     -10.390  20.038  68.550  1.00  0.00    -0.438 OA 
HETATM   23  C   UNL     1      -9.490  16.538  68.850  1.00  0.00    -0.260 A  
HETATM   24  C   UNL     1      -7.769  17.632  67.564  1.00  0.00    -0.210 A  
BRANCH  18  25
HETATM   25  C   UNL     1      -7.843  20.038  66.982  1.00  0.00    -0.310 C  
HETATM   26  O   UNL     1      -7.556  21.049  67.611  1.00  0.00    -0.240 OA 
HETATM   27  H1  UNL     1      -7.148  20.781  65.194  1.00  0.00     0.000 HD 
HETATM   28  H2  UNL     1      -7.797  19.132  65.104  1.00  0.00     0.000 HD 
HETATM   29  N   UNL     1      -7.575  19.970  65.641  1.00  0.00    -0.297 N  
ENDBRANCH  18  25
ENDBRANCH  14  17
ENDBRANCH  13  14
ENDBRANCH  11  13
ENDBRANCH   2  11
TORSDOF 8
ENDMDL
MODEL      138
REMARK 921   NORMALIZED FREE ENERGY PREDICTED BY IDOCK:   -4.85 KCAL/MOL
REMARK 922        TOTAL FREE ENERGY PREDICTED BY IDOCK:   -8.68 KCAL/MOL
REMARK 923 INTER-LIGAND FREE ENERGY PREDICTED BY IDOCK:   -7.38 KCAL/MOL
REMARK 924 INTRA-LIGAND FREE ENERGY PREDICTED BY IDOCK:   -1.30 KCAL/MOL
REMARK 927      BINDING AFFINITY PREDICTED BY RF-SCORE:    0.00 PKD
ROOT
HETATM    1  C   UNL     1     -13.073  12.144  71.894  1.00  0.00    -0.475 C  
HETATM    2  C   UNL     1     -13.111  10.757  71.240  1.00  0.00    -0.330 C  
ENDROOT
BRANCH   2   3
HETATM    3  C   UNL     1     -11.884  10.605  70.313  1.00  0.00    -0.430 C  
BRANCH   3   4
HETATM    4  C   UNL     1     -11.859  11.611  69.157  1.00  0.00    -0.390 C  
BRANCH   4   5
HETATM    5  C   UNL     1     -11.213  11.030  67.920  1.00  0.00    -0.375 A  
HETATM    6  C   UNL     1     -10.714   9.720  67.916  1.00  0.00    -0.312 A  
HETATM    7  C   UNL     1     -10.119   9.192  66.770  1.00  0.00    -0.341 A  
HETATM    8  C   UNL     1     -11.116  11.793  66.748  1.00  0.00    -0.360 A  
HETATM    9  C   UNL     1     -10.019   9.964  65.612  1.00  0.00    -0.353 A  
HETATM   10  C   UNL     1     -10.520  11.264  65.602  1.00  0.00    -0.317 A  
ENDBRANCH   4   5
ENDBRANCH   3   4
ENDBRANCH   2   3
BRANCH   2  11
HETATM   11  N   UNL     1     -13.129   9.672  72.227  1.00  0.00    -0.445 NA 
HETATM   12  H   UNL     1     -14.020   9.178  72.202  1.00  0.00     0.000 HD 
BRANCH  11  13
HETATM   13  C   UNL     1     -12.012   8.725  72.095  1.00  0.00    -0.366 C  
BRANCH  13  14
HETATM   14  C   UNL     1     -12.506   7.259  71.968  1.00  0.00    -0.242 C  
HETATM   15  H   UNL     1     -14.173   6.367  71.446  1.00  0.00     0.000 HD 
HETATM   16  O   UNL     1     -13.870   7.265  71.523  1.00  0.00    -0.393 OA 
BRANCH  14  17
HETATM   17  C   UNL     1     -11.626   6.436  71.034  1.00  0.00    -0.386 A  
HETATM   18  C   UNL     1      -9.919   4.715  70.638  1.00  0.00    -0.293 A  
HETATM   19  H   UNL     1      -9.086   4.701  67.439  1.00  0.00     0.000 HD 
HETATM   20  C   UNL     1      -9.931   5.037  69.277  1.00  0.00    -0.207 A  
HETATM   21  C   UNL     1     -10.795   6.009  68.783  1.00  0.00    -0.391 A  
HETATM   22  O   UNL     1      -9.077   4.482  68.364  1.00  0.00    -0.111 OA 
HETATM   23  C   UNL     1     -11.623   6.717  69.659  1.00  0.00    -0.305 A  
HETATM   24  C   UNL     1     -10.770   5.423  71.506  1.00  0.00    -0.262 A  
BRANCH  18  25
HETATM   25  C   UNL     1      -9.028   3.683  71.246  1.00  0.00    -0.101 C  
HETATM   26  O   UNL     1      -7.900   3.950  71.640  1.00  0.00    -0.060 OA 
HETATM   27  H1  UNL     1      -8.902   1.702  71.787  1.00  0.00     0.000 HD 
HETATM   28  H2  UNL     1     -10.452   2.170  71.060  1.00  0.00     0.000 HD 
HETATM   29  N   UNL     1      -9.511   2.408  71.372  1.00  0.00    -0.132 N  
ENDBRANCH  18  25
ENDBRANCH  14  17
ENDBRANCH  13  14
ENDBRANCH  11  13
ENDBRANCH   2  11
TORSDOF 8
ENDMDL
MODEL      139
REMARK 921   NORMALIZED FREE ENERGY PREDICTED BY IDOCK:   -4.85 KCAL/MOL
REMARK 922        TOTAL FREE ENERGY PREDICTED BY IDOCK:   -8.67 KCAL/MOL
REMARK 923 INTER-LIGAND FREE ENERGY PREDICTED BY IDOCK:   -7.68 KCAL/MOL
REMARK 924 INTRA-LIGAND FREE ENERGY PREDICTED BY IDOCK:   -0.98 KCAL/MOL
REMARK 927      BINDING AFFINITY PREDICTED BY RF-SCORE:    0.00 PKD
ROOT
HETATM    1  C   UNL     1      -8.309  10.140  67.160  1.00  0.00    -0.125 C  
HETATM    2  C   UNL     1      -9.542   9.279  67.463  1.00  0.00    -0.149 C  
ENDROOT
BRANCH   2   3
HETATM    3  C   UNL     1     -10.728  10.207  67.811  1.00  0.00    -0.328 C  
BRANCH   3   4
HETATM    4  C   UNL     1     -10.436  11.693  67.575  1.00  0.00    -0.228 C  
BRANCH   4   5
HETATM    5  C   UNL     1     -11.109  12.206  66.322  1.00  0.00    -0.353 A  
HETATM    6  C   UNL     1     -12.011  13.277  66.377  1.00  0.00    -0.465 A  
HETATM    7  C   UNL     1     -12.629  13.743  65.215  1.00  0.00    -0.510 A  
HETATM    8  C   UNL     1     -10.828  11.623  65.078  1.00  0.00    -0.346 A  
HETATM    9  C   UNL     1     -12.349  13.149  63.985  1.00  0.00    -0.425 A  
HETATM   10  C   UNL     1     -11.446  12.090  63.917  1.00  0.00    -0.518 A  
ENDBRANCH   4   5
ENDBRANCH   3   4
ENDBRANCH   2   3
BRANCH   2  11
HETATM   11  N   UNL     1      -9.905   8.405  66.342  1.00  0.00    -0.362 NA 
HETATM   12  H   UNL     1      -9.536   8.773  65.466  1.00  0.00     0.000 HD 
BRANCH  11  13
HETATM   13  C   UNL     1      -9.502   7.003  66.522  1.00  0.00    -0.150 C  
BRANCH  13  14
HETATM   14  C   UNL     1     -10.694   6.108  66.959  1.00  0.00    -0.350 C  
HETATM   15  H   UNL     1     -11.354   4.315  66.517  1.00  0.00     0.000 HD 
HETATM   16  O   UNL     1     -10.625   4.863  66.250  1.00  0.00    -0.306 OA 
BRANCH  14  17
HETATM   17  C   UNL     1     -10.720   5.883  68.466  1.00  0.00    -0.327 A  
HETATM   18  C   UNL     1     -11.499   6.465  70.722  1.00  0.00    -0.415 A  
HETATM   19  H   UNL     1      -9.855   4.668  72.957  1.00  0.00     0.000 HD 
HETATM   20  C   UNL     1     -10.630   5.507  71.253  1.00  0.00    -0.236 A  
HETATM   21  C   UNL     1      -9.844   4.718  70.420  1.00  0.00    -0.309 A  
HETATM   22  O   UNL     1     -10.445   5.319  72.596  1.00  0.00    -0.199 OA 
HETATM   23  C   UNL     1      -9.875   4.918  69.037  1.00  0.00    -0.250 A  
HETATM   24  C   UNL     1     -11.533   6.644  69.326  1.00  0.00    -0.253 A  
BRANCH  18  25
HETATM   25  C   UNL     1     -12.378   7.345  71.546  1.00  0.00    -0.353 C  
HETATM   26  O   UNL     1     -13.571   7.112  71.699  1.00  0.00    -0.377 OA 
HETATM   27  H1  UNL     1     -12.414   9.035  72.719  1.00  0.00     0.000 HD 
HETATM   28  H2  UNL     1     -10.819   8.636  72.049  1.00  0.00     0.000 HD 
HETATM   29  N   UNL     1     -11.813   8.433  72.156  1.00  0.00    -0.350 N  
ENDBRANCH  18  25
ENDBRANCH  14  17
ENDBRANCH  13  14
ENDBRANCH  11  13
ENDBRANCH   2  11
TORSDOF 8
ENDMDL
MODEL      140
REMARK 921   NORMALIZED FREE ENERGY PREDICTED BY IDOCK:   -4.84 KCAL/MOL
REMARK 922        TOTAL FREE ENERGY PREDICTED BY IDOCK:   -8.65 KCAL/MOL
REMARK 923 INTER-LIGAND FREE ENERGY PREDICTED BY IDOCK:   -7.57 KCAL/MOL
REMARK 924 INTRA-LIGAND FREE ENERGY PREDICTED BY IDOCK:   -1.09 KCAL/MOL
REMARK 927      BINDING AFFINITY PREDICTED BY RF-SCORE:    0.00 PKD
ROOT
HETATM    1  C   UNL     1     -10.841  12.347  64.288  1.00  0.00    -0.395 C  
HETATM    2  C   UNL     1     -11.025  11.631  65.632  1.00  0.00    -0.266 C  
ENDROOT
BRANCH   2   3
HETATM    3  C   UNL     1     -10.101  10.393  65.673  1.00  0.00    -0.337 C  
BRANCH   3   4
HETATM    4  C   UNL     1     -10.265   9.547  66.940  1.00  0.00    -0.317 C  
BRANCH   4   5
HETATM    5  C   UNL     1     -10.004   8.081  66.675  1.00  0.00    -0.326 A  
HETATM    6  C   UNL     1     -10.897   7.099  67.122  1.00  0.00    -0.403 A  
HETATM    7  C   UNL     1     -10.647   5.748  66.873  1.00  0.00    -0.377 A  
HETATM    8  C   UNL     1      -8.865   7.684  65.960  1.00  0.00    -0.186 A  
HETATM    9  C   UNL     1      -9.506   5.364  66.169  1.00  0.00    -0.171 A  
HETATM   10  C   UNL     1      -8.616   6.333  65.711  1.00  0.00    -0.153 A  
ENDBRANCH   4   5
ENDBRANCH   3   4
ENDBRANCH   2   3
BRANCH   2  11
HETATM   11  N   UNL     1     -10.741  12.505  66.776  1.00  0.00    -0.233 NA 
HETATM   12  H   UNL     1     -10.335  13.386  66.462  1.00  0.00     0.000 HD 
BRANCH  11  13
HETATM   13  C   UNL     1     -11.901  12.751  67.643  1.00  0.00    -0.339 C  
BRANCH  13  14
HETATM   14  C   UNL     1     -11.477  13.095  69.097  1.00  0.00    -0.305 C  
HETATM   15  H   UNL     1     -11.774  14.579  70.344  1.00  0.00     0.000 HD 
HETATM   16  O   UNL     1     -12.033  14.368  69.455  1.00  0.00    -0.301 OA 
BRANCH  14  17
HETATM   17  C   UNL     1     -11.894  12.014  70.087  1.00  0.00    -0.383 A  
HETATM   18  C   UNL     1     -11.790   9.712  70.938  1.00  0.00    -0.403 A  
HETATM   19  H   UNL     1     -14.047   9.313  73.320  1.00  0.00     0.000 HD 
HETATM   20  C   UNL     1     -12.795  10.024  71.860  1.00  0.00    -0.426 A  
HETATM   21  C   UNL     1     -13.321  11.310  71.933  1.00  0.00    -0.413 A  
HETATM   22  O   UNL     1     -13.365   9.101  72.694  1.00  0.00    -0.454 OA 
HETATM   23  C   UNL     1     -12.887  12.293  71.039  1.00  0.00    -0.251 A  
HETATM   24  C   UNL     1     -11.350  10.717  70.056  1.00  0.00    -0.400 A  
BRANCH  18  25
HETATM   25  C   UNL     1     -11.171   8.362  70.801  1.00  0.00    -0.263 C  
HETATM   26  O   UNL     1     -11.842   7.359  70.591  1.00  0.00    -0.286 OA 
HETATM   27  H1  UNL     1      -9.385   7.340  70.805  1.00  0.00     0.000 HD 
HETATM   28  H2  UNL     1      -9.234   9.090  71.061  1.00  0.00     0.000 HD 
HETATM   29  N   UNL     1      -9.809   8.263  70.898  1.00  0.00    -0.179 N  
ENDBRANCH  18  25
ENDBRANCH  14  17
ENDBRANCH  13  14
ENDBRANCH  11  13
ENDBRANCH   2  11
TORSDOF 8
ENDMDL
MODEL      141
REMARK 921   NORMALIZED FREE ENERGY PREDICTED BY IDOCK:   -4.83 KCAL/MOL
REMARK 922        TOTAL FREE ENERGY PREDICTED BY IDOCK:   -8.64 KCAL/MOL
REMARK 923 INTER-LIGAND FREE ENERGY PREDICTED BY IDOCK:   -8.15 KCAL/MOL
REMARK 924 INTRA-LIGAND FREE ENERGY PREDICTED BY IDOCK:   -0.49 KCAL/MOL
REMARK 927      BINDING AFFINITY PREDICTED BY RF-SCORE:    0.00 PKD
ROOT
HETATM    1  C   UNL     1     -14.076   8.511  71.899  1.00  0.00    -0.519 C  
HETATM    2  C   UNL     1     -12.668   9.099  71.741  1.00  0.00    -0.373 C  
ENDROOT
BRANCH   2   3
HETATM    3  C   UNL     1     -11.642   8.117  72.350  1.00  0.00    -0.463 C  
BRANCH   3   4
HETATM    4  C   UNL     1     -10.974   7.206  71.314  1.00  0.00    -0.264 C  
BRANCH   4   5
HETATM    5  C   UNL     1     -10.765   5.807  71.848  1.00  0.00    -0.297 A  
HETATM    6  C   UNL     1     -11.356   5.399  73.051  1.00  0.00    -0.355 A  
HETATM    7  C   UNL     1     -11.157   4.106  73.536  1.00  0.00    -0.359 A  
HETATM    8  C   UNL     1      -9.983   4.887  71.134  1.00  0.00    -0.278 A  
HETATM    9  C   UNL     1     -10.369   3.203  72.823  1.00  0.00    -0.238 A  
HETATM   10  C   UNL     1      -9.784   3.594  71.620  1.00  0.00    -0.236 A  
ENDBRANCH   4   5
ENDBRANCH   3   4
ENDBRANCH   2   3
BRANCH   2  11
HETATM   11  N   UNL     1     -12.328   9.370  70.339  1.00  0.00    -0.466 NA 
HETATM   12  H   UNL     1     -13.173   9.477  69.779  1.00  0.00     0.000 HD 
BRANCH  11  13
HETATM   13  C   UNL     1     -11.437  10.523  70.152  1.00  0.00    -0.325 C  
BRANCH  13  14
HETATM   14  C   UNL     1     -12.160  11.710  69.460  1.00  0.00    -0.270 C  
HETATM   15  H   UNL     1     -12.522  13.590  69.887  1.00  0.00     0.000 HD 
HETATM   16  O   UNL     1     -12.079  12.864  70.310  1.00  0.00    -0.347 OA 
BRANCH  14  17
HETATM   17  C   UNL     1     -11.589  12.003  68.078  1.00  0.00    -0.407 A  
HETATM   18  C   UNL     1     -11.080  13.547  66.237  1.00  0.00    -0.308 A  
HETATM   19  H   UNL     1      -9.954  11.838  63.641  1.00  0.00     0.000 HD 
HETATM   20  C   UNL     1     -10.640  12.464  65.470  1.00  0.00    -0.275 A  
HETATM   21  C   UNL     1     -10.632  11.176  65.995  1.00  0.00    -0.298 A  
HETATM   22  O   UNL     1     -10.253  12.574  64.162  1.00  0.00    -0.359 OA 
HETATM   23  C   UNL     1     -11.121  10.944  67.284  1.00  0.00    -0.350 A  
HETATM   24  C   UNL     1     -11.554  13.303  67.539  1.00  0.00    -0.388 A  
BRANCH  18  25
HETATM   25  C   UNL     1     -11.115  14.958  65.750  1.00  0.00    -0.342 C  
HETATM   26  O   UNL     1     -10.537  15.862  66.341  1.00  0.00    -0.307 OA 
HETATM   27  H1  UNL     1     -11.828  16.191  64.266  1.00  0.00     0.000 HD 
HETATM   28  H2  UNL     1     -12.281  14.484  64.087  1.00  0.00     0.000 HD 
HETATM   29  N   UNL     1     -11.804  15.226  64.598  1.00  0.00    -0.328 N  
ENDBRANCH  18  25
ENDBRANCH  14  17
ENDBRANCH  13  14
ENDBRANCH  11  13
ENDBRANCH   2  11
TORSDOF 8
ENDMDL
MODEL      142
REMARK 921   NORMALIZED FREE ENERGY PREDICTED BY IDOCK:   -4.83 KCAL/MOL
REMARK 922        TOTAL FREE ENERGY PREDICTED BY IDOCK:   -8.64 KCAL/MOL
REMARK 923 INTER-LIGAND FREE ENERGY PREDICTED BY IDOCK:   -7.57 KCAL/MOL
REMARK 924 INTRA-LIGAND FREE ENERGY PREDICTED BY IDOCK:   -1.07 KCAL/MOL
REMARK 927      BINDING AFFINITY PREDICTED BY RF-SCORE:    0.00 PKD
ROOT
HETATM    1  C   UNL     1      -9.672  12.288  66.826  1.00  0.00    -0.219 C  
HETATM    2  C   UNL     1     -11.126  11.803  66.868  1.00  0.00    -0.307 C  
ENDROOT
BRANCH   2   3
HETATM    3  C   UNL     1     -11.240  10.644  67.884  1.00  0.00    -0.376 C  
BRANCH   3   4
HETATM    4  C   UNL     1     -10.670  10.981  69.266  1.00  0.00    -0.263 C  
BRANCH   4   5
HETATM    5  C   UNL     1     -11.466  10.331  70.376  1.00  0.00    -0.415 A  
HETATM    6  C   UNL     1     -11.011   9.160  70.997  1.00  0.00    -0.375 A  
HETATM    7  C   UNL     1     -11.752   8.567  72.020  1.00  0.00    -0.431 A  
HETATM    8  C   UNL     1     -12.670  10.904  70.812  1.00  0.00    -0.431 A  
HETATM    9  C   UNL     1     -12.953   9.139  72.438  1.00  0.00    -0.468 A  
HETATM   10  C   UNL     1     -13.410  10.309  71.835  1.00  0.00    -0.487 A  
ENDBRANCH   4   5
ENDBRANCH   3   4
ENDBRANCH   2   3
BRANCH   2  11
HETATM   11  N   UNL     1     -12.065  12.873  67.226  1.00  0.00    -0.381 NA 
HETATM   12  H   UNL     1     -12.364  12.778  68.196  1.00  0.00     0.000 HD 
BRANCH  11  13
HETATM   13  C   UNL     1     -11.551  14.227  66.975  1.00  0.00    -0.386 C  
BRANCH  13  14
HETATM   14  C   UNL     1     -11.644  15.127  68.237  1.00  0.00    -0.339 C  
HETATM   15  H   UNL     1     -11.782  14.839  70.172  1.00  0.00     0.000 HD 
HETATM   16  O   UNL     1     -11.724  14.289  69.400  1.00  0.00    -0.275 OA 
BRANCH  14  17
HETATM   17  C   UNL     1     -10.474  16.098  68.338  1.00  0.00    -0.274 A  
HETATM   18  C   UNL     1      -8.095  16.577  68.715  1.00  0.00    -0.244 A  
HETATM   19  H   UNL     1      -7.631  19.849  68.820  1.00  0.00     0.000 HD 
HETATM   20  C   UNL     1      -8.374  17.946  68.641  1.00  0.00    -0.270 A  
HETATM   21  C   UNL     1      -9.665  18.396  68.382  1.00  0.00    -0.379 A  
HETATM   22  O   UNL     1      -7.441  18.919  68.871  1.00  0.00    -0.316 OA 
HETATM   23  C   UNL     1     -10.711  17.479  68.251  1.00  0.00    -0.309 A  
HETATM   24  C   UNL     1      -9.155  15.664  68.563  1.00  0.00    -0.196 A  
BRANCH  18  25
HETATM   25  C   UNL     1      -6.739  16.014  68.982  1.00  0.00    -0.157 C  
HETATM   26  O   UNL     1      -6.312  15.861  70.120  1.00  0.00    -0.134 OA 
HETATM   27  H1  UNL     1      -5.043  15.261  68.092  1.00  0.00     0.000 HD 
HETATM   28  H2  UNL     1      -6.315  15.755  66.956  1.00  0.00     0.000 HD 
HETATM   29  N   UNL     1      -5.970  15.646  67.910  1.00  0.00    -0.137 N  
ENDBRANCH  18  25
ENDBRANCH  14  17
ENDBRANCH  13  14
ENDBRANCH  11  13
ENDBRANCH   2  11
TORSDOF 8
ENDMDL
MODEL      143
REMARK 921   NORMALIZED FREE ENERGY PREDICTED BY IDOCK:   -4.81 KCAL/MOL
REMARK 922        TOTAL FREE ENERGY PREDICTED BY IDOCK:   -8.62 KCAL/MOL
REMARK 923 INTER-LIGAND FREE ENERGY PREDICTED BY IDOCK:   -7.80 KCAL/MOL
REMARK 924 INTRA-LIGAND FREE ENERGY PREDICTED BY IDOCK:   -0.82 KCAL/MOL
REMARK 927      BINDING AFFINITY PREDICTED BY RF-SCORE:    0.00 PKD
ROOT
HETATM    1  C   UNL     1      -9.414  11.553  67.563  1.00  0.00    -0.173 C  
HETATM    2  C   UNL     1     -10.710  10.732  67.587  1.00  0.00    -0.258 C  
ENDROOT
BRANCH   2   3
HETATM    3  C   UNL     1     -10.524   9.527  68.537  1.00  0.00    -0.247 C  
BRANCH   3   4
HETATM    4  C   UNL     1      -9.604   9.820  69.727  1.00  0.00    -0.256 C  
BRANCH   4   5
HETATM    5  C   UNL     1     -10.068   9.116  70.982  1.00  0.00    -0.373 A  
HETATM    6  C   UNL     1      -9.167   8.392  71.776  1.00  0.00    -0.287 A  
HETATM    7  C   UNL     1      -9.605   7.745  72.933  1.00  0.00    -0.302 A  
HETATM    8  C   UNL     1     -11.410   9.191  71.380  1.00  0.00    -0.414 A  
HETATM    9  C   UNL     1     -10.944   7.818  73.313  1.00  0.00    -0.261 A  
HETATM   10  C   UNL     1     -11.846   8.544  72.537  1.00  0.00    -0.398 A  
ENDBRANCH   4   5
ENDBRANCH   3   4
ENDBRANCH   2   3
BRANCH   2  11
HETATM   11  N   UNL     1     -11.869  11.527  68.010  1.00  0.00    -0.601 NA 
HETATM   12  H   UNL     1     -11.790  11.780  68.994  1.00  0.00     0.000 HD 
BRANCH  11  13
HETATM   13  C   UNL     1     -12.107  12.721  67.187  1.00  0.00    -0.168 C  
BRANCH  13  14
HETATM   14  C   UNL     1     -12.109  14.021  68.038  1.00  0.00    -0.277 C  
HETATM   15  H   UNL     1     -11.829  14.477  69.924  1.00  0.00     0.000 HD 
HETATM   16  O   UNL     1     -11.828  13.683  69.403  1.00  0.00    -0.297 OA 
BRANCH  14  17
HETATM   17  C   UNL     1     -11.119  15.052  67.511  1.00  0.00    -0.317 A  
HETATM   18  C   UNL     1     -10.218  17.336  67.436  1.00  0.00    -0.325 A  
HETATM   19  H   UNL     1      -7.939  17.547  65.050  1.00  0.00     0.000 HD 
HETATM   20  C   UNL     1      -9.352  16.945  66.409  1.00  0.00    -0.276 A  
HETATM   21  C   UNL     1      -9.330  15.629  65.959  1.00  0.00    -0.384 A  
HETATM   22  O   UNL     1      -8.528  17.813  65.747  1.00  0.00    -0.519 OA 
HETATM   23  C   UNL     1     -10.221  14.694  66.493  1.00  0.00    -0.282 A  
HETATM   24  C   UNL     1     -11.097  16.380  67.977  1.00  0.00    -0.292 A  
BRANCH  18  25
HETATM   25  C   UNL     1     -10.298  18.724  67.979  1.00  0.00    -0.387 C  
HETATM   26  O   UNL     1     -10.697  19.663  67.303  1.00  0.00    -0.474 OA 
HETATM   27  H1  UNL     1      -9.980  19.878  69.652  1.00  0.00     0.000 HD 
HETATM   28  H2  UNL     1      -9.603  18.157  69.862  1.00  0.00     0.000 HD 
HETATM   29  N   UNL     1      -9.926  18.930  69.281  1.00  0.00    -0.230 N  
ENDBRANCH  18  25
ENDBRANCH  14  17
ENDBRANCH  13  14
ENDBRANCH  11  13
ENDBRANCH   2  11
TORSDOF 8
ENDMDL
MODEL      144
REMARK 921   NORMALIZED FREE ENERGY PREDICTED BY IDOCK:   -4.81 KCAL/MOL
REMARK 922        TOTAL FREE ENERGY PREDICTED BY IDOCK:   -8.62 KCAL/MOL
REMARK 923 INTER-LIGAND FREE ENERGY PREDICTED BY IDOCK:   -5.99 KCAL/MOL
REMARK 924 INTRA-LIGAND FREE ENERGY PREDICTED BY IDOCK:   -2.63 KCAL/MOL
REMARK 927      BINDING AFFINITY PREDICTED BY RF-SCORE:    0.00 PKD
ROOT
HETATM    1  C   UNL     1     -11.536   4.972  73.167  1.00  0.00    -0.362 C  
HETATM    2  C   UNL     1     -10.060   4.600  72.981  1.00  0.00    -0.162 C  
ENDROOT
BRANCH   2   3
HETATM    3  C   UNL     1      -9.856   4.055  71.549  1.00  0.00    -0.251 C  
BRANCH   3   4
HETATM    4  C   UNL     1      -8.791   4.814  70.749  1.00  0.00    -0.153 C  
BRANCH   4   5
HETATM    5  C   UNL     1      -9.407   5.685  69.678  1.00  0.00    -0.171 A  
HETATM    6  C   UNL     1      -8.602   6.420  68.797  1.00  0.00    -0.123 A  
HETATM    7  C   UNL     1      -9.180   7.222  67.812  1.00  0.00    -0.127 A  
HETATM    8  C   UNL     1     -10.801   5.759  69.542  1.00  0.00    -0.410 A  
HETATM    9  C   UNL     1     -10.568   7.295  67.692  1.00  0.00    -0.316 A  
HETATM   10  C   UNL     1     -11.377   6.561  68.556  1.00  0.00    -0.179 A  
ENDBRANCH   4   5
ENDBRANCH   3   4
ENDBRANCH   2   3
BRANCH   2  11
HETATM   11  N   UNL     1      -9.161   5.737  73.214  1.00  0.00    -0.136 NA 
HETATM   12  H   UNL     1      -8.472   5.809  72.466  1.00  0.00     0.000 HD 
BRANCH  11  13
HETATM   13  C   UNL     1      -9.855   7.020  73.399  1.00  0.00    -0.237 C  
BRANCH  13  14
HETATM   14  C   UNL     1      -9.084   8.197  72.743  1.00  0.00    -0.259 C  
HETATM   15  H   UNL     1      -7.382   8.420  71.796  1.00  0.00     0.000 HD 
HETATM   16  O   UNL     1      -7.854   7.700  72.197  1.00  0.00    -0.095 OA 
BRANCH  14  17
HETATM   17  C   UNL     1      -9.914   8.902  71.676  1.00  0.00    -0.397 A  
HETATM   18  C   UNL     1     -10.103  10.231  69.619  1.00  0.00    -0.257 A  
HETATM   19  H   UNL     1     -13.263  11.077  69.138  1.00  0.00     0.000 HD 
HETATM   20  C   UNL     1     -11.488  10.298  69.808  1.00  0.00    -0.256 A  
HETATM   21  C   UNL     1     -12.092   9.653  70.882  1.00  0.00    -0.383 A  
HETATM   22  O   UNL     1     -12.322  11.032  69.010  1.00  0.00    -0.481 OA 
HETATM   23  C   UNL     1     -11.308   8.976  71.820  1.00  0.00    -0.447 A  
HETATM   24  C   UNL     1      -9.328   9.531  70.562  1.00  0.00    -0.296 A  
BRANCH  18  25
HETATM   25  C   UNL     1      -9.380  10.889  68.492  1.00  0.00    -0.181 C  
HETATM   26  O   UNL     1      -9.871  10.983  67.374  1.00  0.00    -0.171 OA 
HETATM   27  H1  UNL     1      -7.644  11.860  67.967  1.00  0.00     0.000 HD 
HETATM   28  H2  UNL     1      -7.720  11.351  69.666  1.00  0.00     0.000 HD 
HETATM   29  N   UNL     1      -8.139  11.411  68.738  1.00  0.00    -0.137 N  
ENDBRANCH  18  25
ENDBRANCH  14  17
ENDBRANCH  13  14
ENDBRANCH  11  13
ENDBRANCH   2  11
TORSDOF 8
ENDMDL
MODEL      145
REMARK 921   NORMALIZED FREE ENERGY PREDICTED BY IDOCK:   -4.81 KCAL/MOL
REMARK 922        TOTAL FREE ENERGY PREDICTED BY IDOCK:   -8.62 KCAL/MOL
REMARK 923 INTER-LIGAND FREE ENERGY PREDICTED BY IDOCK:   -6.74 KCAL/MOL
REMARK 924 INTRA-LIGAND FREE ENERGY PREDICTED BY IDOCK:   -1.87 KCAL/MOL
REMARK 927      BINDING AFFINITY PREDICTED BY RF-SCORE:    0.00 PKD
ROOT
HETATM    1  C   UNL     1     -11.538  12.919  66.341  1.00  0.00    -0.425 C  
HETATM    2  C   UNL     1     -10.421  13.750  66.983  1.00  0.00    -0.274 C  
ENDROOT
BRANCH   2   3
HETATM    3  C   UNL     1     -10.428  13.506  68.510  1.00  0.00    -0.250 C  
BRANCH   3   4
HETATM    4  C   UNL     1     -11.694  14.018  69.207  1.00  0.00    -0.372 C  
BRANCH   4   5
HETATM    5  C   UNL     1     -12.284  12.979  70.134  1.00  0.00    -0.342 A  
HETATM    6  C   UNL     1     -13.070  13.357  71.231  1.00  0.00    -0.317 A  
HETATM    7  C   UNL     1     -13.610  12.391  72.081  1.00  0.00    -0.405 A  
HETATM    8  C   UNL     1     -12.064  11.615  69.898  1.00  0.00    -0.373 A  
HETATM    9  C   UNL     1     -13.377  11.037  71.843  1.00  0.00    -0.423 A  
HETATM   10  C   UNL     1     -12.605  10.650  70.749  1.00  0.00    -0.479 A  
ENDBRANCH   4   5
ENDBRANCH   3   4
ENDBRANCH   2   3
BRANCH   2  11
HETATM   11  N   UNL     1      -9.098  13.432  66.434  1.00  0.00    -0.459 NA 
HETATM   12  H   UNL     1      -8.544  14.281  66.320  1.00  0.00     0.000 HD 
BRANCH  11  13
HETATM   13  C   UNL     1      -8.354  12.430  67.209  1.00  0.00    -0.184 C  
BRANCH  13  14
HETATM   14  C   UNL     1      -8.448  11.017  66.572  1.00  0.00    -0.161 C  
HETATM   15  H   UNL     1      -7.183   9.701  65.855  1.00  0.00     0.000 HD 
HETATM   16  O   UNL     1      -7.125  10.566  66.245  1.00  0.00    -0.118 OA 
BRANCH  14  17
HETATM   17  C   UNL     1      -9.158  10.023  67.484  1.00  0.00    -0.144 A  
HETATM   18  C   UNL     1      -9.470   8.937  69.665  1.00  0.00    -0.168 A  
HETATM   19  H   UNL     1     -11.648   6.468  69.368  1.00  0.00     0.000 HD 
HETATM   20  C   UNL     1     -10.415   8.082  69.087  1.00  0.00    -0.208 A  
HETATM   21  C   UNL     1     -10.764   8.208  67.747  1.00  0.00    -0.166 A  
HETATM   22  O   UNL     1     -11.006   7.048  69.760  1.00  0.00    -0.245 OA 
HETATM   23  C   UNL     1     -10.126   9.160  66.946  1.00  0.00    -0.328 A  
HETATM   24  C   UNL     1      -8.848   9.902  68.851  1.00  0.00    -0.145 A  
BRANCH  18  25
HETATM   25  C   UNL     1      -9.046   8.871  71.094  1.00  0.00    -0.249 C  
HETATM   26  O   UNL     1      -7.866   8.844  71.420  1.00  0.00    -0.186 OA 
HETATM   27  H1  UNL     1      -9.730   8.814  73.033  1.00  0.00     0.000 HD 
HETATM   28  H2  UNL     1     -11.007   8.894  71.803  1.00  0.00     0.000 HD 
HETATM   29  N   UNL     1     -10.020   8.859  72.056  1.00  0.00    -0.322 N  
ENDBRANCH  18  25
ENDBRANCH  14  17
ENDBRANCH  13  14
ENDBRANCH  11  13
ENDBRANCH   2  11
TORSDOF 8
ENDMDL
MODEL      146
REMARK 921   NORMALIZED FREE ENERGY PREDICTED BY IDOCK:   -4.80 KCAL/MOL
REMARK 922        TOTAL FREE ENERGY PREDICTED BY IDOCK:   -8.61 KCAL/MOL
REMARK 923 INTER-LIGAND FREE ENERGY PREDICTED BY IDOCK:   -7.39 KCAL/MOL
REMARK 924 INTRA-LIGAND FREE ENERGY PREDICTED BY IDOCK:   -1.22 KCAL/MOL
REMARK 927      BINDING AFFINITY PREDICTED BY RF-SCORE:    0.00 PKD
ROOT
HETATM    1  C   UNL     1      -5.966  15.408  68.878  1.00  0.00    -0.101 C  
HETATM    2  C   UNL     1      -6.785  16.466  68.128  1.00  0.00    -0.132 C  
ENDROOT
BRANCH   2   3
HETATM    3  C   UNL     1      -6.030  17.814  68.178  1.00  0.00    -0.165 C  
BRANCH   3   4
HETATM    4  C   UNL     1      -6.812  18.929  68.882  1.00  0.00    -0.329 C  
BRANCH   4   5
HETATM    5  C   UNL     1      -8.089  19.270  68.147  1.00  0.00    -0.349 A  
HETATM    6  C   UNL     1      -9.325  19.260  68.808  1.00  0.00    -0.437 A  
HETATM    7  C   UNL     1     -10.498  19.575  68.121  1.00  0.00    -0.497 A  
HETATM    8  C   UNL     1      -8.052  19.617  66.789  1.00  0.00    -0.321 A  
HETATM    9  C   UNL     1     -10.450  19.910  66.768  1.00  0.00    -0.575 A  
HETATM   10  C   UNL     1      -9.226  19.933  66.103  1.00  0.00    -0.414 A  
ENDBRANCH   4   5
ENDBRANCH   3   4
ENDBRANCH   2   3
BRANCH   2  11
HETATM   11  N   UNL     1      -7.041  16.090  66.733  1.00  0.00    -0.211 NA 
HETATM   12  H   UNL     1      -6.618  15.187  66.521  1.00  0.00     0.000 HD 
BRANCH  11  13
HETATM   13  C   UNL     1      -8.465  16.091  66.366  1.00  0.00    -0.327 C  
BRANCH  13  14
HETATM   14  C   UNL     1      -9.346  15.425  67.457  1.00  0.00    -0.203 C  
HETATM   15  H   UNL     1     -11.074  15.801  68.304  1.00  0.00     0.000 HD 
HETATM   16  O   UNL     1     -10.535  16.208  67.636  1.00  0.00    -0.278 OA 
BRANCH  14  17
HETATM   17  C   UNL     1      -9.686  13.979  67.116  1.00  0.00    -0.242 A  
HETATM   18  C   UNL     1     -10.842  12.300  65.744  1.00  0.00    -0.313 A  
HETATM   19  H   UNL     1     -10.441   9.308  67.091  1.00  0.00     0.000 HD 
HETATM   20  C   UNL     1     -10.385  11.301  66.610  1.00  0.00    -0.237 A  
HETATM   21  C   UNL     1      -9.564  11.613  67.688  1.00  0.00    -0.184 A  
HETATM   22  O   UNL     1     -10.751   9.987  66.503  1.00  0.00    -0.136 OA 
HETATM   23  C   UNL     1      -9.232  12.945  67.950  1.00  0.00    -0.208 A  
HETATM   24  C   UNL     1     -10.486  13.635  66.010  1.00  0.00    -0.300 A  
BRANCH  18  25
HETATM   25  C   UNL     1     -11.720  12.048  64.564  1.00  0.00    -0.305 C  
HETATM   26  O   UNL     1     -12.928  12.242  64.601  1.00  0.00    -0.741 OA 
HETATM   27  H1  UNL     1     -11.736  11.429  62.602  1.00  0.00     0.000 HD 
HETATM   28  H2  UNL     1     -10.129  11.447  63.356  1.00  0.00     0.000 HD 
HETATM   29  N   UNL     1     -11.136  11.602  63.409  1.00  0.00    -0.383 N  
ENDBRANCH  18  25
ENDBRANCH  14  17
ENDBRANCH  13  14
ENDBRANCH  11  13
ENDBRANCH   2  11
TORSDOF 8
ENDMDL
MODEL      147
REMARK 921   NORMALIZED FREE ENERGY PREDICTED BY IDOCK:   -4.80 KCAL/MOL
REMARK 922        TOTAL FREE ENERGY PREDICTED BY IDOCK:   -8.61 KCAL/MOL
REMARK 923 INTER-LIGAND FREE ENERGY PREDICTED BY IDOCK:   -6.37 KCAL/MOL
REMARK 924 INTRA-LIGAND FREE ENERGY PREDICTED BY IDOCK:   -2.23 KCAL/MOL
REMARK 927      BINDING AFFINITY PREDICTED BY RF-SCORE:    0.00 PKD
ROOT
HETATM    1  C   UNL     1      -9.930   8.528  67.505  1.00  0.00    -0.258 C  
HETATM    2  C   UNL     1      -9.219   9.606  66.679  1.00  0.00    -0.151 C  
ENDROOT
BRANCH   2   3
HETATM    3  C   UNL     1     -10.118   9.997  65.483  1.00  0.00    -0.325 C  
BRANCH   3   4
HETATM    4  C   UNL     1      -9.621  11.228  64.718  1.00  0.00    -0.269 C  
BRANCH   4   5
HETATM    5  C   UNL     1     -10.588  12.385  64.826  1.00  0.00    -0.331 A  
HETATM    6  C   UNL     1     -11.939  12.168  65.130  1.00  0.00    -0.324 A  
HETATM    7  C   UNL     1     -12.825  13.242  65.227  1.00  0.00    -0.368 A  
HETATM    8  C   UNL     1     -10.141  13.701  64.638  1.00  0.00    -0.228 A  
HETATM    9  C   UNL     1     -12.371  14.546  65.028  1.00  0.00    -0.353 A  
HETATM   10  C   UNL     1     -11.028  14.775  64.736  1.00  0.00    -0.393 A  
ENDBRANCH   4   5
ENDBRANCH   3   4
ENDBRANCH   2   3
BRANCH   2  11
HETATM   11  N   UNL     1      -8.897  10.799  67.471  1.00  0.00    -0.129 NA 
HETATM   12  H   UNL     1      -9.204  11.643  66.988  1.00  0.00     0.000 HD 
BRANCH  11  13
HETATM   13  C   UNL     1      -9.427  10.767  68.841  1.00  0.00    -0.181 C  
BRANCH  13  14
HETATM   14  C   UNL     1     -10.843  11.398  68.931  1.00  0.00    -0.215 C  
HETATM   15  H   UNL     1     -12.272  11.483  70.272  1.00  0.00     0.000 HD 
HETATM   16  O   UNL     1     -11.405  11.098  70.216  1.00  0.00    -0.268 OA 
BRANCH  14  17
HETATM   17  C   UNL     1     -10.819  12.901  68.678  1.00  0.00    -0.288 A  
HETATM   18  C   UNL     1      -9.619  14.986  68.186  1.00  0.00    -0.207 A  
HETATM   19  H   UNL     1     -11.705  17.541  68.412  1.00  0.00     0.000 HD 
HETATM   20  C   UNL     1     -10.814  15.695  68.347  1.00  0.00    -0.290 A  
HETATM   21  C   UNL     1     -12.003  15.031  68.630  1.00  0.00    -0.278 A  
HETATM   22  O   UNL     1     -10.893  17.060  68.302  1.00  0.00    -0.370 OA 
HETATM   23  C   UNL     1     -12.002  13.645  68.813  1.00  0.00    -0.394 A  
HETATM   24  C   UNL     1      -9.635  13.590  68.355  1.00  0.00    -0.196 A  
BRANCH  18  25
HETATM   25  C   UNL     1      -8.305  15.623  67.876  1.00  0.00    -0.146 C  
HETATM   26  O   UNL     1      -7.783  15.530  66.772  1.00  0.00    -0.201 OA 
HETATM   27  H1  UNL     1      -6.789  16.777  68.653  1.00  0.00     0.000 HD 
HETATM   28  H2  UNL     1      -8.113  16.440  69.786  1.00  0.00     0.000 HD 
HETATM   29  N   UNL     1      -7.687  16.342  68.864  1.00  0.00    -0.207 N  
ENDBRANCH  18  25
ENDBRANCH  14  17
ENDBRANCH  13  14
ENDBRANCH  11  13
ENDBRANCH   2  11
TORSDOF 8
ENDMDL
MODEL      148
REMARK 921   NORMALIZED FREE ENERGY PREDICTED BY IDOCK:   -4.79 KCAL/MOL
REMARK 922        TOTAL FREE ENERGY PREDICTED BY IDOCK:   -8.59 KCAL/MOL
REMARK 923 INTER-LIGAND FREE ENERGY PREDICTED BY IDOCK:   -7.64 KCAL/MOL
REMARK 924 INTRA-LIGAND FREE ENERGY PREDICTED BY IDOCK:   -0.95 KCAL/MOL
REMARK 927      BINDING AFFINITY PREDICTED BY RF-SCORE:    0.00 PKD
ROOT
HETATM    1  C   UNL     1     -10.684   9.767  68.767  1.00  0.00    -0.243 C  
HETATM    2  C   UNL     1     -11.554  10.863  69.395  1.00  0.00    -0.316 C  
ENDROOT
BRANCH   2   3
HETATM    3  C   UNL     1     -11.974  11.863  68.293  1.00  0.00    -0.235 C  
BRANCH   3   4
HETATM    4  C   UNL     1     -10.797  12.405  67.475  1.00  0.00    -0.271 C  
BRANCH   4   5
HETATM    5  C   UNL     1     -10.962  12.124  65.999  1.00  0.00    -0.332 A  
HETATM    6  C   UNL     1     -12.040  12.658  65.280  1.00  0.00    -0.519 A  
HETATM    7  C   UNL     1     -12.185  12.393  63.918  1.00  0.00    -0.603 A  
HETATM    8  C   UNL     1     -10.024  11.333  65.320  1.00  0.00    -0.301 A  
HETATM    9  C   UNL     1     -11.251  11.596  63.256  1.00  0.00    -0.305 A  
HETATM   10  C   UNL     1     -10.170  11.068  63.958  1.00  0.00    -0.420 A  
ENDBRANCH   4   5
ENDBRANCH   3   4
ENDBRANCH   2   3
BRANCH   2  11
HETATM   11  N   UNL     1     -12.746  10.322  70.058  1.00  0.00    -0.549 NA 
HETATM   12  H   UNL     1     -12.957   9.387  69.709  1.00  0.00     0.000 HD 
BRANCH  11  13
HETATM   13  C   UNL     1     -12.665  10.319  71.525  1.00  0.00    -0.452 C  
BRANCH  13  14
HETATM   14  C   UNL     1     -12.837   8.892  72.113  1.00  0.00    -0.409 C  
HETATM   15  H   UNL     1     -13.950   7.326  71.723  1.00  0.00     0.000 HD 
HETATM   16  O   UNL     1     -13.845   8.199  71.364  1.00  0.00    -0.320 OA 
BRANCH  14  17
HETATM   17  C   UNL     1     -11.526   8.114  72.125  1.00  0.00    -0.412 A  
HETATM   18  C   UNL     1     -10.270   6.005  72.203  1.00  0.00    -0.222 A  
HETATM   19  H   UNL     1      -7.041   6.652  72.496  1.00  0.00     0.000 HD 
HETATM   20  C   UNL     1      -9.079   6.735  72.275  1.00  0.00    -0.132 A  
HETATM   21  C   UNL     1      -9.091   8.125  72.234  1.00  0.00    -0.263 A  
HETATM   22  O   UNL     1      -7.851   6.157  72.447  1.00  0.00    -0.103 OA 
HETATM   23  C   UNL     1     -10.308   8.811  72.179  1.00  0.00    -0.378 A  
HETATM   24  C   UNL     1     -11.487   6.708  72.130  1.00  0.00    -0.323 A  
BRANCH  18  25
HETATM   25  C   UNL     1     -10.341   4.515  72.234  1.00  0.00    -0.176 C  
HETATM   26  O   UNL     1     -10.863   3.910  73.162  1.00  0.00    -0.186 OA 
HETATM   27  H1  UNL     1      -9.865   2.802  71.198  1.00  0.00     0.000 HD 
HETATM   28  H2  UNL     1      -9.389   4.309  70.390  1.00  0.00     0.000 HD 
HETATM   29  N   UNL     1      -9.817   3.821  71.176  1.00  0.00    -0.172 N  
ENDBRANCH  18  25
ENDBRANCH  14  17
ENDBRANCH  13  14
ENDBRANCH  11  13
ENDBRANCH   2  11
TORSDOF 8
ENDMDL
MODEL      149
REMARK 921   NORMALIZED FREE ENERGY PREDICTED BY IDOCK:   -4.79 KCAL/MOL
REMARK 922        TOTAL FREE ENERGY PREDICTED BY IDOCK:   -8.58 KCAL/MOL
REMARK 923 INTER-LIGAND FREE ENERGY PREDICTED BY IDOCK:   -6.44 KCAL/MOL
REMARK 924 INTRA-LIGAND FREE ENERGY PREDICTED BY IDOCK:   -2.14 KCAL/MOL
REMARK 927      BINDING AFFINITY PREDICTED BY RF-SCORE:    0.00 PKD
ROOT
HETATM    1  C   UNL     1     -12.009  13.815  68.274  1.00  0.00    -0.392 C  
HETATM    2  C   UNL     1     -10.848  12.814  68.267  1.00  0.00    -0.248 C  
ENDROOT
BRANCH   2   3
HETATM    3  C   UNL     1     -11.321  11.493  68.915  1.00  0.00    -0.331 C  
BRANCH   3   4
HETATM    4  C   UNL     1     -10.201  10.722  69.624  1.00  0.00    -0.099 C  
BRANCH   4   5
HETATM    5  C   UNL     1     -10.746   9.772  70.667  1.00  0.00    -0.394 A  
HETATM    6  C   UNL     1      -9.895   8.906  71.366  1.00  0.00    -0.376 A  
HETATM    7  C   UNL     1     -10.407   8.032  72.327  1.00  0.00    -0.336 A  
HETATM    8  C   UNL     1     -12.117   9.756  70.961  1.00  0.00    -0.434 A  
HETATM    9  C   UNL     1     -11.774   8.018  72.604  1.00  0.00    -0.418 A  
HETATM   10  C   UNL     1     -12.628   8.882  71.922  1.00  0.00    -0.439 A  
ENDBRANCH   4   5
ENDBRANCH   3   4
ENDBRANCH   2   3
BRANCH   2  11
HETATM   11  N   UNL     1     -10.340  12.552  66.915  1.00  0.00    -0.228 NA 
HETATM   12  H   UNL     1      -9.363  12.262  66.949  1.00  0.00     0.000 HD 
BRANCH  11  13
HETATM   13  C   UNL     1     -11.140  11.582  66.153  1.00  0.00    -0.244 C  
BRANCH  13  14
HETATM   14  C   UNL     1     -10.247  10.582  65.371  1.00  0.00    -0.270 C  
HETATM   15  H   UNL     1      -8.689  10.703  64.186  1.00  0.00     0.000 HD 
HETATM   16  O   UNL     1      -9.235  11.315  64.665  1.00  0.00    -0.176 OA 
BRANCH  14  17
HETATM   17  C   UNL     1      -9.628   9.530  66.284  1.00  0.00    -0.287 A  
HETATM   18  C   UNL     1      -9.776   7.464  67.605  1.00  0.00    -0.178 A  
HETATM   19  H   UNL     1      -6.985   7.054  69.330  1.00  0.00     0.000 HD 
HETATM   20  C   UNL     1      -8.476   7.687  68.071  1.00  0.00    -0.123 A  
HETATM   21  C   UNL     1      -7.740   8.783  67.632  1.00  0.00    -0.101 A  
HETATM   22  O   UNL     1      -7.868   6.903  69.013  1.00  0.00    -0.107 OA 
HETATM   23  C   UNL     1      -8.319   9.708  66.759  1.00  0.00    -0.117 A  
HETATM   24  C   UNL     1     -10.341   8.394  66.713  1.00  0.00    -0.357 A  
BRANCH  18  25
HETATM   25  C   UNL     1     -10.627   6.312  68.022  1.00  0.00    -0.262 C  
HETATM   26  O   UNL     1     -10.714   5.292  67.349  1.00  0.00    -0.163 OA 
HETATM   27  H1  UNL     1     -11.894   5.621  69.488  1.00  0.00     0.000 HD 
HETATM   28  H2  UNL     1     -11.242   7.246  69.782  1.00  0.00     0.000 HD 
HETATM   29  N   UNL     1     -11.312   6.409  69.203  1.00  0.00    -0.354 N  
ENDBRANCH  18  25
ENDBRANCH  14  17
ENDBRANCH  13  14
ENDBRANCH  11  13
ENDBRANCH   2  11
TORSDOF 8
ENDMDL
MODEL      150
REMARK 921   NORMALIZED FREE ENERGY PREDICTED BY IDOCK:   -4.77 KCAL/MOL
REMARK 922        TOTAL FREE ENERGY PREDICTED BY IDOCK:   -8.56 KCAL/MOL
REMARK 923 INTER-LIGAND FREE ENERGY PREDICTED BY IDOCK:   -7.83 KCAL/MOL
REMARK 924 INTRA-LIGAND FREE ENERGY PREDICTED BY IDOCK:   -0.73 KCAL/MOL
REMARK 927      BINDING AFFINITY PREDICTED BY RF-SCORE:    0.00 PKD
ROOT
HETATM    1  C   UNL     1      -7.596  14.126  67.479  1.00  0.00    -0.200 C  
HETATM    2  C   UNL     1      -8.312  14.396  68.809  1.00  0.00    -0.126 C  
ENDROOT
BRANCH   2   3
HETATM    3  C   UNL     1      -8.324  15.920  69.071  1.00  0.00    -0.239 C  
BRANCH   3   4
HETATM    4  C   UNL     1      -9.720  16.547  68.982  1.00  0.00    -0.258 C  
BRANCH   4   5
HETATM    5  C   UNL     1      -9.689  17.890  68.289  1.00  0.00    -0.327 A  
HETATM    6  C   UNL     1     -10.767  18.320  67.503  1.00  0.00    -0.381 A  
HETATM    7  C   UNL     1     -10.730  19.561  66.866  1.00  0.00    -0.576 A  
HETATM    8  C   UNL     1      -8.580  18.736  68.435  1.00  0.00    -0.373 A  
HETATM    9  C   UNL     1      -9.618  20.390  67.011  1.00  0.00    -0.571 A  
HETATM   10  C   UNL     1      -8.544  19.978  67.798  1.00  0.00    -0.347 A  
ENDBRANCH   4   5
ENDBRANCH   3   4
ENDBRANCH   2   3
BRANCH   2  11
HETATM   11  N   UNL     1      -9.684  13.877  68.822  1.00  0.00    -0.388 NA 
HETATM   12  H   UNL     1     -10.357  14.641  68.752  1.00  0.00     0.000 HD 
BRANCH  11  13
HETATM   13  C   UNL     1      -9.950  12.860  67.795  1.00  0.00    -0.230 C  
BRANCH  13  14
HETATM   14  C   UNL     1     -11.246  12.059  68.093  1.00  0.00    -0.260 C  
HETATM   15  H   UNL     1     -12.863  11.565  67.099  1.00  0.00     0.000 HD 
HETATM   16  O   UNL     1     -12.070  12.054  66.918  1.00  0.00    -0.608 OA 
BRANCH  14  17
HETATM   17  C   UNL     1     -10.949  10.640  68.562  1.00  0.00    -0.296 A  
HETATM   18  C   UNL     1     -10.531   8.999  70.342  1.00  0.00    -0.254 A  
HETATM   19  H   UNL     1      -9.664   6.107  68.996  1.00  0.00     0.000 HD 
HETATM   20  C   UNL     1     -10.271   8.030  69.367  1.00  0.00    -0.210 A  
HETATM   21  C   UNL     1     -10.381   8.334  68.014  1.00  0.00    -0.268 A  
HETATM   22  O   UNL     1      -9.841   6.765  69.658  1.00  0.00    -0.164 OA 
HETATM   23  C   UNL     1     -10.699   9.635  67.614  1.00  0.00    -0.324 A  
HETATM   24  C   UNL     1     -10.867  10.301  69.926  1.00  0.00    -0.355 A  
BRANCH  18  25
HETATM   25  C   UNL     1     -10.441   8.753  71.811  1.00  0.00    -0.346 C  
HETATM   26  O   UNL     1      -9.384   8.853  72.422  1.00  0.00    -0.342 OA 
HETATM   27  H1  UNL     1     -11.527   8.254  73.486  1.00  0.00     0.000 HD 
HETATM   28  H2  UNL     1     -12.479   8.347  71.991  1.00  0.00     0.000 HD 
HETATM   29  N   UNL     1     -11.588   8.423  72.481  1.00  0.00    -0.381 N  
ENDBRANCH  18  25
ENDBRANCH  14  17
ENDBRANCH  13  14
ENDBRANCH  11  13
ENDBRANCH   2  11
TORSDOF 8
ENDMDL
MODEL      151
REMARK 921   NORMALIZED FREE ENERGY PREDICTED BY IDOCK:   -4.76 KCAL/MOL
REMARK 922        TOTAL FREE ENERGY PREDICTED BY IDOCK:   -8.54 KCAL/MOL
REMARK 923 INTER-LIGAND FREE ENERGY PREDICTED BY IDOCK:   -7.64 KCAL/MOL
REMARK 924 INTRA-LIGAND FREE ENERGY PREDICTED BY IDOCK:   -0.90 KCAL/MOL
REMARK 927      BINDING AFFINITY PREDICTED BY RF-SCORE:    0.00 PKD
ROOT
HETATM    1  C   UNL     1     -11.265  14.888  66.655  1.00  0.00    -0.340 C  
HETATM    2  C   UNL     1     -10.125  15.194  65.676  1.00  0.00    -0.363 C  
ENDROOT
BRANCH   2   3
HETATM    3  C   UNL     1      -8.822  15.416  66.477  1.00  0.00    -0.347 C  
BRANCH   3   4
HETATM    4  C   UNL     1      -9.036  16.139  67.811  1.00  0.00    -0.197 C  
BRANCH   4   5
HETATM    5  C   UNL     1      -9.171  17.634  67.625  1.00  0.00    -0.245 A  
HETATM    6  C   UNL     1      -8.443  18.304  66.632  1.00  0.00    -0.281 A  
HETATM    7  C   UNL     1      -8.573  19.684  66.467  1.00  0.00    -0.387 A  
HETATM    8  C   UNL     1     -10.042  18.372  68.438  1.00  0.00    -0.418 A  
HETATM    9  C   UNL     1      -9.435  20.409  67.289  1.00  0.00    -0.568 A  
HETATM   10  C   UNL     1     -10.171  19.752  68.273  1.00  0.00    -0.569 A  
ENDBRANCH   4   5
ENDBRANCH   3   4
ENDBRANCH   2   3
BRANCH   2  11
HETATM   11  N   UNL     1      -9.929  14.124  64.691  1.00  0.00    -0.647 NA 
HETATM   12  H   UNL     1      -9.291  13.416  65.053  1.00  0.00     0.000 HD 
BRANCH  11  13
HETATM   13  C   UNL     1     -11.178  13.503  64.227  1.00  0.00    -0.360 C  
BRANCH  13  14
HETATM   14  C   UNL     1     -11.021  11.973  64.015  1.00  0.00    -0.381 C  
HETATM   15  H   UNL     1      -9.983  10.808  62.826  1.00  0.00     0.000 HD 
HETATM   16  O   UNL     1     -10.079  11.745  62.957  1.00  0.00    -0.384 OA 
BRANCH  14  17
HETATM   17  C   UNL     1     -10.599  11.257  65.292  1.00  0.00    -0.323 A  
HETATM   18  C   UNL     1      -9.238   9.595  66.485  1.00  0.00    -0.197 A  
HETATM   19  H   UNL     1     -10.255   9.382  69.623  1.00  0.00     0.000 HD 
HETATM   20  C   UNL     1      -9.949   9.876  67.656  1.00  0.00    -0.171 A  
HETATM   21  C   UNL     1     -10.940  10.852  67.671  1.00  0.00    -0.350 A  
HETATM   22  O   UNL     1      -9.773   9.191  68.827  1.00  0.00    -0.157 OA 
HETATM   23  C   UNL     1     -11.276  11.524  66.492  1.00  0.00    -0.324 A  
HETATM   24  C   UNL     1      -9.574  10.291  65.309  1.00  0.00    -0.324 A  
BRANCH  18  25
HETATM   25  C   UNL     1      -8.159   8.569  66.387  1.00  0.00    -0.103 C  
HETATM   26  O   UNL     1      -8.344   7.480  65.859  1.00  0.00    -0.125 OA 
HETATM   27  H1  UNL     1      -6.187   8.179  66.828  1.00  0.00     0.000 HD 
HETATM   28  H2  UNL     1      -6.750   9.787  67.327  1.00  0.00     0.000 HD 
HETATM   29  N   UNL     1      -6.926   8.880  66.894  1.00  0.00    -0.077 N  
ENDBRANCH  18  25
ENDBRANCH  14  17
ENDBRANCH  13  14
ENDBRANCH  11  13
ENDBRANCH   2  11
TORSDOF 8
ENDMDL
MODEL      152
REMARK 921   NORMALIZED FREE ENERGY PREDICTED BY IDOCK:   -4.76 KCAL/MOL
REMARK 922        TOTAL FREE ENERGY PREDICTED BY IDOCK:   -8.54 KCAL/MOL
REMARK 923 INTER-LIGAND FREE ENERGY PREDICTED BY IDOCK:   -7.61 KCAL/MOL
REMARK 924 INTRA-LIGAND FREE ENERGY PREDICTED BY IDOCK:   -0.93 KCAL/MOL
REMARK 927      BINDING AFFINITY PREDICTED BY RF-SCORE:    0.00 PKD
ROOT
HETATM    1  C   UNL     1      -8.503   9.153  67.243  1.00  0.00    -0.121 C  
HETATM    2  C   UNL     1      -9.961   9.156  66.765  1.00  0.00    -0.254 C  
ENDROOT
BRANCH   2   3
HETATM    3  C   UNL     1     -10.887   8.902  67.976  1.00  0.00    -0.079 C  
BRANCH   3   4
HETATM    4  C   UNL     1     -10.318   9.418  69.303  1.00  0.00    -0.217 C  
BRANCH   4   5
HETATM    5  C   UNL     1     -11.309  10.292  70.037  1.00  0.00    -0.370 A  
HETATM    6  C   UNL     1     -12.126   9.764  71.046  1.00  0.00    -0.434 A  
HETATM    7  C   UNL     1     -13.039  10.578  71.718  1.00  0.00    -0.570 A  
HETATM    8  C   UNL     1     -11.416  11.656  69.727  1.00  0.00    -0.339 A  
HETATM    9  C   UNL     1     -13.143  11.930  71.395  1.00  0.00    -0.303 A  
HETATM   10  C   UNL     1     -12.329  12.469  70.400  1.00  0.00    -0.311 A  
ENDBRANCH   4   5
ENDBRANCH   3   4
ENDBRANCH   2   3
BRANCH   2  11
HETATM   11  N   UNL     1     -10.333  10.414  66.108  1.00  0.00    -0.228 NA 
HETATM   12  H   UNL     1     -11.089  10.873  66.615  1.00  0.00     0.000 HD 
BRANCH  11  13
HETATM   13  C   UNL     1      -9.209  11.340  65.909  1.00  0.00    -0.212 C  
BRANCH  13  14
HETATM   14  C   UNL     1      -9.256  12.532  66.903  1.00  0.00    -0.211 C  
HETATM   15  H   UNL     1      -7.982  13.438  68.087  1.00  0.00     0.000 HD 
HETATM   16  O   UNL     1      -7.953  12.709  67.478  1.00  0.00    -0.152 OA 
BRANCH  14  17
HETATM   17  C   UNL     1      -9.744  13.814  66.239  1.00  0.00    -0.297 A  
HETATM   18  C   UNL     1      -9.727  16.258  65.995  1.00  0.00    -0.370 A  
HETATM   19  H   UNL     1     -12.112  17.175  63.898  1.00  0.00     0.000 HD 
HETATM   20  C   UNL     1     -10.773  16.158  65.071  1.00  0.00    -0.337 A  
HETATM   21  C   UNL     1     -11.278  14.917  64.700  1.00  0.00    -0.349 A  
HETATM   22  O   UNL     1     -11.402  17.243  64.525  1.00  0.00    -1.007 OA 
HETATM   23  C   UNL     1     -10.780  13.753  65.294  1.00  0.00    -0.345 A  
HETATM   24  C   UNL     1      -9.223  15.078  66.573  1.00  0.00    -0.320 A  
BRANCH  18  25
HETATM   25  C   UNL     1      -9.126  17.549  66.441  1.00  0.00    -0.240 C  
HETATM   26  O   UNL     1      -9.752  18.358  67.115  1.00  0.00    -0.285 OA 
HETATM   27  H1  UNL     1      -7.418  18.695  66.395  1.00  0.00     0.000 HD 
HETATM   28  H2  UNL     1      -7.289  17.145  65.540  1.00  0.00     0.000 HD 
HETATM   29  N   UNL     1      -7.829  17.812  66.091  1.00  0.00    -0.254 N  
ENDBRANCH  18  25
ENDBRANCH  14  17
ENDBRANCH  13  14
ENDBRANCH  11  13
ENDBRANCH   2  11
TORSDOF 8
ENDMDL
MODEL      153
REMARK 921   NORMALIZED FREE ENERGY PREDICTED BY IDOCK:   -4.75 KCAL/MOL
REMARK 922        TOTAL FREE ENERGY PREDICTED BY IDOCK:   -8.53 KCAL/MOL
REMARK 923 INTER-LIGAND FREE ENERGY PREDICTED BY IDOCK:   -7.67 KCAL/MOL
REMARK 924 INTRA-LIGAND FREE ENERGY PREDICTED BY IDOCK:   -0.86 KCAL/MOL
REMARK 927      BINDING AFFINITY PREDICTED BY RF-SCORE:    0.00 PKD
ROOT
HETATM    1  C   UNL     1     -11.299  16.341  69.361  1.00  0.00    -0.284 C  
HETATM    2  C   UNL     1     -11.066  15.915  67.906  1.00  0.00    -0.317 C  
ENDROOT
BRANCH   2   3
HETATM    3  C   UNL     1     -10.473  17.107  67.122  1.00  0.00    -0.291 C  
BRANCH   3   4
HETATM    4  C   UNL     1     -10.376  18.396  67.946  1.00  0.00    -0.425 C  
BRANCH   4   5
HETATM    5  C   UNL     1      -8.996  19.009  67.871  1.00  0.00    -0.338 A  
HETATM    6  C   UNL     1      -7.870  18.304  68.316  1.00  0.00    -0.310 A  
HETATM    7  C   UNL     1      -6.600  18.878  68.243  1.00  0.00    -0.253 A  
HETATM    8  C   UNL     1      -8.821  20.294  67.336  1.00  0.00    -0.442 A  
HETATM    9  C   UNL     1      -6.439  20.161  67.719  1.00  0.00    -0.275 A  
HETATM   10  C   UNL     1      -7.551  20.867  67.264  1.00  0.00    -0.312 A  
ENDBRANCH   4   5
ENDBRANCH   3   4
ENDBRANCH   2   3
BRANCH   2  11
HETATM   11  N   UNL     1     -10.174  14.754  67.799  1.00  0.00    -0.231 NA 
HETATM   12  H   UNL     1     -10.126  14.255  68.687  1.00  0.00     0.000 HD 
BRANCH  11  13
HETATM   13  C   UNL     1     -10.521  13.832  66.708  1.00  0.00    -0.270 C  
BRANCH  13  14
HETATM   14  C   UNL     1     -11.795  13.005  67.030  1.00  0.00    -0.377 C  
HETATM   15  H   UNL     1     -13.140  12.019  65.999  1.00  0.00     0.000 HD 
HETATM   16  O   UNL     1     -12.361  12.524  65.802  1.00  0.00    -0.627 OA 
BRANCH  14  17
HETATM   17  C   UNL     1     -11.506  11.857  67.989  1.00  0.00    -0.389 A  
HETATM   18  C   UNL     1     -10.735   9.570  68.447  1.00  0.00    -0.230 A  
HETATM   19  H   UNL     1     -11.307   8.824  71.616  1.00  0.00     0.000 HD 
HETATM   20  C   UNL     1     -11.113   9.726  69.784  1.00  0.00    -0.237 A  
HETATM   21  C   UNL     1     -11.641  10.929  70.239  1.00  0.00    -0.426 A  
HETATM   22  O   UNL     1     -11.051   8.718  70.707  1.00  0.00    -0.245 OA 
HETATM   23  C   UNL     1     -11.854  11.981  69.344  1.00  0.00    -0.384 A  
HETATM   24  C   UNL     1     -10.939  10.643  67.559  1.00  0.00    -0.371 A  
BRANCH  18  25
HETATM   25  C   UNL     1     -10.156   8.315  67.882  1.00  0.00    -0.202 C  
HETATM   26  O   UNL     1     -10.843   7.494  67.288  1.00  0.00    -0.299 OA 
HETATM   27  H1  UNL     1      -8.416   7.245  67.642  1.00  0.00     0.000 HD 
HETATM   28  H2  UNL     1      -8.222   8.782  68.509  1.00  0.00     0.000 HD 
HETATM   29  N   UNL     1      -8.812   8.103  68.028  1.00  0.00    -0.132 N  
ENDBRANCH  18  25
ENDBRANCH  14  17
ENDBRANCH  13  14
ENDBRANCH  11  13
ENDBRANCH   2  11
TORSDOF 8
ENDMDL
MODEL      154
REMARK 921   NORMALIZED FREE ENERGY PREDICTED BY IDOCK:   -4.74 KCAL/MOL
REMARK 922        TOTAL FREE ENERGY PREDICTED BY IDOCK:   -8.52 KCAL/MOL
REMARK 923 INTER-LIGAND FREE ENERGY PREDICTED BY IDOCK:   -7.74 KCAL/MOL
REMARK 924 INTRA-LIGAND FREE ENERGY PREDICTED BY IDOCK:   -0.78 KCAL/MOL
REMARK 927      BINDING AFFINITY PREDICTED BY RF-SCORE:    0.00 PKD
ROOT
HETATM    1  C   UNL     1     -10.492   5.914  66.787  1.00  0.00    -0.344 C  
HETATM    2  C   UNL     1     -10.989   7.032  67.712  1.00  0.00    -0.164 C  
ENDROOT
BRANCH   2   3
HETATM    3  C   UNL     1     -10.441   6.785  69.136  1.00  0.00    -0.240 C  
BRANCH   3   4
HETATM    4  C   UNL     1     -11.486   6.224  70.108  1.00  0.00    -0.452 C  
BRANCH   4   5
HETATM    5  C   UNL     1     -11.044   6.357  71.547  1.00  0.00    -0.322 A  
HETATM    6  C   UNL     1     -11.223   5.305  72.455  1.00  0.00    -0.272 A  
HETATM    7  C   UNL     1     -10.812   5.437  73.783  1.00  0.00    -0.282 A  
HETATM    8  C   UNL     1     -10.431   7.537  71.992  1.00  0.00    -0.245 A  
HETATM    9  C   UNL     1     -10.213   6.619  74.217  1.00  0.00    -0.354 A  
HETATM   10  C   UNL     1     -10.021   7.668  73.320  1.00  0.00    -0.379 A  
ENDBRANCH   4   5
ENDBRANCH   3   4
ENDBRANCH   2   3
BRANCH   2  11
HETATM   11  N   UNL     1     -10.589   8.365  67.248  1.00  0.00    -0.418 NA 
HETATM   12  H   UNL     1     -11.361   8.823  66.764  1.00  0.00     0.000 HD 
BRANCH  11  13
HETATM   13  C   UNL     1     -10.058   9.233  68.308  1.00  0.00    -0.185 C  
BRANCH  13  14
HETATM   14  C   UNL     1     -11.047  10.373  68.674  1.00  0.00    -0.262 C  
HETATM   15  H   UNL     1     -11.545  11.345  70.303  1.00  0.00     0.000 HD 
HETATM   16  O   UNL     1     -10.940  10.648  70.079  1.00  0.00    -0.282 OA 
BRANCH  14  17
HETATM   17  C   UNL     1     -10.806  11.630  67.847  1.00  0.00    -0.255 A  
HETATM   18  C   UNL     1     -11.179  12.996  65.840  1.00  0.00    -0.315 A  
HETATM   19  H   UNL     1      -9.157  15.611  65.892  1.00  0.00     0.000 HD 
HETATM   20  C   UNL     1     -10.224  13.908  66.302  1.00  0.00    -0.297 A  
HETATM   21  C   UNL     1      -9.593  13.720  67.527  1.00  0.00    -0.219 A  
HETATM   22  O   UNL     1      -9.805  14.991  65.579  1.00  0.00    -0.340 OA 
HETATM   23  C   UNL     1      -9.868  12.578  68.285  1.00  0.00    -0.227 A  
HETATM   24  C   UNL     1     -11.459  11.860  66.622  1.00  0.00    -0.382 A  
BRANCH  18  25
HETATM   25  C   UNL     1     -11.903  13.129  64.542  1.00  0.00    -0.377 C  
HETATM   26  O   UNL     1     -12.662  14.063  64.316  1.00  0.00    -0.661 OA 
HETATM   27  H1  UNL     1     -12.184  12.268  62.695  1.00  0.00     0.000 HD 
HETATM   28  H2  UNL     1     -11.051  11.398  63.749  1.00  0.00     0.000 HD 
HETATM   29  N   UNL     1     -11.688  12.177  63.582  1.00  0.00    -0.466 N  
ENDBRANCH  18  25
ENDBRANCH  14  17
ENDBRANCH  13  14
ENDBRANCH  11  13
ENDBRANCH   2  11
TORSDOF 8
ENDMDL
MODEL      155
REMARK 921   NORMALIZED FREE ENERGY PREDICTED BY IDOCK:   -4.71 KCAL/MOL
REMARK 922        TOTAL FREE ENERGY PREDICTED BY IDOCK:   -8.47 KCAL/MOL
REMARK 923 INTER-LIGAND FREE ENERGY PREDICTED BY IDOCK:   -7.48 KCAL/MOL
REMARK 924 INTRA-LIGAND FREE ENERGY PREDICTED BY IDOCK:   -0.99 KCAL/MOL
REMARK 927      BINDING AFFINITY PREDICTED BY RF-SCORE:    0.00 PKD
ROOT
HETATM    1  C   UNL     1     -10.167  10.019  69.928  1.00  0.00    -0.304 C  
HETATM    2  C   UNL     1     -11.359   9.977  68.965  1.00  0.00    -0.084 C  
ENDROOT
BRANCH   2   3
HETATM    3  C   UNL     1     -11.652  11.411  68.466  1.00  0.00    -0.384 C  
BRANCH   3   4
HETATM    4  C   UNL     1     -11.009  12.503  69.327  1.00  0.00    -0.138 C  
BRANCH   4   5
HETATM    5  C   UNL     1     -12.017  13.168  70.237  1.00  0.00    -0.366 A  
HETATM    6  C   UNL     1     -12.658  12.444  71.251  1.00  0.00    -0.332 A  
HETATM    7  C   UNL     1     -13.588  13.065  72.086  1.00  0.00    -0.618 A  
HETATM    8  C   UNL     1     -12.314  14.530  70.088  1.00  0.00    -0.398 A  
HETATM    9  C   UNL     1     -13.883  14.418  71.922  1.00  0.00    -0.549 A  
HETATM   10  C   UNL     1     -13.244  15.151  70.924  1.00  0.00    -0.488 A  
ENDBRANCH   4   5
ENDBRANCH   3   4
ENDBRANCH   2   3
BRANCH   2  11
HETATM   11  N   UNL     1     -11.126   9.089  67.820  1.00  0.00    -0.456 NA 
HETATM   12  H   UNL     1     -10.758   9.614  67.028  1.00  0.00     0.000 HD 
BRANCH  11  13
HETATM   13  C   UNL     1     -10.262   7.939  68.122  1.00  0.00    -0.205 C  
BRANCH  13  14
HETATM   14  C   UNL     1     -11.083   6.645  68.369  1.00  0.00    -0.198 C  
HETATM   15  H   UNL     1     -11.092   4.818  67.656  1.00  0.00     0.000 HD 
HETATM   16  O   UNL     1     -10.590   5.610  67.506  1.00  0.00    -0.233 OA 
BRANCH  14  17
HETATM   17  C   UNL     1     -11.043   6.209  69.829  1.00  0.00    -0.486 A  
HETATM   18  C   UNL     1     -10.164   4.795  71.635  1.00  0.00    -0.249 A  
HETATM   19  H   UNL     1     -11.908   5.318  74.395  1.00  0.00     0.000 HD 
HETATM   20  C   UNL     1     -11.102   5.355  72.509  1.00  0.00    -0.253 A  
HETATM   21  C   UNL     1     -11.972   6.350  72.078  1.00  0.00    -0.375 A  
HETATM   22  O   UNL     1     -11.271   4.937  73.801  1.00  0.00    -0.296 OA 
HETATM   23  C   UNL     1     -11.955   6.761  70.741  1.00  0.00    -0.433 A  
HETATM   24  C   UNL     1     -10.146   5.230  70.297  1.00  0.00    -0.329 A  
BRANCH  18  25
HETATM   25  C   UNL     1      -9.193   3.729  72.021  1.00  0.00    -0.121 C  
HETATM   26  O   UNL     1      -9.418   2.543  71.819  1.00  0.00    -0.104 OA 
HETATM   27  H1  UNL     1      -7.349   3.383  72.865  1.00  0.00     0.000 HD 
HETATM   28  H2  UNL     1      -7.804   5.095  72.765  1.00  0.00     0.000 HD 
HETATM   29  N   UNL     1      -8.013   4.111  72.601  1.00  0.00    -0.083 N  
ENDBRANCH  18  25
ENDBRANCH  14  17
ENDBRANCH  13  14
ENDBRANCH  11  13
ENDBRANCH   2  11
TORSDOF 8
ENDMDL
MODEL      156
REMARK 921   NORMALIZED FREE ENERGY PREDICTED BY IDOCK:   -4.70 KCAL/MOL
REMARK 922        TOTAL FREE ENERGY PREDICTED BY IDOCK:   -8.45 KCAL/MOL
REMARK 923 INTER-LIGAND FREE ENERGY PREDICTED BY IDOCK:   -7.44 KCAL/MOL
REMARK 924 INTRA-LIGAND FREE ENERGY PREDICTED BY IDOCK:   -1.02 KCAL/MOL
REMARK 927      BINDING AFFINITY PREDICTED BY RF-SCORE:    0.00 PKD
ROOT
HETATM    1  C   UNL     1     -11.812  15.004  71.622  1.00  0.00    -0.441 C  
HETATM    2  C   UNL     1     -12.659  14.004  70.826  1.00  0.00    -0.360 C  
ENDROOT
BRANCH   2   3
HETATM    3  C   UNL     1     -11.891  13.602  69.546  1.00  0.00    -0.394 C  
BRANCH   3   4
HETATM    4  C   UNL     1     -11.868  14.698  68.474  1.00  0.00    -0.346 C  
BRANCH   4   5
HETATM    5  C   UNL     1     -11.559  14.137  67.104  1.00  0.00    -0.400 A  
HETATM    6  C   UNL     1     -11.902  12.820  66.772  1.00  0.00    -0.452 A  
HETATM    7  C   UNL     1     -11.612  12.310  65.505  1.00  0.00    -0.422 A  
HETATM    8  C   UNL     1     -10.936  14.938  66.137  1.00  0.00    -0.334 A  
HETATM    9  C   UNL     1     -10.983  13.113  64.554  1.00  0.00    -0.392 A  
HETATM   10  C   UNL     1     -10.646  14.428  64.870  1.00  0.00    -0.456 A  
ENDBRANCH   4   5
ENDBRANCH   3   4
ENDBRANCH   2   3
BRANCH   2  11
HETATM   11  N   UNL     1     -12.992  12.806  71.605  1.00  0.00    -0.352 NA 
HETATM   12  H   UNL     1     -13.943  12.867  71.968  1.00  0.00     0.000 HD 
BRANCH  11  13
HETATM   13  C   UNL     1     -12.800  11.545  70.874  1.00  0.00    -0.201 C  
BRANCH  13  14
HETATM   14  C   UNL     1     -12.481  10.363  71.829  1.00  0.00    -0.302 C  
HETATM   15  H   UNL     1     -13.467   8.839  72.572  1.00  0.00     0.000 HD 
HETATM   16  O   UNL     1     -13.661   9.562  71.988  1.00  0.00    -0.395 OA 
BRANCH  14  17
HETATM   17  C   UNL     1     -11.310   9.524  71.333  1.00  0.00    -0.462 A  
HETATM   18  C   UNL     1      -9.422   9.144  69.808  1.00  0.00    -0.191 A  
HETATM   19  H   UNL     1      -8.204   6.109  70.294  1.00  0.00     0.000 HD 
HETATM   20  C   UNL     1      -9.240   7.877  70.373  1.00  0.00    -0.158 A  
HETATM   21  C   UNL     1     -10.043   7.444  71.422  1.00  0.00    -0.196 A  
HETATM   22  O   UNL     1      -8.327   6.969  69.910  1.00  0.00    -0.135 OA 
HETATM   23  C   UNL     1     -11.083   8.254  71.887  1.00  0.00    -0.357 A  
HETATM   24  C   UNL     1     -10.461   9.957  70.296  1.00  0.00    -0.348 A  
BRANCH  18  25
HETATM   25  C   UNL     1      -8.601   9.684  68.685  1.00  0.00    -0.120 C  
HETATM   26  O   UNL     1      -8.902   9.499  67.513  1.00  0.00    -0.125 OA 
HETATM   27  H1  UNL     1      -6.928  10.791  68.228  1.00  0.00     0.000 HD 
HETATM   28  H2  UNL     1      -7.230  10.597  69.966  1.00  0.00     0.000 HD 
HETATM   29  N   UNL     1      -7.490  10.422  68.995  1.00  0.00    -0.096 N  
ENDBRANCH  18  25
ENDBRANCH  14  17
ENDBRANCH  13  14
ENDBRANCH  11  13
ENDBRANCH   2  11
TORSDOF 8
ENDMDL
MODEL      157
REMARK 921   NORMALIZED FREE ENERGY PREDICTED BY IDOCK:   -4.70 KCAL/MOL
REMARK 922        TOTAL FREE ENERGY PREDICTED BY IDOCK:   -8.45 KCAL/MOL
REMARK 923 INTER-LIGAND FREE ENERGY PREDICTED BY IDOCK:   -7.62 KCAL/MOL
REMARK 924 INTRA-LIGAND FREE ENERGY PREDICTED BY IDOCK:   -0.83 KCAL/MOL
REMARK 927      BINDING AFFINITY PREDICTED BY RF-SCORE:    0.00 PKD
ROOT
HETATM    1  C   UNL     1     -12.973  11.753  71.541  1.00  0.00    -0.446 C  
HETATM    2  C   UNL     1     -11.852  12.030  70.532  1.00  0.00    -0.121 C  
ENDROOT
BRANCH   2   3
HETATM    3  C   UNL     1     -11.487  10.711  69.813  1.00  0.00    -0.375 C  
BRANCH   3   4
HETATM    4  C   UNL     1     -11.443   9.495  70.746  1.00  0.00    -0.378 C  
BRANCH   4   5
HETATM    5  C   UNL     1     -10.024   9.098  71.085  1.00  0.00    -0.377 A  
HETATM    6  C   UNL     1      -8.954   9.480  70.266  1.00  0.00    -0.288 A  
HETATM    7  C   UNL     1      -7.648   9.108  70.586  1.00  0.00    -0.143 A  
HETATM    8  C   UNL     1      -9.757   8.349  72.241  1.00  0.00    -0.386 A  
HETATM    9  C   UNL     1      -7.395   8.355  71.733  1.00  0.00    -0.117 A  
HETATM   10  C   UNL     1      -8.450   7.978  72.561  1.00  0.00    -0.217 A  
ENDBRANCH   4   5
ENDBRANCH   3   4
ENDBRANCH   2   3
BRANCH   2  11
HETATM   11  N   UNL     1     -12.225  13.049  69.544  1.00  0.00    -0.203 NA 
HETATM   12  H   UNL     1     -13.196  13.333  69.672  1.00  0.00     0.000 HD 
BRANCH  11  13
HETATM   13  C   UNL     1     -11.341  14.223  69.533  1.00  0.00    -0.269 C  
BRANCH  13  14
HETATM   14  C   UNL     1     -10.418  14.244  68.285  1.00  0.00    -0.247 C  
HETATM   15  H   UNL     1      -8.614  13.612  67.848  1.00  0.00     0.000 HD 
HETATM   16  O   UNL     1      -9.179  13.599  68.612  1.00  0.00    -0.154 OA 
BRANCH  14  17
HETATM   17  C   UNL     1     -11.076  13.592  67.074  1.00  0.00    -0.313 A  
HETATM   18  C   UNL     1     -11.075  11.965  65.235  1.00  0.00    -0.354 A  
HETATM   19  H   UNL     1     -13.697  12.493  63.292  1.00  0.00     0.000 HD 
HETATM   20  C   UNL     1     -12.275  12.513  64.769  1.00  0.00    -0.465 A  
HETATM   21  C   UNL     1     -12.895  13.553  65.453  1.00  0.00    -0.420 A  
HETATM   22  O   UNL     1     -12.882  12.121  63.608  1.00  0.00    -0.746 OA 
HETATM   23  C   UNL     1     -12.290  14.102  66.587  1.00  0.00    -0.375 A  
HETATM   24  C   UNL     1     -10.485  12.515  66.387  1.00  0.00    -0.269 A  
BRANCH  18  25
HETATM   25  C   UNL     1     -10.351  10.846  64.563  1.00  0.00    -0.348 C  
HETATM   26  O   UNL     1     -10.142   9.778  65.126  1.00  0.00    -0.262 OA 
HETATM   27  H1  UNL     1      -9.436  10.266  62.815  1.00  0.00     0.000 HD 
HETATM   28  H2  UNL     1     -10.107  11.908  62.785  1.00  0.00     0.000 HD 
HETATM   29  N   UNL     1      -9.931  11.031  63.274  1.00  0.00    -0.350 N  
ENDBRANCH  18  25
ENDBRANCH  14  17
ENDBRANCH  13  14
ENDBRANCH  11  13
ENDBRANCH   2  11
TORSDOF 8
ENDMDL
MODEL      158
REMARK 921   NORMALIZED FREE ENERGY PREDICTED BY IDOCK:   -4.69 KCAL/MOL
REMARK 922        TOTAL FREE ENERGY PREDICTED BY IDOCK:   -8.44 KCAL/MOL
REMARK 923 INTER-LIGAND FREE ENERGY PREDICTED BY IDOCK:   -7.01 KCAL/MOL
REMARK 924 INTRA-LIGAND FREE ENERGY PREDICTED BY IDOCK:   -1.44 KCAL/MOL
REMARK 927      BINDING AFFINITY PREDICTED BY RF-SCORE:    0.00 PKD
ROOT
HETATM    1  C   UNL     1      -7.740  10.016  63.774  1.00  0.00    -0.148 C  
HETATM    2  C   UNL     1      -8.560   9.849  65.059  1.00  0.00    -0.161 C  
ENDROOT
BRANCH   2   3
HETATM    3  C   UNL     1     -10.031  10.225  64.769  1.00  0.00    -0.392 C  
BRANCH   3   4
HETATM    4  C   UNL     1     -10.191  11.577  64.065  1.00  0.00    -0.394 C  
BRANCH   4   5
HETATM    5  C   UNL     1     -10.765  12.627  64.989  1.00  0.00    -0.321 A  
HETATM    6  C   UNL     1     -12.133  12.934  64.968  1.00  0.00    -0.480 A  
HETATM    7  C   UNL     1     -12.655  13.905  65.824  1.00  0.00    -0.533 A  
HETATM    8  C   UNL     1      -9.936  13.302  65.895  1.00  0.00    -0.280 A  
HETATM    9  C   UNL     1     -11.818  14.577  66.715  1.00  0.00    -0.390 A  
HETATM   10  C   UNL     1     -10.458  14.273  66.751  1.00  0.00    -0.273 A  
ENDBRANCH   4   5
ENDBRANCH   3   4
ENDBRANCH   2   3
BRANCH   2  11
HETATM   11  N   UNL     1      -8.491   8.484  65.595  1.00  0.00    -0.146 NA 
HETATM   12  H   UNL     1      -7.581   8.312  66.022  1.00  0.00     0.000 HD 
BRANCH  11  13
HETATM   13  C   UNL     1      -9.572   8.155  66.535  1.00  0.00    -0.234 C  
BRANCH  13  14
HETATM   14  C   UNL     1      -9.095   8.216  68.012  1.00  0.00    -0.133 C  
HETATM   15  H   UNL     1      -7.418   8.628  68.941  1.00  0.00     0.000 HD 
HETATM   16  O   UNL     1      -7.711   8.591  68.038  1.00  0.00    -0.100 OA 
BRANCH  14  17
HETATM   17  C   UNL     1      -9.940   9.169  68.849  1.00  0.00    -0.189 A  
HETATM   18  C   UNL     1     -11.351   9.654  70.800  1.00  0.00    -0.409 A  
HETATM   19  H   UNL     1     -12.626  12.691  70.513  1.00  0.00     0.000 HD 
HETATM   20  C   UNL     1     -11.595  10.932  70.287  1.00  0.00    -0.334 A  
HETATM   21  C   UNL     1     -11.001  11.349  69.100  1.00  0.00    -0.289 A  
HETATM   22  O   UNL     1     -12.460  11.823  70.862  1.00  0.00    -0.372 OA 
HETATM   23  C   UNL     1     -10.194  10.466  68.376  1.00  0.00    -0.186 A  
HETATM   24  C   UNL     1     -10.522   8.782  70.070  1.00  0.00    -0.222 A  
BRANCH  18  25
HETATM   25  C   UNL     1     -11.943   9.134  72.067  1.00  0.00    -0.350 C  
HETATM   26  O   UNL     1     -13.088   9.406  72.407  1.00  0.00    -0.416 OA 
HETATM   27  H1  UNL     1     -11.580   7.961  73.718  1.00  0.00     0.000 HD 
HETATM   28  H2  UNL     1     -10.224   8.070  72.578  1.00  0.00     0.000 HD 
HETATM   29  N   UNL     1     -11.175   8.317  72.851  1.00  0.00    -0.256 N  
ENDBRANCH  18  25
ENDBRANCH  14  17
ENDBRANCH  13  14
ENDBRANCH  11  13
ENDBRANCH   2  11
TORSDOF 8
ENDMDL
MODEL      159
REMARK 921   NORMALIZED FREE ENERGY PREDICTED BY IDOCK:   -4.69 KCAL/MOL
REMARK 922        TOTAL FREE ENERGY PREDICTED BY IDOCK:   -8.44 KCAL/MOL
REMARK 923 INTER-LIGAND FREE ENERGY PREDICTED BY IDOCK:   -7.62 KCAL/MOL
REMARK 924 INTRA-LIGAND FREE ENERGY PREDICTED BY IDOCK:   -0.82 KCAL/MOL
REMARK 927      BINDING AFFINITY PREDICTED BY RF-SCORE:    0.00 PKD
ROOT
HETATM    1  C   UNL     1     -12.075  13.765  69.250  1.00  0.00    -0.374 C  
HETATM    2  C   UNL     1     -11.450  12.596  68.479  1.00  0.00    -0.311 C  
ENDROOT
BRANCH   2   3
HETATM    3  C   UNL     1     -12.020  11.269  69.029  1.00  0.00    -0.393 C  
BRANCH   3   4
HETATM    4  C   UNL     1     -11.589  10.967  70.469  1.00  0.00    -0.397 C  
BRANCH   4   5
HETATM    5  C   UNL     1     -12.037   9.592  70.912  1.00  0.00    -0.383 A  
HETATM    6  C   UNL     1     -13.335   9.379  71.395  1.00  0.00    -0.417 A  
HETATM    7  C   UNL     1     -13.740   8.107  71.803  1.00  0.00    -0.422 A  
HETATM    8  C   UNL     1     -11.159   8.502  70.831  1.00  0.00    -0.295 A  
HETATM    9  C   UNL     1     -12.854   7.032  71.727  1.00  0.00    -0.365 A  
HETATM   10  C   UNL     1     -11.564   7.230  71.239  1.00  0.00    -0.316 A  
ENDBRANCH   4   5
ENDBRANCH   3   4
ENDBRANCH   2   3
BRANCH   2  11
HETATM   11  N   UNL     1     -11.694  12.683  67.034  1.00  0.00    -0.363 NA 
HETATM   12  H   UNL     1     -12.165  13.556  66.802  1.00  0.00     0.000 HD 
BRANCH  11  13
HETATM   13  C   UNL     1     -10.486  12.515  66.213  1.00  0.00    -0.246 C  
BRANCH  13  14
HETATM   14  C   UNL     1     -10.358  13.626  65.135  1.00  0.00    -0.364 C  
HETATM   15  H   UNL     1     -11.536  14.437  63.792  1.00  0.00     0.000 HD 
HETATM   16  O   UNL     1     -11.614  13.757  64.452  1.00  0.00    -0.380 OA 
BRANCH  14  17
HETATM   17  C   UNL     1      -9.914  14.956  65.732  1.00  0.00    -0.376 A  
HETATM   18  C   UNL     1      -8.462  16.282  67.204  1.00  0.00    -0.213 A  
HETATM   19  H   UNL     1      -9.535  19.408  67.288  1.00  0.00     0.000 HD 
HETATM   20  C   UNL     1      -9.220  17.419  66.902  1.00  0.00    -0.256 A  
HETATM   21  C   UNL     1     -10.281  17.350  66.005  1.00  0.00    -0.308 A  
HETATM   22  O   UNL     1      -9.021  18.636  67.493  1.00  0.00    -0.273 OA 
HETATM   23  C   UNL     1     -10.638  16.122  65.439  1.00  0.00    -0.399 A  
HETATM   24  C   UNL     1      -8.821  15.057  66.613  1.00  0.00    -0.307 A  
BRANCH  18  25
HETATM   25  C   UNL     1      -7.307  16.274  68.148  1.00  0.00    -0.139 C  
HETATM   26  O   UNL     1      -7.367  15.726  69.241  1.00  0.00    -0.189 OA 
HETATM   27  H1  UNL     1      -5.358  16.883  68.401  1.00  0.00     0.000 HD 
HETATM   28  H2  UNL     1      -6.076  17.339  66.843  1.00  0.00     0.000 HD 
HETATM   29  N   UNL     1      -6.148  16.888  67.755  1.00  0.00    -0.131 N  
ENDBRANCH  18  25
ENDBRANCH  14  17
ENDBRANCH  13  14
ENDBRANCH  11  13
ENDBRANCH   2  11
TORSDOF 8
ENDMDL
MODEL      160
REMARK 921   NORMALIZED FREE ENERGY PREDICTED BY IDOCK:   -4.67 KCAL/MOL
REMARK 922        TOTAL FREE ENERGY PREDICTED BY IDOCK:   -8.42 KCAL/MOL
REMARK 923 INTER-LIGAND FREE ENERGY PREDICTED BY IDOCK:   -6.35 KCAL/MOL
REMARK 924 INTRA-LIGAND FREE ENERGY PREDICTED BY IDOCK:   -2.06 KCAL/MOL
REMARK 927      BINDING AFFINITY PREDICTED BY RF-SCORE:    0.00 PKD
ROOT
HETATM    1  C   UNL     1     -10.112   9.280  71.328  1.00  0.00    -0.361 C  
HETATM    2  C   UNL     1     -11.519   9.079  70.752  1.00  0.00    -0.282 C  
ENDROOT
BRANCH   2   3
HETATM    3  C   UNL     1     -11.927  10.345  69.966  1.00  0.00    -0.324 C  
BRANCH   3   4
HETATM    4  C   UNL     1     -10.761  11.010  69.226  1.00  0.00    -0.263 C  
BRANCH   4   5
HETATM    5  C   UNL     1     -11.244  11.928  68.126  1.00  0.00    -0.316 A  
HETATM    6  C   UNL     1     -11.702  13.220  68.416  1.00  0.00    -0.389 A  
HETATM    7  C   UNL     1     -12.147  14.060  67.394  1.00  0.00    -0.384 A  
HETATM    8  C   UNL     1     -11.225  11.501  66.790  1.00  0.00    -0.350 A  
HETATM    9  C   UNL     1     -12.133  13.622  66.070  1.00  0.00    -0.480 A  
HETATM   10  C   UNL     1     -11.670  12.343  65.769  1.00  0.00    -0.470 A  
ENDBRANCH   4   5
ENDBRANCH   3   4
ENDBRANCH   2   3
BRANCH   2  11
HETATM   11  N   UNL     1     -11.605   7.902  69.880  1.00  0.00    -0.445 NA 
HETATM   12  H   UNL     1     -12.037   8.146  68.989  1.00  0.00     0.000 HD 
BRANCH  11  13
HETATM   13  C   UNL     1     -10.319   7.225  69.661  1.00  0.00    -0.221 C  
BRANCH  13  14
HETATM   14  C   UNL     1     -10.074   6.916  68.159  1.00  0.00    -0.166 C  
HETATM   15  H   UNL     1     -11.189   6.520  66.596  1.00  0.00     0.000 HD 
HETATM   16  O   UNL     1     -11.339   6.709  67.515  1.00  0.00    -0.271 OA 
BRANCH  14  17
HETATM   17  C   UNL     1      -9.279   8.019  67.469  1.00  0.00    -0.153 A  
HETATM   18  C   UNL     1      -8.619   9.269  65.460  1.00  0.00    -0.172 A  
HETATM   19  H   UNL     1      -6.180  11.367  66.217  1.00  0.00     0.000 HD 
HETATM   20  C   UNL     1      -7.691   9.981  66.227  1.00  0.00    -0.105 A  
HETATM   21  C   UNL     1      -7.575   9.756  67.594  1.00  0.00    -0.091 A  
HETATM   22  O   UNL     1      -6.810  10.883  65.696  1.00  0.00    -0.070 OA 
HETATM   23  C   UNL     1      -8.350   8.768  68.208  1.00  0.00    -0.126 A  
HETATM   24  C   UNL     1      -9.406   8.289  66.094  1.00  0.00    -0.254 A  
BRANCH  18  25
HETATM   25  C   UNL     1      -8.810   9.455  63.992  1.00  0.00    -0.177 C  
HETATM   26  O   UNL     1      -8.189   8.795  63.169  1.00  0.00    -0.172 OA 
HETATM   27  H1  UNL     1      -9.854  10.511  62.569  1.00  0.00     0.000 HD 
HETATM   28  H2  UNL     1     -10.258  10.934  64.244  1.00  0.00     0.000 HD 
HETATM   29  N   UNL     1      -9.724  10.384  63.572  1.00  0.00    -0.309 N  
ENDBRANCH  18  25
ENDBRANCH  14  17
ENDBRANCH  13  14
ENDBRANCH  11  13
ENDBRANCH   2  11
TORSDOF 8
ENDMDL
MODEL      161
REMARK 921   NORMALIZED FREE ENERGY PREDICTED BY IDOCK:   -4.67 KCAL/MOL
REMARK 922        TOTAL FREE ENERGY PREDICTED BY IDOCK:   -8.41 KCAL/MOL
REMARK 923 INTER-LIGAND FREE ENERGY PREDICTED BY IDOCK:   -7.09 KCAL/MOL
REMARK 924 INTRA-LIGAND FREE ENERGY PREDICTED BY IDOCK:   -1.31 KCAL/MOL
REMARK 927      BINDING AFFINITY PREDICTED BY RF-SCORE:    0.00 PKD
ROOT
HETATM    1  C   UNL     1      -8.993  10.603  62.458  1.00  0.00    -0.319 C  
HETATM    2  C   UNL     1      -9.267  10.668  63.965  1.00  0.00    -0.239 C  
ENDROOT
BRANCH   2   3
HETATM    3  C   UNL     1     -10.596  11.421  64.203  1.00  0.00    -0.430 C  
BRANCH   3   4
HETATM    4  C   UNL     1     -10.406  12.872  64.659  1.00  0.00    -0.366 C  
BRANCH   4   5
HETATM    5  C   UNL     1     -10.907  13.088  66.069  1.00  0.00    -0.290 A  
HETATM    6  C   UNL     1     -10.872  14.359  66.659  1.00  0.00    -0.304 A  
HETATM    7  C   UNL     1     -11.337  14.548  67.961  1.00  0.00    -0.326 A  
HETATM    8  C   UNL     1     -11.432  12.016  66.805  1.00  0.00    -0.410 A  
HETATM    9  C   UNL     1     -11.847  13.473  68.687  1.00  0.00    -0.404 A  
HETATM   10  C   UNL     1     -11.896  12.207  68.107  1.00  0.00    -0.362 A  
ENDBRANCH   4   5
ENDBRANCH   3   4
ENDBRANCH   2   3
BRANCH   2  11
HETATM   11  N   UNL     1      -9.330   9.338  64.582  1.00  0.00    -0.435 NA 
HETATM   12  H   UNL     1      -8.719   8.686  64.091  1.00  0.00     0.000 HD 
BRANCH  11  13
HETATM   13  C   UNL     1      -9.040   9.332  66.023  1.00  0.00    -0.188 C  
BRANCH  13  14
HETATM   14  C   UNL     1     -10.051   8.460  66.815  1.00  0.00    -0.303 C  
HETATM   15  H   UNL     1     -10.587   6.573  66.828  1.00  0.00     0.000 HD 
HETATM   16  O   UNL     1      -9.968   7.107  66.344  1.00  0.00    -0.133 OA 
BRANCH  14  17
HETATM   17  C   UNL     1      -9.818   8.534  68.319  1.00  0.00    -0.190 A  
HETATM   18  C   UNL     1     -10.588   9.020  70.600  1.00  0.00    -0.290 A  
HETATM   19  H   UNL     1      -8.041   8.801  72.696  1.00  0.00     0.000 HD 
HETATM   20  C   UNL     1      -9.294   8.778  71.073  1.00  0.00    -0.222 A  
HETATM   21  C   UNL     1      -8.281   8.384  70.205  1.00  0.00    -0.117 A  
HETATM   22  O   UNL     1      -8.920   8.965  72.376  1.00  0.00    -0.383 OA 
HETATM   23  C   UNL     1      -8.537   8.282  68.834  1.00  0.00    -0.132 A  
HETATM   24  C   UNL     1     -10.836   8.896  69.221  1.00  0.00    -0.113 A  
BRANCH  18  25
HETATM   25  C   UNL     1     -11.730   9.439  71.466  1.00  0.00    -0.394 C  
HETATM   26  O   UNL     1     -12.131   8.745  72.391  1.00  0.00    -0.361 OA 
HETATM   27  H1  UNL     1     -13.102  10.934  71.803  1.00  0.00     0.000 HD 
HETATM   28  H2  UNL     1     -11.993  11.244  70.453  1.00  0.00     0.000 HD 
HETATM   29  N   UNL     1     -12.322  10.647  71.212  1.00  0.00    -0.379 N  
ENDBRANCH  18  25
ENDBRANCH  14  17
ENDBRANCH  13  14
ENDBRANCH  11  13
ENDBRANCH   2  11
TORSDOF 8
ENDMDL
MODEL      162
REMARK 921   NORMALIZED FREE ENERGY PREDICTED BY IDOCK:   -4.66 KCAL/MOL
REMARK 922        TOTAL FREE ENERGY PREDICTED BY IDOCK:   -8.40 KCAL/MOL
REMARK 923 INTER-LIGAND FREE ENERGY PREDICTED BY IDOCK:   -7.28 KCAL/MOL
REMARK 924 INTRA-LIGAND FREE ENERGY PREDICTED BY IDOCK:   -1.12 KCAL/MOL
REMARK 927      BINDING AFFINITY PREDICTED BY RF-SCORE:    0.00 PKD
ROOT
HETATM    1  C   UNL     1     -10.253   4.707  66.779  1.00  0.00    -0.226 C  
HETATM    2  C   UNL     1     -10.703   6.169  66.875  1.00  0.00    -0.340 C  
ENDROOT
BRANCH   2   3
HETATM    3  C   UNL     1     -11.117   6.473  68.333  1.00  0.00    -0.340 C  
BRANCH   3   4
HETATM    4  C   UNL     1     -10.513   5.505  69.356  1.00  0.00    -0.360 C  
BRANCH   4   5
HETATM    5  C   UNL     1     -10.573   6.062  70.761  1.00  0.00    -0.316 A  
HETATM    6  C   UNL     1      -9.994   5.373  71.834  1.00  0.00    -0.233 A  
HETATM    7  C   UNL     1     -10.055   5.895  73.127  1.00  0.00    -0.199 A  
HETATM    8  C   UNL     1     -11.200   7.292  71.007  1.00  0.00    -0.291 A  
HETATM    9  C   UNL     1     -10.690   7.114  73.362  1.00  0.00    -0.410 A  
HETATM   10  C   UNL     1     -11.261   7.813  72.300  1.00  0.00    -0.365 A  
ENDBRANCH   4   5
ENDBRANCH   3   4
ENDBRANCH   2   3
BRANCH   2  11
HETATM   11  N   UNL     1      -9.658   7.107  66.448  1.00  0.00    -0.346 NA 
HETATM   12  H   UNL     1      -9.854   7.461  65.512  1.00  0.00     0.000 HD 
BRANCH  11  13
HETATM   13  C   UNL     1      -9.434   8.219  67.383  1.00  0.00    -0.151 C  
BRANCH  13  14
HETATM   14  C   UNL     1      -9.396   9.590  66.656  1.00  0.00    -0.161 C  
HETATM   15  H   UNL     1      -9.798  10.247  64.853  1.00  0.00     0.000 HD 
HETATM   16  O   UNL     1      -9.821   9.408  65.298  1.00  0.00    -0.231 OA 
BRANCH  14  17
HETATM   17  C   UNL     1     -10.247  10.638  67.364  1.00  0.00    -0.243 A  
HETATM   18  C   UNL     1     -11.403  12.805  67.411  1.00  0.00    -0.363 A  
HETATM   19  H   UNL     1     -12.539  13.384  70.462  1.00  0.00     0.000 HD 
HETATM   20  C   UNL     1     -11.710  12.595  68.760  1.00  0.00    -0.323 A  
HETATM   21  C   UNL     1     -11.335  11.419  69.401  1.00  0.00    -0.365 A  
HETATM   22  O   UNL     1     -12.330  13.527  69.546  1.00  0.00    -0.268 OA 
HETATM   23  C   UNL     1     -10.591  10.455  68.712  1.00  0.00    -0.232 A  
HETATM   24  C   UNL     1     -10.670  11.819  66.725  1.00  0.00    -0.289 A  
BRANCH  18  25
HETATM   25  C   UNL     1     -11.774  14.034  66.651  1.00  0.00    -0.399 C  
HETATM   26  O   UNL     1     -11.212  15.106  66.836  1.00  0.00    -0.330 OA 
HETATM   27  H1  UNL     1     -13.019  14.777  65.191  1.00  0.00     0.000 HD 
HETATM   28  H2  UNL     1     -13.236  13.049  65.535  1.00  0.00     0.000 HD 
HETATM   29  N   UNL     1     -12.765  13.937  65.711  1.00  0.00    -0.499 N  
ENDBRANCH  18  25
ENDBRANCH  14  17
ENDBRANCH  13  14
ENDBRANCH  11  13
ENDBRANCH   2  11
TORSDOF 8
ENDMDL
MODEL      163
REMARK 921   NORMALIZED FREE ENERGY PREDICTED BY IDOCK:   -4.66 KCAL/MOL
REMARK 922        TOTAL FREE ENERGY PREDICTED BY IDOCK:   -8.39 KCAL/MOL
REMARK 923 INTER-LIGAND FREE ENERGY PREDICTED BY IDOCK:   -7.24 KCAL/MOL
REMARK 924 INTRA-LIGAND FREE ENERGY PREDICTED BY IDOCK:   -1.15 KCAL/MOL
REMARK 927      BINDING AFFINITY PREDICTED BY RF-SCORE:    0.00 PKD
ROOT
HETATM    1  C   UNL     1      -9.071  10.775  62.771  1.00  0.00    -0.328 C  
HETATM    2  C   UNL     1     -10.352  10.985  63.587  1.00  0.00    -0.352 C  
ENDROOT
BRANCH   2   3
HETATM    3  C   UNL     1      -9.978  11.139  65.078  1.00  0.00    -0.325 C  
BRANCH   3   4
HETATM    4  C   UNL     1     -10.285   9.896  65.920  1.00  0.00    -0.264 C  
BRANCH   4   5
HETATM    5  C   UNL     1      -9.060   9.029  66.109  1.00  0.00    -0.246 A  
HETATM    6  C   UNL     1      -9.075   7.675  65.750  1.00  0.00    -0.042 A  
HETATM    7  C   UNL     1      -7.940   6.882  65.929  1.00  0.00    -0.112 A  
HETATM    8  C   UNL     1      -7.881   9.576  66.635  1.00  0.00    -0.101 A  
HETATM    9  C   UNL     1      -6.776   7.434  66.462  1.00  0.00    -0.061 A  
HETATM   10  C   UNL     1      -6.747   8.783  66.813  1.00  0.00    -0.069 A  
ENDBRANCH   4   5
ENDBRANCH   3   4
ENDBRANCH   2   3
BRANCH   2  11
HETATM   11  N   UNL     1     -11.117  12.155  63.140  1.00  0.00    -0.699 NA 
HETATM   12  H   UNL     1     -11.586  11.961  62.256  1.00  0.00     0.000 HD 
BRANCH  11  13
HETATM   13  C   UNL     1     -12.077  12.656  64.134  1.00  0.00    -0.439 C  
BRANCH  13  14
HETATM   14  C   UNL     1     -11.819  14.145  64.491  1.00  0.00    -0.436 C  
HETATM   15  H   UNL     1     -12.743  15.851  64.201  1.00  0.00     0.000 HD 
HETATM   16  O   UNL     1     -12.900  14.940  63.983  1.00  0.00    -0.701 OA 
BRANCH  14  17
HETATM   17  C   UNL     1     -11.640  14.353  65.990  1.00  0.00    -0.364 A  
HETATM   18  C   UNL     1     -10.724  15.593  67.902  1.00  0.00    -0.294 A  
HETATM   19  H   UNL     1     -11.353  13.939  70.695  1.00  0.00     0.000 HD 
HETATM   20  C   UNL     1     -11.234  14.614  68.762  1.00  0.00    -0.267 A  
HETATM   21  C   UNL     1     -11.968  13.543  68.265  1.00  0.00    -0.377 A  
HETATM   22  O   UNL     1     -11.006  14.604  70.111  1.00  0.00    -0.188 OA 
HETATM   23  C   UNL     1     -12.153  13.402  66.887  1.00  0.00    -0.406 A  
HETATM   24  C   UNL     1     -10.933  15.449  66.518  1.00  0.00    -0.271 A  
BRANCH  18  25
HETATM   25  C   UNL     1      -9.934  16.775  68.356  1.00  0.00    -0.268 C  
HETATM   26  O   UNL     1      -8.827  16.658  68.867  1.00  0.00    -0.250 OA 
HETATM   27  H1  UNL     1      -9.931  18.828  68.480  1.00  0.00     0.000 HD 
HETATM   28  H2  UNL     1     -11.386  18.137  67.735  1.00  0.00     0.000 HD 
HETATM   29  N   UNL     1     -10.471  18.020  68.170  1.00  0.00    -0.378 N  
ENDBRANCH  18  25
ENDBRANCH  14  17
ENDBRANCH  13  14
ENDBRANCH  11  13
ENDBRANCH   2  11
TORSDOF 8
ENDMDL
MODEL      164
REMARK 921   NORMALIZED FREE ENERGY PREDICTED BY IDOCK:   -4.65 KCAL/MOL
REMARK 922        TOTAL FREE ENERGY PREDICTED BY IDOCK:   -8.38 KCAL/MOL
REMARK 923 INTER-LIGAND FREE ENERGY PREDICTED BY IDOCK:   -7.18 KCAL/MOL
REMARK 924 INTRA-LIGAND FREE ENERGY PREDICTED BY IDOCK:   -1.20 KCAL/MOL
REMARK 927      BINDING AFFINITY PREDICTED BY RF-SCORE:    0.00 PKD
ROOT
HETATM    1  C   UNL     1     -11.233  16.207  70.612  1.00  0.00    -0.371 C  
HETATM    2  C   UNL     1     -11.900  15.154  69.718  1.00  0.00    -0.333 C  
ENDROOT
BRANCH   2   3
HETATM    3  C   UNL     1     -11.562  15.461  68.242  1.00  0.00    -0.361 C  
BRANCH   3   4
HETATM    4  C   UNL     1     -10.071  15.718  67.994  1.00  0.00    -0.228 C  
BRANCH   4   5
HETATM    5  C   UNL     1      -9.809  17.146  67.574  1.00  0.00    -0.266 A  
HETATM    6  C   UNL     1     -10.868  18.028  67.322  1.00  0.00    -0.214 A  
HETATM    7  C   UNL     1     -10.616  19.345  66.933  1.00  0.00    -0.581 A  
HETATM    8  C   UNL     1      -8.493  17.615  67.444  1.00  0.00    -0.227 A  
HETATM    9  C   UNL     1      -9.304  19.798  66.798  1.00  0.00    -0.473 A  
HETATM   10  C   UNL     1      -8.243  18.932  67.056  1.00  0.00    -0.281 A  
ENDBRANCH   4   5
ENDBRANCH   3   4
ENDBRANCH   2   3
BRANCH   2  11
HETATM   11  N   UNL     1     -11.480  13.788  70.052  1.00  0.00    -0.476 NA 
HETATM   12  H   UNL     1     -11.697  13.574  71.025  1.00  0.00     0.000 HD 
BRANCH  11  13
HETATM   13  C   UNL     1     -12.034  12.758  69.162  1.00  0.00    -0.246 C  
BRANCH  13  14
HETATM   14  C   UNL     1     -10.974  11.691  68.778  1.00  0.00    -0.226 C  
HETATM   15  H   UNL     1     -10.747   9.761  69.046  1.00  0.00     0.000 HD 
HETATM   16  O   UNL     1     -11.395  10.414  69.280  1.00  0.00    -0.237 OA 
BRANCH  14  17
HETATM   17  C   UNL     1     -10.732  11.637  67.274  1.00  0.00    -0.281 A  
HETATM   18  C   UNL     1      -9.466  10.857  65.319  1.00  0.00    -0.257 A  
HETATM   19  H   UNL     1     -10.563  12.396  62.607  1.00  0.00     0.000 HD 
HETATM   20  C   UNL     1     -10.251  11.678  64.502  1.00  0.00    -0.291 A  
HETATM   21  C   UNL     1     -11.283  12.439  65.039  1.00  0.00    -0.354 A  
HETATM   22  O   UNL     1     -10.030  11.838  63.161  1.00  0.00    -0.409 OA 
HETATM   23  C   UNL     1     -11.510  12.433  66.419  1.00  0.00    -0.427 A  
HETATM   24  C   UNL     1      -9.717  10.847  66.704  1.00  0.00    -0.222 A  
BRANCH  18  25
HETATM   25  C   UNL     1      -8.346  10.006  64.820  1.00  0.00    -0.163 C  
HETATM   26  O   UNL     1      -7.176  10.355  64.913  1.00  0.00    -0.129 OA 
HETATM   27  H1  UNL     1      -7.889   8.214  63.920  1.00  0.00     0.000 HD 
HETATM   28  H2  UNL     1      -9.622   8.483  64.187  1.00  0.00     0.000 HD 
HETATM   29  N   UNL     1      -8.654   8.795  64.261  1.00  0.00    -0.122 N  
ENDBRANCH  18  25
ENDBRANCH  14  17
ENDBRANCH  13  14
ENDBRANCH  11  13
ENDBRANCH   2  11
TORSDOF 8
ENDMDL
MODEL      165
REMARK 921   NORMALIZED FREE ENERGY PREDICTED BY IDOCK:   -4.64 KCAL/MOL
REMARK 922        TOTAL FREE ENERGY PREDICTED BY IDOCK:   -8.36 KCAL/MOL
REMARK 923 INTER-LIGAND FREE ENERGY PREDICTED BY IDOCK:   -7.48 KCAL/MOL
REMARK 924 INTRA-LIGAND FREE ENERGY PREDICTED BY IDOCK:   -0.88 KCAL/MOL
REMARK 927      BINDING AFFINITY PREDICTED BY RF-SCORE:    0.00 PKD
ROOT
HETATM    1  C   UNL     1      -8.485  12.594  67.131  1.00  0.00    -0.186 C  
HETATM    2  C   UNL     1      -9.113  13.757  67.908  1.00  0.00    -0.193 C  
ENDROOT
BRANCH   2   3
HETATM    3  C   UNL     1      -8.432  15.076  67.476  1.00  0.00    -0.188 C  
BRANCH   3   4
HETATM    4  C   UNL     1      -9.215  15.850  66.410  1.00  0.00    -0.344 C  
BRANCH   4   5
HETATM    5  C   UNL     1      -9.514  17.266  66.849  1.00  0.00    -0.264 A  
HETATM    6  C   UNL     1      -8.685  17.924  67.767  1.00  0.00    -0.250 A  
HETATM    7  C   UNL     1      -8.969  19.231  68.168  1.00  0.00    -0.371 A  
HETATM    8  C   UNL     1     -10.622  17.949  66.329  1.00  0.00    -0.241 A  
HETATM    9  C   UNL     1     -10.080  19.897  67.651  1.00  0.00    -0.564 A  
HETATM   10  C   UNL     1     -10.905  19.255  66.730  1.00  0.00    -0.451 A  
ENDBRANCH   4   5
ENDBRANCH   3   4
ENDBRANCH   2   3
BRANCH   2  11
HETATM   11  N   UNL     1     -10.563  13.853  67.700  1.00  0.00    -0.244 NA 
HETATM   12  H   UNL     1     -10.839  13.342  66.862  1.00  0.00     0.000 HD 
BRANCH  11  13
HETATM   13  C   UNL     1     -11.363  13.421  68.855  1.00  0.00    -0.287 C  
BRANCH  13  14
HETATM   14  C   UNL     1     -12.142  12.110  68.563  1.00  0.00    -0.057 C  
HETATM   15  H   UNL     1     -12.415  10.942  67.012  1.00  0.00     0.000 HD 
HETATM   16  O   UNL     1     -11.938  11.744  67.191  1.00  0.00    -0.617 OA 
BRANCH  14  17
HETATM   17  C   UNL     1     -11.735  10.980  69.501  1.00  0.00    -0.400 A  
HETATM   18  C   UNL     1     -12.280   9.248  71.155  1.00  0.00    -0.373 A  
HETATM   19  H   UNL     1      -9.486   7.937  72.342  1.00  0.00     0.000 HD 
HETATM   20  C   UNL     1     -10.914   8.990  71.313  1.00  0.00    -0.313 A  
HETATM   21  C   UNL     1      -9.968   9.676  70.558  1.00  0.00    -0.318 A  
HETATM   22  O   UNL     1     -10.414   8.112  72.236  1.00  0.00    -0.252 OA 
HETATM   23  C   UNL     1     -10.375  10.678  69.673  1.00  0.00    -0.185 A  
HETATM   24  C   UNL     1     -12.677  10.247  70.247  1.00  0.00    -0.167 A  
BRANCH  18  25
HETATM   25  C   UNL     1     -13.356   8.552  71.920  1.00  0.00    -0.372 C  
HETATM   26  O   UNL     1     -14.088   9.149  72.699  1.00  0.00    -0.512 OA 
HETATM   27  H1  UNL     1     -14.261   6.732  72.241  1.00  0.00     0.000 HD 
HETATM   28  H2  UNL     1     -12.933   6.697  71.064  1.00  0.00     0.000 HD 
HETATM   29  N   UNL     1     -13.525   7.208  71.718  1.00  0.00    -0.331 N  
ENDBRANCH  18  25
ENDBRANCH  14  17
ENDBRANCH  13  14
ENDBRANCH  11  13
ENDBRANCH   2  11
TORSDOF 8
ENDMDL
MODEL      166
REMARK 921   NORMALIZED FREE ENERGY PREDICTED BY IDOCK:   -4.64 KCAL/MOL
REMARK 922        TOTAL FREE ENERGY PREDICTED BY IDOCK:   -8.36 KCAL/MOL
REMARK 923 INTER-LIGAND FREE ENERGY PREDICTED BY IDOCK:   -7.37 KCAL/MOL
REMARK 924 INTRA-LIGAND FREE ENERGY PREDICTED BY IDOCK:   -1.00 KCAL/MOL
REMARK 927      BINDING AFFINITY PREDICTED BY RF-SCORE:    0.00 PKD
ROOT
HETATM    1  C   UNL     1     -12.317  15.272  70.757  1.00  0.00    -0.433 C  
HETATM    2  C   UNL     1     -11.792  14.369  69.635  1.00  0.00    -0.321 C  
ENDROOT
BRANCH   2   3
HETATM    3  C   UNL     1     -12.441  12.972  69.768  1.00  0.00    -0.002 C  
BRANCH   3   4
HETATM    4  C   UNL     1     -11.433  11.819  69.712  1.00  0.00    -0.320 C  
BRANCH   4   5
HETATM    5  C   UNL     1     -11.805  10.701  70.659  1.00  0.00    -0.463 A  
HETATM    6  C   UNL     1     -10.945   9.613  70.862  1.00  0.00    -0.412 A  
HETATM    7  C   UNL     1     -11.297   8.585  71.738  1.00  0.00    -0.377 A  
HETATM    8  C   UNL     1     -13.017  10.744  71.364  1.00  0.00    -0.535 A  
HETATM    9  C   UNL     1     -12.509   8.634  72.425  1.00  0.00    -0.428 A  
HETATM   10  C   UNL     1     -13.368   9.715  72.239  1.00  0.00    -0.498 A  
ENDBRANCH   4   5
ENDBRANCH   3   4
ENDBRANCH   2   3
BRANCH   2  11
HETATM   11  N   UNL     1     -12.062  14.918  68.301  1.00  0.00    -0.573 NA 
HETATM   12  H   UNL     1     -11.340  15.587  68.036  1.00  0.00     0.000 HD 
BRANCH  11  13
HETATM   13  C   UNL     1     -12.227  13.897  67.256  1.00  0.00    -0.289 C  
BRANCH  13  14
HETATM   14  C   UNL     1     -11.168  14.042  66.130  1.00  0.00    -0.318 C  
HETATM   15  H   UNL     1     -10.674  15.416  64.821  1.00  0.00     0.000 HD 
HETATM   16  O   UNL     1     -11.321  15.327  65.510  1.00  0.00    -0.311 OA 
BRANCH  14  17
HETATM   17  C   UNL     1      -9.749  13.847  66.649  1.00  0.00    -0.295 A  
HETATM   18  C   UNL     1      -7.565  14.732  67.345  1.00  0.00    -0.228 A  
HETATM   19  H   UNL     1      -5.479  12.225  67.886  1.00  0.00     0.000 HD 
HETATM   20  C   UNL     1      -7.096  13.422  67.485  1.00  0.00    -0.144 A  
HETATM   21  C   UNL     1      -7.934  12.336  67.253  1.00  0.00    -0.177 A  
HETATM   22  O   UNL     1      -5.798  13.115  67.791  1.00  0.00    -0.122 OA 
HETATM   23  C   UNL     1      -9.246  12.548  66.820  1.00  0.00    -0.217 A  
HETATM   24  C   UNL     1      -8.894  14.931  66.925  1.00  0.00    -0.284 A  
BRANCH  18  25
HETATM   25  C   UNL     1      -6.733  15.948  67.580  1.00  0.00    -0.170 C  
HETATM   26  O   UNL     1      -6.203  16.559  66.661  1.00  0.00    -0.297 OA 
HETATM   27  H1  UNL     1      -6.014  17.220  69.029  1.00  0.00     0.000 HD 
HETATM   28  H2  UNL     1      -7.027  15.899  69.644  1.00  0.00     0.000 HD 
HETATM   29  N   UNL     1      -6.583  16.388  68.868  1.00  0.00    -0.154 N  
ENDBRANCH  18  25
ENDBRANCH  14  17
ENDBRANCH  13  14
ENDBRANCH  11  13
ENDBRANCH   2  11
TORSDOF 8
ENDMDL
MODEL      167
REMARK 921   NORMALIZED FREE ENERGY PREDICTED BY IDOCK:   -4.64 KCAL/MOL
REMARK 922        TOTAL FREE ENERGY PREDICTED BY IDOCK:   -8.36 KCAL/MOL
REMARK 923 INTER-LIGAND FREE ENERGY PREDICTED BY IDOCK:   -6.95 KCAL/MOL
REMARK 924 INTRA-LIGAND FREE ENERGY PREDICTED BY IDOCK:   -1.40 KCAL/MOL
REMARK 927      BINDING AFFINITY PREDICTED BY RF-SCORE:    0.00 PKD
ROOT
HETATM    1  C   UNL     1     -10.177  10.990  64.621  1.00  0.00    -0.392 C  
HETATM    2  C   UNL     1      -9.877  11.674  65.960  1.00  0.00    -0.230 C  
ENDROOT
BRANCH   2   3
HETATM    3  C   UNL     1     -10.321  10.743  67.111  1.00  0.00    -0.269 C  
BRANCH   3   4
HETATM    4  C   UNL     1     -11.410  11.348  68.004  1.00  0.00    -0.372 C  
BRANCH   4   5
HETATM    5  C   UNL     1     -11.457  10.684  69.361  1.00  0.00    -0.356 A  
HETATM    6  C   UNL     1     -10.562   9.657  69.691  1.00  0.00    -0.252 A  
HETATM    7  C   UNL     1     -10.613   9.049  70.947  1.00  0.00    -0.316 A  
HETATM    8  C   UNL     1     -12.392  11.099  70.320  1.00  0.00    -0.397 A  
HETATM    9  C   UNL     1     -11.553   9.463  71.889  1.00  0.00    -0.348 A  
HETATM   10  C   UNL     1     -12.441  10.490  71.575  1.00  0.00    -0.493 A  
ENDBRANCH   4   5
ENDBRANCH   3   4
ENDBRANCH   2   3
BRANCH   2  11
HETATM   11  N   UNL     1      -8.456  12.011  66.112  1.00  0.00    -0.393 NA 
HETATM   12  H   UNL     1      -8.272  12.953  65.766  1.00  0.00     0.000 HD 
BRANCH  11  13
HETATM   13  C   UNL     1      -7.948  11.857  67.482  1.00  0.00    -0.155 C  
BRANCH  13  14
HETATM   14  C   UNL     1      -7.199  13.126  67.970  1.00  0.00    -0.125 C  
HETATM   15  H   UNL     1      -5.625  14.147  67.401  1.00  0.00     0.000 HD 
HETATM   16  O   UNL     1      -6.083  13.370  67.103  1.00  0.00    -0.274 OA 
BRANCH  14  17
HETATM   17  C   UNL     1      -8.117  14.341  68.042  1.00  0.00    -0.145 A  
HETATM   18  C   UNL     1     -10.168  15.453  68.810  1.00  0.00    -0.217 A  
HETATM   19  H   UNL     1     -10.427  18.415  67.364  1.00  0.00     0.000 HD 
HETATM   20  C   UNL     1      -9.836  16.569  68.034  1.00  0.00    -0.240 A  
HETATM   21  C   UNL     1      -8.653  16.601  67.303  1.00  0.00    -0.208 A  
HETATM   22  O   UNL     1     -10.653  17.657  67.890  1.00  0.00    -0.382 OA 
HETATM   23  C   UNL     1      -7.809  15.487  67.292  1.00  0.00    -0.236 A  
HETATM   24  C   UNL     1      -9.301  14.345  68.803  1.00  0.00    -0.150 A  
BRANCH  18  25
HETATM   25  C   UNL     1     -11.413  15.342  69.626  1.00  0.00    -0.320 C  
HETATM   26  O   UNL     1     -12.311  14.562  69.336  1.00  0.00    -0.276 OA 
HETATM   27  H1  UNL     1     -12.379  16.058  71.295  1.00  0.00     0.000 HD 
HETATM   28  H2  UNL     1     -10.785  16.780  71.000  1.00  0.00     0.000 HD 
HETATM   29  N   UNL     1     -11.528  16.133  70.737  1.00  0.00    -0.407 N  
ENDBRANCH  18  25
ENDBRANCH  14  17
ENDBRANCH  13  14
ENDBRANCH  11  13
ENDBRANCH   2  11
TORSDOF 8
ENDMDL
MODEL      168
REMARK 921   NORMALIZED FREE ENERGY PREDICTED BY IDOCK:   -4.61 KCAL/MOL
REMARK 922        TOTAL FREE ENERGY PREDICTED BY IDOCK:   -8.32 KCAL/MOL
REMARK 923 INTER-LIGAND FREE ENERGY PREDICTED BY IDOCK:   -6.04 KCAL/MOL
REMARK 924 INTRA-LIGAND FREE ENERGY PREDICTED BY IDOCK:   -2.28 KCAL/MOL
REMARK 927      BINDING AFFINITY PREDICTED BY RF-SCORE:    0.00 PKD
ROOT
HETATM    1  C   UNL     1     -13.410  12.692  72.087  1.00  0.00    -0.570 C  
HETATM    2  C   UNL     1     -12.320  11.884  71.374  1.00  0.00    -0.015 C  
ENDROOT
BRANCH   2   3
HETATM    3  C   UNL     1     -12.927  10.553  70.876  1.00  0.00    -0.455 C  
BRANCH   3   4
HETATM    4  C   UNL     1     -12.676   9.372  71.821  1.00  0.00    -0.476 C  
BRANCH   4   5
HETATM    5  C   UNL     1     -11.583   8.462  71.306  1.00  0.00    -0.326 A  
HETATM    6  C   UNL     1     -11.871   7.155  70.893  1.00  0.00    -0.379 A  
HETATM    7  C   UNL     1     -10.856   6.321  70.419  1.00  0.00    -0.360 A  
HETATM    8  C   UNL     1     -10.262   8.923  71.220  1.00  0.00    -0.361 A  
HETATM    9  C   UNL     1      -9.543   6.787  70.348  1.00  0.00    -0.174 A  
HETATM   10  C   UNL     1      -9.247   8.089  70.747  1.00  0.00    -0.165 A  
ENDBRANCH   4   5
ENDBRANCH   3   4
ENDBRANCH   2   3
BRANCH   2  11
HETATM   11  N   UNL     1     -11.727  12.614  70.247  1.00  0.00    -0.552 NA 
HETATM   12  H   UNL     1     -10.722  12.726  70.381  1.00  0.00     0.000 HD 
BRANCH  11  13
HETATM   13  C   UNL     1     -12.008  12.017  68.933  1.00  0.00    -0.246 C  
BRANCH  13  14
HETATM   14  C   UNL     1     -10.791  12.124  67.975  1.00  0.00    -0.222 C  
HETATM   15  H   UNL     1      -9.067  13.057  67.976  1.00  0.00     0.000 HD 
HETATM   16  O   UNL     1      -9.811  12.991  68.562  1.00  0.00    -0.218 OA 
BRANCH  14  17
HETATM   17  C   UNL     1     -10.195  10.759  67.652  1.00  0.00    -0.221 A  
HETATM   18  C   UNL     1      -8.307   9.329  66.997  1.00  0.00    -0.120 A  
HETATM   19  H   UNL     1      -9.386   6.250  66.468  1.00  0.00     0.000 HD 
HETATM   20  C   UNL     1      -9.177   8.235  66.937  1.00  0.00    -0.158 A  
HETATM   21  C   UNL     1     -10.521   8.375  67.263  1.00  0.00    -0.373 A  
HETATM   22  O   UNL     1      -8.796   6.993  66.508  1.00  0.00    -0.130 OA 
HETATM   23  C   UNL     1     -11.031   9.633  67.599  1.00  0.00    -0.190 A  
HETATM   24  C   UNL     1      -8.830  10.586  67.354  1.00  0.00    -0.132 A  
BRANCH  18  25
HETATM   25  C   UNL     1      -6.853   9.261  66.671  1.00  0.00    -0.080 C  
HETATM   26  O   UNL     1      -6.001   9.100  67.535  1.00  0.00    -0.049 OA 
HETATM   27  H1  UNL     1      -5.486   9.321  65.134  1.00  0.00     0.000 HD 
HETATM   28  H2  UNL     1      -7.178   9.490  64.623  1.00  0.00     0.000 HD 
HETATM   29  N   UNL     1      -6.481   9.367  65.357  1.00  0.00    -0.068 N  
ENDBRANCH  18  25
ENDBRANCH  14  17
ENDBRANCH  13  14
ENDBRANCH  11  13
ENDBRANCH   2  11
TORSDOF 8
ENDMDL
MODEL      169
REMARK 921   NORMALIZED FREE ENERGY PREDICTED BY IDOCK:   -4.59 KCAL/MOL
REMARK 922        TOTAL FREE ENERGY PREDICTED BY IDOCK:   -8.30 KCAL/MOL
REMARK 923 INTER-LIGAND FREE ENERGY PREDICTED BY IDOCK:   -7.64 KCAL/MOL
REMARK 924 INTRA-LIGAND FREE ENERGY PREDICTED BY IDOCK:   -0.66 KCAL/MOL
REMARK 927      BINDING AFFINITY PREDICTED BY RF-SCORE:    0.00 PKD
ROOT
HETATM    1  C   UNL     1      -8.897   8.285  72.142  1.00  0.00    -0.265 C  
HETATM    2  C   UNL     1     -10.417   8.150  71.987  1.00  0.00    -0.263 C  
ENDROOT
BRANCH   2   3
HETATM    3  C   UNL     1     -10.994   7.485  73.257  1.00  0.00    -0.362 C  
BRANCH   3   4
HETATM    4  C   UNL     1      -9.948   6.728  74.084  1.00  0.00    -0.373 C  
BRANCH   4   5
HETATM    5  C   UNL     1     -10.098   5.230  73.946  1.00  0.00    -0.232 A  
HETATM    6  C   UNL     1      -9.090   4.362  74.385  1.00  0.00    -0.109 A  
HETATM    7  C   UNL     1      -9.237   2.980  74.254  1.00  0.00    -0.097 A  
HETATM    8  C   UNL     1     -11.263   4.685  73.387  1.00  0.00    -0.423 A  
HETATM    9  C   UNL     1     -10.396   2.450  73.687  1.00  0.00    -0.206 A  
HETATM   10  C   UNL     1     -11.409   3.303  73.256  1.00  0.00    -0.138 A  
ENDBRANCH   4   5
ENDBRANCH   3   4
ENDBRANCH   2   3
BRANCH   2  11
HETATM   11  N   UNL     1     -11.075   9.442  71.758  1.00  0.00    -0.342 NA 
HETATM   12  H   UNL     1     -10.767  10.128  72.447  1.00  0.00     0.000 HD 
BRANCH  11  13
HETATM   13  C   UNL     1     -10.903   9.967  70.396  1.00  0.00    -0.319 C  
BRANCH  13  14
HETATM   14  C   UNL     1     -12.212  10.600  69.849  1.00  0.00    -0.275 C  
HETATM   15  H   UNL     1     -14.084  10.697  70.424  1.00  0.00     0.000 HD 
HETATM   16  O   UNL     1     -13.283  10.310  70.758  1.00  0.00    -0.385 OA 
BRANCH  14  17
HETATM   17  C   UNL     1     -12.072  12.100  69.622  1.00  0.00    -0.283 A  
HETATM   18  C   UNL     1     -12.398  14.429  70.332  1.00  0.00    -0.406 A  
HETATM   19  H   UNL     1     -11.546  16.464  67.869  1.00  0.00     0.000 HD 
HETATM   20  C   UNL     1     -11.907  14.859  69.095  1.00  0.00    -0.307 A  
HETATM   21  C   UNL     1     -11.468  13.942  68.145  1.00  0.00    -0.346 A  
HETATM   22  O   UNL     1     -11.880  16.172  68.710  1.00  0.00    -0.339 OA 
HETATM   23  C   UNL     1     -11.567  12.571  68.400  1.00  0.00    -0.368 A  
HETATM   24  C   UNL     1     -12.476  13.046  70.582  1.00  0.00    -0.347 A  
BRANCH  18  25
HETATM   25  C   UNL     1     -12.882  15.347  71.404  1.00  0.00    -0.439 C  
HETATM   26  O   UNL     1     -12.149  16.176  71.928  1.00  0.00    -0.476 OA 
HETATM   27  H1  UNL     1     -14.524  15.882  72.523  1.00  0.00     0.000 HD 
HETATM   28  H2  UNL     1     -14.820  14.578  71.355  1.00  0.00     0.000 HD 
HETATM   29  N   UNL     1     -14.193  15.255  71.789  1.00  0.00    -0.540 N  
ENDBRANCH  18  25
ENDBRANCH  14  17
ENDBRANCH  13  14
ENDBRANCH  11  13
ENDBRANCH   2  11
TORSDOF 8
ENDMDL
MODEL      170
REMARK 921   NORMALIZED FREE ENERGY PREDICTED BY IDOCK:   -4.56 KCAL/MOL
REMARK 922        TOTAL FREE ENERGY PREDICTED BY IDOCK:   -8.25 KCAL/MOL
REMARK 923 INTER-LIGAND FREE ENERGY PREDICTED BY IDOCK:   -7.70 KCAL/MOL
REMARK 924 INTRA-LIGAND FREE ENERGY PREDICTED BY IDOCK:   -0.55 KCAL/MOL
REMARK 927      BINDING AFFINITY PREDICTED BY RF-SCORE:    0.00 PKD
ROOT
HETATM    1  C   UNL     1     -12.207  12.240  63.338  1.00  0.00    -0.630 C  
HETATM    2  C   UNL     1     -10.995  11.901  64.214  1.00  0.00    -0.353 C  
ENDROOT
BRANCH   2   3
HETATM    3  C   UNL     1     -10.073  10.931  63.441  1.00  0.00    -0.398 C  
BRANCH   3   4
HETATM    4  C   UNL     1      -8.795  10.561  64.203  1.00  0.00    -0.205 C  
BRANCH   4   5
HETATM    5  C   UNL     1      -8.975   9.305  65.026  1.00  0.00    -0.245 A  
HETATM    6  C   UNL     1      -8.272   8.134  64.715  1.00  0.00    -0.137 A  
HETATM    7  C   UNL     1      -8.445   6.979  65.480  1.00  0.00    -0.120 A  
HETATM    8  C   UNL     1      -9.842   9.301  66.128  1.00  0.00    -0.363 A  
HETATM    9  C   UNL     1      -9.317   6.984  66.568  1.00  0.00    -0.201 A  
HETATM   10  C   UNL     1     -10.014   8.146  66.893  1.00  0.00    -0.343 A  
ENDBRANCH   4   5
ENDBRANCH   3   4
ENDBRANCH   2   3
BRANCH   2  11
HETATM   11  N   UNL     1     -10.240  13.094  64.614  1.00  0.00    -0.543 NA 
HETATM   12  H   UNL     1      -9.483  13.277  63.955  1.00  0.00     0.000 HD 
BRANCH  11  13
HETATM   13  C   UNL     1     -11.069  14.295  64.792  1.00  0.00    -0.391 C  
BRANCH  13  14
HETATM   14  C   UNL     1     -11.094  14.769  66.270  1.00  0.00    -0.341 C  
HETATM   15  H   UNL     1     -10.863  13.932  68.029  1.00  0.00     0.000 HD 
HETATM   16  O   UNL     1     -10.848  13.642  67.124  1.00  0.00    -0.281 OA 
BRANCH  14  17
HETATM   17  C   UNL     1     -10.091  15.887  66.531  1.00  0.00    -0.293 A  
HETATM   18  C   UNL     1      -9.554  18.240  66.985  1.00  0.00    -0.291 A  
HETATM   19  H   UNL     1      -6.278  18.669  66.861  1.00  0.00     0.000 HD 
HETATM   20  C   UNL     1      -8.193  17.934  66.877  1.00  0.00    -0.237 A  
HETATM   21  C   UNL     1      -7.773  16.630  66.641  1.00  0.00    -0.316 A  
HETATM   22  O   UNL     1      -7.202  18.876  66.934  1.00  0.00    -0.210 OA 
HETATM   23  C   UNL     1      -8.716  15.616  66.450  1.00  0.00    -0.354 A  
HETATM   24  C   UNL     1     -10.492  17.207  66.808  1.00  0.00    -0.263 A  
BRANCH  18  25
HETATM   25  C   UNL     1     -10.085  19.611  67.243  1.00  0.00    -0.409 C  
HETATM   26  O   UNL     1     -10.359  20.382  66.332  1.00  0.00    -0.356 OA 
HETATM   27  H1  UNL     1     -10.645  20.929  68.720  1.00  0.00     0.000 HD 
HETATM   28  H2  UNL     1     -10.071  19.358  69.313  1.00  0.00     0.000 HD 
HETATM   29  N   UNL     1     -10.282  19.992  68.543  1.00  0.00    -0.422 N  
ENDBRANCH  18  25
ENDBRANCH  14  17
ENDBRANCH  13  14
ENDBRANCH  11  13
ENDBRANCH   2  11
TORSDOF 8
ENDMDL
MODEL      171
REMARK 921   NORMALIZED FREE ENERGY PREDICTED BY IDOCK:   -4.56 KCAL/MOL
REMARK 922        TOTAL FREE ENERGY PREDICTED BY IDOCK:   -8.25 KCAL/MOL
REMARK 923 INTER-LIGAND FREE ENERGY PREDICTED BY IDOCK:   -5.40 KCAL/MOL
REMARK 924 INTRA-LIGAND FREE ENERGY PREDICTED BY IDOCK:   -2.84 KCAL/MOL
REMARK 927      BINDING AFFINITY PREDICTED BY RF-SCORE:    0.00 PKD
ROOT
HETATM    1  C   UNL     1      -8.969   8.435  65.859  1.00  0.00    -0.223 C  
HETATM    2  C   UNL     1      -7.893   9.269  65.154  1.00  0.00    -0.110 C  
ENDROOT
BRANCH   2   3
HETATM    3  C   UNL     1      -8.560  10.499  64.498  1.00  0.00    -0.165 C  
BRANCH   3   4
HETATM    4  C   UNL     1     -10.075  10.352  64.317  1.00  0.00    -0.306 C  
BRANCH   4   5
HETATM    5  C   UNL     1     -10.791  11.674  64.474  1.00  0.00    -0.383 A  
HETATM    6  C   UNL     1     -12.190  11.732  64.541  1.00  0.00    -0.104 A  
HETATM    7  C   UNL     1     -12.843  12.957  64.686  1.00  0.00    -0.323 A  
HETATM    8  C   UNL     1     -10.060  12.867  64.571  1.00  0.00    -0.259 A  
HETATM    9  C   UNL     1     -12.106  14.138  64.771  1.00  0.00    -0.454 A  
HETATM   10  C   UNL     1     -10.714  14.092  64.715  1.00  0.00    -0.442 A  
ENDBRANCH   4   5
ENDBRANCH   3   4
ENDBRANCH   2   3
BRANCH   2  11
HETATM   11  N   UNL     1      -6.832   9.706  66.069  1.00  0.00    -0.086 NA 
HETATM   12  H   UNL     1      -5.919   9.634  65.621  1.00  0.00     0.000 HD 
BRANCH  11  13
HETATM   13  C   UNL     1      -7.032  11.056  66.616  1.00  0.00    -0.140 C  
BRANCH  13  14
HETATM   14  C   UNL     1      -7.682  11.021  68.026  1.00  0.00    -0.106 C  
HETATM   15  H   UNL     1      -7.089  11.348  69.866  1.00  0.00     0.000 HD 
HETATM   16  O   UNL     1      -6.692  11.370  69.003  1.00  0.00    -0.075 OA 
BRANCH  14  17
HETATM   17  C   UNL     1      -8.896  11.937  68.121  1.00  0.00    -0.178 A  
HETATM   18  C   UNL     1      -9.907  14.152  68.447  1.00  0.00    -0.231 A  
HETATM   19  H   UNL     1     -13.194  13.850  68.627  1.00  0.00     0.000 HD 
HETATM   20  C   UNL     1     -11.175  13.561  68.417  1.00  0.00    -0.278 A  
HETATM   21  C   UNL     1     -11.318  12.194  68.204  1.00  0.00    -0.349 A  
HETATM   22  O   UNL     1     -12.333  14.251  68.647  1.00  0.00    -0.231 OA 
HETATM   23  C   UNL     1     -10.186  11.385  68.076  1.00  0.00    -0.201 A  
HETATM   24  C   UNL     1      -8.776  13.328  68.300  1.00  0.00    -0.168 A  
BRANCH  18  25
HETATM   25  C   UNL     1      -9.668  15.609  68.664  1.00  0.00    -0.204 C  
HETATM   26  O   UNL     1      -9.783  16.128  69.767  1.00  0.00    -0.176 OA 
HETATM   27  H1  UNL     1      -9.131  17.365  67.735  1.00  0.00     0.000 HD 
HETATM   28  H2  UNL     1      -9.182  15.950  66.664  1.00  0.00     0.000 HD 
HETATM   29  N   UNL     1      -9.294  16.368  67.588  1.00  0.00    -0.211 N  
ENDBRANCH  18  25
ENDBRANCH  14  17
ENDBRANCH  13  14
ENDBRANCH  11  13
ENDBRANCH   2  11
TORSDOF 8
ENDMDL
MODEL      172
REMARK 921   NORMALIZED FREE ENERGY PREDICTED BY IDOCK:   -4.55 KCAL/MOL
REMARK 922        TOTAL FREE ENERGY PREDICTED BY IDOCK:   -8.23 KCAL/MOL
REMARK 923 INTER-LIGAND FREE ENERGY PREDICTED BY IDOCK:   -7.09 KCAL/MOL
REMARK 924 INTRA-LIGAND FREE ENERGY PREDICTED BY IDOCK:   -1.14 KCAL/MOL
REMARK 927      BINDING AFFINITY PREDICTED BY RF-SCORE:    0.00 PKD
ROOT
HETATM    1  C   UNL     1      -7.347   9.836  69.873  1.00  0.00    -0.134 C  
HETATM    2  C   UNL     1      -7.289  10.239  68.394  1.00  0.00    -0.084 C  
ENDROOT
BRANCH   2   3
HETATM    3  C   UNL     1      -8.726  10.503  67.890  1.00  0.00    -0.126 C  
BRANCH   3   4
HETATM    4  C   UNL     1      -9.747   9.467  68.374  1.00  0.00    -0.163 C  
BRANCH   4   5
HETATM    5  C   UNL     1     -10.738  10.066  69.346  1.00  0.00    -0.258 A  
HETATM    6  C   UNL     1     -11.183   9.340  70.459  1.00  0.00    -0.315 A  
HETATM    7  C   UNL     1     -12.099   9.901  71.351  1.00  0.00    -0.501 A  
HETATM    8  C   UNL     1     -11.218  11.369  69.153  1.00  0.00    -0.335 A  
HETATM    9  C   UNL     1     -12.577  11.195  71.143  1.00  0.00    -0.513 A  
HETATM   10  C   UNL     1     -12.134  11.929  70.045  1.00  0.00    -0.366 A  
ENDBRANCH   4   5
ENDBRANCH   3   4
ENDBRANCH   2   3
BRANCH   2  11
HETATM   11  N   UNL     1      -6.456  11.425  68.168  1.00  0.00    -0.055 NA 
HETATM   12  H   UNL     1      -5.514  11.153  67.887  1.00  0.00     0.000 HD 
BRANCH  11  13
HETATM   13  C   UNL     1      -7.024  12.381  67.207  1.00  0.00    -0.129 C  
BRANCH  13  14
HETATM   14  C   UNL     1      -6.869  13.849  67.688  1.00  0.00    -0.179 C  
HETATM   15  H   UNL     1      -5.461  15.213  67.640  1.00  0.00     0.000 HD 
HETATM   16  O   UNL     1      -5.556  14.315  67.345  1.00  0.00    -0.342 OA 
BRANCH  14  17
HETATM   17  C   UNL     1      -7.945  14.760  67.107  1.00  0.00    -0.205 A  
HETATM   18  C   UNL     1     -10.165  15.118  66.120  1.00  0.00    -0.310 A  
HETATM   19  H   UNL     1     -10.443  18.263  65.138  1.00  0.00     0.000 HD 
HETATM   20  C   UNL     1      -9.844  16.466  65.924  1.00  0.00    -0.315 A  
HETATM   21  C   UNL     1      -8.618  16.973  66.340  1.00  0.00    -0.311 A  
HETATM   22  O   UNL     1     -10.661  17.348  65.271  1.00  0.00    -0.667 OA 
HETATM   23  C   UNL     1      -7.667  16.122  66.911  1.00  0.00    -0.284 A  
HETATM   24  C   UNL     1      -9.206  14.276  66.712  1.00  0.00    -0.282 A  
BRANCH  18  25
HETATM   25  C   UNL     1     -11.459  14.499  65.708  1.00  0.00    -0.342 C  
HETATM   26  O   UNL     1     -11.786  14.401  64.533  1.00  0.00    -0.422 OA 
HETATM   27  H1  UNL     1     -13.168  13.591  66.407  1.00  0.00     0.000 HD 
HETATM   28  H2  UNL     1     -12.021  14.076  67.672  1.00  0.00     0.000 HD 
HETATM   29  N   UNL     1     -12.283  14.014  66.689  1.00  0.00    -0.448 N  
ENDBRANCH  18  25
ENDBRANCH  14  17
ENDBRANCH  13  14
ENDBRANCH  11  13
ENDBRANCH   2  11
TORSDOF 8
ENDMDL
MODEL      173
REMARK 921   NORMALIZED FREE ENERGY PREDICTED BY IDOCK:   -4.54 KCAL/MOL
REMARK 922        TOTAL FREE ENERGY PREDICTED BY IDOCK:   -8.22 KCAL/MOL
REMARK 923 INTER-LIGAND FREE ENERGY PREDICTED BY IDOCK:   -7.12 KCAL/MOL
REMARK 924 INTRA-LIGAND FREE ENERGY PREDICTED BY IDOCK:   -1.10 KCAL/MOL
REMARK 927      BINDING AFFINITY PREDICTED BY RF-SCORE:    0.00 PKD
ROOT
HETATM    1  C   UNL     1     -10.358  10.039  70.111  1.00  0.00    -0.321 C  
HETATM    2  C   UNL     1      -9.963  10.636  68.755  1.00  0.00    -0.193 C  
ENDROOT
BRANCH   2   3
HETATM    3  C   UNL     1     -10.891  10.056  67.662  1.00  0.00    -0.336 C  
BRANCH   3   4
HETATM    4  C   UNL     1     -10.145   9.273  66.576  1.00  0.00    -0.343 C  
BRANCH   4   5
HETATM    5  C   UNL     1      -9.860   7.851  67.003  1.00  0.00    -0.293 A  
HETATM    6  C   UNL     1     -10.906   6.959  67.277  1.00  0.00    -0.426 A  
HETATM    7  C   UNL     1     -10.634   5.648  67.672  1.00  0.00    -0.279 A  
HETATM    8  C   UNL     1      -8.538   7.398  67.118  1.00  0.00    -0.118 A  
HETATM    9  C   UNL     1      -9.315   5.212  67.792  1.00  0.00    -0.138 A  
HETATM   10  C   UNL     1      -8.267   6.087  67.513  1.00  0.00    -0.106 A  
ENDBRANCH   4   5
ENDBRANCH   3   4
ENDBRANCH   2   3
BRANCH   2  11
HETATM   11  N   UNL     1     -10.035  12.101  68.744  1.00  0.00    -0.402 NA 
HETATM   12  H   UNL     1     -10.578  12.439  69.538  1.00  0.00     0.000 HD 
BRANCH  11  13
HETATM   13  C   UNL     1      -8.724  12.764  68.697  1.00  0.00     0.057 C  
BRANCH  13  14
HETATM   14  C   UNL     1      -8.317  13.142  67.247  1.00  0.00    -0.179 C  
HETATM   15  H   UNL     1      -7.357  12.273  65.774  1.00  0.00     0.000 HD 
HETATM   16  O   UNL     1      -7.606  12.042  66.661  1.00  0.00    -0.048 OA 
BRANCH  14  17
HETATM   17  C   UNL     1      -9.520  13.535  66.397  1.00  0.00    -0.236 A  
HETATM   18  C   UNL     1     -11.165  13.060  64.636  1.00  0.00    -0.355 A  
HETATM   19  H   UNL     1     -12.966  15.769  64.047  1.00  0.00     0.000 HD 
HETATM   20  C   UNL     1     -11.660  14.362  64.768  1.00  0.00    -0.408 A  
HETATM   21  C   UNL     1     -11.132  15.231  65.717  1.00  0.00    -0.301 A  
HETATM   22  O   UNL     1     -12.629  14.885  63.957  1.00  0.00    -0.832 OA 
HETATM   23  C   UNL     1     -10.057  14.827  66.513  1.00  0.00    -0.281 A  
HETATM   24  C   UNL     1     -10.093  12.660  65.456  1.00  0.00    -0.279 A  
BRANCH  18  25
HETATM   25  C   UNL     1     -11.679  12.066  63.649  1.00  0.00    -0.493 C  
HETATM   26  O   UNL     1     -12.876  11.933  63.426  1.00  0.00    -0.715 OA 
HETATM   27  H1  UNL     1     -11.120  10.621  62.296  1.00  0.00     0.000 HD 
HETATM   28  H2  UNL     1      -9.768  11.407  63.135  1.00  0.00     0.000 HD 
HETATM   29  N   UNL     1     -10.769  11.301  62.970  1.00  0.00    -0.098 N  
ENDBRANCH  18  25
ENDBRANCH  14  17
ENDBRANCH  13  14
ENDBRANCH  11  13
ENDBRANCH   2  11
TORSDOF 8
ENDMDL
MODEL      174
REMARK 921   NORMALIZED FREE ENERGY PREDICTED BY IDOCK:   -4.53 KCAL/MOL
REMARK 922        TOTAL FREE ENERGY PREDICTED BY IDOCK:   -8.21 KCAL/MOL
REMARK 923 INTER-LIGAND FREE ENERGY PREDICTED BY IDOCK:   -6.14 KCAL/MOL
REMARK 924 INTRA-LIGAND FREE ENERGY PREDICTED BY IDOCK:   -2.07 KCAL/MOL
REMARK 927      BINDING AFFINITY PREDICTED BY RF-SCORE:    0.00 PKD
ROOT
HETATM    1  C   UNL     1     -11.281  12.023  64.556  1.00  0.00    -0.390 C  
HETATM    2  C   UNL     1     -10.807  12.186  66.005  1.00  0.00    -0.282 C  
ENDROOT
BRANCH   2   3
HETATM    3  C   UNL     1      -9.735  13.298  66.061  1.00  0.00    -0.230 C  
BRANCH   3   4
HETATM    4  C   UNL     1      -8.500  12.920  66.887  1.00  0.00    -0.093 C  
BRANCH   4   5
HETATM    5  C   UNL     1      -7.884  14.126  67.559  1.00  0.00    -0.207 A  
HETATM    6  C   UNL     1      -7.573  14.107  68.926  1.00  0.00    -0.098 A  
HETATM    7  C   UNL     1      -7.005  15.225  69.539  1.00  0.00    -0.191 A  
HETATM    8  C   UNL     1      -7.598  15.281  66.817  1.00  0.00     0.103 A  
HETATM    9  C   UNL     1      -6.735  16.372  68.793  1.00  0.00    -0.158 A  
HETATM   10  C   UNL     1      -7.030  16.398  67.431  1.00  0.00    -0.196 A  
ENDBRANCH   4   5
ENDBRANCH   3   4
ENDBRANCH   2   3
BRANCH   2  11
HETATM   11  N   UNL     1     -11.906  12.506  66.923  1.00  0.00    -0.515 NA 
HETATM   12  H   UNL     1     -12.630  11.790  66.879  1.00  0.00     0.000 HD 
BRANCH  11  13
HETATM   13  C   UNL     1     -11.481  12.724  68.313  1.00  0.00    -0.314 C  
BRANCH  13  14
HETATM   14  C   UNL     1     -12.256  13.892  68.981  1.00  0.00    -0.239 C  
HETATM   15  H   UNL     1     -12.926  14.300  70.778  1.00  0.00     0.000 HD 
HETATM   16  O   UNL     1     -12.451  13.586  70.369  1.00  0.00    -0.321 OA 
BRANCH  14  17
HETATM   17  C   UNL     1     -11.545  15.228  68.806  1.00  0.00    -0.379 A  
HETATM   18  C   UNL     1     -10.693  17.050  67.396  1.00  0.00    -0.240 A  
HETATM   19  H   UNL     1      -8.917  19.138  69.243  1.00  0.00     0.000 HD 
HETATM   20  C   UNL     1     -10.109  17.631  68.526  1.00  0.00    -0.375 A  
HETATM   21  C   UNL     1     -10.264  17.056  69.783  1.00  0.00     0.100 A  
HETATM   22  O   UNL     1      -9.314  18.743  68.475  1.00  0.00    -0.324 OA 
HETATM   23  C   UNL     1     -10.960  15.852  69.919  1.00  0.00    -0.343 A  
HETATM   24  C   UNL     1     -11.407  15.847  67.549  1.00  0.00    -0.098 A  
BRANCH  18  25
HETATM   25  C   UNL     1     -10.580  17.607  66.016  1.00  0.00    -0.220 C  
HETATM   26  O   UNL     1     -10.441  16.886  65.035  1.00  0.00    -0.675 OA 
HETATM   27  H1  UNL     1     -10.577  19.346  64.916  1.00  0.00     0.000 HD 
HETATM   28  H2  UNL     1     -10.782  19.579  66.664  1.00  0.00     0.000 HD 
HETATM   29  N   UNL     1     -10.654  18.965  65.860  1.00  0.00    -0.459 N  
ENDBRANCH  18  25
ENDBRANCH  14  17
ENDBRANCH  13  14
ENDBRANCH  11  13
ENDBRANCH   2  11
TORSDOF 8
ENDMDL
MODEL      175
REMARK 921   NORMALIZED FREE ENERGY PREDICTED BY IDOCK:   -4.53 KCAL/MOL
REMARK 922        TOTAL FREE ENERGY PREDICTED BY IDOCK:   -8.21 KCAL/MOL
REMARK 923 INTER-LIGAND FREE ENERGY PREDICTED BY IDOCK:   -7.31 KCAL/MOL
REMARK 924 INTRA-LIGAND FREE ENERGY PREDICTED BY IDOCK:   -0.90 KCAL/MOL
REMARK 927      BINDING AFFINITY PREDICTED BY RF-SCORE:    0.00 PKD
ROOT
HETATM    1  C   UNL     1      -7.095  12.527  67.962  1.00  0.00    -0.103 C  
HETATM    2  C   UNL     1      -7.444  11.125  67.448  1.00  0.00    -0.109 C  
ENDROOT
BRANCH   2   3
HETATM    3  C   UNL     1      -7.342  10.121  68.619  1.00  0.00    -0.082 C  
BRANCH   3   4
HETATM    4  C   UNL     1      -7.165   8.667  68.166  1.00  0.00    -0.087 C  
BRANCH   4   5
HETATM    5  C   UNL     1      -8.493   7.972  67.976  1.00  0.00    -0.126 A  
HETATM    6  C   UNL     1      -9.461   7.979  68.989  1.00  0.00    -0.151 A  
HETATM    7  C   UNL     1     -10.685   7.334  68.805  1.00  0.00    -0.168 A  
HETATM    8  C   UNL     1      -8.783   7.318  66.770  1.00  0.00    -0.132 A  
HETATM    9  C   UNL     1     -10.959   6.679  67.605  1.00  0.00    -0.392 A  
HETATM   10  C   UNL     1     -10.007   6.673  66.586  1.00  0.00    -0.203 A  
ENDBRANCH   4   5
ENDBRANCH   3   4
ENDBRANCH   2   3
BRANCH   2  11
HETATM   11  N   UNL     1      -8.785  11.064  66.854  1.00  0.00    -0.144 NA 
HETATM   12  H   UNL     1      -8.991  10.119  66.531  1.00  0.00     0.000 HD 
BRANCH  11  13
HETATM   13  C   UNL     1      -9.854  11.550  67.739  1.00  0.00    -0.177 C  
BRANCH  13  14
HETATM   14  C   UNL     1     -11.196  11.733  66.981  1.00  0.00    -0.322 C  
HETATM   15  H   UNL     1     -13.094  11.824  67.466  1.00  0.00     0.000 HD 
HETATM   16  O   UNL     1     -12.273  11.712  67.929  1.00  0.00    -0.560 OA 
BRANCH  14  17
HETATM   17  C   UNL     1     -11.218  13.011  66.152  1.00  0.00    -0.320 A  
HETATM   18  C   UNL     1     -10.580  15.355  65.784  1.00  0.00    -0.361 A  
HETATM   19  H   UNL     1     -12.179  16.533  63.141  1.00  0.00     0.000 HD 
HETATM   20  C   UNL     1     -11.397  15.383  64.649  1.00  0.00    -0.355 A  
HETATM   21  C   UNL     1     -12.086  14.247  64.238  1.00  0.00    -0.467 A  
HETATM   22  O   UNL     1     -11.624  16.513  63.912  1.00  0.00    -1.175 OA 
HETATM   23  C   UNL     1     -12.012  13.074  64.996  1.00  0.00    -0.438 A  
HETATM   24  C   UNL     1     -10.501  14.163  66.527  1.00  0.00    -0.280 A  
BRANCH  18  25
HETATM   25  C   UNL     1      -9.805  16.527  66.286  1.00  0.00    -0.316 C  
HETATM   26  O   UNL     1      -8.724  16.844  65.805  1.00  0.00    -0.512 OA 
HETATM   27  H1  UNL     1      -9.812  18.069  67.648  1.00  0.00     0.000 HD 
HETATM   28  H2  UNL     1     -11.246  17.025  67.709  1.00  0.00     0.000 HD 
HETATM   29  N   UNL     1     -10.342  17.268  67.304  1.00  0.00    -0.327 N  
ENDBRANCH  18  25
ENDBRANCH  14  17
ENDBRANCH  13  14
ENDBRANCH  11  13
ENDBRANCH   2  11
TORSDOF 8
ENDMDL
MODEL      176
REMARK 921   NORMALIZED FREE ENERGY PREDICTED BY IDOCK:   -4.53 KCAL/MOL
REMARK 922        TOTAL FREE ENERGY PREDICTED BY IDOCK:   -8.20 KCAL/MOL
REMARK 923 INTER-LIGAND FREE ENERGY PREDICTED BY IDOCK:   -7.25 KCAL/MOL
REMARK 924 INTRA-LIGAND FREE ENERGY PREDICTED BY IDOCK:   -0.96 KCAL/MOL
REMARK 927      BINDING AFFINITY PREDICTED BY RF-SCORE:    0.00 PKD
ROOT
HETATM    1  C   UNL     1      -8.503  13.167  67.357  1.00  0.00    -0.201 C  
HETATM    2  C   UNL     1      -8.865  14.359  68.252  1.00  0.00    -0.182 C  
ENDROOT
BRANCH   2   3
HETATM    3  C   UNL     1      -8.004  15.575  67.842  1.00  0.00    -0.146 C  
BRANCH   3   4
HETATM    4  C   UNL     1      -8.287  16.076  66.421  1.00  0.00    -0.344 C  
BRANCH   4   5
HETATM    5  C   UNL     1      -8.795  17.500  66.419  1.00  0.00    -0.269 A  
HETATM    6  C   UNL     1      -7.909  18.581  66.322  1.00  0.00    -0.282 A  
HETATM    7  C   UNL     1      -8.387  19.892  66.321  1.00  0.00    -0.371 A  
HETATM    8  C   UNL     1     -10.171  17.760  66.499  1.00  0.00    -0.358 A  
HETATM    9  C   UNL     1      -9.756  20.139  66.411  1.00  0.00    -0.538 A  
HETATM   10  C   UNL     1     -10.648  19.072  66.498  1.00  0.00    -0.495 A  
ENDBRANCH   4   5
ENDBRANCH   3   4
ENDBRANCH   2   3
BRANCH   2  11
HETATM   11  N   UNL     1     -10.288  14.706  68.174  1.00  0.00    -0.227 NA 
HETATM   12  H   UNL     1     -10.666  14.467  67.258  1.00  0.00     0.000 HD 
BRANCH  11  13
HETATM   13  C   UNL     1     -11.108  14.113  69.240  1.00  0.00    -0.250 C  
BRANCH  13  14
HETATM   14  C   UNL     1     -12.031  12.986  68.704  1.00  0.00    -0.263 C  
HETATM   15  H   UNL     1     -12.563  12.311  66.941  1.00  0.00     0.000 HD 
HETATM   16  O   UNL     1     -11.998  13.001  67.269  1.00  0.00    -0.366 OA 
BRANCH  14  17
HETATM   17  C   UNL     1     -11.641  11.617  69.249  1.00  0.00    -0.385 A  
HETATM   18  C   UNL     1     -10.660   9.383  68.969  1.00  0.00    -0.233 A  
HETATM   19  H   UNL     1     -11.182   7.597  71.701  1.00  0.00     0.000 HD 
HETATM   20  C   UNL     1     -11.061   9.060  70.270  1.00  0.00    -0.235 A  
HETATM   21  C   UNL     1     -11.704   9.998  71.070  1.00  0.00    -0.479 A  
HETATM   22  O   UNL     1     -10.910   7.816  70.817  1.00  0.00    -0.230 OA 
HETATM   23  C   UNL     1     -12.009  11.262  70.556  1.00  0.00    -0.467 A  
HETATM   24  C   UNL     1     -10.958  10.664  68.470  1.00  0.00    -0.296 A  
BRANCH  18  25
HETATM   25  C   UNL     1      -9.961   8.437  68.050  1.00  0.00    -0.182 C  
HETATM   26  O   UNL     1      -8.741   8.416  67.947  1.00  0.00    -0.136 OA 
HETATM   27  H1  UNL     1     -10.245   6.916  66.694  1.00  0.00     0.000 HD 
HETATM   28  H2  UNL     1     -11.739   7.558  67.404  1.00  0.00     0.000 HD 
HETATM   29  N   UNL     1     -10.723   7.563  67.322  1.00  0.00    -0.312 N  
ENDBRANCH  18  25
ENDBRANCH  14  17
ENDBRANCH  13  14
ENDBRANCH  11  13
ENDBRANCH   2  11
TORSDOF 8
ENDMDL
MODEL      177
REMARK 921   NORMALIZED FREE ENERGY PREDICTED BY IDOCK:   -4.50 KCAL/MOL
REMARK 922        TOTAL FREE ENERGY PREDICTED BY IDOCK:   -8.16 KCAL/MOL
REMARK 923 INTER-LIGAND FREE ENERGY PREDICTED BY IDOCK:   -7.31 KCAL/MOL
REMARK 924 INTRA-LIGAND FREE ENERGY PREDICTED BY IDOCK:   -0.85 KCAL/MOL
REMARK 927      BINDING AFFINITY PREDICTED BY RF-SCORE:    0.00 PKD
ROOT
HETATM    1  C   UNL     1     -13.430  13.044  72.143  1.00  0.00    -0.638 C  
HETATM    2  C   UNL     1     -12.449  12.484  71.106  1.00  0.00    -0.223 C  
ENDROOT
BRANCH   2   3
HETATM    3  C   UNL     1     -12.734  10.978  70.907  1.00  0.00    -0.452 C  
BRANCH   3   4
HETATM    4  C   UNL     1     -11.546  10.076  71.260  1.00  0.00    -0.430 C  
BRANCH   4   5
HETATM    5  C   UNL     1     -10.707   9.751  70.046  1.00  0.00    -0.326 A  
HETATM    6  C   UNL     1     -11.227   9.893  68.752  1.00  0.00    -0.122 A  
HETATM    7  C   UNL     1     -10.445   9.589  67.636  1.00  0.00    -0.321 A  
HETATM    8  C   UNL     1      -9.383   9.313  70.197  1.00  0.00    -0.258 A  
HETATM    9  C   UNL     1      -9.133   9.146  67.800  1.00  0.00    -0.135 A  
HETATM   10  C   UNL     1      -8.602   9.010  69.081  1.00  0.00    -0.133 A  
ENDBRANCH   4   5
ENDBRANCH   3   4
ENDBRANCH   2   3
BRANCH   2  11
HETATM   11  N   UNL     1     -12.536  13.182  69.818  1.00  0.00    -0.075 NA 
HETATM   12  H   UNL     1     -13.343  13.806  69.802  1.00  0.00     0.000 HD 
BRANCH  11  13
HETATM   13  C   UNL     1     -11.314  13.912  69.450  1.00  0.00    -0.258 C  
BRANCH  13  14
HETATM   14  C   UNL     1     -11.569  15.437  69.306  1.00  0.00    -0.339 C  
HETATM   15  H   UNL     1     -11.725  16.966  70.523  1.00  0.00     0.000 HD 
HETATM   16  O   UNL     1     -11.568  16.034  70.611  1.00  0.00    -0.365 OA 
BRANCH  14  17
HETATM   17  C   UNL     1     -10.548  16.106  68.393  1.00  0.00    -0.286 A  
HETATM   18  C   UNL     1      -9.040  17.964  67.841  1.00  0.00    -0.260 A  
HETATM   19  H   UNL     1      -7.805  17.519  64.807  1.00  0.00     0.000 HD 
HETATM   20  C   UNL     1      -8.766  17.356  66.611  1.00  0.00    -0.260 A  
HETATM   21  C   UNL     1      -9.332  16.129  66.281  1.00  0.00    -0.351 A  
HETATM   22  O   UNL     1      -7.991  17.932  65.642  1.00  0.00    -0.527 OA 
HETATM   23  C   UNL     1     -10.233  15.518  67.158  1.00  0.00    -0.260 A  
HETATM   24  C   UNL     1      -9.934  17.329  68.722  1.00  0.00    -0.325 A  
BRANCH  18  25
HETATM   25  C   UNL     1      -8.469  19.274  68.272  1.00  0.00    -0.331 C  
HETATM   26  O   UNL     1      -8.967  20.341  67.937  1.00  0.00    -0.279 OA 
HETATM   27  H1  UNL     1      -6.973  20.156  69.375  1.00  0.00     0.000 HD 
HETATM   28  H2  UNL     1      -6.942  18.381  69.378  1.00  0.00     0.000 HD 
HETATM   29  N   UNL     1      -7.364  19.261  69.080  1.00  0.00    -0.354 N  
ENDBRANCH  18  25
ENDBRANCH  14  17
ENDBRANCH  13  14
ENDBRANCH  11  13
ENDBRANCH   2  11
TORSDOF 8
ENDMDL
MODEL      178
REMARK 921   NORMALIZED FREE ENERGY PREDICTED BY IDOCK:   -4.50 KCAL/MOL
REMARK 922        TOTAL FREE ENERGY PREDICTED BY IDOCK:   -8.16 KCAL/MOL
REMARK 923 INTER-LIGAND FREE ENERGY PREDICTED BY IDOCK:   -7.61 KCAL/MOL
REMARK 924 INTRA-LIGAND FREE ENERGY PREDICTED BY IDOCK:   -0.55 KCAL/MOL
REMARK 927      BINDING AFFINITY PREDICTED BY RF-SCORE:    0.00 PKD
ROOT
HETATM    1  C   UNL     1     -14.235  14.075  72.168  1.00  0.00    -0.628 C  
HETATM    2  C   UNL     1     -12.823  13.952  71.581  1.00  0.00    -0.349 C  
ENDROOT
BRANCH   2   3
HETATM    3  C   UNL     1     -12.588  12.489  71.140  1.00  0.00    -0.349 C  
BRANCH   3   4
HETATM    4  C   UNL     1     -13.393  11.467  71.951  1.00  0.00    -0.409 C  
BRANCH   4   5
HETATM    5  C   UNL     1     -12.991  10.047  71.622  1.00  0.00    -0.554 A  
HETATM    6  C   UNL     1     -11.687   9.746  71.208  1.00  0.00    -0.472 A  
HETATM    7  C   UNL     1     -11.324   8.432  70.905  1.00  0.00    -0.298 A  
HETATM    8  C   UNL     1     -13.919   9.003  71.743  1.00  0.00    -0.415 A  
HETATM    9  C   UNL     1     -12.259   7.403  71.020  1.00  0.00    -0.315 A  
HETATM   10  C   UNL     1     -13.556   7.690  71.441  1.00  0.00    -0.368 A  
ENDBRANCH   4   5
ENDBRANCH   3   4
ENDBRANCH   2   3
BRANCH   2  11
HETATM   11  N   UNL     1     -12.606  14.856  70.446  1.00  0.00    -0.437 NA 
HETATM   12  H   UNL     1     -13.217  15.670  70.514  1.00  0.00     0.000 HD 
BRANCH  11  13
HETATM   13  C   UNL     1     -11.208  15.274  70.272  1.00  0.00    -0.297 C  
BRANCH  13  14
HETATM   14  C   UNL     1     -10.883  15.615  68.793  1.00  0.00    -0.262 C  
HETATM   15  H   UNL     1     -11.909  16.119  67.199  1.00  0.00     0.000 HD 
HETATM   16  O   UNL     1     -12.107  15.911  68.105  1.00  0.00    -0.003 OA 
BRANCH  14  17
HETATM   17  C   UNL     1      -9.893  16.767  68.674  1.00  0.00    -0.261 A  
HETATM   18  C   UNL     1      -7.649  17.723  68.971  1.00  0.00    -0.153 A  
HETATM   19  H   UNL     1      -7.723  20.953  68.271  1.00  0.00     0.000 HD 
HETATM   20  C   UNL     1      -8.140  18.965  68.554  1.00  0.00    -0.348 A  
HETATM   21  C   UNL     1      -9.467  19.112  68.164  1.00  0.00    -0.400 A  
HETATM   22  O   UNL     1      -7.390  20.109  68.555  1.00  0.00    -0.263 OA 
HETATM   23  C   UNL     1     -10.342  18.025  68.242  1.00  0.00    -0.389 A  
HETATM   24  C   UNL     1      -8.537  16.632  69.028  1.00  0.00    -0.190 A  
BRANCH  18  25
HETATM   25  C   UNL     1      -6.240  17.480  69.398  1.00  0.00    -0.250 C  
HETATM   26  O   UNL     1      -5.956  17.163  70.546  1.00  0.00    -0.052 OA 
HETATM   27  H1  UNL     1      -4.287  17.439  68.752  1.00  0.00     0.000 HD 
HETATM   28  H2  UNL     1      -5.471  17.856  67.496  1.00  0.00     0.000 HD 
HETATM   29  N   UNL     1      -5.251  17.605  68.460  1.00  0.00    -0.145 N  
ENDBRANCH  18  25
ENDBRANCH  14  17
ENDBRANCH  13  14
ENDBRANCH  11  13
ENDBRANCH   2  11
TORSDOF 8
ENDMDL
MODEL      179
REMARK 921   NORMALIZED FREE ENERGY PREDICTED BY IDOCK:   -4.49 KCAL/MOL
REMARK 922        TOTAL FREE ENERGY PREDICTED BY IDOCK:   -8.15 KCAL/MOL
REMARK 923 INTER-LIGAND FREE ENERGY PREDICTED BY IDOCK:   -7.23 KCAL/MOL
REMARK 924 INTRA-LIGAND FREE ENERGY PREDICTED BY IDOCK:   -0.92 KCAL/MOL
REMARK 927      BINDING AFFINITY PREDICTED BY RF-SCORE:    0.00 PKD
ROOT
HETATM    1  C   UNL     1      -9.663  16.177  69.509  1.00  0.00    -0.179 C  
HETATM    2  C   UNL     1     -10.904  15.697  68.747  1.00  0.00    -0.262 C  
ENDROOT
BRANCH   2   3
HETATM    3  C   UNL     1     -10.507  15.381  67.287  1.00  0.00    -0.282 C  
BRANCH   3   4
HETATM    4  C   UNL     1     -10.858  16.500  66.300  1.00  0.00    -0.037 C  
BRANCH   4   5
HETATM    5  C   UNL     1     -10.117  17.780  66.614  1.00  0.00    -0.350 A  
HETATM    6  C   UNL     1     -10.811  18.952  66.943  1.00  0.00    -0.347 A  
HETATM    7  C   UNL     1     -10.118  20.129  67.231  1.00  0.00    -0.572 A  
HETATM    8  C   UNL     1      -8.715  17.807  66.595  1.00  0.00    -0.281 A  
HETATM    9  C   UNL     1      -8.724  20.147  67.199  1.00  0.00    -0.427 A  
HETATM   10  C   UNL     1      -8.023  18.985  66.883  1.00  0.00    -0.270 A  
ENDBRANCH   4   5
ENDBRANCH   3   4
ENDBRANCH   2   3
BRANCH   2  11
HETATM   11  N   UNL     1     -11.518  14.516  69.364  1.00  0.00    -0.269 NA 
HETATM   12  H   UNL     1     -12.321  14.784  69.933  1.00  0.00     0.000 HD 
BRANCH  11  13
HETATM   13  C   UNL     1     -11.895  13.468  68.404  1.00  0.00    -0.373 C  
BRANCH  13  14
HETATM   14  C   UNL     1     -11.289  12.089  68.782  1.00  0.00    -0.278 C  
HETATM   15  H   UNL     1     -11.933  10.448  69.640  1.00  0.00     0.000 HD 
HETATM   16  O   UNL     1     -12.303  11.291  69.409  1.00  0.00    -0.285 OA 
BRANCH  14  17
HETATM   17  C   UNL     1     -10.693  11.374  67.576  1.00  0.00    -0.266 A  
HETATM   18  C   UNL     1     -10.346  11.152  65.154  1.00  0.00    -0.354 A  
HETATM   19  H   UNL     1      -8.782   8.310  64.519  1.00  0.00     0.000 HD 
HETATM   20  C   UNL     1      -9.678   9.943  65.376  1.00  0.00    -0.306 A  
HETATM   21  C   UNL     1      -9.479   9.466  66.667  1.00  0.00    -0.230 A  
HETATM   22  O   UNL     1      -9.235   9.131  64.368  1.00  0.00    -0.088 OA 
HETATM   23  C   UNL     1     -10.000  10.167  67.759  1.00  0.00    -0.198 A  
HETATM   24  C   UNL     1     -10.850  11.857  66.263  1.00  0.00    -0.323 A  
BRANCH  18  25
HETATM   25  C   UNL     1     -10.594  11.734  63.803  1.00  0.00    -0.415 C  
HETATM   26  O   UNL     1      -9.679  12.091  63.072  1.00  0.00    -0.383 OA 
HETATM   27  H1  UNL     1     -12.061  12.249  62.455  1.00  0.00     0.000 HD 
HETATM   28  H2  UNL     1     -12.665  11.547  63.969  1.00  0.00     0.000 HD 
HETATM   29  N   UNL     1     -11.891  11.850  63.378  1.00  0.00    -0.455 N  
ENDBRANCH  18  25
ENDBRANCH  14  17
ENDBRANCH  13  14
ENDBRANCH  11  13
ENDBRANCH   2  11
TORSDOF 8
ENDMDL
MODEL      180
REMARK 921   NORMALIZED FREE ENERGY PREDICTED BY IDOCK:   -4.48 KCAL/MOL
REMARK 922        TOTAL FREE ENERGY PREDICTED BY IDOCK:   -8.13 KCAL/MOL
REMARK 923 INTER-LIGAND FREE ENERGY PREDICTED BY IDOCK:   -5.46 KCAL/MOL
REMARK 924 INTRA-LIGAND FREE ENERGY PREDICTED BY IDOCK:   -2.67 KCAL/MOL
REMARK 927      BINDING AFFINITY PREDICTED BY RF-SCORE:    0.00 PKD
ROOT
HETATM    1  C   UNL     1      -9.943   7.286  70.900  1.00  0.00    -0.186 C  
HETATM    2  C   UNL     1      -9.411   8.593  71.499  1.00  0.00    -0.249 C  
ENDROOT
BRANCH   2   3
HETATM    3  C   UNL     1      -7.966   8.824  70.999  1.00  0.00    -0.170 C  
BRANCH   3   4
HETATM    4  C   UNL     1      -7.768   8.483  69.518  1.00  0.00    -0.091 C  
BRANCH   4   5
HETATM    5  C   UNL     1      -7.492   9.717  68.689  1.00  0.00    -0.075 A  
HETATM    6  C   UNL     1      -6.925   9.614  67.412  1.00  0.00    -0.084 A  
HETATM    7  C   UNL     1      -6.673  10.759  66.654  1.00  0.00    -0.120 A  
HETATM    8  C   UNL     1      -7.815  10.988  69.185  1.00  0.00    -0.092 A  
HETATM    9  C   UNL     1      -6.989  12.019  67.161  1.00  0.00    -0.134 A  
HETATM   10  C   UNL     1      -7.562  12.132  68.426  1.00  0.00    -0.128 A  
ENDBRANCH   4   5
ENDBRANCH   3   4
ENDBRANCH   2   3
BRANCH   2  11
HETATM   11  N   UNL     1     -10.247   9.749  71.156  1.00  0.00    -0.264 NA 
HETATM   12  H   UNL     1      -9.701  10.453  70.660  1.00  0.00     0.000 HD 
BRANCH  11  13
HETATM   13  C   UNL     1     -11.458   9.406  70.396  1.00  0.00    -0.223 C  
BRANCH  13  14
HETATM   14  C   UNL     1     -11.973  10.605  69.554  1.00  0.00    -0.247 C  
HETATM   15  H   UNL     1     -12.034  12.554  69.757  1.00  0.00     0.000 HD 
HETATM   16  O   UNL     1     -11.718  11.821  70.271  1.00  0.00    -0.309 OA 
BRANCH  14  17
HETATM   17  C   UNL     1     -11.346  10.643  68.166  1.00  0.00    -0.354 A  
HETATM   18  C   UNL     1     -10.787  11.817  66.082  1.00  0.00    -0.336 A  
HETATM   19  H   UNL     1      -9.505   9.674  63.916  1.00  0.00     0.000 HD 
HETATM   20  C   UNL     1     -10.288  10.620  65.558  1.00  0.00    -0.227 A  
HETATM   21  C   UNL     1     -10.275   9.459  66.324  1.00  0.00    -0.284 A  
HETATM   22  O   UNL     1      -9.844  10.488  64.271  1.00  0.00    -0.300 OA 
HETATM   23  C   UNL     1     -10.818   9.465  67.612  1.00  0.00    -0.222 A  
HETATM   24  C   UNL     1     -11.314  11.814  67.387  1.00  0.00    -0.376 A  
BRANCH  18  25
HETATM   25  C   UNL     1     -10.830  13.105  65.330  1.00  0.00    -0.297 C  
HETATM   26  O   UNL     1     -10.011  13.995  65.519  1.00  0.00    -0.316 OA 
HETATM   27  H1  UNL     1     -11.843  14.153  63.877  1.00  0.00     0.000 HD 
HETATM   28  H2  UNL     1     -12.496  12.537  64.211  1.00  0.00     0.000 HD 
HETATM   29  N   UNL     1     -11.813  13.272  64.391  1.00  0.00    -0.379 N  
ENDBRANCH  18  25
ENDBRANCH  14  17
ENDBRANCH  13  14
ENDBRANCH  11  13
ENDBRANCH   2  11
TORSDOF 8
ENDMDL
MODEL      181
REMARK 921   NORMALIZED FREE ENERGY PREDICTED BY IDOCK:   -4.48 KCAL/MOL
REMARK 922        TOTAL FREE ENERGY PREDICTED BY IDOCK:   -8.13 KCAL/MOL
REMARK 923 INTER-LIGAND FREE ENERGY PREDICTED BY IDOCK:   -6.92 KCAL/MOL
REMARK 924 INTRA-LIGAND FREE ENERGY PREDICTED BY IDOCK:   -1.21 KCAL/MOL
REMARK 927      BINDING AFFINITY PREDICTED BY RF-SCORE:    0.00 PKD
ROOT
HETATM    1  C   UNL     1     -12.983  13.702  65.206  1.00  0.00    -0.315 C  
HETATM    2  C   UNL     1     -11.953  13.733  66.342  1.00  0.00    -0.438 C  
ENDROOT
BRANCH   2   3
HETATM    3  C   UNL     1     -10.561  14.050  65.750  1.00  0.00    -0.303 C  
BRANCH   3   4
HETATM    4  C   UNL     1      -9.927  12.869  65.007  1.00  0.00    -0.163 C  
BRANCH   4   5
HETATM    5  C   UNL     1      -9.684  11.692  65.924  1.00  0.00    -0.260 A  
HETATM    6  C   UNL     1     -10.114  10.405  65.573  1.00  0.00    -0.352 A  
HETATM    7  C   UNL     1      -9.886   9.324  66.426  1.00  0.00    -0.347 A  
HETATM    8  C   UNL     1      -9.009  11.870  67.140  1.00  0.00    -0.178 A  
HETATM    9  C   UNL     1      -9.222   9.515  67.638  1.00  0.00    -0.138 A  
HETATM   10  C   UNL     1      -8.782  10.789  67.993  1.00  0.00    -0.132 A  
ENDBRANCH   4   5
ENDBRANCH   3   4
ENDBRANCH   2   3
BRANCH   2  11
HETATM   11  N   UNL     1     -12.290  14.716  67.378  1.00  0.00    -0.521 NA 
HETATM   12  H   UNL     1     -13.283  14.947  67.344  1.00  0.00     0.000 HD 
BRANCH  11  13
HETATM   13  C   UNL     1     -11.901  14.311  68.737  1.00  0.00    -0.341 C  
BRANCH  13  14
HETATM   14  C   UNL     1     -11.464  15.524  69.601  1.00  0.00    -0.329 C  
HETATM   15  H   UNL     1     -10.848  15.800  71.443  1.00  0.00     0.000 HD 
HETATM   16  O   UNL     1     -11.116  15.058  70.913  1.00  0.00    -0.267 OA 
BRANCH  14  17
HETATM   17  C   UNL     1     -10.312  16.295  68.967  1.00  0.00    -0.264 A  
HETATM   18  C   UNL     1      -9.435  18.208  67.700  1.00  0.00    -0.264 A  
HETATM   19  H   UNL     1      -6.234  17.718  67.036  1.00  0.00     0.000 HD 
HETATM   20  C   UNL     1      -8.170  17.610  67.703  1.00  0.00    -0.224 A  
HETATM   21  C   UNL     1      -7.956  16.400  68.353  1.00  0.00    -0.178 A  
HETATM   22  O   UNL     1      -7.093  18.124  67.034  1.00  0.00    -0.189 OA 
HETATM   23  C   UNL     1      -9.024  15.737  68.965  1.00  0.00    -0.246 A  
HETATM   24  C   UNL     1     -10.498  17.538  68.335  1.00  0.00    -0.372 A  
BRANCH  18  25
HETATM   25  C   UNL     1      -9.745  19.505  67.033  1.00  0.00    -0.347 C  
HETATM   26  O   UNL     1      -9.056  20.503  67.201  1.00  0.00    -0.363 OA 
HETATM   27  H1  UNL     1     -11.041  20.445  65.739  1.00  0.00     0.000 HD 
HETATM   28  H2  UNL     1     -11.406  18.734  66.034  1.00  0.00     0.000 HD 
HETATM   29  N   UNL     1     -10.828  19.558  66.196  1.00  0.00    -0.388 N  
ENDBRANCH  18  25
ENDBRANCH  14  17
ENDBRANCH  13  14
ENDBRANCH  11  13
ENDBRANCH   2  11
TORSDOF 8
ENDMDL
MODEL      182
REMARK 921   NORMALIZED FREE ENERGY PREDICTED BY IDOCK:   -4.47 KCAL/MOL
REMARK 922        TOTAL FREE ENERGY PREDICTED BY IDOCK:   -8.12 KCAL/MOL
REMARK 923 INTER-LIGAND FREE ENERGY PREDICTED BY IDOCK:   -6.44 KCAL/MOL
REMARK 924 INTRA-LIGAND FREE ENERGY PREDICTED BY IDOCK:   -1.68 KCAL/MOL
REMARK 927      BINDING AFFINITY PREDICTED BY RF-SCORE:    0.00 PKD
ROOT
HETATM    1  C   UNL     1      -9.983  11.194  65.363  1.00  0.00    -0.309 C  
HETATM    2  C   UNL     1      -9.933  10.141  66.476  1.00  0.00    -0.224 C  
ENDROOT
BRANCH   2   3
HETATM    3  C   UNL     1     -10.933  10.537  67.587  1.00  0.00    -0.375 C  
BRANCH   3   4
HETATM    4  C   UNL     1     -10.285  10.697  68.967  1.00  0.00    -0.231 C  
BRANCH   4   5
HETATM    5  C   UNL     1     -11.246  10.352  70.082  1.00  0.00    -0.393 A  
HETATM    6  C   UNL     1     -12.378  11.141  70.326  1.00  0.00    -0.397 A  
HETATM    7  C   UNL     1     -13.260  10.816  71.359  1.00  0.00    -0.384 A  
HETATM    8  C   UNL     1     -11.025   9.222  70.883  1.00  0.00    -0.368 A  
HETATM    9  C   UNL     1     -13.024   9.695  72.155  1.00  0.00    -0.493 A  
HETATM   10  C   UNL     1     -11.907   8.898  71.915  1.00  0.00    -0.440 A  
ENDBRANCH   4   5
ENDBRANCH   3   4
ENDBRANCH   2   3
BRANCH   2  11
HETATM   11  N   UNL     1     -10.240   8.792  65.987  1.00  0.00    -0.345 NA 
HETATM   12  H   UNL     1     -10.072   8.728  64.983  1.00  0.00     0.000 HD 
BRANCH  11  13
HETATM   13  C   UNL     1      -9.525   7.721  66.697  1.00  0.00    -0.205 C  
BRANCH  13  14
HETATM   14  C   UNL     1     -10.457   6.949  67.671  1.00  0.00    -0.228 C  
HETATM   15  H   UNL     1     -11.553   5.325  67.590  1.00  0.00     0.000 HD 
HETATM   16  O   UNL     1     -10.983   5.798  66.995  1.00  0.00    -0.274 OA 
BRANCH  14  17
HETATM   17  C   UNL     1      -9.741   6.554  68.957  1.00  0.00    -0.140 A  
HETATM   18  C   UNL     1      -9.717   5.502  71.176  1.00  0.00    -0.226 A  
HETATM   19  H   UNL     1      -6.830   6.124  72.662  1.00  0.00     0.000 HD 
HETATM   20  C   UNL     1      -8.410   5.963  71.365  1.00  0.00    -0.128 A  
HETATM   21  C   UNL     1      -7.755   6.673  70.364  1.00  0.00    -0.097 A  
HETATM   22  O   UNL     1      -7.718   5.810  72.535  1.00  0.00    -0.099 OA 
HETATM   23  C   UNL     1      -8.423   6.983  69.176  1.00  0.00    -0.129 A  
HETATM   24  C   UNL     1     -10.372   5.805  69.968  1.00  0.00    -0.328 A  
BRANCH  18  25
HETATM   25  C   UNL     1     -10.486   4.730  72.196  1.00  0.00    -0.175 C  
HETATM   26  O   UNL     1     -11.425   5.221  72.810  1.00  0.00    -0.290 OA 
HETATM   27  H1  UNL     1     -10.654   2.900  73.123  1.00  0.00     0.000 HD 
HETATM   28  H2  UNL     1      -9.357   2.999  71.915  1.00  0.00     0.000 HD 
HETATM   29  N   UNL     1     -10.128   3.428  72.426  1.00  0.00    -0.164 N  
ENDBRANCH  18  25
ENDBRANCH  14  17
ENDBRANCH  13  14
ENDBRANCH  11  13
ENDBRANCH   2  11
TORSDOF 8
ENDMDL
MODEL      183
REMARK 921   NORMALIZED FREE ENERGY PREDICTED BY IDOCK:   -4.46 KCAL/MOL
REMARK 922        TOTAL FREE ENERGY PREDICTED BY IDOCK:   -8.10 KCAL/MOL
REMARK 923 INTER-LIGAND FREE ENERGY PREDICTED BY IDOCK:   -7.45 KCAL/MOL
REMARK 924 INTRA-LIGAND FREE ENERGY PREDICTED BY IDOCK:   -0.65 KCAL/MOL
REMARK 927      BINDING AFFINITY PREDICTED BY RF-SCORE:    0.00 PKD
ROOT
HETATM    1  C   UNL     1     -10.888  18.572  67.541  1.00  0.00    -0.337 C  
HETATM    2  C   UNL     1      -9.523  17.909  67.320  1.00  0.00    -0.263 C  
ENDROOT
BRANCH   2   3
HETATM    3  C   UNL     1      -8.524  18.455  68.366  1.00  0.00    -0.345 C  
BRANCH   3   4
HETATM    4  C   UNL     1      -7.803  19.731  67.918  1.00  0.00    -0.328 C  
BRANCH   4   5
HETATM    5  C   UNL     1      -6.868  19.470  66.759  1.00  0.00    -0.207 A  
HETATM    6  C   UNL     1      -5.988  18.380  66.775  1.00  0.00    -0.174 A  
HETATM    7  C   UNL     1      -5.128  18.147  65.701  1.00  0.00    -0.214 A  
HETATM    8  C   UNL     1      -6.879  20.313  65.638  1.00  0.00    -0.302 A  
HETATM    9  C   UNL     1      -5.141  18.998  64.595  1.00  0.00    -0.215 A  
HETATM   10  C   UNL     1      -6.018  20.080  64.564  1.00  0.00    -0.305 A  
ENDBRANCH   4   5
ENDBRANCH   3   4
ENDBRANCH   2   3
BRANCH   2  11
HETATM   11  N   UNL     1      -9.589  16.446  67.409  1.00  0.00    -0.229 NA 
HETATM   12  H   UNL     1      -8.987  16.105  68.159  1.00  0.00     0.000 HD 
BRANCH  11  13
HETATM   13  C   UNL     1     -10.951  15.917  67.561  1.00  0.00    -0.280 C  
BRANCH  13  14
HETATM   14  C   UNL     1     -10.955  14.382  67.795  1.00  0.00    -0.274 C  
HETATM   15  H   UNL     1      -9.605  12.963  67.898  1.00  0.00     0.000 HD 
HETATM   16  O   UNL     1      -9.603  13.902  67.756  1.00  0.00    -0.210 OA 
BRANCH  14  17
HETATM   17  C   UNL     1     -11.636  14.003  69.105  1.00  0.00    -0.356 A  
HETATM   18  C   UNL     1     -12.443  12.329  70.711  1.00  0.00    -0.356 A  
HETATM   19  H   UNL     1     -14.174  13.829  73.095  1.00  0.00     0.000 HD 
HETATM   20  C   UNL     1     -13.015  13.355  71.470  1.00  0.00    -0.341 A  
HETATM   21  C   UNL     1     -12.876  14.685  71.089  1.00  0.00    -0.411 A  
HETATM   22  O   UNL     1     -13.785  13.132  72.579  1.00  0.00    -0.610 OA 
HETATM   23  C   UNL     1     -12.208  15.005  69.904  1.00  0.00    -0.351 A  
HETATM   24  C   UNL     1     -11.757  12.666  69.530  1.00  0.00    -0.374 A  
BRANCH  18  25
HETATM   25  C   UNL     1     -12.541  10.880  71.055  1.00  0.00    -0.417 C  
HETATM   26  O   UNL     1     -13.610  10.349  71.329  1.00  0.00    -0.207 OA 
HETATM   27  H1  UNL     1     -11.459   9.144  71.276  1.00  0.00     0.000 HD 
HETATM   28  H2  UNL     1     -10.496  10.557  70.803  1.00  0.00     0.000 HD 
HETATM   29  N   UNL     1     -11.393  10.134  71.041  1.00  0.00    -0.345 N  
ENDBRANCH  18  25
ENDBRANCH  14  17
ENDBRANCH  13  14
ENDBRANCH  11  13
ENDBRANCH   2  11
TORSDOF 8
ENDMDL
MODEL      184
REMARK 921   NORMALIZED FREE ENERGY PREDICTED BY IDOCK:   -4.46 KCAL/MOL
REMARK 922        TOTAL FREE ENERGY PREDICTED BY IDOCK:   -8.10 KCAL/MOL
REMARK 923 INTER-LIGAND FREE ENERGY PREDICTED BY IDOCK:   -7.25 KCAL/MOL
REMARK 924 INTRA-LIGAND FREE ENERGY PREDICTED BY IDOCK:   -0.85 KCAL/MOL
REMARK 927      BINDING AFFINITY PREDICTED BY RF-SCORE:    0.00 PKD
ROOT
HETATM    1  C   UNL     1     -10.803  14.296  65.306  1.00  0.00    -0.363 C  
HETATM    2  C   UNL     1     -10.952  14.009  66.805  1.00  0.00    -0.297 C  
ENDROOT
BRANCH   2   3
HETATM    3  C   UNL     1     -11.683  12.659  66.987  1.00  0.00    -0.438 C  
BRANCH   3   4
HETATM    4  C   UNL     1     -10.791  11.548  67.552  1.00  0.00    -0.285 C  
BRANCH   4   5
HETATM    5  C   UNL     1     -11.275  11.070  68.902  1.00  0.00    -0.326 A  
HETATM    6  C   UNL     1     -10.904   9.813  69.396  1.00  0.00    -0.256 A  
HETATM    7  C   UNL     1     -11.356   9.379  70.643  1.00  0.00    -0.352 A  
HETATM    8  C   UNL     1     -12.096  11.890  69.690  1.00  0.00    -0.304 A  
HETATM    9  C   UNL     1     -12.180  10.200  71.414  1.00  0.00    -0.492 A  
HETATM   10  C   UNL     1     -12.548  11.456  70.937  1.00  0.00    -0.453 A  
ENDBRANCH   4   5
ENDBRANCH   3   4
ENDBRANCH   2   3
BRANCH   2  11
HETATM   11  N   UNL     1      -9.660  13.973  67.500  1.00  0.00    -0.223 NA 
HETATM   12  H   UNL     1      -8.901  14.201  66.858  1.00  0.00     0.000 HD 
BRANCH  11  13
HETATM   13  C   UNL     1      -9.599  14.828  68.694  1.00  0.00    -0.218 C  
BRANCH  13  14
HETATM   14  C   UNL     1      -8.138  15.182  69.081  1.00  0.00    -0.214 C  
HETATM   15  H   UNL     1      -6.349  14.572  68.560  1.00  0.00     0.000 HD 
HETATM   16  O   UNL     1      -7.243  14.355  68.324  1.00  0.00    -0.102 OA 
BRANCH  14  17
HETATM   17  C   UNL     1      -7.832  16.661  68.871  1.00  0.00    -0.240 A  
HETATM   18  C   UNL     1      -8.389  18.870  67.953  1.00  0.00    -0.310 A  
HETATM   19  H   UNL     1      -5.859  20.940  68.446  1.00  0.00     0.000 HD 
HETATM   20  C   UNL     1      -7.155  19.351  68.403  1.00  0.00    -0.304 A  
HETATM   21  C   UNL     1      -6.283  18.528  69.108  1.00  0.00    -0.255 A  
HETATM   22  O   UNL     1      -6.697  20.613  68.140  1.00  0.00    -0.296 OA 
HETATM   23  C   UNL     1      -6.611  17.186  69.324  1.00  0.00    -0.234 A  
HETATM   24  C   UNL     1      -8.714  17.522  68.193  1.00  0.00    -0.262 A  
BRANCH  18  25
HETATM   25  C   UNL     1      -9.380  19.689  67.197  1.00  0.00    -0.337 C  
HETATM   26  O   UNL     1      -9.343  19.789  65.977  1.00  0.00    -0.378 OA 
HETATM   27  H1  UNL     1     -11.042  20.887  67.387  1.00  0.00     0.000 HD 
HETATM   28  H2  UNL     1     -10.417  20.245  68.919  1.00  0.00     0.000 HD 
HETATM   29  N   UNL     1     -10.364  20.327  67.904  1.00  0.00    -0.316 N  
ENDBRANCH  18  25
ENDBRANCH  14  17
ENDBRANCH  13  14
ENDBRANCH  11  13
ENDBRANCH   2  11
TORSDOF 8
ENDMDL
MODEL      185
REMARK 921   NORMALIZED FREE ENERGY PREDICTED BY IDOCK:   -4.45 KCAL/MOL
REMARK 922        TOTAL FREE ENERGY PREDICTED BY IDOCK:   -8.09 KCAL/MOL
REMARK 923 INTER-LIGAND FREE ENERGY PREDICTED BY IDOCK:   -6.94 KCAL/MOL
REMARK 924 INTRA-LIGAND FREE ENERGY PREDICTED BY IDOCK:   -1.15 KCAL/MOL
REMARK 927      BINDING AFFINITY PREDICTED BY RF-SCORE:    0.00 PKD
ROOT
HETATM    1  C   UNL     1     -10.064   8.894  71.919  1.00  0.00    -0.393 C  
HETATM    2  C   UNL     1     -11.523   8.451  72.088  1.00  0.00    -0.372 C  
ENDROOT
BRANCH   2   3
HETATM    3  C   UNL     1     -12.431   9.387  71.258  1.00  0.00    -0.416 C  
BRANCH   3   4
HETATM    4  C   UNL     1     -11.672  10.525  70.568  1.00  0.00    -0.443 C  
BRANCH   4   5
HETATM    5  C   UNL     1     -12.276  11.875  70.884  1.00  0.00    -0.351 A  
HETATM    6  C   UNL     1     -13.168  12.033  71.953  1.00  0.00    -0.469 A  
HETATM    7  C   UNL     1     -13.721  13.283  72.237  1.00  0.00    -0.686 A  
HETATM    8  C   UNL     1     -11.938  12.998  70.115  1.00  0.00    -0.374 A  
HETATM    9  C   UNL     1     -13.385  14.390  71.459  1.00  0.00    -0.430 A  
HETATM   10  C   UNL     1     -12.491  14.248  70.399  1.00  0.00    -0.426 A  
ENDBRANCH   4   5
ENDBRANCH   3   4
ENDBRANCH   2   3
BRANCH   2  11
HETATM   11  N   UNL     1     -11.737   7.058  71.680  1.00  0.00    -0.280 NA 
HETATM   12  H   UNL     1     -12.578   6.681  72.116  1.00  0.00     0.000 HD 
BRANCH  11  13
HETATM   13  C   UNL     1     -11.779   6.861  70.224  1.00  0.00    -0.291 C  
BRANCH  13  14
HETATM   14  C   UNL     1     -10.435   6.313  69.672  1.00  0.00    -0.238 C  
HETATM   15  H   UNL     1      -9.724   4.556  69.168  1.00  0.00     0.000 HD 
HETATM   16  O   UNL     1     -10.546   4.892  69.505  1.00  0.00    -0.110 OA 
BRANCH  14  17
HETATM   17  C   UNL     1     -10.030   6.991  68.369  1.00  0.00    -0.160 A  
HETATM   18  C   UNL     1      -8.729   7.060  66.287  1.00  0.00    -0.154 A  
HETATM   19  H   UNL     1      -9.144   9.995  64.822  1.00  0.00     0.000 HD 
HETATM   20  C   UNL     1      -9.220   8.347  66.041  1.00  0.00    -0.187 A  
HETATM   21  C   UNL     1     -10.127   8.942  66.911  1.00  0.00    -0.343 A  
HETATM   22  O   UNL     1      -8.811   9.121  64.989  1.00  0.00    -0.190 OA 
HETATM   23  C   UNL     1     -10.515   8.276  68.077  1.00  0.00    -0.239 A  
HETATM   24  C   UNL     1      -9.141   6.394  67.456  1.00  0.00    -0.114 A  
BRANCH  18  25
HETATM   25  C   UNL     1      -7.760   6.351  65.401  1.00  0.00    -0.098 C  
HETATM   26  O   UNL     1      -6.580   6.223  65.702  1.00  0.00    -0.044 OA 
HETATM   27  H1  UNL     1      -7.564   5.336  63.622  1.00  0.00     0.000 HD 
HETATM   28  H2  UNL     1      -9.209   5.908  63.967  1.00  0.00     0.000 HD 
HETATM   29  N   UNL     1      -8.227   5.821  64.228  1.00  0.00    -0.128 N  
ENDBRANCH  18  25
ENDBRANCH  14  17
ENDBRANCH  13  14
ENDBRANCH  11  13
ENDBRANCH   2  11
TORSDOF 8
ENDMDL
MODEL      186
REMARK 921   NORMALIZED FREE ENERGY PREDICTED BY IDOCK:   -4.45 KCAL/MOL
REMARK 922        TOTAL FREE ENERGY PREDICTED BY IDOCK:   -8.09 KCAL/MOL
REMARK 923 INTER-LIGAND FREE ENERGY PREDICTED BY IDOCK:   -7.09 KCAL/MOL
REMARK 924 INTRA-LIGAND FREE ENERGY PREDICTED BY IDOCK:   -1.00 KCAL/MOL
REMARK 927      BINDING AFFINITY PREDICTED BY RF-SCORE:    0.00 PKD
ROOT
HETATM    1  C   UNL     1      -9.242  15.668  68.219  1.00  0.00    -0.188 C  
HETATM    2  C   UNL     1      -9.153  16.235  66.797  1.00  0.00    -0.232 C  
ENDROOT
BRANCH   2   3
HETATM    3  C   UNL     1      -7.766  16.887  66.602  1.00  0.00    -0.298 C  
BRANCH   3   4
HETATM    4  C   UNL     1      -7.830  18.390  66.308  1.00  0.00    -0.273 C  
BRANCH   4   5
HETATM    5  C   UNL     1      -7.116  19.201  67.365  1.00  0.00    -0.225 A  
HETATM    6  C   UNL     1      -6.989  18.723  68.676  1.00  0.00    -0.308 A  
HETATM    7  C   UNL     1      -6.328  19.479  69.645  1.00  0.00    -0.351 A  
HETATM    8  C   UNL     1      -6.553  20.445  67.042  1.00  0.00    -0.284 A  
HETATM    9  C   UNL     1      -5.781  20.718  69.315  1.00  0.00    -0.390 A  
HETATM   10  C   UNL     1      -5.893  21.200  68.012  1.00  0.00    -0.392 A  
ENDBRANCH   4   5
ENDBRANCH   3   4
ENDBRANCH   2   3
BRANCH   2  11
HETATM   11  N   UNL     1      -9.370  15.209  65.769  1.00  0.00    -0.459 NA 
HETATM   12  H   UNL     1      -9.196  14.279  66.149  1.00  0.00     0.000 HD 
BRANCH  11  13
HETATM   13  C   UNL     1     -10.695  15.268  65.136  1.00  0.00    -0.436 C  
BRANCH  13  14
HETATM   14  C   UNL     1     -11.357  13.866  65.045  1.00  0.00    -0.334 C  
HETATM   15  H   UNL     1     -11.091  12.242  63.978  1.00  0.00     0.000 HD 
HETATM   16  O   UNL     1     -10.686  13.100  64.035  1.00  0.00    -0.399 OA 
BRANCH  14  17
HETATM   17  C   UNL     1     -11.348  13.139  66.384  1.00  0.00    -0.349 A  
HETATM   18  C   UNL     1     -10.778  11.203  67.784  1.00  0.00    -0.267 A  
HETATM   19  H   UNL     1     -12.145  11.560  70.773  1.00  0.00     0.000 HD 
HETATM   20  C   UNL     1     -11.474  11.786  68.848  1.00  0.00    -0.297 A  
HETATM   21  C   UNL     1     -12.067  13.037  68.711  1.00  0.00    -0.197 A  
HETATM   22  O   UNL     1     -11.672  11.164  70.050  1.00  0.00    -0.298 OA 
HETATM   23  C   UNL     1     -12.021  13.701  67.481  1.00  0.00    -0.393 A  
HETATM   24  C   UNL     1     -10.724  11.890  66.557  1.00  0.00    -0.293 A  
BRANCH  18  25
HETATM   25  C   UNL     1     -10.111   9.870  67.852  1.00  0.00    -0.173 C  
HETATM   26  O   UNL     1      -8.939   9.748  68.185  1.00  0.00    -0.120 OA 
HETATM   27  H1  UNL     1     -10.396   7.849  67.592  1.00  0.00     0.000 HD 
HETATM   28  H2  UNL     1     -11.833   8.843  67.278  1.00  0.00     0.000 HD 
HETATM   29  N   UNL     1     -10.852   8.761  67.546  1.00  0.00    -0.130 N  
ENDBRANCH  18  25
ENDBRANCH  14  17
ENDBRANCH  13  14
ENDBRANCH  11  13
ENDBRANCH   2  11
TORSDOF 8
ENDMDL
MODEL      187
REMARK 921   NORMALIZED FREE ENERGY PREDICTED BY IDOCK:   -4.45 KCAL/MOL
REMARK 922        TOTAL FREE ENERGY PREDICTED BY IDOCK:   -8.09 KCAL/MOL
REMARK 923 INTER-LIGAND FREE ENERGY PREDICTED BY IDOCK:   -7.46 KCAL/MOL
REMARK 924 INTRA-LIGAND FREE ENERGY PREDICTED BY IDOCK:   -0.62 KCAL/MOL
REMARK 927      BINDING AFFINITY PREDICTED BY RF-SCORE:    0.00 PKD
ROOT
HETATM    1  C   UNL     1     -12.107  13.974  64.442  1.00  0.00    -0.486 C  
HETATM    2  C   UNL     1     -10.741  14.225  65.092  1.00  0.00    -0.394 C  
ENDROOT
BRANCH   2   3
HETATM    3  C   UNL     1     -10.499  15.750  65.178  1.00  0.00    -0.394 C  
BRANCH   3   4
HETATM    4  C   UNL     1      -9.340  16.136  66.103  1.00  0.00    -0.372 C  
BRANCH   4   5
HETATM    5  C   UNL     1      -9.388  17.598  66.484  1.00  0.00    -0.286 A  
HETATM    6  C   UNL     1     -10.564  18.173  66.985  1.00  0.00    -0.346 A  
HETATM    7  C   UNL     1     -10.599  19.524  67.333  1.00  0.00    -0.607 A  
HETATM    8  C   UNL     1      -8.245  18.400  66.355  1.00  0.00    -0.280 A  
HETATM    9  C   UNL     1      -9.459  20.315  67.191  1.00  0.00    -0.557 A  
HETATM   10  C   UNL     1      -8.281  19.751  66.704  1.00  0.00    -0.353 A  
ENDBRANCH   4   5
ENDBRANCH   3   4
ENDBRANCH   2   3
BRANCH   2  11
HETATM   11  N   UNL     1     -10.637  13.628  66.428  1.00  0.00    -0.281 NA 
HETATM   12  H   UNL     1     -11.564  13.460  66.819  1.00  0.00     0.000 HD 
BRANCH  11  13
HETATM   13  C   UNL     1      -9.828  12.402  66.474  1.00  0.00    -0.235 C  
BRANCH  13  14
HETATM   14  C   UNL     1     -10.645  11.151  66.049  1.00  0.00    -0.239 C  
HETATM   15  H   UNL     1     -10.867  10.094  64.412  1.00  0.00     0.000 HD 
HETATM   16  O   UNL     1     -10.367  10.859  64.672  1.00  0.00    -0.319 OA 
BRANCH  14  17
HETATM   17  C   UNL     1     -10.354   9.947  66.937  1.00  0.00    -0.300 A  
HETATM   18  C   UNL     1      -9.813   8.956  69.119  1.00  0.00    -0.180 A  
HETATM   19  H   UNL     1      -9.205   5.728  68.745  1.00  0.00     0.000 HD 
HETATM   20  C   UNL     1      -9.695   7.705  68.504  1.00  0.00    -0.158 A  
HETATM   21  C   UNL     1      -9.936   7.555  67.143  1.00  0.00    -0.288 A  
HETATM   22  O   UNL     1      -9.285   6.578  69.162  1.00  0.00    -0.135 OA 
HETATM   23  C   UNL     1     -10.245   8.672  66.361  1.00  0.00    -0.224 A  
HETATM   24  C   UNL     1     -10.142  10.069  68.323  1.00  0.00    -0.182 A  
BRANCH  18  25
HETATM   25  C   UNL     1      -9.577   9.199  70.572  1.00  0.00    -0.243 C  
HETATM   26  O   UNL     1      -8.465   9.458  71.014  1.00  0.00    -0.285 OA 
HETATM   27  H1  UNL     1     -10.491   9.311  72.412  1.00  0.00     0.000 HD 
HETATM   28  H2  UNL     1     -11.587   8.942  71.066  1.00  0.00     0.000 HD 
HETATM   29  N   UNL     1     -10.652   9.144  71.418  1.00  0.00    -0.317 N  
ENDBRANCH  18  25
ENDBRANCH  14  17
ENDBRANCH  13  14
ENDBRANCH  11  13
ENDBRANCH   2  11
TORSDOF 8
ENDMDL
MODEL      188
REMARK 921   NORMALIZED FREE ENERGY PREDICTED BY IDOCK:   -4.45 KCAL/MOL
REMARK 922        TOTAL FREE ENERGY PREDICTED BY IDOCK:   -8.08 KCAL/MOL
REMARK 923 INTER-LIGAND FREE ENERGY PREDICTED BY IDOCK:   -6.49 KCAL/MOL
REMARK 924 INTRA-LIGAND FREE ENERGY PREDICTED BY IDOCK:   -1.59 KCAL/MOL
REMARK 927      BINDING AFFINITY PREDICTED BY RF-SCORE:    0.00 PKD
ROOT
HETATM    1  C   UNL     1      -8.589  10.022  68.917  1.00  0.00    -0.138 C  
HETATM    2  C   UNL     1      -7.722  10.097  67.654  1.00  0.00    -0.091 C  
ENDROOT
BRANCH   2   3
HETATM    3  C   UNL     1      -8.485  10.889  66.568  1.00  0.00    -0.159 C  
BRANCH   3   4
HETATM    4  C   UNL     1     -10.004  10.909  66.775  1.00  0.00    -0.245 C  
BRANCH   4   5
HETATM    5  C   UNL     1     -10.720  11.567  65.618  1.00  0.00    -0.323 A  
HETATM    6  C   UNL     1     -11.957  12.200  65.803  1.00  0.00    -0.267 A  
HETATM    7  C   UNL     1     -12.612  12.804  64.729  1.00  0.00    -0.518 A  
HETATM    8  C   UNL     1     -10.147  11.566  64.338  1.00  0.00    -0.328 A  
HETATM    9  C   UNL     1     -12.036  12.788  63.458  1.00  0.00    -0.642 A  
HETATM   10  C   UNL     1     -10.802  12.170  63.264  1.00  0.00    -0.381 A  
ENDBRANCH   4   5
ENDBRANCH   3   4
ENDBRANCH   2   3
BRANCH   2  11
HETATM   11  N   UNL     1      -6.419  10.723  67.905  1.00  0.00    -0.062 NA 
HETATM   12  H   UNL     1      -5.663  10.108  67.606  1.00  0.00     0.000 HD 
BRANCH  11  13
HETATM   13  C   UNL     1      -6.269  12.055  67.301  1.00  0.00    -0.149 C  
BRANCH  13  14
HETATM   14  C   UNL     1      -6.490  13.190  68.337  1.00  0.00    -0.086 C  
HETATM   15  H   UNL     1      -5.372  14.188  69.602  1.00  0.00     0.000 HD 
HETATM   16  O   UNL     1      -5.237  13.494  68.968  1.00  0.00    -0.070 OA 
BRANCH  14  17
HETATM   17  C   UNL     1      -7.103  14.433  67.704  1.00  0.00    -0.202 A  
HETATM   18  C   UNL     1      -8.959  15.596  66.591  1.00  0.00    -0.317 A  
HETATM   19  H   UNL     1      -7.964  18.598  65.629  1.00  0.00     0.000 HD 
HETATM   20  C   UNL     1      -8.139  16.718  66.429  1.00  0.00    -0.320 A  
HETATM   21  C   UNL     1      -6.839  16.727  66.923  1.00  0.00    -0.255 A  
HETATM   22  O   UNL     1      -8.520  17.836  65.739  1.00  0.00    -0.519 OA 
HETATM   23  C   UNL     1      -6.318  15.585  67.539  1.00  0.00    -0.165 A  
HETATM   24  C   UNL     1      -8.428  14.460  67.229  1.00  0.00    -0.229 A  
BRANCH  18  25
HETATM   25  C   UNL     1     -10.364  15.508  66.097  1.00  0.00    -0.315 C  
HETATM   26  O   UNL     1     -10.640  15.596  64.908  1.00  0.00    -0.427 OA 
HETATM   27  H1  UNL     1     -12.321  15.247  66.678  1.00  0.00     0.000 HD 
HETATM   28  H2  UNL     1     -11.147  15.219  68.009  1.00  0.00     0.000 HD 
HETATM   29  N   UNL     1     -11.360  15.306  67.015  1.00  0.00    -0.282 N  
ENDBRANCH  18  25
ENDBRANCH  14  17
ENDBRANCH  13  14
ENDBRANCH  11  13
ENDBRANCH   2  11
TORSDOF 8
ENDMDL
MODEL      189
REMARK 921   NORMALIZED FREE ENERGY PREDICTED BY IDOCK:   -4.44 KCAL/MOL
REMARK 922        TOTAL FREE ENERGY PREDICTED BY IDOCK:   -8.07 KCAL/MOL
REMARK 923 INTER-LIGAND FREE ENERGY PREDICTED BY IDOCK:   -6.84 KCAL/MOL
REMARK 924 INTRA-LIGAND FREE ENERGY PREDICTED BY IDOCK:   -1.24 KCAL/MOL
REMARK 927      BINDING AFFINITY PREDICTED BY RF-SCORE:    0.00 PKD
ROOT
HETATM    1  C   UNL     1     -13.221  11.882  71.808  1.00  0.00    -0.426 C  
HETATM    2  C   UNL     1     -13.142  10.768  70.757  1.00  0.00    -0.163 C  
ENDROOT
BRANCH   2   3
HETATM    3  C   UNL     1     -12.057  11.134  69.718  1.00  0.00    -0.414 C  
BRANCH   3   4
HETATM    4  C   UNL     1     -11.898  12.643  69.502  1.00  0.00    -0.376 C  
BRANCH   4   5
HETATM    5  C   UNL     1     -11.538  12.971  68.070  1.00  0.00    -0.383 A  
HETATM    6  C   UNL     1     -11.155  11.963  67.176  1.00  0.00    -0.347 A  
HETATM    7  C   UNL     1     -10.823  12.274  65.856  1.00  0.00    -0.306 A  
HETATM    8  C   UNL     1     -11.597  14.295  67.612  1.00  0.00    -0.396 A  
HETATM    9  C   UNL     1     -10.876  13.596  65.414  1.00  0.00    -0.302 A  
HETATM   10  C   UNL     1     -11.265  14.605  66.292  1.00  0.00    -0.340 A  
ENDBRANCH   4   5
ENDBRANCH   3   4
ENDBRANCH   2   3
BRANCH   2  11
HETATM   11  N   UNL     1     -12.845   9.459  71.348  1.00  0.00    -0.337 NA 
HETATM   12  H   UNL     1     -13.478   8.748  70.982  1.00  0.00     0.000 HD 
BRANCH  11  13
HETATM   13  C   UNL     1     -11.447   9.034  71.189  1.00  0.00    -0.308 C  
BRANCH  13  14
HETATM   14  C   UNL     1     -11.338   7.561  70.711  1.00  0.00    -0.280 C  
HETATM   15  H   UNL     1     -12.579   6.069  70.431  1.00  0.00     0.000 HD 
HETATM   16  O   UNL     1     -12.645   6.970  70.724  1.00  0.00    -0.314 OA 
BRANCH  14  17
HETATM   17  C   UNL     1     -10.698   7.452  69.331  1.00  0.00    -0.220 A  
HETATM   18  C   UNL     1     -10.183   6.194  67.286  1.00  0.00    -0.236 A  
HETATM   19  H   UNL     1      -8.101   7.944  65.407  1.00  0.00     0.000 HD 
HETATM   20  C   UNL     1      -9.390   7.259  66.848  1.00  0.00    -0.156 A  
HETATM   21  C   UNL     1      -9.274   8.419  67.606  1.00  0.00    -0.147 A  
HETATM   22  O   UNL     1      -8.639   7.220  65.705  1.00  0.00    -0.148 OA 
HETATM   23  C   UNL     1      -9.909   8.508  68.849  1.00  0.00    -0.181 A  
HETATM   24  C   UNL     1     -10.831   6.303  68.530  1.00  0.00    -0.394 A  
BRANCH  18  25
HETATM   25  C   UNL     1     -10.364   4.920  66.530  1.00  0.00    -0.270 C  
HETATM   26  O   UNL     1     -11.113   4.839  65.564  1.00  0.00    -0.183 OA 
HETATM   27  H1  UNL     1      -9.773   2.952  66.416  1.00  0.00     0.000 HD 
HETATM   28  H2  UNL     1      -9.012   3.876  67.727  1.00  0.00     0.000 HD 
HETATM   29  N   UNL     1      -9.650   3.823  66.932  1.00  0.00    -0.206 N  
ENDBRANCH  18  25
ENDBRANCH  14  17
ENDBRANCH  13  14
ENDBRANCH  11  13
ENDBRANCH   2  11
TORSDOF 8
ENDMDL
MODEL      190
REMARK 921   NORMALIZED FREE ENERGY PREDICTED BY IDOCK:   -4.43 KCAL/MOL
REMARK 922        TOTAL FREE ENERGY PREDICTED BY IDOCK:   -8.06 KCAL/MOL
REMARK 923 INTER-LIGAND FREE ENERGY PREDICTED BY IDOCK:   -6.94 KCAL/MOL
REMARK 924 INTRA-LIGAND FREE ENERGY PREDICTED BY IDOCK:   -1.12 KCAL/MOL
REMARK 927      BINDING AFFINITY PREDICTED BY RF-SCORE:    0.00 PKD
ROOT
HETATM    1  C   UNL     1     -10.534  12.103  63.737  1.00  0.00    -0.470 C  
HETATM    2  C   UNL     1     -10.086  11.344  64.992  1.00  0.00    -0.274 C  
ENDROOT
BRANCH   2   3
HETATM    3  C   UNL     1     -11.140  11.549  66.104  1.00  0.00    -0.302 C  
BRANCH   3   4
HETATM    4  C   UNL     1     -12.083  12.730  65.847  1.00  0.00    -0.485 C  
BRANCH   4   5
HETATM    5  C   UNL     1     -11.729  13.927  66.701  1.00  0.00    -0.417 A  
HETATM    6  C   UNL     1     -12.030  13.949  68.070  1.00  0.00    -0.390 A  
HETATM    7  C   UNL     1     -11.700  15.058  68.850  1.00  0.00    -0.354 A  
HETATM    8  C   UNL     1     -11.079  15.032  66.134  1.00  0.00    -0.329 A  
HETATM    9  C   UNL     1     -11.062  16.156  68.273  1.00  0.00    -0.348 A  
HETATM   10  C   UNL     1     -10.750  16.141  66.915  1.00  0.00    -0.247 A  
ENDBRANCH   4   5
ENDBRANCH   3   4
ENDBRANCH   2   3
BRANCH   2  11
HETATM   11  N   UNL     1      -9.896   9.911  64.743  1.00  0.00    -0.412 NA 
HETATM   12  H   UNL     1      -9.592   9.751  63.783  1.00  0.00     0.000 HD 
BRANCH  11  13
HETATM   13  C   UNL     1      -8.981   9.256  65.689  1.00  0.00    -0.199 C  
BRANCH  13  14
HETATM   14  C   UNL     1      -9.672   8.096  66.457  1.00  0.00    -0.239 C  
HETATM   15  H   UNL     1      -9.461   6.150  66.568  1.00  0.00     0.000 HD 
HETATM   16  O   UNL     1      -9.038   6.860  66.099  1.00  0.00    -0.159 OA 
BRANCH  14  17
HETATM   17  C   UNL     1      -9.648   8.312  67.965  1.00  0.00    -0.171 A  
HETATM   18  C   UNL     1     -10.504   7.861  70.223  1.00  0.00    -0.225 A  
HETATM   19  H   UNL     1      -9.060   9.907  72.381  1.00  0.00     0.000 HD 
HETATM   20  C   UNL     1      -9.646   8.844  70.728  1.00  0.00    -0.229 A  
HETATM   21  C   UNL     1      -8.773   9.527  69.888  1.00  0.00    -0.224 A  
HETATM   22  O   UNL     1      -9.643   9.240  72.038  1.00  0.00    -0.235 OA 
HETATM   23  C   UNL     1      -8.788   9.277  68.513  1.00  0.00    -0.129 A  
HETATM   24  C   UNL     1     -10.496   7.606  68.839  1.00  0.00    -0.211 A  
BRANCH  18  25
HETATM   25  C   UNL     1     -11.464   7.080  71.057  1.00  0.00    -0.303 C  
HETATM   26  O   UNL     1     -12.573   7.512  71.345  1.00  0.00    -0.336 OA 
HETATM   27  H1  UNL     1     -11.738   5.304  72.059  1.00  0.00     0.000 HD 
HETATM   28  H2  UNL     1     -10.167   5.458  71.248  1.00  0.00     0.000 HD 
HETATM   29  N   UNL     1     -11.082   5.839  71.489  1.00  0.00    -0.248 N  
ENDBRANCH  18  25
ENDBRANCH  14  17
ENDBRANCH  13  14
ENDBRANCH  11  13
ENDBRANCH   2  11
TORSDOF 8
ENDMDL
MODEL      191
REMARK 921   NORMALIZED FREE ENERGY PREDICTED BY IDOCK:   -4.43 KCAL/MOL
REMARK 922        TOTAL FREE ENERGY PREDICTED BY IDOCK:   -8.05 KCAL/MOL
REMARK 923 INTER-LIGAND FREE ENERGY PREDICTED BY IDOCK:   -7.44 KCAL/MOL
REMARK 924 INTRA-LIGAND FREE ENERGY PREDICTED BY IDOCK:   -0.61 KCAL/MOL
REMARK 927      BINDING AFFINITY PREDICTED BY RF-SCORE:    0.00 PKD
ROOT
HETATM    1  C   UNL     1     -12.120  13.980  64.440  1.00  0.00    -0.486 C  
HETATM    2  C   UNL     1     -10.774  14.249  65.124  1.00  0.00    -0.394 C  
ENDROOT
BRANCH   2   3
HETATM    3  C   UNL     1     -10.533  15.775  65.175  1.00  0.00    -0.394 C  
BRANCH   3   4
HETATM    4  C   UNL     1      -9.401  16.186  66.123  1.00  0.00    -0.372 C  
BRANCH   4   5
HETATM    5  C   UNL     1      -9.464  17.656  66.469  1.00  0.00    -0.294 A  
HETATM    6  C   UNL     1     -10.654  18.237  66.929  1.00  0.00    -0.356 A  
HETATM    7  C   UNL     1     -10.703  19.596  67.246  1.00  0.00    -0.583 A  
HETATM    8  C   UNL     1      -8.322  18.461  66.349  1.00  0.00    -0.272 A  
HETATM    9  C   UNL     1      -9.563  20.388  67.113  1.00  0.00    -0.587 A  
HETATM   10  C   UNL     1      -8.372  19.819  66.667  1.00  0.00    -0.360 A  
ENDBRANCH   4   5
ENDBRANCH   3   4
ENDBRANCH   2   3
BRANCH   2  11
HETATM   11  N   UNL     1     -10.711  13.689  66.479  1.00  0.00    -0.283 NA 
HETATM   12  H   UNL     1     -11.650  13.551  66.854  1.00  0.00     0.000 HD 
BRANCH  11  13
HETATM   13  C   UNL     1      -9.930  12.448  66.578  1.00  0.00    -0.230 C  
BRANCH  13  14
HETATM   14  C   UNL     1     -10.766  11.202  66.178  1.00  0.00    -0.225 C  
HETATM   15  H   UNL     1     -10.944  10.069  64.587  1.00  0.00     0.000 HD 
HETATM   16  O   UNL     1     -10.433  10.831  64.832  1.00  0.00    -0.311 OA 
BRANCH  14  17
HETATM   17  C   UNL     1     -10.555  10.037  67.138  1.00  0.00    -0.296 A  
HETATM   18  C   UNL     1     -10.039   7.679  67.588  1.00  0.00    -0.249 A  
HETATM   19  H   UNL     1     -10.488   7.043  70.801  1.00  0.00     0.000 HD 
HETATM   20  C   UNL     1     -10.306   7.894  68.944  1.00  0.00    -0.213 A  
HETATM   21  C   UNL     1     -10.654   9.158  69.409  1.00  0.00    -0.232 A  
HETATM   22  O   UNL     1     -10.307   6.896  69.880  1.00  0.00    -0.195 OA 
HETATM   23  C   UNL     1     -10.796  10.218  68.509  1.00  0.00    -0.281 A  
HETATM   24  C   UNL     1     -10.169   8.759  66.695  1.00  0.00    -0.340 A  
BRANCH  18  25
HETATM   25  C   UNL     1      -9.655   6.357  67.011  1.00  0.00    -0.142 C  
HETATM   26  O   UNL     1     -10.491   5.544  66.637  1.00  0.00    -0.243 OA 
HETATM   27  H1  UNL     1      -8.059   5.166  66.494  1.00  0.00     0.000 HD 
HETATM   28  H2  UNL     1      -7.611   6.739  67.183  1.00  0.00     0.000 HD 
HETATM   29  N   UNL     1      -8.322   6.069  66.888  1.00  0.00    -0.105 N  
ENDBRANCH  18  25
ENDBRANCH  14  17
ENDBRANCH  13  14
ENDBRANCH  11  13
ENDBRANCH   2  11
TORSDOF 8
ENDMDL
MODEL      192
REMARK 921   NORMALIZED FREE ENERGY PREDICTED BY IDOCK:   -4.42 KCAL/MOL
REMARK 922        TOTAL FREE ENERGY PREDICTED BY IDOCK:   -8.05 KCAL/MOL
REMARK 923 INTER-LIGAND FREE ENERGY PREDICTED BY IDOCK:   -7.23 KCAL/MOL
REMARK 924 INTRA-LIGAND FREE ENERGY PREDICTED BY IDOCK:   -0.81 KCAL/MOL
REMARK 927      BINDING AFFINITY PREDICTED BY RF-SCORE:    0.00 PKD
ROOT
HETATM    1  C   UNL     1     -12.663  11.288  70.831  1.00  0.00    -0.412 C  
HETATM    2  C   UNL     1     -11.421  10.643  70.203  1.00  0.00    -0.329 C  
ENDROOT
BRANCH   2   3
HETATM    3  C   UNL     1     -11.225   9.235  70.811  1.00  0.00    -0.351 C  
BRANCH   3   4
HETATM    4  C   UNL     1      -9.773   8.932  71.199  1.00  0.00    -0.344 C  
BRANCH   4   5
HETATM    5  C   UNL     1      -9.679   7.759  72.149  1.00  0.00    -0.240 A  
HETATM    6  C   UNL     1      -8.673   6.795  72.004  1.00  0.00    -0.126 A  
HETATM    7  C   UNL     1      -8.594   5.715  72.884  1.00  0.00    -0.122 A  
HETATM    8  C   UNL     1     -10.595   7.627  73.203  1.00  0.00    -0.438 A  
HETATM    9  C   UNL     1      -9.515   5.588  73.923  1.00  0.00    -0.139 A  
HETATM   10  C   UNL     1     -10.515   6.546  74.083  1.00  0.00    -0.261 A  
ENDBRANCH   4   5
ENDBRANCH   3   4
ENDBRANCH   2   3
BRANCH   2  11
HETATM   11  N   UNL     1     -11.519  10.545  68.742  1.00  0.00    -0.421 NA 
HETATM   12  H   UNL     1     -12.400  10.940  68.414  1.00  0.00     0.000 HD 
BRANCH  11  13
HETATM   13  C   UNL     1     -10.386  11.148  68.025  1.00  0.00    -0.185 C  
BRANCH  13  14
HETATM   14  C   UNL     1     -10.852  12.193  66.976  1.00  0.00    -0.247 C  
HETATM   15  H   UNL     1     -12.478  12.517  65.927  1.00  0.00     0.000 HD 
HETATM   16  O   UNL     1     -12.192  11.878  66.570  1.00  0.00    -0.483 OA 
BRANCH  14  17
HETATM   17  C   UNL     1     -10.759  13.619  67.506  1.00  0.00    -0.266 A  
HETATM   18  C   UNL     1     -11.350  15.357  69.139  1.00  0.00    -0.323 A  
HETATM   19  H   UNL     1     -10.162  18.272  68.128  1.00  0.00     0.000 HD 
HETATM   20  C   UNL     1     -10.657  16.296  68.368  1.00  0.00    -0.301 A  
HETATM   21  C   UNL     1      -9.991  15.913  67.208  1.00  0.00    -0.240 A  
HETATM   22  O   UNL     1     -10.633  17.634  68.652  1.00  0.00    -0.335 OA 
HETATM   23  C   UNL     1     -10.058  14.587  66.770  1.00  0.00    -0.264 A  
HETATM   24  C   UNL     1     -11.395  14.022  68.696  1.00  0.00    -0.307 A  
BRANCH  18  25
HETATM   25  C   UNL     1     -12.084  15.685  70.396  1.00  0.00    -0.394 C  
HETATM   26  O   UNL     1     -13.298  15.842  70.417  1.00  0.00    -0.324 OA 
HETATM   27  H1  UNL     1     -11.863  16.017  72.415  1.00  0.00     0.000 HD 
HETATM   28  H2  UNL     1     -10.352  15.654  71.558  1.00  0.00     0.000 HD 
HETATM   29  N   UNL     1     -11.362  15.793  71.555  1.00  0.00    -0.381 N  
ENDBRANCH  18  25
ENDBRANCH  14  17
ENDBRANCH  13  14
ENDBRANCH  11  13
ENDBRANCH   2  11
TORSDOF 8
ENDMDL
MODEL      193
REMARK 921   NORMALIZED FREE ENERGY PREDICTED BY IDOCK:   -4.42 KCAL/MOL
REMARK 922        TOTAL FREE ENERGY PREDICTED BY IDOCK:   -8.04 KCAL/MOL
REMARK 923 INTER-LIGAND FREE ENERGY PREDICTED BY IDOCK:   -6.26 KCAL/MOL
REMARK 924 INTRA-LIGAND FREE ENERGY PREDICTED BY IDOCK:   -1.78 KCAL/MOL
REMARK 927      BINDING AFFINITY PREDICTED BY RF-SCORE:    0.00 PKD
ROOT
HETATM    1  C   UNL     1      -8.525  17.632  68.092  1.00  0.00    -0.260 C  
HETATM    2  C   UNL     1      -9.772  17.016  67.445  1.00  0.00    -0.252 C  
ENDROOT
BRANCH   2   3
HETATM    3  C   UNL     1      -9.396  15.646  66.834  1.00  0.00    -0.252 C  
BRANCH   3   4
HETATM    4  C   UNL     1      -9.734  15.526  65.344  1.00  0.00    -0.232 C  
BRANCH   4   5
HETATM    5  C   UNL     1     -10.549  14.286  65.051  1.00  0.00    -0.444 A  
HETATM    6  C   UNL     1      -9.940  13.125  64.556  1.00  0.00    -0.137 A  
HETATM    7  C   UNL     1     -10.701  11.986  64.287  1.00  0.00    -0.382 A  
HETATM    8  C   UNL     1     -11.931  14.277  65.286  1.00  0.00    -0.389 A  
HETATM    9  C   UNL     1     -12.076  11.991  64.516  1.00  0.00    -0.340 A  
HETATM   10  C   UNL     1     -12.691  13.137  65.018  1.00  0.00    -0.456 A  
ENDBRANCH   4   5
ENDBRANCH   3   4
ENDBRANCH   2   3
BRANCH   2  11
HETATM   11  N   UNL     1     -10.875  16.851  68.398  1.00  0.00    -0.362 NA 
HETATM   12  H   UNL     1     -11.600  17.549  68.232  1.00  0.00     0.000 HD 
BRANCH  11  13
HETATM   13  C   UNL     1     -11.456  15.501  68.413  1.00  0.00    -0.363 C  
BRANCH  13  14
HETATM   14  C   UNL     1     -10.638  14.527  69.304  1.00  0.00    -0.212 C  
HETATM   15  H   UNL     1     -10.722  13.900  71.161  1.00  0.00     0.000 HD 
HETATM   16  O   UNL     1     -11.222  14.496  70.615  1.00  0.00    -0.154 OA 
BRANCH  14  17
HETATM   17  C   UNL     1     -10.558  13.129  68.704  1.00  0.00    -0.259 A  
HETATM   18  C   UNL     1      -9.289  11.283  67.696  1.00  0.00    -0.162 A  
HETATM   19  H   UNL     1     -11.379   8.937  66.668  1.00  0.00     0.000 HD 
HETATM   20  C   UNL     1     -10.488  10.595  67.483  1.00  0.00    -0.230 A  
HETATM   21  C   UNL     1     -11.701  11.131  67.901  1.00  0.00    -0.260 A  
HETATM   22  O   UNL     1     -10.564   9.405  66.812  1.00  0.00    -0.218 OA 
HETATM   23  C   UNL     1     -11.738  12.398  68.490  1.00  0.00    -0.373 A  
HETATM   24  C   UNL     1      -9.338  12.550  68.306  1.00  0.00    -0.193 A  
BRANCH  18  25
HETATM   25  C   UNL     1      -7.948  10.775  67.283  1.00  0.00    -0.117 C  
HETATM   26  O   UNL     1      -7.205  10.194  68.066  1.00  0.00    -0.083 OA 
HETATM   27  H1  UNL     1      -6.643  10.610  65.701  1.00  0.00     0.000 HD 
HETATM   28  H2  UNL     1      -8.170  11.427  65.315  1.00  0.00     0.000 HD 
HETATM   29  N   UNL     1      -7.560  10.957  65.983  1.00  0.00    -0.129 N  
ENDBRANCH  18  25
ENDBRANCH  14  17
ENDBRANCH  13  14
ENDBRANCH  11  13
ENDBRANCH   2  11
TORSDOF 8
ENDMDL
MODEL      194
REMARK 921   NORMALIZED FREE ENERGY PREDICTED BY IDOCK:   -4.42 KCAL/MOL
REMARK 922        TOTAL FREE ENERGY PREDICTED BY IDOCK:   -8.04 KCAL/MOL
REMARK 923 INTER-LIGAND FREE ENERGY PREDICTED BY IDOCK:   -6.65 KCAL/MOL
REMARK 924 INTRA-LIGAND FREE ENERGY PREDICTED BY IDOCK:   -1.39 KCAL/MOL
REMARK 927      BINDING AFFINITY PREDICTED BY RF-SCORE:    0.00 PKD
ROOT
HETATM    1  C   UNL     1     -10.623  19.500  66.740  1.00  0.00    -0.597 C  
HETATM    2  C   UNL     1      -9.469  18.520  66.497  1.00  0.00    -0.320 C  
ENDROOT
BRANCH   2   3
HETATM    3  C   UNL     1      -8.729  18.274  67.831  1.00  0.00    -0.274 C  
BRANCH   3   4
HETATM    4  C   UNL     1      -7.282  17.800  67.653  1.00  0.00    -0.199 C  
BRANCH   4   5
HETATM    5  C   UNL     1      -7.095  16.376  68.123  1.00  0.00    -0.145 A  
HETATM    6  C   UNL     1      -7.240  15.300  67.237  1.00  0.00    -0.213 A  
HETATM    7  C   UNL     1      -7.066  13.988  67.680  1.00  0.00    -0.193 A  
HETATM    8  C   UNL     1      -6.756  16.110  69.458  1.00  0.00    -0.195 A  
HETATM    9  C   UNL     1      -6.739  13.736  69.012  1.00  0.00    -0.111 A  
HETATM   10  C   UNL     1      -6.583  14.798  69.900  1.00  0.00    -0.175 A  
ENDBRANCH   4   5
ENDBRANCH   3   4
ENDBRANCH   2   3
BRANCH   2  11
HETATM   11  N   UNL     1      -9.927  17.242  65.938  1.00  0.00    -0.539 NA 
HETATM   12  H   UNL     1      -9.135  16.688  65.614  1.00  0.00     0.000 HD 
BRANCH  11  13
HETATM   13  C   UNL     1     -10.766  16.455  66.854  1.00  0.00    -0.202 C  
BRANCH  13  14
HETATM   14  C   UNL     1     -11.170  15.087  66.240  1.00  0.00    -0.309 C  
HETATM   15  H   UNL     1     -10.505  13.930  64.803  1.00  0.00     0.000 HD 
HETATM   16  O   UNL     1     -10.258  14.767  65.179  1.00  0.00    -0.381 OA 
BRANCH  14  17
HETATM   17  C   UNL     1     -11.210  13.979  67.285  1.00  0.00    -0.328 A  
HETATM   18  C   UNL     1     -10.816  11.658  67.985  1.00  0.00    -0.259 A  
HETATM   19  H   UNL     1     -12.082  11.183  71.001  1.00  0.00     0.000 HD 
HETATM   20  C   UNL     1     -11.428  11.939  69.210  1.00  0.00    -0.306 A  
HETATM   21  C   UNL     1     -11.892  13.218  69.498  1.00  0.00    -0.388 A  
HETATM   22  O   UNL     1     -11.666  10.992  70.168  1.00  0.00    -0.299 OA 
HETATM   23  C   UNL     1     -11.801  14.227  68.534  1.00  0.00    -0.382 A  
HETATM   24  C   UNL     1     -10.715  12.687  67.030  1.00  0.00    -0.268 A  
BRANCH  18  25
HETATM   25  C   UNL     1     -10.287  10.316  67.602  1.00  0.00    -0.220 C  
HETATM   26  O   UNL     1     -11.022   9.350  67.445  1.00  0.00    -0.210 OA 
HETATM   27  H1  UNL     1      -8.576   9.267  67.148  1.00  0.00     0.000 HD 
HETATM   28  H2  UNL     1      -8.312  10.981  67.524  1.00  0.00     0.000 HD 
HETATM   29  N   UNL     1      -8.938  10.185  67.409  1.00  0.00    -0.135 N  
ENDBRANCH  18  25
ENDBRANCH  14  17
ENDBRANCH  13  14
ENDBRANCH  11  13
ENDBRANCH   2  11
TORSDOF 8
ENDMDL
MODEL      195
REMARK 921   NORMALIZED FREE ENERGY PREDICTED BY IDOCK:   -4.42 KCAL/MOL
REMARK 922        TOTAL FREE ENERGY PREDICTED BY IDOCK:   -8.03 KCAL/MOL
REMARK 923 INTER-LIGAND FREE ENERGY PREDICTED BY IDOCK:   -7.19 KCAL/MOL
REMARK 924 INTRA-LIGAND FREE ENERGY PREDICTED BY IDOCK:   -0.84 KCAL/MOL
REMARK 927      BINDING AFFINITY PREDICTED BY RF-SCORE:    0.00 PKD
ROOT
HETATM    1  C   UNL     1     -12.543  11.392  71.132  1.00  0.00    -0.490 C  
HETATM    2  C   UNL     1     -11.530  10.268  70.881  1.00  0.00    -0.339 C  
ENDROOT
BRANCH   2   3
HETATM    3  C   UNL     1     -11.753   9.148  71.923  1.00  0.00    -0.436 C  
BRANCH   3   4
HETATM    4  C   UNL     1     -12.483   7.923  71.360  1.00  0.00    -0.330 C  
BRANCH   4   5
HETATM    5  C   UNL     1     -11.631   6.676  71.440  1.00  0.00    -0.362 A  
HETATM    6  C   UNL     1     -11.505   5.968  72.643  1.00  0.00    -0.297 A  
HETATM    7  C   UNL     1     -10.716   4.818  72.708  1.00  0.00    -0.282 A  
HETATM    8  C   UNL     1     -10.965   6.200  70.302  1.00  0.00    -0.417 A  
HETATM    9  C   UNL     1     -10.050   4.359  71.572  1.00  0.00    -0.221 A  
HETATM   10  C   UNL     1     -10.177   5.050  70.369  1.00  0.00    -0.324 A  
ENDBRANCH   4   5
ENDBRANCH   3   4
ENDBRANCH   2   3
BRANCH   2  11
HETATM   11  N   UNL     1     -11.630   9.715  69.525  1.00  0.00    -0.444 NA 
HETATM   12  H   UNL     1     -12.462  10.071  69.054  1.00  0.00     0.000 HD 
BRANCH  11  13
HETATM   13  C   UNL     1     -10.435   9.936  68.699  1.00  0.00    -0.206 C  
BRANCH  13  14
HETATM   14  C   UNL     1     -10.702  10.947  67.551  1.00  0.00    -0.252 C  
HETATM   15  H   UNL     1     -12.209  12.055  66.963  1.00  0.00     0.000 HD 
HETATM   16  O   UNL     1     -12.046  11.437  67.665  1.00  0.00    -0.630 OA 
BRANCH  14  17
HETATM   17  C   UNL     1      -9.696  12.093  67.550  1.00  0.00    -0.185 A  
HETATM   18  C   UNL     1      -9.137  14.471  67.301  1.00  0.00    -0.217 A  
HETATM   19  H   UNL     1      -5.853  14.848  67.381  1.00  0.00     0.000 HD 
HETATM   20  C   UNL     1      -7.781  14.151  67.432  1.00  0.00    -0.169 A  
HETATM   21  C   UNL     1      -7.379  12.839  67.657  1.00  0.00    -0.144 A  
HETATM   22  O   UNL     1      -6.774  15.066  67.292  1.00  0.00    -0.278 OA 
HETATM   23  C   UNL     1      -8.329  11.814  67.697  1.00  0.00    -0.145 A  
HETATM   24  C   UNL     1     -10.084  13.432  67.361  1.00  0.00    -0.237 A  
BRANCH  18  25
HETATM   25  C   UNL     1      -9.651  15.852  67.065  1.00  0.00    -0.223 C  
HETATM   26  O   UNL     1      -9.742  16.327  65.939  1.00  0.00    -0.318 OA 
HETATM   27  H1  UNL     1     -10.394  17.534  67.988  1.00  0.00     0.000 HD 
HETATM   28  H2  UNL     1      -9.985  16.206  69.093  1.00  0.00     0.000 HD 
HETATM   29  N   UNL     1     -10.043  16.590  68.150  1.00  0.00    -0.247 N  
ENDBRANCH  18  25
ENDBRANCH  14  17
ENDBRANCH  13  14
ENDBRANCH  11  13
ENDBRANCH   2  11
TORSDOF 8
ENDMDL
MODEL      196
REMARK 921   NORMALIZED FREE ENERGY PREDICTED BY IDOCK:   -4.40 KCAL/MOL
REMARK 922        TOTAL FREE ENERGY PREDICTED BY IDOCK:   -8.02 KCAL/MOL
REMARK 923 INTER-LIGAND FREE ENERGY PREDICTED BY IDOCK:   -7.41 KCAL/MOL
REMARK 924 INTRA-LIGAND FREE ENERGY PREDICTED BY IDOCK:   -0.61 KCAL/MOL
REMARK 927      BINDING AFFINITY PREDICTED BY RF-SCORE:    0.00 PKD
ROOT
HETATM    1  C   UNL     1      -5.635  16.226  68.909  1.00  0.00    -0.117 C  
HETATM    2  C   UNL     1      -6.524  17.040  67.961  1.00  0.00    -0.145 C  
ENDROOT
BRANCH   2   3
HETATM    3  C   UNL     1      -5.825  18.381  67.644  1.00  0.00    -0.157 C  
BRANCH   3   4
HETATM    4  C   UNL     1      -6.584  19.607  68.165  1.00  0.00    -0.295 C  
BRANCH   4   5
HETATM    5  C   UNL     1      -8.042  19.576  67.767  1.00  0.00    -0.331 A  
HETATM    6  C   UNL     1      -9.026  19.152  68.671  1.00  0.00    -0.411 A  
HETATM    7  C   UNL     1     -10.370  19.126  68.295  1.00  0.00    -0.448 A  
HETATM    8  C   UNL     1      -8.434  19.988  66.486  1.00  0.00    -0.359 A  
HETATM    9  C   UNL     1     -10.747  19.529  67.014  1.00  0.00    -0.592 A  
HETATM   10  C   UNL     1      -9.779  19.961  66.111  1.00  0.00    -0.527 A  
ENDBRANCH   4   5
ENDBRANCH   3   4
ENDBRANCH   2   3
BRANCH   2  11
HETATM   11  N   UNL     1      -6.817  16.324  66.713  1.00  0.00    -0.245 NA 
HETATM   12  H   UNL     1      -5.954  16.024  66.261  1.00  0.00     0.000 HD 
BRANCH  11  13
HETATM   13  C   UNL     1      -7.734  15.187  66.878  1.00  0.00    -0.016 C  
BRANCH  13  14
HETATM   14  C   UNL     1      -9.221  15.636  66.881  1.00  0.00    -0.236 C  
HETATM   15  H   UNL     1     -10.512  16.260  65.544  1.00  0.00     0.000 HD 
HETATM   16  O   UNL     1      -9.603  15.985  65.542  1.00  0.00    -0.418 OA 
BRANCH  14  17
HETATM   17  C   UNL     1     -10.142  14.567  67.455  1.00  0.00    -0.228 A  
HETATM   18  C   UNL     1     -11.784  13.798  69.112  1.00  0.00    -0.379 A  
HETATM   19  H   UNL     1     -12.344  10.566  68.695  1.00  0.00     0.000 HD 
HETATM   20  C   UNL     1     -11.726  12.517  68.553  1.00  0.00    -0.324 A  
HETATM   21  C   UNL     1     -10.928  12.260  67.444  1.00  0.00    -0.298 A  
HETATM   22  O   UNL     1     -12.383  11.436  69.075  1.00  0.00    -0.407 OA 
HETATM   23  C   UNL     1     -10.126  13.273  66.911  1.00  0.00    -0.250 A  
HETATM   24  C   UNL     1     -10.986  14.813  68.554  1.00  0.00    -0.265 A  
BRANCH  18  25
HETATM   25  C   UNL     1     -12.619  14.156  70.296  1.00  0.00    -0.306 C  
HETATM   26  O   UNL     1     -13.093  15.276  70.440  1.00  0.00    -0.312 OA 
HETATM   27  H1  UNL     1     -13.437  13.431  72.039  1.00  0.00     0.000 HD 
HETATM   28  H2  UNL     1     -12.490  12.245  71.119  1.00  0.00     0.000 HD 
HETATM   29  N   UNL     1     -12.866  13.186  71.229  1.00  0.00    -0.340 N  
ENDBRANCH  18  25
ENDBRANCH  14  17
ENDBRANCH  13  14
ENDBRANCH  11  13
ENDBRANCH   2  11
TORSDOF 8
ENDMDL
MODEL      197
REMARK 921   NORMALIZED FREE ENERGY PREDICTED BY IDOCK:   -4.39 KCAL/MOL
REMARK 922        TOTAL FREE ENERGY PREDICTED BY IDOCK:   -8.00 KCAL/MOL
REMARK 923 INTER-LIGAND FREE ENERGY PREDICTED BY IDOCK:   -7.10 KCAL/MOL
REMARK 924 INTRA-LIGAND FREE ENERGY PREDICTED BY IDOCK:   -0.90 KCAL/MOL
REMARK 927      BINDING AFFINITY PREDICTED BY RF-SCORE:    0.00 PKD
ROOT
HETATM    1  C   UNL     1     -12.243  13.563  70.162  1.00  0.00    -0.400 C  
HETATM    2  C   UNL     1     -11.734  13.089  68.795  1.00  0.00    -0.324 C  
ENDROOT
BRANCH   2   3
HETATM    3  C   UNL     1     -12.008  11.574  68.655  1.00  0.00    -0.312 C  
BRANCH   3   4
HETATM    4  C   UNL     1     -10.743  10.741  68.418  1.00  0.00    -0.255 C  
BRANCH   4   5
HETATM    5  C   UNL     1     -10.272  10.061  69.684  1.00  0.00    -0.267 A  
HETATM    6  C   UNL     1      -8.956   9.595  69.803  1.00  0.00    -0.226 A  
HETATM    7  C   UNL     1      -8.530   8.968  70.976  1.00  0.00    -0.254 A  
HETATM    8  C   UNL     1     -11.147   9.901  70.768  1.00  0.00    -0.417 A  
HETATM    9  C   UNL     1      -9.412   8.805  72.044  1.00  0.00    -0.336 A  
HETATM   10  C   UNL     1     -10.720   9.274  71.939  1.00  0.00    -0.209 A  
ENDBRANCH   4   5
ENDBRANCH   3   4
ENDBRANCH   2   3
BRANCH   2  11
HETATM   11  N   UNL     1     -12.358  13.813  67.682  1.00  0.00    -0.407 NA 
HETATM   12  H   UNL     1     -12.894  14.608  68.027  1.00  0.00     0.000 HD 
BRANCH  11  13
HETATM   13  C   UNL     1     -11.411  14.242  66.642  1.00  0.00    -0.364 C  
BRANCH  13  14
HETATM   14  C   UNL     1      -9.982  14.457  67.211  1.00  0.00    -0.247 C  
HETATM   15  H   UNL     1      -8.192  13.745  66.847  1.00  0.00     0.000 HD 
HETATM   16  O   UNL     1      -9.066  13.613  66.499  1.00  0.00    -0.216 OA 
BRANCH  14  17
HETATM   17  C   UNL     1      -9.552  15.918  67.144  1.00  0.00    -0.224 A  
HETATM   18  C   UNL     1      -7.919  17.661  66.571  1.00  0.00    -0.302 A  
HETATM   19  H   UNL     1      -8.976  20.580  67.708  1.00  0.00     0.000 HD 
HETATM   20  C   UNL     1      -8.754  18.616  67.163  1.00  0.00    -0.274 A  
HETATM   21  C   UNL     1      -9.982  18.251  67.703  1.00  0.00    -0.348 A  
HETATM   22  O   UNL     1      -8.409  19.932  67.306  1.00  0.00    -0.298 OA 
HETATM   23  C   UNL     1     -10.370  16.908  67.711  1.00  0.00    -0.327 A  
HETATM   24  C   UNL     1      -8.330  16.315  66.570  1.00  0.00    -0.343 A  
BRANCH  18  25
HETATM   25  C   UNL     1      -6.592  17.972  65.965  1.00  0.00    -0.275 C  
HETATM   26  O   UNL     1      -5.583  17.340  66.252  1.00  0.00    -0.228 OA 
HETATM   27  H1  UNL     1      -5.614  19.200  64.634  1.00  0.00     0.000 HD 
HETATM   28  H2  UNL     1      -7.354  19.516  64.788  1.00  0.00     0.000 HD 
HETATM   29  N   UNL     1      -6.522  18.987  65.049  1.00  0.00    -0.247 N  
ENDBRANCH  18  25
ENDBRANCH  14  17
ENDBRANCH  13  14
ENDBRANCH  11  13
ENDBRANCH   2  11
TORSDOF 8
ENDMDL
MODEL      198
REMARK 921   NORMALIZED FREE ENERGY PREDICTED BY IDOCK:   -4.38 KCAL/MOL
REMARK 922        TOTAL FREE ENERGY PREDICTED BY IDOCK:   -7.99 KCAL/MOL
REMARK 923 INTER-LIGAND FREE ENERGY PREDICTED BY IDOCK:   -6.52 KCAL/MOL
REMARK 924 INTRA-LIGAND FREE ENERGY PREDICTED BY IDOCK:   -1.47 KCAL/MOL
REMARK 927      BINDING AFFINITY PREDICTED BY RF-SCORE:    0.00 PKD
ROOT
HETATM    1  C   UNL     1     -12.393  12.563  64.535  1.00  0.00    -0.545 C  
HETATM    2  C   UNL     1     -11.796  12.337  65.929  1.00  0.00    -0.354 C  
ENDROOT
BRANCH   2   3
HETATM    3  C   UNL     1     -10.273  12.599  65.872  1.00  0.00    -0.290 C  
BRANCH   3   4
HETATM    4  C   UNL     1      -9.425  11.343  66.098  1.00  0.00    -0.237 C  
BRANCH   4   5
HETATM    5  C   UNL     1      -8.474  11.509  67.262  1.00  0.00    -0.152 A  
HETATM    6  C   UNL     1      -8.331  10.501  68.225  1.00  0.00    -0.122 A  
HETATM    7  C   UNL     1      -7.452  10.663  69.296  1.00  0.00    -0.130 A  
HETATM    8  C   UNL     1      -7.706  12.676  67.387  1.00  0.00    -0.161 A  
HETATM    9  C   UNL     1      -6.700  11.832  69.415  1.00  0.00    -0.098 A  
HETATM   10  C   UNL     1      -6.827  12.837  68.458  1.00  0.00    -0.094 A  
ENDBRANCH   4   5
ENDBRANCH   3   4
ENDBRANCH   2   3
BRANCH   2  11
HETATM   11  N   UNL     1     -12.411  13.194  66.949  1.00  0.00    -0.239 NA 
HETATM   12  H   UNL     1     -13.408  12.993  67.032  1.00  0.00     0.000 HD 
BRANCH  11  13
HETATM   13  C   UNL     1     -11.759  13.121  68.264  1.00  0.00    -0.349 C  
BRANCH  13  14
HETATM   14  C   UNL     1     -11.838  14.471  69.027  1.00  0.00    -0.318 C  
HETATM   15  H   UNL     1     -11.768  15.044  70.901  1.00  0.00     0.000 HD 
HETATM   16  O   UNL     1     -11.720  14.218  70.434  1.00  0.00    -0.286 OA 
BRANCH  14  17
HETATM   17  C   UNL     1     -10.779  15.459  68.554  1.00  0.00    -0.256 A  
HETATM   18  C   UNL     1     -10.013  17.248  67.055  1.00  0.00    -0.289 A  
HETATM   19  H   UNL     1      -6.806  17.843  67.594  1.00  0.00     0.000 HD 
HETATM   20  C   UNL     1      -8.743  17.173  67.639  1.00  0.00    -0.213 A  
HETATM   21  C   UNL     1      -8.492  16.292  68.685  1.00  0.00    -0.221 A  
HETATM   22  O   UNL     1      -7.668  17.894  67.198  1.00  0.00    -0.202 OA 
HETATM   23  C   UNL     1      -9.498  15.428  69.127  1.00  0.00    -0.242 A  
HETATM   24  C   UNL     1     -11.021  16.384  67.521  1.00  0.00    -0.184 A  
BRANCH  18  25
HETATM   25  C   UNL     1     -10.365  18.168  65.934  1.00  0.00    -0.277 C  
HETATM   26  O   UNL     1     -10.857  17.760  64.890  1.00  0.00    -0.815 OA 
HETATM   27  H1  UNL     1     -10.380  20.137  65.338  1.00  0.00     0.000 HD 
HETATM   28  H2  UNL     1      -9.741  19.867  66.972  1.00  0.00     0.000 HD 
HETATM   29  N   UNL     1     -10.139  19.508  66.104  1.00  0.00    -0.446 N  
ENDBRANCH  18  25
ENDBRANCH  14  17
ENDBRANCH  13  14
ENDBRANCH  11  13
ENDBRANCH   2  11
TORSDOF 8
ENDMDL
MODEL      199
REMARK 921   NORMALIZED FREE ENERGY PREDICTED BY IDOCK:   -4.38 KCAL/MOL
REMARK 922        TOTAL FREE ENERGY PREDICTED BY IDOCK:   -7.99 KCAL/MOL
REMARK 923 INTER-LIGAND FREE ENERGY PREDICTED BY IDOCK:   -7.00 KCAL/MOL
REMARK 924 INTRA-LIGAND FREE ENERGY PREDICTED BY IDOCK:   -0.99 KCAL/MOL
REMARK 927      BINDING AFFINITY PREDICTED BY RF-SCORE:    0.00 PKD
ROOT
HETATM    1  C   UNL     1     -13.035  12.758  64.705  1.00  0.00    -0.231 C  
HETATM    2  C   UNL     1     -12.015  13.011  65.822  1.00  0.00    -0.429 C  
ENDROOT
BRANCH   2   3
HETATM    3  C   UNL     1     -10.613  13.182  65.193  1.00  0.00    -0.332 C  
BRANCH   3   4
HETATM    4  C   UNL     1     -10.464  12.496  63.830  1.00  0.00    -0.464 C  
BRANCH   4   5
HETATM    5  C   UNL     1      -9.751  11.167  63.945  1.00  0.00    -0.325 A  
HETATM    6  C   UNL     1      -9.183  10.555  62.820  1.00  0.00    -0.324 A  
HETATM    7  C   UNL     1      -8.528   9.329  62.935  1.00  0.00    -0.212 A  
HETATM    8  C   UNL     1      -9.634  10.533  65.190  1.00  0.00    -0.316 A  
HETATM    9  C   UNL     1      -8.426   8.702  64.177  1.00  0.00    -0.091 A  
HETATM   10  C   UNL     1      -8.978   9.306  65.305  1.00  0.00    -0.260 A  
ENDBRANCH   4   5
ENDBRANCH   3   4
ENDBRANCH   2   3
BRANCH   2  11
HETATM   11  N   UNL     1     -12.347  14.191  66.629  1.00  0.00    -0.537 NA 
HETATM   12  H   UNL     1     -13.355  14.261  66.763  1.00  0.00     0.000 HD 
BRANCH  11  13
HETATM   13  C   UNL     1     -11.649  14.247  67.921  1.00  0.00    -0.336 C  
BRANCH  13  14
HETATM   14  C   UNL     1     -11.246  15.698  68.301  1.00  0.00    -0.353 C  
HETATM   15  H   UNL     1     -11.207  16.772  69.941  1.00  0.00     0.000 HD 
HETATM   16  O   UNL     1     -11.453  15.885  69.708  1.00  0.00    -0.308 OA 
BRANCH  14  17
HETATM   17  C   UNL     1      -9.808  16.015  67.908  1.00  0.00    -0.226 A  
HETATM   18  C   UNL     1      -8.045  17.604  67.275  1.00  0.00    -0.222 A  
HETATM   19  H   UNL     1      -5.319  15.943  66.415  1.00  0.00     0.000 HD 
HETATM   20  C   UNL     1      -7.175  16.530  67.062  1.00  0.00    -0.212 A  
HETATM   21  C   UNL     1      -7.585  15.223  67.300  1.00  0.00    -0.244 A  
HETATM   22  O   UNL     1      -5.910  16.673  66.559  1.00  0.00    -0.324 OA 
HETATM   23  C   UNL     1      -8.899  14.966  67.702  1.00  0.00    -0.184 A  
HETATM   24  C   UNL     1      -9.360  17.332  67.697  1.00  0.00    -0.237 A  
BRANCH  18  25
HETATM   25  C   UNL     1      -7.681  19.033  67.048  1.00  0.00    -0.233 C  
HETATM   26  O   UNL     1      -7.869  19.588  65.974  1.00  0.00    -0.313 OA 
HETATM   27  H1  UNL     1      -6.886  20.710  67.937  1.00  0.00     0.000 HD 
HETATM   28  H2  UNL     1      -6.983  19.290  68.997  1.00  0.00     0.000 HD 
HETATM   29  N   UNL     1      -7.136  19.733  68.091  1.00  0.00    -0.284 N  
ENDBRANCH  18  25
ENDBRANCH  14  17
ENDBRANCH  13  14
ENDBRANCH  11  13
ENDBRANCH   2  11
TORSDOF 8
ENDMDL
MODEL      200
REMARK 921   NORMALIZED FREE ENERGY PREDICTED BY IDOCK:   -4.38 KCAL/MOL
REMARK 922        TOTAL FREE ENERGY PREDICTED BY IDOCK:   -7.98 KCAL/MOL
REMARK 923 INTER-LIGAND FREE ENERGY PREDICTED BY IDOCK:   -6.69 KCAL/MOL
REMARK 924 INTRA-LIGAND FREE ENERGY PREDICTED BY IDOCK:   -1.30 KCAL/MOL
REMARK 927      BINDING AFFINITY PREDICTED BY RF-SCORE:    0.00 PKD
ROOT
HETATM    1  C   UNL     1     -10.778  15.809  69.865  1.00  0.00    -0.332 C  
HETATM    2  C   UNL     1     -10.489  14.760  68.785  1.00  0.00    -0.250 C  
ENDROOT
BRANCH   2   3
HETATM    3  C   UNL     1     -11.535  14.902  67.655  1.00  0.00    -0.366 C  
BRANCH   3   4
HETATM    4  C   UNL     1     -10.916  15.134  66.272  1.00  0.00    -0.335 C  
BRANCH   4   5
HETATM    5  C   UNL     1     -11.217  13.996  65.324  1.00  0.00    -0.319 A  
HETATM    6  C   UNL     1     -10.222  13.477  64.483  1.00  0.00    -0.296 A  
HETATM    7  C   UNL     1     -10.509  12.426  63.610  1.00  0.00    -0.460 A  
HETATM    8  C   UNL     1     -12.499  13.430  65.282  1.00  0.00    -0.532 A  
HETATM    9  C   UNL     1     -11.791  11.878  63.571  1.00  0.00    -0.560 A  
HETATM   10  C   UNL     1     -12.785  12.379  64.409  1.00  0.00    -0.434 A  
ENDBRANCH   4   5
ENDBRANCH   3   4
ENDBRANCH   2   3
BRANCH   2  11
HETATM   11  N   UNL     1      -9.136  14.884  68.230  1.00  0.00    -0.174 NA 
HETATM   12  H   UNL     1      -8.710  15.765  68.516  1.00  0.00     0.000 HD 
BRANCH  11  13
HETATM   13  C   UNL     1      -8.252  13.755  68.554  1.00  0.00    -0.124 C  
BRANCH  13  14
HETATM   14  C   UNL     1      -8.628  12.476  67.758  1.00  0.00    -0.178 C  
HETATM   15  H   UNL     1      -7.673  11.159  66.663  1.00  0.00     0.000 HD 
HETATM   16  O   UNL     1      -7.443  11.942  67.150  1.00  0.00    -0.139 OA 
BRANCH  14  17
HETATM   17  C   UNL     1      -9.313  11.435  68.636  1.00  0.00    -0.155 A  
HETATM   18  C   UNL     1      -9.235   9.531  70.185  1.00  0.00    -0.281 A  
HETATM   19  H   UNL     1     -12.300   8.415  70.720  1.00  0.00     0.000 HD 
HETATM   20  C   UNL     1     -10.631   9.453  70.137  1.00  0.00    -0.240 A  
HETATM   21  C   UNL     1     -11.369  10.365  69.390  1.00  0.00    -0.310 A  
HETATM   22  O   UNL     1     -11.352   8.468  70.753  1.00  0.00    -0.265 OA 
HETATM   23  C   UNL     1     -10.713  11.337  68.629  1.00  0.00    -0.241 A  
HETATM   24  C   UNL     1      -8.588  10.526  69.428  1.00  0.00    -0.100 A  
BRANCH  18  25
HETATM   25  C   UNL     1      -8.372   8.597  70.966  1.00  0.00    -0.161 C  
HETATM   26  O   UNL     1      -8.037   8.835  72.120  1.00  0.00    -0.336 OA 
HETATM   27  H1  UNL     1      -7.377   6.797  70.898  1.00  0.00     0.000 HD 
HETATM   28  H2  UNL     1      -8.246   7.216  69.409  1.00  0.00     0.000 HD 
HETATM   29  N   UNL     1      -7.967   7.436  70.364  1.00  0.00    -0.102 N  
ENDBRANCH  18  25
ENDBRANCH  14  17
ENDBRANCH  13  14
ENDBRANCH  11  13
ENDBRANCH   2  11
TORSDOF 8
ENDMDL
MODEL      201
REMARK 921   NORMALIZED FREE ENERGY PREDICTED BY IDOCK:   -4.37 KCAL/MOL
REMARK 922        TOTAL FREE ENERGY PREDICTED BY IDOCK:   -7.97 KCAL/MOL
REMARK 923 INTER-LIGAND FREE ENERGY PREDICTED BY IDOCK:   -6.46 KCAL/MOL
REMARK 924 INTRA-LIGAND FREE ENERGY PREDICTED BY IDOCK:   -1.51 KCAL/MOL
REMARK 927      BINDING AFFINITY PREDICTED BY RF-SCORE:    0.00 PKD
ROOT
HETATM    1  C   UNL     1     -12.584  12.048  63.450  1.00  0.00    -0.592 C  
HETATM    2  C   UNL     1     -11.646  13.110  64.036  1.00  0.00    -0.428 C  
ENDROOT
BRANCH   2   3
HETATM    3  C   UNL     1     -12.224  13.604  65.382  1.00  0.00    -0.474 C  
BRANCH   3   4
HETATM    4  C   UNL     1     -11.609  12.913  66.604  1.00  0.00    -0.428 C  
BRANCH   4   5
HETATM    5  C   UNL     1     -11.113  13.914  67.624  1.00  0.00    -0.295 A  
HETATM    6  C   UNL     1      -9.743  14.072  67.871  1.00  0.00    -0.229 A  
HETATM    7  C   UNL     1      -9.295  14.997  68.815  1.00  0.00    -0.200 A  
HETATM    8  C   UNL     1     -12.024  14.712  68.331  1.00  0.00    -0.289 A  
HETATM    9  C   UNL     1     -10.210  15.779  69.519  1.00  0.00    -0.271 A  
HETATM   10  C   UNL     1     -11.575  15.637  69.275  1.00  0.00    -0.375 A  
ENDBRANCH   4   5
ENDBRANCH   3   4
ENDBRANCH   2   3
BRANCH   2  11
HETATM   11  N   UNL     1     -10.282  12.606  64.234  1.00  0.00    -0.509 NA 
HETATM   12  H   UNL     1     -10.165  12.253  65.183  1.00  0.00     0.000 HD 
BRANCH  11  13
HETATM   13  C   UNL     1      -9.871  11.592  63.253  1.00  0.00    -0.409 C  
BRANCH  13  14
HETATM   14  C   UNL     1      -9.581  10.221  63.922  1.00  0.00    -0.293 C  
HETATM   15  H   UNL     1      -8.342   8.732  63.616  1.00  0.00     0.000 HD 
HETATM   16  O   UNL     1      -8.519   9.571  63.208  1.00  0.00    -0.171 OA 
BRANCH  14  17
HETATM   17  C   UNL     1      -9.242  10.365  65.401  1.00  0.00    -0.233 A  
HETATM   18  C   UNL     1      -7.759  11.107  67.212  1.00  0.00    -0.130 A  
HETATM   19  H   UNL     1      -8.902   9.988  70.105  1.00  0.00     0.000 HD 
HETATM   20  C   UNL     1      -8.604  10.487  68.138  1.00  0.00    -0.123 A  
HETATM   21  C   UNL     1      -9.768   9.849  67.724  1.00  0.00    -0.175 A  
HETATM   22  O   UNL     1      -8.328  10.410  69.476  1.00  0.00    -0.162 OA 
HETATM   23  C   UNL     1     -10.075   9.771  66.362  1.00  0.00    -0.313 A  
HETATM   24  C   UNL     1      -8.089  11.037  65.846  1.00  0.00    -0.075 A  
BRANCH  18  25
HETATM   25  C   UNL     1      -6.497  11.817  67.575  1.00  0.00    -0.095 C  
HETATM   26  O   UNL     1      -6.424  12.552  68.552  1.00  0.00    -0.064 OA 
HETATM   27  H1  UNL     1      -4.531  12.100  67.038  1.00  0.00     0.000 HD 
HETATM   28  H2  UNL     1      -5.433  10.996  65.980  1.00  0.00     0.000 HD 
HETATM   29  N   UNL     1      -5.394  11.614  66.790  1.00  0.00    -0.125 N  
ENDBRANCH  18  25
ENDBRANCH  14  17
ENDBRANCH  13  14
ENDBRANCH  11  13
ENDBRANCH   2  11
TORSDOF 8
ENDMDL
MODEL      202
REMARK 921   NORMALIZED FREE ENERGY PREDICTED BY IDOCK:   -4.37 KCAL/MOL
REMARK 922        TOTAL FREE ENERGY PREDICTED BY IDOCK:   -7.96 KCAL/MOL
REMARK 923 INTER-LIGAND FREE ENERGY PREDICTED BY IDOCK:   -4.80 KCAL/MOL
REMARK 924 INTRA-LIGAND FREE ENERGY PREDICTED BY IDOCK:   -3.16 KCAL/MOL
REMARK 927      BINDING AFFINITY PREDICTED BY RF-SCORE:    0.00 PKD
ROOT
HETATM    1  C   UNL     1     -11.253   7.409  72.516  1.00  0.00    -0.363 C  
HETATM    2  C   UNL     1     -12.262   7.862  71.454  1.00  0.00    -0.313 C  
ENDROOT
BRANCH   2   3
HETATM    3  C   UNL     1     -11.917   9.304  71.017  1.00  0.00    -0.369 C  
BRANCH   3   4
HETATM    4  C   UNL     1     -10.411   9.576  70.934  1.00  0.00    -0.372 C  
BRANCH   4   5
HETATM    5  C   UNL     1      -9.979   9.923  69.527  1.00  0.00    -0.240 A  
HETATM    6  C   UNL     1      -8.714  10.473  69.276  1.00  0.00    -0.135 A  
HETATM    7  C   UNL     1      -8.325  10.791  67.974  1.00  0.00    -0.120 A  
HETATM    8  C   UNL     1     -10.838   9.684  68.444  1.00  0.00    -0.212 A  
HETATM    9  C   UNL     1      -9.191  10.557  66.907  1.00  0.00    -0.173 A  
HETATM   10  C   UNL     1     -10.447  10.001  67.143  1.00  0.00    -0.305 A  
ENDBRANCH   4   5
ENDBRANCH   3   4
ENDBRANCH   2   3
BRANCH   2  11
HETATM   11  N   UNL     1     -12.279   6.978  70.283  1.00  0.00    -0.622 NA 
HETATM   12  H   UNL     1     -12.204   7.520  69.423  1.00  0.00     0.000 HD 
BRANCH  11  13
HETATM   13  C   UNL     1     -11.259   5.920  70.317  1.00  0.00    -0.247 C  
BRANCH  13  14
HETATM   14  C   UNL     1     -10.560   5.744  68.942  1.00  0.00    -0.267 C  
HETATM   15  H   UNL     1     -10.959   6.216  67.081  1.00  0.00     0.000 HD 
HETATM   16  O   UNL     1     -11.386   6.324  67.923  1.00  0.00    -0.257 OA 
BRANCH  14  17
HETATM   17  C   UNL     1      -9.161   6.348  68.927  1.00  0.00    -0.128 A  
HETATM   18  C   UNL     1      -7.170   7.207  70.081  1.00  0.00    -0.078 A  
HETATM   19  H   UNL     1      -5.098   8.531  67.871  1.00  0.00     0.000 HD 
HETATM   20  C   UNL     1      -6.635   7.584  68.845  1.00  0.00    -0.048 A  
HETATM   21  C   UNL     1      -7.318   7.320  67.663  1.00  0.00    -0.093 A  
HETATM   22  O   UNL     1      -5.462   8.275  68.711  1.00  0.00    -0.034 OA 
HETATM   23  C   UNL     1      -8.582   6.724  67.705  1.00  0.00    -0.121 A  
HETATM   24  C   UNL     1      -8.435   6.591  70.108  1.00  0.00    -0.135 A  
BRANCH  18  25
HETATM   25  C   UNL     1      -6.498   7.448  71.391  1.00  0.00    -0.036 C  
HETATM   26  O   UNL     1      -5.484   6.846  71.721  1.00  0.00    -0.034 OA 
HETATM   27  H1  UNL     1      -6.578   8.551  73.126  1.00  0.00     0.000 HD 
HETATM   28  H2  UNL     1      -7.874   8.906  71.967  1.00  0.00     0.000 HD 
HETATM   29  N   UNL     1      -7.037   8.386  72.230  1.00  0.00    -0.101 N  
ENDBRANCH  18  25
ENDBRANCH  14  17
ENDBRANCH  13  14
ENDBRANCH  11  13
ENDBRANCH   2  11
TORSDOF 8
ENDMDL
MODEL      203
REMARK 921   NORMALIZED FREE ENERGY PREDICTED BY IDOCK:   -4.36 KCAL/MOL
REMARK 922        TOTAL FREE ENERGY PREDICTED BY IDOCK:   -7.96 KCAL/MOL
REMARK 923 INTER-LIGAND FREE ENERGY PREDICTED BY IDOCK:   -7.22 KCAL/MOL
REMARK 924 INTRA-LIGAND FREE ENERGY PREDICTED BY IDOCK:   -0.74 KCAL/MOL
REMARK 927      BINDING AFFINITY PREDICTED BY RF-SCORE:    0.00 PKD
ROOT
HETATM    1  C   UNL     1      -5.243  16.485  70.249  1.00  0.00    -0.194 C  
HETATM    2  C   UNL     1      -6.521  16.950  69.541  1.00  0.00    -0.223 C  
ENDROOT
BRANCH   2   3
HETATM    3  C   UNL     1      -6.151  17.494  68.142  1.00  0.00    -0.164 C  
BRANCH   3   4
HETATM    4  C   UNL     1      -6.635  18.927  67.894  1.00  0.00    -0.227 C  
BRANCH   4   5
HETATM    5  C   UNL     1      -8.118  18.978  67.604  1.00  0.00    -0.296 A  
HETATM    6  C   UNL     1      -8.659  18.309  66.498  1.00  0.00    -0.283 A  
HETATM    7  C   UNL     1     -10.029  18.362  66.239  1.00  0.00    -0.378 A  
HETATM    8  C   UNL     1      -8.980  19.687  68.453  1.00  0.00    -0.372 A  
HETATM    9  C   UNL     1     -10.876  19.079  67.084  1.00  0.00    -0.473 A  
HETATM   10  C   UNL     1     -10.350  19.740  68.192  1.00  0.00    -0.561 A  
ENDBRANCH   4   5
ENDBRANCH   3   4
ENDBRANCH   2   3
BRANCH   2  11
HETATM   11  N   UNL     1      -7.513  15.876  69.412  1.00  0.00    -0.226 NA 
HETATM   12  H   UNL     1      -8.224  16.125  68.725  1.00  0.00     0.000 HD 
BRANCH  11  13
HETATM   13  C   UNL     1      -6.934  14.561  69.099  1.00  0.00    -0.131 C  
BRANCH  13  14
HETATM   14  C   UNL     1      -7.277  14.104  67.655  1.00  0.00    -0.180 C  
HETATM   15  H   UNL     1      -6.381  13.074  66.247  1.00  0.00     0.000 HD 
HETATM   16  O   UNL     1      -6.172  13.353  67.131  1.00  0.00    -0.257 OA 
BRANCH  14  17
HETATM   17  C   UNL     1      -8.567  13.296  67.601  1.00  0.00    -0.196 A  
HETATM   18  C   UNL     1     -10.788  12.837  66.655  1.00  0.00    -0.288 A  
HETATM   19  H   UNL     1     -12.291  10.501  68.447  1.00  0.00     0.000 HD 
HETATM   20  C   UNL     1     -10.983  11.854  67.630  1.00  0.00    -0.235 A  
HETATM   21  C   UNL     1      -9.986  11.558  68.554  1.00  0.00    -0.207 A  
HETATM   22  O   UNL     1     -12.158  11.169  67.785  1.00  0.00    -0.606 OA 
HETATM   23  C   UNL     1      -8.794  12.288  68.551  1.00  0.00    -0.068 A  
HETATM   24  C   UNL     1      -9.576  13.552  66.653  1.00  0.00    -0.282 A  
BRANCH  18  25
HETATM   25  C   UNL     1     -11.803  13.209  65.627  1.00  0.00    -0.387 C  
HETATM   26  O   UNL     1     -12.695  12.441  65.288  1.00  0.00    -0.617 OA 
HETATM   27  H1  UNL     1     -12.423  14.712  64.365  1.00  0.00     0.000 HD 
HETATM   28  H2  UNL     1     -11.001  15.114  65.348  1.00  0.00     0.000 HD 
HETATM   29  N   UNL     1     -11.729  14.457  65.069  1.00  0.00    -0.372 N  
ENDBRANCH  18  25
ENDBRANCH  14  17
ENDBRANCH  13  14
ENDBRANCH  11  13
ENDBRANCH   2  11
TORSDOF 8
ENDMDL
MODEL      204
REMARK 921   NORMALIZED FREE ENERGY PREDICTED BY IDOCK:   -4.36 KCAL/MOL
REMARK 922        TOTAL FREE ENERGY PREDICTED BY IDOCK:   -7.96 KCAL/MOL
REMARK 923 INTER-LIGAND FREE ENERGY PREDICTED BY IDOCK:   -7.26 KCAL/MOL
REMARK 924 INTRA-LIGAND FREE ENERGY PREDICTED BY IDOCK:   -0.70 KCAL/MOL
REMARK 927      BINDING AFFINITY PREDICTED BY RF-SCORE:    0.00 PKD
ROOT
HETATM    1  C   UNL     1      -9.913   9.000  70.749  1.00  0.00    -0.307 C  
HETATM    2  C   UNL     1     -11.358   8.498  70.856  1.00  0.00    -0.268 C  
ENDROOT
BRANCH   2   3
HETATM    3  C   UNL     1     -11.539   7.774  72.210  1.00  0.00    -0.390 C  
BRANCH   3   4
HETATM    4  C   UNL     1     -11.973   6.310  72.069  1.00  0.00    -0.353 C  
BRANCH   4   5
HETATM    5  C   UNL     1     -10.832   5.357  72.346  1.00  0.00    -0.297 A  
HETATM    6  C   UNL     1      -9.888   5.057  71.355  1.00  0.00    -0.245 A  
HETATM    7  C   UNL     1      -8.839   4.175  71.619  1.00  0.00    -0.147 A  
HETATM    8  C   UNL     1     -10.694   4.769  73.612  1.00  0.00    -0.350 A  
HETATM    9  C   UNL     1      -8.717   3.588  72.879  1.00  0.00    -0.094 A  
HETATM   10  C   UNL     1      -9.644   3.887  73.875  1.00  0.00    -0.128 A  
ENDBRANCH   4   5
ENDBRANCH   3   4
ENDBRANCH   2   3
BRANCH   2  11
HETATM   11  N   UNL     1     -12.340   9.582  70.736  1.00  0.00    -0.465 NA 
HETATM   12  H   UNL     1     -12.952   9.604  71.551  1.00  0.00     0.000 HD 
BRANCH  11  13
HETATM   13  C   UNL     1     -11.743  10.905  70.503  1.00  0.00    -0.342 C  
BRANCH  13  14
HETATM   14  C   UNL     1     -12.776  12.049  70.695  1.00  0.00    -0.078 C  
HETATM   15  H   UNL     1     -13.699  12.882  72.211  1.00  0.00     0.000 HD 
HETATM   16  O   UNL     1     -13.067  12.183  72.093  1.00  0.00    -0.434 OA 
BRANCH  14  17
HETATM   17  C   UNL     1     -12.287  13.367  70.106  1.00  0.00    -0.322 A  
HETATM   18  C   UNL     1     -11.199  14.663  68.325  1.00  0.00    -0.301 A  
HETATM   19  H   UNL     1     -10.808  17.792  69.317  1.00  0.00     0.000 HD 
HETATM   20  C   UNL     1     -11.289  15.808  69.124  1.00  0.00    -0.349 A  
HETATM   21  C   UNL     1     -11.898  15.758  70.374  1.00  0.00    -0.391 A  
HETATM   22  O   UNL     1     -10.747  17.015  68.775  1.00  0.00    -0.337 OA 
HETATM   23  C   UNL     1     -12.376  14.542  70.869  1.00  0.00    -0.415 A  
HETATM   24  C   UNL     1     -11.701  13.449  68.829  1.00  0.00    -0.377 A  
BRANCH  18  25
HETATM   25  C   UNL     1     -10.568  14.634  66.973  1.00  0.00    -0.280 C  
HETATM   26  O   UNL     1     -11.105  15.140  65.996  1.00  0.00    -0.338 OA 
HETATM   27  H1  UNL     1      -8.912  14.014  65.921  1.00  0.00     0.000 HD 
HETATM   28  H2  UNL     1      -8.877  13.618  67.651  1.00  0.00     0.000 HD 
HETATM   29  N   UNL     1      -9.344  14.034  66.845  1.00  0.00    -0.248 N  
ENDBRANCH  18  25
ENDBRANCH  14  17
ENDBRANCH  13  14
ENDBRANCH  11  13
ENDBRANCH   2  11
TORSDOF 8
ENDMDL
MODEL      205
REMARK 921   NORMALIZED FREE ENERGY PREDICTED BY IDOCK:   -4.36 KCAL/MOL
REMARK 922        TOTAL FREE ENERGY PREDICTED BY IDOCK:   -7.95 KCAL/MOL
REMARK 923 INTER-LIGAND FREE ENERGY PREDICTED BY IDOCK:   -6.86 KCAL/MOL
REMARK 924 INTRA-LIGAND FREE ENERGY PREDICTED BY IDOCK:   -1.10 KCAL/MOL
REMARK 927      BINDING AFFINITY PREDICTED BY RF-SCORE:    0.00 PKD
ROOT
HETATM    1  C   UNL     1     -11.098  10.497  70.227  1.00  0.00    -0.359 C  
HETATM    2  C   UNL     1     -10.157  10.377  69.023  1.00  0.00    -0.213 C  
ENDROOT
BRANCH   2   3
HETATM    3  C   UNL     1     -11.001  10.300  67.731  1.00  0.00    -0.360 C  
BRANCH   3   4
HETATM    4  C   UNL     1     -10.199  10.584  66.455  1.00  0.00    -0.288 C  
BRANCH   4   5
HETATM    5  C   UNL     1     -10.888  11.600  65.573  1.00  0.00    -0.334 A  
HETATM    6  C   UNL     1     -10.661  11.625  64.191  1.00  0.00    -0.411 A  
HETATM    7  C   UNL     1     -11.301  12.567  63.384  1.00  0.00    -0.489 A  
HETATM    8  C   UNL     1     -11.782  12.528  66.128  1.00  0.00    -0.466 A  
HETATM    9  C   UNL     1     -12.180  13.491  63.948  1.00  0.00    -0.458 A  
HETATM   10  C   UNL     1     -12.421  13.470  65.320  1.00  0.00    -0.525 A  
ENDBRANCH   4   5
ENDBRANCH   3   4
ENDBRANCH   2   3
BRANCH   2  11
HETATM   11  N   UNL     1      -9.213  11.497  68.935  1.00  0.00    -0.395 NA 
HETATM   12  H   UNL     1      -9.363  12.154  69.701  1.00  0.00     0.000 HD 
BRANCH  11  13
HETATM   13  C   UNL     1      -7.802  11.087  68.876  1.00  0.00    -0.138 C  
BRANCH  13  14
HETATM   14  C   UNL     1      -6.961  12.029  67.973  1.00  0.00    -0.084 C  
HETATM   15  H   UNL     1      -6.611  12.206  66.051  1.00  0.00     0.000 HD 
HETATM   16  O   UNL     1      -7.126  11.630  66.604  1.00  0.00    -0.115 OA 
BRANCH  14  17
HETATM   17  C   UNL     1      -7.332  13.494  68.168  1.00  0.00    -0.121 A  
HETATM   18  C   UNL     1      -8.497  15.537  67.459  1.00  0.00    -0.188 A  
HETATM   19  H   UNL     1      -7.591  18.055  69.400  1.00  0.00     0.000 HD 
HETATM   20  C   UNL     1      -7.881  16.233  68.504  1.00  0.00    -0.192 A  
HETATM   21  C   UNL     1      -7.037  15.579  69.395  1.00  0.00    -0.194 A  
HETATM   22  O   UNL     1      -8.010  17.583  68.690  1.00  0.00    -0.266 OA 
HETATM   23  C   UNL     1      -6.749  14.223  69.216  1.00  0.00    -0.123 A  
HETATM   24  C   UNL     1      -8.213  14.168  67.301  1.00  0.00    -0.200 A  
BRANCH  18  25
HETATM   25  C   UNL     1      -9.420  16.163  66.467  1.00  0.00    -0.264 C  
HETATM   26  O   UNL     1      -9.004  16.787  65.499  1.00  0.00    -0.383 OA 
HETATM   27  H1  UNL     1     -11.398  16.437  65.974  1.00  0.00     0.000 HD 
HETATM   28  H2  UNL     1     -11.131  15.482  67.446  1.00  0.00     0.000 HD 
HETATM   29  N   UNL     1     -10.768  16.009  66.652  1.00  0.00    -0.289 N  
ENDBRANCH  18  25
ENDBRANCH  14  17
ENDBRANCH  13  14
ENDBRANCH  11  13
ENDBRANCH   2  11
TORSDOF 8
ENDMDL
MODEL      206
REMARK 921   NORMALIZED FREE ENERGY PREDICTED BY IDOCK:   -4.36 KCAL/MOL
REMARK 922        TOTAL FREE ENERGY PREDICTED BY IDOCK:   -7.95 KCAL/MOL
REMARK 923 INTER-LIGAND FREE ENERGY PREDICTED BY IDOCK:   -7.21 KCAL/MOL
REMARK 924 INTRA-LIGAND FREE ENERGY PREDICTED BY IDOCK:   -0.74 KCAL/MOL
REMARK 927      BINDING AFFINITY PREDICTED BY RF-SCORE:    0.00 PKD
ROOT
HETATM    1  C   UNL     1      -9.575  18.175  66.506  1.00  0.00    -0.318 C  
HETATM    2  C   UNL     1     -10.403  16.893  66.655  1.00  0.00    -0.299 C  
ENDROOT
BRANCH   2   3
HETATM    3  C   UNL     1     -10.011  15.908  65.530  1.00  0.00    -0.313 C  
BRANCH   3   4
HETATM    4  C   UNL     1     -11.199  15.445  64.679  1.00  0.00    -0.374 C  
BRANCH   4   5
HETATM    5  C   UNL     1     -11.124  13.968  64.365  1.00  0.00    -0.300 A  
HETATM    6  C   UNL     1     -12.095  13.352  63.565  1.00  0.00    -0.497 A  
HETATM    7  C   UNL     1     -12.018  11.987  63.282  1.00  0.00    -0.477 A  
HETATM    8  C   UNL     1     -10.066  13.193  64.862  1.00  0.00    -0.236 A  
HETATM    9  C   UNL     1     -10.967  11.224  63.789  1.00  0.00    -0.381 A  
HETATM   10  C   UNL     1      -9.990  11.828  64.578  1.00  0.00    -0.273 A  
ENDBRANCH   4   5
ENDBRANCH   3   4
ENDBRANCH   2   3
BRANCH   2  11
HETATM   11  N   UNL     1     -10.217  16.254  67.964  1.00  0.00    -0.249 NA 
HETATM   12  H   UNL     1     -10.240  16.950  68.709  1.00  0.00     0.000 HD 
BRANCH  11  13
HETATM   13  C   UNL     1     -11.171  15.171  68.241  1.00  0.00    -0.308 C  
BRANCH  13  14
HETATM   14  C   UNL     1     -10.531  13.770  68.047  1.00  0.00    -0.244 C  
HETATM   15  H   UNL     1      -8.714  13.031  68.056  1.00  0.00     0.000 HD 
HETATM   16  O   UNL     1      -9.106  13.888  68.176  1.00  0.00    -0.181 OA 
BRANCH  14  17
HETATM   17  C   UNL     1     -11.089  12.743  69.025  1.00  0.00    -0.285 A  
HETATM   18  C   UNL     1     -11.253  10.447  69.882  1.00  0.00    -0.371 A  
HETATM   19  H   UNL     1     -13.614  10.297  72.192  1.00  0.00     0.000 HD 
HETATM   20  C   UNL     1     -12.249  10.866  70.771  1.00  0.00    -0.383 A  
HETATM   21  C   UNL     1     -12.640  12.200  70.825  1.00  0.00    -0.305 A  
HETATM   22  O   UNL     1     -12.937  10.012  71.588  1.00  0.00    -0.379 OA 
HETATM   23  C   UNL     1     -12.077  13.129  69.944  1.00  0.00    -0.357 A  
HETATM   24  C   UNL     1     -10.683  11.396  69.014  1.00  0.00    -0.245 A  
BRANCH  18  25
HETATM   25  C   UNL     1     -10.774   9.039  69.767  1.00  0.00    -0.225 C  
HETATM   26  O   UNL     1     -10.979   8.363  68.767  1.00  0.00    -0.014 OA 
HETATM   27  H1  UNL     1      -9.742   7.546  70.737  1.00  0.00     0.000 HD 
HETATM   28  H2  UNL     1      -9.879   9.061  71.652  1.00  0.00     0.000 HD 
HETATM   29  N   UNL     1     -10.070   8.509  70.816  1.00  0.00    -0.192 N  
ENDBRANCH  18  25
ENDBRANCH  14  17
ENDBRANCH  13  14
ENDBRANCH  11  13
ENDBRANCH   2  11
TORSDOF 8
ENDMDL
MODEL      207
REMARK 921   NORMALIZED FREE ENERGY PREDICTED BY IDOCK:   -4.34 KCAL/MOL
REMARK 922        TOTAL FREE ENERGY PREDICTED BY IDOCK:   -7.92 KCAL/MOL
REMARK 923 INTER-LIGAND FREE ENERGY PREDICTED BY IDOCK:   -7.28 KCAL/MOL
REMARK 924 INTRA-LIGAND FREE ENERGY PREDICTED BY IDOCK:   -0.63 KCAL/MOL
REMARK 927      BINDING AFFINITY PREDICTED BY RF-SCORE:    0.00 PKD
ROOT
HETATM    1  C   UNL     1     -12.156  12.802  65.680  1.00  0.00    -0.514 C  
HETATM    2  C   UNL     1     -10.941  12.726  66.613  1.00  0.00    -0.270 C  
ENDROOT
BRANCH   2   3
HETATM    3  C   UNL     1     -10.211  11.383  66.378  1.00  0.00    -0.270 C  
BRANCH   3   4
HETATM    4  C   UNL     1     -10.631  10.278  67.353  1.00  0.00    -0.324 C  
BRANCH   4   5
HETATM    5  C   UNL     1     -10.120   8.922  66.919  1.00  0.00    -0.343 A  
HETATM    6  C   UNL     1     -10.782   7.748  67.301  1.00  0.00    -0.326 A  
HETATM    7  C   UNL     1     -10.302   6.501  66.897  1.00  0.00    -0.311 A  
HETATM    8  C   UNL     1      -8.977   8.823  66.113  1.00  0.00    -0.225 A  
HETATM    9  C   UNL     1      -9.159   6.413  66.103  1.00  0.00    -0.150 A  
HETATM   10  C   UNL     1      -8.498   7.575  65.710  1.00  0.00    -0.151 A  
ENDBRANCH   4   5
ENDBRANCH   3   4
ENDBRANCH   2   3
BRANCH   2  11
HETATM   11  N   UNL     1     -10.009  13.841  66.412  1.00  0.00    -0.289 NA 
HETATM   12  H   UNL     1     -10.284  14.398  65.604  1.00  0.00     0.000 HD 
BRANCH  11  13
HETATM   13  C   UNL     1      -9.839  14.699  67.594  1.00  0.00    -0.218 C  
BRANCH  13  14
HETATM   14  C   UNL     1     -10.777  15.936  67.553  1.00  0.00    -0.318 C  
HETATM   15  H   UNL     1     -12.097  16.751  68.752  1.00  0.00     0.000 HD 
HETATM   16  O   UNL     1     -11.523  15.994  68.777  1.00  0.00    -0.360 OA 
BRANCH  14  17
HETATM   17  C   UNL     1     -10.008  17.230  67.315  1.00  0.00    -0.283 A  
HETATM   18  C   UNL     1      -8.018  18.447  66.544  1.00  0.00    -0.294 A  
HETATM   19  H   UNL     1      -8.309  21.646  67.324  1.00  0.00     0.000 HD 
HETATM   20  C   UNL     1      -8.581  19.637  67.016  1.00  0.00    -0.312 A  
HETATM   21  C   UNL     1      -9.847  19.646  67.592  1.00  0.00    -0.494 A  
HETATM   22  O   UNL     1      -7.926  20.838  67.004  1.00  0.00    -0.279 OA 
HETATM   23  C   UNL     1     -10.548  18.448  67.758  1.00  0.00    -0.419 A  
HETATM   24  C   UNL     1      -8.741  17.250  66.701  1.00  0.00    -0.285 A  
BRANCH  18  25
HETATM   25  C   UNL     1      -6.671  18.353  65.910  1.00  0.00    -0.277 C  
HETATM   26  O   UNL     1      -6.496  18.589  64.721  1.00  0.00    -0.434 OA 
HETATM   27  H1  UNL     1      -4.686  17.944  66.267  1.00  0.00     0.000 HD 
HETATM   28  H2  UNL     1      -5.733  17.820  67.695  1.00  0.00     0.000 HD 
HETATM   29  N   UNL     1      -5.607  18.008  66.700  1.00  0.00    -0.139 N  
ENDBRANCH  18  25
ENDBRANCH  14  17
ENDBRANCH  13  14
ENDBRANCH  11  13
ENDBRANCH   2  11
TORSDOF 8
ENDMDL
MODEL      208
REMARK 921   NORMALIZED FREE ENERGY PREDICTED BY IDOCK:   -4.34 KCAL/MOL
REMARK 922        TOTAL FREE ENERGY PREDICTED BY IDOCK:   -7.92 KCAL/MOL
REMARK 923 INTER-LIGAND FREE ENERGY PREDICTED BY IDOCK:   -7.16 KCAL/MOL
REMARK 924 INTRA-LIGAND FREE ENERGY PREDICTED BY IDOCK:   -0.76 KCAL/MOL
REMARK 927      BINDING AFFINITY PREDICTED BY RF-SCORE:    0.00 PKD
ROOT
HETATM    1  C   UNL     1     -10.896  14.331  64.586  1.00  0.00    -0.384 C  
HETATM    2  C   UNL     1     -10.714  14.170  66.100  1.00  0.00    -0.297 C  
ENDROOT
BRANCH   2   3
HETATM    3  C   UNL     1     -11.550  12.962  66.580  1.00  0.00    -0.428 C  
BRANCH   3   4
HETATM    4  C   UNL     1     -11.217  11.656  65.851  1.00  0.00    -0.296 C  
BRANCH   4   5
HETATM    5  C   UNL     1     -10.827  10.558  66.815  1.00  0.00    -0.209 A  
HETATM    6  C   UNL     1     -11.186  10.627  68.168  1.00  0.00    -0.366 A  
HETATM    7  C   UNL     1     -10.820   9.609  69.051  1.00  0.00    -0.206 A  
HETATM    8  C   UNL     1     -10.109   9.442  66.362  1.00  0.00    -0.332 A  
HETATM    9  C   UNL     1     -10.098   8.509  68.591  1.00  0.00    -0.207 A  
HETATM   10  C   UNL     1      -9.744   8.425  67.246  1.00  0.00    -0.240 A  
ENDBRANCH   4   5
ENDBRANCH   3   4
ENDBRANCH   2   3
BRANCH   2  11
HETATM   11  N   UNL     1      -9.308  13.985  66.479  1.00  0.00    -0.375 NA 
HETATM   12  H   UNL     1      -8.691  14.409  65.786  1.00  0.00     0.000 HD 
BRANCH  11  13
HETATM   13  C   UNL     1      -8.983  14.475  67.826  1.00  0.00    -0.190 C  
BRANCH  13  14
HETATM   14  C   UNL     1     -10.091  15.406  68.389  1.00  0.00    -0.215 C  
HETATM   15  H   UNL     1     -10.899  15.744  70.143  1.00  0.00     0.000 HD 
HETATM   16  O   UNL     1     -10.221  15.174  69.799  1.00  0.00    -0.236 OA 
BRANCH  14  17
HETATM   17  C   UNL     1      -9.809  16.875  68.096  1.00  0.00    -0.264 A  
HETATM   18  C   UNL     1      -8.395  18.876  68.268  1.00  0.00    -0.364 A  
HETATM   19  H   UNL     1     -10.014  21.481  67.034  1.00  0.00     0.000 HD 
HETATM   20  C   UNL     1      -9.399  19.621  67.639  1.00  0.00    -0.338 A  
HETATM   21  C   UNL     1     -10.572  19.012  67.207  1.00  0.00    -0.554 A  
HETATM   22  O   UNL     1      -9.333  20.976  67.461  1.00  0.00    -0.283 OA 
HETATM   23  C   UNL     1     -10.784  17.652  67.451  1.00  0.00    -0.262 A  
HETATM   24  C   UNL     1      -8.614  17.504  68.491  1.00  0.00    -0.276 A  
BRANCH  18  25
HETATM   25  C   UNL     1      -7.108  19.452  68.755  1.00  0.00    -0.347 C  
HETATM   26  O   UNL     1      -6.979  19.881  69.895  1.00  0.00    -0.282 OA 
HETATM   27  H1  UNL     1      -5.165  19.872  68.225  1.00  0.00     0.000 HD 
HETATM   28  H2  UNL     1      -6.131  19.115  66.943  1.00  0.00     0.000 HD 
HETATM   29  N   UNL     1      -6.045  19.478  67.892  1.00  0.00    -0.208 N  
ENDBRANCH  18  25
ENDBRANCH  14  17
ENDBRANCH  13  14
ENDBRANCH  11  13
ENDBRANCH   2  11
TORSDOF 8
ENDMDL
MODEL      209
REMARK 921   NORMALIZED FREE ENERGY PREDICTED BY IDOCK:   -4.33 KCAL/MOL
REMARK 922        TOTAL FREE ENERGY PREDICTED BY IDOCK:   -7.91 KCAL/MOL
REMARK 923 INTER-LIGAND FREE ENERGY PREDICTED BY IDOCK:   -7.42 KCAL/MOL
REMARK 924 INTRA-LIGAND FREE ENERGY PREDICTED BY IDOCK:   -0.49 KCAL/MOL
REMARK 927      BINDING AFFINITY PREDICTED BY RF-SCORE:    0.00 PKD
ROOT
HETATM    1  C   UNL     1      -9.099   8.428  71.465  1.00  0.00    -0.254 C  
HETATM    2  C   UNL     1     -10.542   7.922  71.580  1.00  0.00    -0.222 C  
ENDROOT
BRANCH   2   3
HETATM    3  C   UNL     1     -10.662   7.025  72.833  1.00  0.00    -0.320 C  
BRANCH   3   4
HETATM    4  C   UNL     1      -9.503   6.034  72.992  1.00  0.00    -0.143 C  
BRANCH   4   5
HETATM    5  C   UNL     1      -9.964   4.602  72.843  1.00  0.00    -0.194 A  
HETATM    6  C   UNL     1      -9.485   3.796  71.801  1.00  0.00    -0.214 A  
HETATM    7  C   UNL     1      -9.917   2.475  71.671  1.00  0.00    -0.162 A  
HETATM    8  C   UNL     1     -10.871   4.052  73.760  1.00  0.00    -0.333 A  
HETATM    9  C   UNL     1     -10.827   1.942  72.584  1.00  0.00    -0.143 A  
HETATM   10  C   UNL     1     -11.302   2.731  73.629  1.00  0.00    -0.270 A  
ENDBRANCH   4   5
ENDBRANCH   3   4
ENDBRANCH   2   3
BRANCH   2  11
HETATM   11  N   UNL     1     -11.516   9.017  71.655  1.00  0.00    -0.336 NA 
HETATM   12  H   UNL     1     -11.607   9.351  72.615  1.00  0.00     0.000 HD 
BRANCH  11  13
HETATM   13  C   UNL     1     -11.230  10.135  70.746  1.00  0.00    -0.336 C  
BRANCH  13  14
HETATM   14  C   UNL     1     -12.529  10.824  70.246  1.00  0.00    -0.317 C  
HETATM   15  H   UNL     1     -14.454  10.468  70.363  1.00  0.00     0.000 HD 
HETATM   16  O   UNL     1     -13.659  10.047  70.669  1.00  0.00    -0.194 OA 
BRANCH  14  17
HETATM   17  C   UNL     1     -12.638  12.264  70.731  1.00  0.00    -0.302 A  
HETATM   18  C   UNL     1     -12.146  14.660  70.505  1.00  0.00    -0.388 A  
HETATM   19  H   UNL     1     -13.201  16.263  73.197  1.00  0.00     0.000 HD 
HETATM   20  C   UNL     1     -12.760  14.888  71.741  1.00  0.00    -0.331 A  
HETATM   21  C   UNL     1     -13.341  13.842  72.451  1.00  0.00    -0.629 A  
HETATM   22  O   UNL     1     -12.783  16.109  72.357  1.00  0.00    -0.442 OA 
HETATM   23  C   UNL     1     -13.264  12.536  71.958  1.00  0.00    -0.524 A  
HETATM   24  C   UNL     1     -12.090  13.343  70.013  1.00  0.00    -0.404 A  
BRANCH  18  25
HETATM   25  C   UNL     1     -11.506  15.726  69.680  1.00  0.00    -0.346 C  
HETATM   26  O   UNL     1     -10.750  16.558  70.167  1.00  0.00    -0.285 OA 
HETATM   27  H1  UNL     1     -11.334  16.479  67.773  1.00  0.00     0.000 HD 
HETATM   28  H2  UNL     1     -12.389  15.058  67.913  1.00  0.00     0.000 HD 
HETATM   29  N   UNL     1     -11.771  15.750  68.337  1.00  0.00    -0.337 N  
ENDBRANCH  18  25
ENDBRANCH  14  17
ENDBRANCH  13  14
ENDBRANCH  11  13
ENDBRANCH   2  11
TORSDOF 8
ENDMDL
MODEL      210
REMARK 921   NORMALIZED FREE ENERGY PREDICTED BY IDOCK:   -4.33 KCAL/MOL
REMARK 922        TOTAL FREE ENERGY PREDICTED BY IDOCK:   -7.91 KCAL/MOL
REMARK 923 INTER-LIGAND FREE ENERGY PREDICTED BY IDOCK:   -7.00 KCAL/MOL
REMARK 924 INTRA-LIGAND FREE ENERGY PREDICTED BY IDOCK:   -0.90 KCAL/MOL
REMARK 927      BINDING AFFINITY PREDICTED BY RF-SCORE:    0.00 PKD
ROOT
HETATM    1  C   UNL     1     -11.584  14.911  70.452  1.00  0.00    -0.330 C  
HETATM    2  C   UNL     1     -12.253  13.678  69.833  1.00  0.00    -0.304 C  
ENDROOT
BRANCH   2   3
HETATM    3  C   UNL     1     -11.468  13.264  68.567  1.00  0.00    -0.347 C  
BRANCH   3   4
HETATM    4  C   UNL     1     -11.546  14.291  67.433  1.00  0.00    -0.394 C  
BRANCH   4   5
HETATM    5  C   UNL     1     -11.560  13.628  66.074  1.00  0.00    -0.358 A  
HETATM    6  C   UNL     1     -10.396  13.552  65.298  1.00  0.00    -0.344 A  
HETATM    7  C   UNL     1     -10.418  12.938  64.045  1.00  0.00    -0.395 A  
HETATM    8  C   UNL     1     -12.743  13.064  65.575  1.00  0.00    -0.291 A  
HETATM    9  C   UNL     1     -11.603  12.389  63.554  1.00  0.00    -0.577 A  
HETATM   10  C   UNL     1     -12.765  12.451  64.321  1.00  0.00    -0.437 A  
ENDBRANCH   4   5
ENDBRANCH   3   4
ENDBRANCH   2   3
BRANCH   2  11
HETATM   11  N   UNL     1     -12.324  12.549  70.767  1.00  0.00    -0.374 NA 
HETATM   12  H   UNL     1     -13.118  12.656  71.399  1.00  0.00     0.000 HD 
BRANCH  11  13
HETATM   13  C   UNL     1     -12.358  11.233  70.114  1.00  0.00    -0.276 C  
BRANCH  13  14
HETATM   14  C   UNL     1     -11.582  10.162  70.926  1.00  0.00    -0.372 C  
HETATM   15  H   UNL     1     -12.025   8.828  72.295  1.00  0.00     0.000 HD 
HETATM   16  O   UNL     1     -12.499   9.484  71.797  1.00  0.00    -0.356 OA 
BRANCH  14  17
HETATM   17  C   UNL     1     -10.850   9.176  70.023  1.00  0.00    -0.256 A  
HETATM   18  C   UNL     1      -9.718   7.029  69.643  1.00  0.00    -0.157 A  
HETATM   19  H   UNL     1      -8.379   7.008  66.620  1.00  0.00     0.000 HD 
HETATM   20  C   UNL     1      -9.389   7.449  68.350  1.00  0.00    -0.144 A  
HETATM   21  C   UNL     1      -9.808   8.688  67.875  1.00  0.00    -0.211 A  
HETATM   22  O   UNL     1      -8.602   6.723  67.499  1.00  0.00    -0.120 OA 
HETATM   23  C   UNL     1     -10.517   9.553  68.713  1.00  0.00    -0.243 A  
HETATM   24  C   UNL     1     -10.448   7.903  70.470  1.00  0.00    -0.214 A  
BRANCH  18  25
HETATM   25  C   UNL     1      -9.313   5.716  70.224  1.00  0.00    -0.152 C  
HETATM   26  O   UNL     1      -8.479   5.631  71.116  1.00  0.00    -0.123 OA 
HETATM   27  H1  UNL     1      -9.639   3.686  70.141  1.00  0.00     0.000 HD 
HETATM   28  H2  UNL     1     -10.622   4.638  69.010  1.00  0.00     0.000 HD 
HETATM   29  N   UNL     1      -9.916   4.584  69.744  1.00  0.00    -0.229 N  
ENDBRANCH  18  25
ENDBRANCH  14  17
ENDBRANCH  13  14
ENDBRANCH  11  13
ENDBRANCH   2  11
TORSDOF 8
ENDMDL
MODEL      211
REMARK 921   NORMALIZED FREE ENERGY PREDICTED BY IDOCK:   -4.33 KCAL/MOL
REMARK 922        TOTAL FREE ENERGY PREDICTED BY IDOCK:   -7.90 KCAL/MOL
REMARK 923 INTER-LIGAND FREE ENERGY PREDICTED BY IDOCK:   -6.97 KCAL/MOL
REMARK 924 INTRA-LIGAND FREE ENERGY PREDICTED BY IDOCK:   -0.94 KCAL/MOL
REMARK 927      BINDING AFFINITY PREDICTED BY RF-SCORE:    0.00 PKD
ROOT
HETATM    1  C   UNL     1     -10.530  14.759  64.927  1.00  0.00    -0.398 C  
HETATM    2  C   UNL     1     -10.320  13.763  66.073  1.00  0.00    -0.308 C  
ENDROOT
BRANCH   2   3
HETATM    3  C   UNL     1     -10.881  12.386  65.651  1.00  0.00    -0.312 C  
BRANCH   3   4
HETATM    4  C   UNL     1      -9.969  11.211  66.024  1.00  0.00    -0.280 C  
BRANCH   4   5
HETATM    5  C   UNL     1      -9.476  10.473  64.800  1.00  0.00    -0.312 A  
HETATM    6  C   UNL     1      -9.592  11.037  63.523  1.00  0.00    -0.344 A  
HETATM    7  C   UNL     1      -9.134  10.347  62.399  1.00  0.00    -0.313 A  
HETATM    8  C   UNL     1      -8.878   9.211  64.930  1.00  0.00    -0.215 A  
HETATM    9  C   UNL     1      -8.550   9.089  62.539  1.00  0.00    -0.210 A  
HETATM   10  C   UNL     1      -8.421   8.522  63.805  1.00  0.00    -0.033 A  
ENDBRANCH   4   5
ENDBRANCH   3   4
ENDBRANCH   2   3
BRANCH   2  11
HETATM   11  N   UNL     1      -8.908  13.632  66.451  1.00  0.00    -0.455 NA 
HETATM   12  H   UNL     1      -8.314  14.145  65.800  1.00  0.00     0.000 HD 
BRANCH  11  13
HETATM   13  C   UNL     1      -8.619  14.030  67.836  1.00  0.00    -0.181 C  
BRANCH  13  14
HETATM   14  C   UNL     1      -7.291  14.827  67.946  1.00  0.00    -0.151 C  
HETATM   15  H   UNL     1      -5.428  14.555  67.398  1.00  0.00     0.000 HD 
HETATM   16  O   UNL     1      -6.241  14.068  67.331  1.00  0.00    -0.336 OA 
BRANCH  14  17
HETATM   17  C   UNL     1      -7.402  16.215  67.327  1.00  0.00    -0.226 A  
HETATM   18  C   UNL     1      -8.722  18.161  66.615  1.00  0.00    -0.279 A  
HETATM   19  H   UNL     1      -6.783  20.266  64.961  1.00  0.00     0.000 HD 
HETATM   20  C   UNL     1      -7.568  18.721  66.058  1.00  0.00    -0.220 A  
HETATM   21  C   UNL     1      -6.342  18.073  66.159  1.00  0.00    -0.266 A  
HETATM   22  O   UNL     1      -7.567  19.885  65.340  1.00  0.00    -0.366 OA 
HETATM   23  C   UNL     1      -6.263  16.819  66.773  1.00  0.00    -0.187 A  
HETATM   24  C   UNL     1      -8.626  16.907  67.246  1.00  0.00    -0.212 A  
BRANCH  18  25
HETATM   25  C   UNL     1     -10.072  18.794  66.556  1.00  0.00    -0.397 C  
HETATM   26  O   UNL     1     -10.636  19.022  65.493  1.00  0.00    -0.557 OA 
HETATM   27  H1  UNL     1     -11.613  19.542  67.696  1.00  0.00     0.000 HD 
HETATM   28  H2  UNL     1     -10.241  18.915  68.631  1.00  0.00     0.000 HD 
HETATM   29  N   UNL     1     -10.691  19.108  67.736  1.00  0.00    -0.407 N  
ENDBRANCH  18  25
ENDBRANCH  14  17
ENDBRANCH  13  14
ENDBRANCH  11  13
ENDBRANCH   2  11
TORSDOF 8
ENDMDL
MODEL      212
REMARK 921   NORMALIZED FREE ENERGY PREDICTED BY IDOCK:   -4.33 KCAL/MOL
REMARK 922        TOTAL FREE ENERGY PREDICTED BY IDOCK:   -7.90 KCAL/MOL
REMARK 923 INTER-LIGAND FREE ENERGY PREDICTED BY IDOCK:   -6.82 KCAL/MOL
REMARK 924 INTRA-LIGAND FREE ENERGY PREDICTED BY IDOCK:   -1.08 KCAL/MOL
REMARK 927      BINDING AFFINITY PREDICTED BY RF-SCORE:    0.00 PKD
ROOT
HETATM    1  C   UNL     1      -9.135   9.045  65.393  1.00  0.00    -0.250 C  
HETATM    2  C   UNL     1      -8.298  10.082  66.152  1.00  0.00    -0.120 C  
ENDROOT
BRANCH   2   3
HETATM    3  C   UNL     1      -9.206  11.270  66.544  1.00  0.00    -0.200 C  
BRANCH   3   4
HETATM    4  C   UNL     1     -10.672  11.083  66.134  1.00  0.00    -0.257 C  
BRANCH   4   5
HETATM    5  C   UNL     1     -11.233  12.324  65.477  1.00  0.00    -0.376 A  
HETATM    6  C   UNL     1     -11.878  12.251  64.235  1.00  0.00    -0.482 A  
HETATM    7  C   UNL     1     -12.393  13.402  63.635  1.00  0.00    -0.422 A  
HETATM    8  C   UNL     1     -11.129  13.570  66.112  1.00  0.00    -0.299 A  
HETATM    9  C   UNL     1     -12.275  14.637  64.272  1.00  0.00    -0.432 A  
HETATM   10  C   UNL     1     -11.644  14.720  65.512  1.00  0.00    -0.301 A  
ENDBRANCH   4   5
ENDBRANCH   3   4
ENDBRANCH   2   3
BRANCH   2  11
HETATM   11  N   UNL     1      -7.664   9.522  67.351  1.00  0.00    -0.095 NA 
HETATM   12  H   UNL     1      -6.671   9.358  67.188  1.00  0.00     0.000 HD 
BRANCH  11  13
HETATM   13  C   UNL     1      -7.860  10.330  68.563  1.00  0.00    -0.097 C  
BRANCH  13  14
HETATM   14  C   UNL     1      -7.918   9.452  69.843  1.00  0.00    -0.130 C  
HETATM   15  H   UNL     1      -7.077   9.475  71.614  1.00  0.00     0.000 HD 
HETATM   16  O   UNL     1      -7.042  10.012  70.831  1.00  0.00    -0.337 OA 
BRANCH  14  17
HETATM   17  C   UNL     1      -9.338   9.314  70.380  1.00  0.00    -0.295 A  
HETATM   18  C   UNL     1     -11.028   8.159  71.737  1.00  0.00    -0.322 A  
HETATM   19  H   UNL     1     -13.997   9.502  71.180  1.00  0.00     0.000 HD 
HETATM   20  C   UNL     1     -12.002   9.030  71.237  1.00  0.00    -0.312 A  
HETATM   21  C   UNL     1     -11.661  10.051  70.357  1.00  0.00    -0.379 A  
HETATM   22  O   UNL     1     -13.335   8.910  71.520  1.00  0.00    -0.341 OA 
HETATM   23  C   UNL     1     -10.340  10.180  69.916  1.00  0.00    -0.308 A  
HETATM   24  C   UNL     1      -9.699   8.312  71.299  1.00  0.00    -0.225 A  
BRANCH  18  25
HETATM   25  C   UNL     1     -11.311   7.045  72.688  1.00  0.00    -0.252 C  
HETATM   26  O   UNL     1     -12.142   6.179  72.445  1.00  0.00    -0.272 OA 
HETATM   27  H1  UNL     1     -10.791   6.234  74.506  1.00  0.00     0.000 HD 
HETATM   28  H2  UNL     1      -9.893   7.701  74.069  1.00  0.00     0.000 HD 
HETATM   29  N   UNL     1     -10.597   6.996  73.856  1.00  0.00    -0.315 N  
ENDBRANCH  18  25
ENDBRANCH  14  17
ENDBRANCH  13  14
ENDBRANCH  11  13
ENDBRANCH   2  11
TORSDOF 8
ENDMDL
MODEL      213
REMARK 921   NORMALIZED FREE ENERGY PREDICTED BY IDOCK:   -4.33 KCAL/MOL
REMARK 922        TOTAL FREE ENERGY PREDICTED BY IDOCK:   -7.90 KCAL/MOL
REMARK 923 INTER-LIGAND FREE ENERGY PREDICTED BY IDOCK:   -6.17 KCAL/MOL
REMARK 924 INTRA-LIGAND FREE ENERGY PREDICTED BY IDOCK:   -1.73 KCAL/MOL
REMARK 927      BINDING AFFINITY PREDICTED BY RF-SCORE:    0.00 PKD
ROOT
HETATM    1  C   UNL     1      -8.816   7.948  65.629  1.00  0.00    -0.121 C  
HETATM    2  C   UNL     1      -7.769   9.065  65.710  1.00  0.00    -0.091 C  
ENDROOT
BRANCH   2   3
HETATM    3  C   UNL     1      -8.480  10.430  65.564  1.00  0.00    -0.171 C  
BRANCH   3   4
HETATM    4  C   UNL     1      -9.928  10.319  65.076  1.00  0.00    -0.393 C  
BRANCH   4   5
HETATM    5  C   UNL     1     -10.530  11.676  64.788  1.00  0.00    -0.346 A  
HETATM    6  C   UNL     1     -11.592  11.816  63.884  1.00  0.00    -0.469 A  
HETATM    7  C   UNL     1     -12.141  13.072  63.624  1.00  0.00    -0.604 A  
HETATM    8  C   UNL     1     -10.040  12.819  65.437  1.00  0.00    -0.274 A  
HETATM    9  C   UNL     1     -11.639  14.203  64.268  1.00  0.00    -0.327 A  
HETATM   10  C   UNL     1     -10.590  14.075  65.176  1.00  0.00    -0.400 A  
ENDBRANCH   4   5
ENDBRANCH   3   4
ENDBRANCH   2   3
BRANCH   2  11
HETATM   11  N   UNL     1      -7.007   9.031  66.963  1.00  0.00    -0.077 NA 
HETATM   12  H   UNL     1      -6.022   9.229  66.789  1.00  0.00     0.000 HD 
BRANCH  11  13
HETATM   13  C   UNL     1      -7.534   9.920  68.008  1.00  0.00    -0.085 C  
BRANCH  13  14
HETATM   14  C   UNL     1      -8.225   9.127  69.150  1.00  0.00    -0.117 C  
HETATM   15  H   UNL     1      -7.726   8.497  70.939  1.00  0.00     0.000 HD 
HETATM   16  O   UNL     1      -7.304   8.982  70.240  1.00  0.00    -0.058 OA 
BRANCH  14  17
HETATM   17  C   UNL     1      -9.519   9.789  69.607  1.00  0.00    -0.237 A  
HETATM   18  C   UNL     1     -11.200  11.574  69.454  1.00  0.00    -0.324 A  
HETATM   19  H   UNL     1     -13.360  11.274  71.939  1.00  0.00     0.000 HD 
HETATM   20  C   UNL     1     -11.845  11.043  70.576  1.00  0.00    -0.367 A  
HETATM   21  C   UNL     1     -11.371   9.888  71.188  1.00  0.00    -0.443 A  
HETATM   22  O   UNL     1     -12.922  11.635  71.177  1.00  0.00    -0.328 OA 
HETATM   23  C   UNL     1     -10.205   9.276  70.719  1.00  0.00    -0.353 A  
HETATM   24  C   UNL     1     -10.037  10.938  68.981  1.00  0.00    -0.212 A  
BRANCH  18  25
HETATM   25  C   UNL     1     -11.647  12.804  68.737  1.00  0.00    -0.312 C  
HETATM   26  O   UNL     1     -12.635  12.810  68.013  1.00  0.00     0.191 OA 
HETATM   27  H1  UNL     1     -11.233  14.796  68.428  1.00  0.00     0.000 HD 
HETATM   28  H2  UNL     1     -10.109  13.971  69.526  1.00  0.00     0.000 HD 
HETATM   29  N   UNL     1     -10.928  13.955  68.918  1.00  0.00    -0.258 N  
ENDBRANCH  18  25
ENDBRANCH  14  17
ENDBRANCH  13  14
ENDBRANCH  11  13
ENDBRANCH   2  11
TORSDOF 8
ENDMDL
MODEL      214
REMARK 921   NORMALIZED FREE ENERGY PREDICTED BY IDOCK:   -4.32 KCAL/MOL
REMARK 922        TOTAL FREE ENERGY PREDICTED BY IDOCK:   -7.90 KCAL/MOL
REMARK 923 INTER-LIGAND FREE ENERGY PREDICTED BY IDOCK:   -6.95 KCAL/MOL
REMARK 924 INTRA-LIGAND FREE ENERGY PREDICTED BY IDOCK:   -0.94 KCAL/MOL
REMARK 927      BINDING AFFINITY PREDICTED BY RF-SCORE:    0.00 PKD
ROOT
HETATM    1  C   UNL     1      -8.170   7.923  65.111  1.00  0.00    -0.143 C  
HETATM    2  C   UNL     1      -9.053   8.048  66.358  1.00  0.00    -0.183 C  
ENDROOT
BRANCH   2   3
HETATM    3  C   UNL     1      -9.877   9.352  66.261  1.00  0.00    -0.351 C  
BRANCH   3   4
HETATM    4  C   UNL     1      -9.693  10.097  64.934  1.00  0.00    -0.392 C  
BRANCH   4   5
HETATM    5  C   UNL     1     -10.583  11.316  64.845  1.00  0.00    -0.364 A  
HETATM    6  C   UNL     1     -10.975  12.006  66.000  1.00  0.00    -0.346 A  
HETATM    7  C   UNL     1     -11.797  13.130  65.909  1.00  0.00    -0.453 A  
HETATM    8  C   UNL     1     -11.020  11.783  63.598  1.00  0.00    -0.513 A  
HETATM    9  C   UNL     1     -12.234  13.581  64.663  1.00  0.00    -0.450 A  
HETATM   10  C   UNL     1     -11.843  12.907  63.508  1.00  0.00    -0.605 A  
ENDBRANCH   4   5
ENDBRANCH   3   4
ENDBRANCH   2   3
BRANCH   2  11
HETATM   11  N   UNL     1      -9.954   6.901  66.524  1.00  0.00    -0.381 NA 
HETATM   12  H   UNL     1     -10.430   6.689  65.647  1.00  0.00     0.000 HD 
BRANCH  11  13
HETATM   13  C   UNL     1      -9.299   5.699  67.058  1.00  0.00    -0.118 C  
BRANCH  13  14
HETATM   14  C   UNL     1      -9.913   5.257  68.415  1.00  0.00    -0.159 C  
HETATM   15  H   UNL     1      -9.857   3.651  69.537  1.00  0.00     0.000 HD 
HETATM   16  O   UNL     1      -9.481   3.921  68.708  1.00  0.00    -0.157 OA 
BRANCH  14  17
HETATM   17  C   UNL     1      -9.553   6.213  69.546  1.00  0.00    -0.165 A  
HETATM   18  C   UNL     1     -10.179   7.836  71.280  1.00  0.00    -0.218 A  
HETATM   19  H   UNL     1      -7.448   9.161  72.590  1.00  0.00     0.000 HD 
HETATM   20  C   UNL     1      -8.822   8.062  71.537  1.00  0.00    -0.143 A  
HETATM   21  C   UNL     1      -7.841   7.357  70.849  1.00  0.00    -0.096 A  
HETATM   22  O   UNL     1      -8.369   9.008  72.415  1.00  0.00    -0.342 OA 
HETATM   23  C   UNL     1      -8.203   6.453  69.846  1.00  0.00    -0.126 A  
HETATM   24  C   UNL     1     -10.530   6.910  70.281  1.00  0.00    -0.227 A  
BRANCH  18  25
HETATM   25  C   UNL     1     -11.291   8.544  71.978  1.00  0.00    -0.355 C  
HETATM   26  O   UNL     1     -11.783   8.117  73.015  1.00  0.00    -0.286 OA 
HETATM   27  H1  UNL     1     -12.512  10.199  71.914  1.00  0.00     0.000 HD 
HETATM   28  H2  UNL     1     -11.346  10.091  70.580  1.00  0.00     0.000 HD 
HETATM   29  N   UNL     1     -11.752   9.715  71.437  1.00  0.00    -0.380 N  
ENDBRANCH  18  25
ENDBRANCH  14  17
ENDBRANCH  13  14
ENDBRANCH  11  13
ENDBRANCH   2  11
TORSDOF 8
ENDMDL
MODEL      215
REMARK 921   NORMALIZED FREE ENERGY PREDICTED BY IDOCK:   -4.32 KCAL/MOL
REMARK 922        TOTAL FREE ENERGY PREDICTED BY IDOCK:   -7.89 KCAL/MOL
REMARK 923 INTER-LIGAND FREE ENERGY PREDICTED BY IDOCK:   -6.71 KCAL/MOL
REMARK 924 INTRA-LIGAND FREE ENERGY PREDICTED BY IDOCK:   -1.18 KCAL/MOL
REMARK 927      BINDING AFFINITY PREDICTED BY RF-SCORE:    0.00 PKD
ROOT
HETATM    1  C   UNL     1     -12.373  14.408  64.211  1.00  0.00    -0.402 C  
HETATM    2  C   UNL     1     -11.513  14.341  65.478  1.00  0.00    -0.329 C  
ENDROOT
BRANCH   2   3
HETATM    3  C   UNL     1     -10.405  15.416  65.391  1.00  0.00    -0.422 C  
BRANCH   3   4
HETATM    4  C   UNL     1     -10.942  16.831  65.144  1.00  0.00    -0.109 C  
BRANCH   4   5
HETATM    5  C   UNL     1     -10.331  17.836  66.094  1.00  0.00    -0.340 A  
HETATM    6  C   UNL     1      -9.512  17.422  67.153  1.00  0.00    -0.257 A  
HETATM    7  C   UNL     1      -8.953  18.357  68.025  1.00  0.00    -0.305 A  
HETATM    8  C   UNL     1     -10.565  19.208  65.917  1.00  0.00    -0.495 A  
HETATM    9  C   UNL     1      -9.201  19.718  67.846  1.00  0.00    -0.427 A  
HETATM   10  C   UNL     1     -10.006  20.142  66.790  1.00  0.00    -0.604 A  
ENDBRANCH   4   5
ENDBRANCH   3   4
ENDBRANCH   2   3
BRANCH   2  11
HETATM   11  N   UNL     1     -12.300  14.534  66.701  1.00  0.00    -0.460 NA 
HETATM   12  H   UNL     1     -13.085  13.884  66.729  1.00  0.00     0.000 HD 
BRANCH  11  13
HETATM   13  C   UNL     1     -11.513  14.444  67.940  1.00  0.00    -0.321 C  
BRANCH  13  14
HETATM   14  C   UNL     1     -11.180  12.973  68.310  1.00  0.00    -0.275 C  
HETATM   15  H   UNL     1     -12.038  11.226  68.073  1.00  0.00     0.000 HD 
HETATM   16  O   UNL     1     -12.241  12.126  67.846  1.00  0.00    -0.438 OA 
BRANCH  14  17
HETATM   17  C   UNL     1      -9.835  12.530  67.749  1.00  0.00    -0.204 A  
HETATM   18  C   UNL     1      -8.421  10.910  66.561  1.00  0.00    -0.159 A  
HETATM   19  H   UNL     1      -5.262  11.869  66.729  1.00  0.00     0.000 HD 
HETATM   20  C   UNL     1      -7.302  11.700  66.846  1.00  0.00    -0.125 A  
HETATM   21  C   UNL     1      -7.436  12.901  67.534  1.00  0.00    -0.155 A  
HETATM   22  O   UNL     1      -6.022  11.333  66.535  1.00  0.00    -0.128 OA 
HETATM   23  C   UNL     1      -8.691  13.304  67.999  1.00  0.00    -0.186 A  
HETATM   24  C   UNL     1      -9.681  11.336  67.019  1.00  0.00    -0.208 A  
BRANCH  18  25
HETATM   25  C   UNL     1      -8.363   9.613  65.824  1.00  0.00    -0.128 C  
HETATM   26  O   UNL     1      -8.239   9.564  64.607  1.00  0.00    -0.128 OA 
HETATM   27  H1  UNL     1      -8.398   7.568  66.047  1.00  0.00     0.000 HD 
HETATM   28  H2  UNL     1      -8.528   8.477  67.566  1.00  0.00     0.000 HD 
HETATM   29  N   UNL     1      -8.437   8.455  66.550  1.00  0.00    -0.109 N  
ENDBRANCH  18  25
ENDBRANCH  14  17
ENDBRANCH  13  14
ENDBRANCH  11  13
ENDBRANCH   2  11
TORSDOF 8
ENDMDL
MODEL      216
REMARK 921   NORMALIZED FREE ENERGY PREDICTED BY IDOCK:   -4.32 KCAL/MOL
REMARK 922        TOTAL FREE ENERGY PREDICTED BY IDOCK:   -7.89 KCAL/MOL
REMARK 923 INTER-LIGAND FREE ENERGY PREDICTED BY IDOCK:   -7.11 KCAL/MOL
REMARK 924 INTRA-LIGAND FREE ENERGY PREDICTED BY IDOCK:   -0.78 KCAL/MOL
REMARK 927      BINDING AFFINITY PREDICTED BY RF-SCORE:    0.00 PKD
ROOT
HETATM    1  C   UNL     1     -10.572  12.919  64.247  1.00  0.00    -0.430 C  
HETATM    2  C   UNL     1     -10.607  13.431  65.692  1.00  0.00    -0.282 C  
ENDROOT
BRANCH   2   3
HETATM    3  C   UNL     1     -11.552  12.532  66.521  1.00  0.00    -0.447 C  
BRANCH   3   4
HETATM    4  C   UNL     1     -10.945  11.172  66.884  1.00  0.00    -0.333 C  
BRANCH   4   5
HETATM    5  C   UNL     1     -11.173  10.825  68.338  1.00  0.00    -0.345 A  
HETATM    6  C   UNL     1     -11.889  11.686  69.180  1.00  0.00    -0.390 A  
HETATM    7  C   UNL     1     -12.094  11.358  70.521  1.00  0.00    -0.487 A  
HETATM    8  C   UNL     1     -10.680   9.622  68.863  1.00  0.00    -0.230 A  
HETATM    9  C   UNL     1     -11.591  10.163  71.035  1.00  0.00    -0.462 A  
HETATM   10  C   UNL     1     -10.885   9.294  70.204  1.00  0.00    -0.275 A  
ENDBRANCH   4   5
ENDBRANCH   3   4
ENDBRANCH   2   3
BRANCH   2  11
HETATM   11  N   UNL     1      -9.276  13.458  66.310  1.00  0.00    -0.468 NA 
HETATM   12  H   UNL     1      -8.569  13.729  65.627  1.00  0.00     0.000 HD 
BRANCH  11  13
HETATM   13  C   UNL     1      -9.189  14.307  67.507  1.00  0.00    -0.197 C  
BRANCH  13  14
HETATM   14  C   UNL     1      -9.749  15.732  67.249  1.00  0.00    -0.223 C  
HETATM   15  H   UNL     1     -11.054  16.916  68.109  1.00  0.00     0.000 HD 
HETATM   16  O   UNL     1     -10.711  16.045  68.267  1.00  0.00    -0.272 OA 
BRANCH  14  17
HETATM   17  C   UNL     1      -8.644  16.781  67.194  1.00  0.00    -0.217 A  
HETATM   18  C   UNL     1      -6.974  18.213  68.286  1.00  0.00    -0.233 A  
HETATM   19  H   UNL     1      -5.667  20.278  66.060  1.00  0.00     0.000 HD 
HETATM   20  C   UNL     1      -6.704  18.813  67.051  1.00  0.00    -0.197 A  
HETATM   21  C   UNL     1      -7.354  18.390  65.897  1.00  0.00    -0.238 A  
HETATM   22  O   UNL     1      -5.850  19.871  66.898  1.00  0.00    -0.173 OA 
HETATM   23  C   UNL     1      -8.332  17.394  65.971  1.00  0.00    -0.141 A  
HETATM   24  C   UNL     1      -7.948  17.199  68.344  1.00  0.00    -0.250 A  
BRANCH  18  25
HETATM   25  C   UNL     1      -6.316  18.604  69.567  1.00  0.00    -0.250 C  
HETATM   26  O   UNL     1      -6.402  19.738  70.021  1.00  0.00    -0.323 OA 
HETATM   27  H1  UNL     1      -5.164  17.914  71.126  1.00  0.00     0.000 HD 
HETATM   28  H2  UNL     1      -5.542  16.695  69.893  1.00  0.00     0.000 HD 
HETATM   29  N   UNL     1      -5.614  17.647  70.250  1.00  0.00    -0.244 N  
ENDBRANCH  18  25
ENDBRANCH  14  17
ENDBRANCH  13  14
ENDBRANCH  11  13
ENDBRANCH   2  11
TORSDOF 8
ENDMDL
MODEL      217
REMARK 921   NORMALIZED FREE ENERGY PREDICTED BY IDOCK:   -4.31 KCAL/MOL
REMARK 922        TOTAL FREE ENERGY PREDICTED BY IDOCK:   -7.88 KCAL/MOL
REMARK 923 INTER-LIGAND FREE ENERGY PREDICTED BY IDOCK:   -6.25 KCAL/MOL
REMARK 924 INTRA-LIGAND FREE ENERGY PREDICTED BY IDOCK:   -1.63 KCAL/MOL
REMARK 927      BINDING AFFINITY PREDICTED BY RF-SCORE:    0.00 PKD
ROOT
HETATM    1  C   UNL     1      -8.129   7.217  65.500  1.00  0.00    -0.135 C  
HETATM    2  C   UNL     1      -8.840   7.042  66.847  1.00  0.00    -0.124 C  
ENDROOT
BRANCH   2   3
HETATM    3  C   UNL     1     -10.076   7.970  66.888  1.00  0.00    -0.362 C  
BRANCH   3   4
HETATM    4  C   UNL     1     -10.202   8.767  68.191  1.00  0.00    -0.250 C  
BRANCH   4   5
HETATM    5  C   UNL     1     -10.749  10.156  67.949  1.00  0.00    -0.317 A  
HETATM    6  C   UNL     1     -10.667  10.752  66.684  1.00  0.00    -0.268 A  
HETATM    7  C   UNL     1     -11.173  12.035  66.470  1.00  0.00    -0.387 A  
HETATM    8  C   UNL     1     -11.362  10.865  68.992  1.00  0.00    -0.348 A  
HETATM    9  C   UNL     1     -11.773  12.735  67.517  1.00  0.00    -0.422 A  
HETATM   10  C   UNL     1     -11.869  12.148  68.777  1.00  0.00    -0.356 A  
ENDBRANCH   4   5
ENDBRANCH   3   4
ENDBRANCH   2   3
BRANCH   2  11
HETATM   11  N   UNL     1      -9.252   5.654  67.089  1.00  0.00    -0.114 NA 
HETATM   12  H   UNL     1      -9.054   5.075  66.273  1.00  0.00     0.000 HD 
BRANCH  11  13
HETATM   13  C   UNL     1      -8.666   5.058  68.298  1.00  0.00    -0.102 C  
BRANCH  13  14
HETATM   14  C   UNL     1      -9.755   4.589  69.300  1.00  0.00    -0.190 C  
HETATM   15  H   UNL     1      -9.890   3.233  70.710  1.00  0.00     0.000 HD 
HETATM   16  O   UNL     1      -9.224   3.520  70.097  1.00  0.00    -0.120 OA 
BRANCH  14  17
HETATM   17  C   UNL     1     -10.259   5.730  70.175  1.00  0.00    -0.301 A  
HETATM   18  C   UNL     1      -9.938   7.379  71.967  1.00  0.00    -0.196 A  
HETATM   19  H   UNL     1     -12.807   8.892  72.604  1.00  0.00     0.000 HD 
HETATM   20  C   UNL     1     -11.283   7.746  71.851  1.00  0.00    -0.265 A  
HETATM   21  C   UNL     1     -12.102   7.154  70.895  1.00  0.00    -0.368 A  
HETATM   22  O   UNL     1     -11.894   8.643  72.683  1.00  0.00    -0.334 OA 
HETATM   23  C   UNL     1     -11.598   6.139  70.076  1.00  0.00    -0.255 A  
HETATM   24  C   UNL     1      -9.439   6.369  71.124  1.00  0.00    -0.177 A  
BRANCH  18  25
HETATM   25  C   UNL     1      -8.993   7.969  72.960  1.00  0.00    -0.248 C  
HETATM   26  O   UNL     1      -8.264   8.912  72.681  1.00  0.00    -0.387 OA 
HETATM   27  H1  UNL     1      -8.322   7.841  74.901  1.00  0.00     0.000 HD 
HETATM   28  H2  UNL     1      -9.577   6.660  74.475  1.00  0.00     0.000 HD 
HETATM   29  N   UNL     1      -8.968   7.437  74.222  1.00  0.00    -0.220 N  
ENDBRANCH  18  25
ENDBRANCH  14  17
ENDBRANCH  13  14
ENDBRANCH  11  13
ENDBRANCH   2  11
TORSDOF 8
ENDMDL
MODEL      218
REMARK 921   NORMALIZED FREE ENERGY PREDICTED BY IDOCK:   -4.31 KCAL/MOL
REMARK 922        TOTAL FREE ENERGY PREDICTED BY IDOCK:   -7.88 KCAL/MOL
REMARK 923 INTER-LIGAND FREE ENERGY PREDICTED BY IDOCK:   -7.03 KCAL/MOL
REMARK 924 INTRA-LIGAND FREE ENERGY PREDICTED BY IDOCK:   -0.84 KCAL/MOL
REMARK 927      BINDING AFFINITY PREDICTED BY RF-SCORE:    0.00 PKD
ROOT
HETATM    1  C   UNL     1     -10.779  10.096  67.733  1.00  0.00    -0.328 C  
HETATM    2  C   UNL     1     -10.739  11.592  68.069  1.00  0.00    -0.208 C  
ENDROOT
BRANCH   2   3
HETATM    3  C   UNL     1     -11.590  12.362  67.033  1.00  0.00    -0.434 C  
BRANCH   3   4
HETATM    4  C   UNL     1     -10.760  13.227  66.078  1.00  0.00    -0.286 C  
BRANCH   4   5
HETATM    5  C   UNL     1     -10.392  14.556  66.700  1.00  0.00    -0.274 A  
HETATM    6  C   UNL     1     -11.247  15.183  67.616  1.00  0.00    -0.329 A  
HETATM    7  C   UNL     1     -10.900  16.409  68.185  1.00  0.00    -0.346 A  
HETATM    8  C   UNL     1      -9.176  15.175  66.378  1.00  0.00    -0.334 A  
HETATM    9  C   UNL     1      -9.692  17.020  67.850  1.00  0.00    -0.263 A  
HETATM   10  C   UNL     1      -8.829  16.401  66.947  1.00  0.00    -0.232 A  
ENDBRANCH   4   5
ENDBRANCH   3   4
ENDBRANCH   2   3
BRANCH   2  11
HETATM   11  N   UNL     1     -11.226  11.877  69.424  1.00  0.00    -0.381 NA 
HETATM   12  H   UNL     1     -11.566  12.836  69.489  1.00  0.00     0.000 HD 
BRANCH  11  13
HETATM   13  C   UNL     1     -12.247  10.934  69.902  1.00  0.00    -0.336 C  
BRANCH  13  14
HETATM   14  C   UNL     1     -12.072  10.605  71.410  1.00  0.00    -0.242 C  
HETATM   15  H   UNL     1     -13.177  10.740  73.025  1.00  0.00     0.000 HD 
HETATM   16  O   UNL     1     -13.283  10.941  72.102  1.00  0.00    -0.474 OA 
BRANCH  14  17
HETATM   17  C   UNL     1     -11.693   9.147  71.639  1.00  0.00    -0.448 A  
HETATM   18  C   UNL     1     -10.088   7.415  72.317  1.00  0.00    -0.234 A  
HETATM   19  H   UNL     1     -11.341   4.428  71.656  1.00  0.00     0.000 HD 
HETATM   20  C   UNL     1     -11.002   6.434  71.919  1.00  0.00    -0.253 A  
HETATM   21  C   UNL     1     -12.254   6.784  71.426  1.00  0.00    -0.413 A  
HETATM   22  O   UNL     1     -10.720   5.095  71.926  1.00  0.00    -0.213 OA 
HETATM   23  C   UNL     1     -12.590   8.132  71.269  1.00  0.00    -0.243 A  
HETATM   24  C   UNL     1     -10.446   8.768  72.169  1.00  0.00    -0.384 A  
BRANCH  18  25
HETATM   25  C   UNL     1      -8.730   7.123  72.860  1.00  0.00    -0.122 C  
HETATM   26  O   UNL     1      -7.765   6.933  72.129  1.00  0.00    -0.092 OA 
HETATM   27  H1  UNL     1      -7.644   6.885  74.592  1.00  0.00     0.000 HD 
HETATM   28  H2  UNL     1      -9.362   7.253  74.844  1.00  0.00     0.000 HD 
HETATM   29  N   UNL     1      -8.573   7.086  74.220  1.00  0.00    -0.163 N  
ENDBRANCH  18  25
ENDBRANCH  14  17
ENDBRANCH  13  14
ENDBRANCH  11  13
ENDBRANCH   2  11
TORSDOF 8
ENDMDL
MODEL      219
REMARK 921   NORMALIZED FREE ENERGY PREDICTED BY IDOCK:   -4.30 KCAL/MOL
REMARK 922        TOTAL FREE ENERGY PREDICTED BY IDOCK:   -7.86 KCAL/MOL
REMARK 923 INTER-LIGAND FREE ENERGY PREDICTED BY IDOCK:   -6.56 KCAL/MOL
REMARK 924 INTRA-LIGAND FREE ENERGY PREDICTED BY IDOCK:   -1.30 KCAL/MOL
REMARK 927      BINDING AFFINITY PREDICTED BY RF-SCORE:    0.00 PKD
ROOT
HETATM    1  C   UNL     1     -11.530  15.521  67.115  1.00  0.00    -0.067 C  
HETATM    2  C   UNL     1     -11.063  15.811  65.683  1.00  0.00    -0.155 C  
ENDROOT
BRANCH   2   3
HETATM    3  C   UNL     1      -9.553  15.496  65.574  1.00  0.00    -0.257 C  
BRANCH   3   4
HETATM    4  C   UNL     1      -8.752  15.896  66.818  1.00  0.00    -0.303 C  
BRANCH   4   5
HETATM    5  C   UNL     1      -8.064  17.230  66.638  1.00  0.00    -0.300 A  
HETATM    6  C   UNL     1      -6.738  17.302  66.191  1.00  0.00    -0.204 A  
HETATM    7  C   UNL     1      -6.111  18.538  66.028  1.00  0.00    -0.222 A  
HETATM    8  C   UNL     1      -8.753  18.422  66.904  1.00  0.00    -0.275 A  
HETATM    9  C   UNL     1      -6.803  19.717  66.305  1.00  0.00    -0.236 A  
HETATM   10  C   UNL     1      -8.125  19.658  66.741  1.00  0.00    -0.321 A  
ENDBRANCH   4   5
ENDBRANCH   3   4
ENDBRANCH   2   3
BRANCH   2  11
HETATM   11  N   UNL     1     -11.807  15.037  64.683  1.00  0.00    -0.463 NA 
HETATM   12  H   UNL     1     -11.169  14.622  64.003  1.00  0.00     0.000 HD 
BRANCH  11  13
HETATM   13  C   UNL     1     -12.689  14.010  65.255  1.00  0.00    -0.439 C  
BRANCH  13  14
HETATM   14  C   UNL     1     -12.448  12.616  64.617  1.00  0.00    -0.466 C  
HETATM   15  H   UNL     1     -12.212  11.913  62.801  1.00  0.00     0.000 HD 
HETATM   16  O   UNL     1     -12.359  12.766  63.193  1.00  0.00    -0.580 OA 
BRANCH  14  17
HETATM   17  C   UNL     1     -11.205  11.935  65.177  1.00  0.00    -0.346 A  
HETATM   18  C   UNL     1      -9.102  10.700  64.881  1.00  0.00    -0.231 A  
HETATM   19  H   UNL     1      -7.938   9.776  67.834  1.00  0.00     0.000 HD 
HETATM   20  C   UNL     1      -8.994  10.579  66.270  1.00  0.00    -0.158 A  
HETATM   21  C   UNL     1      -9.943  11.153  67.110  1.00  0.00    -0.215 A  
HETATM   22  O   UNL     1      -8.011   9.858  66.890  1.00  0.00    -0.108 OA 
HETATM   23  C   UNL     1     -11.051  11.810  66.567  1.00  0.00    -0.364 A  
HETATM   24  C   UNL     1     -10.213  11.379  64.347  1.00  0.00    -0.361 A  
BRANCH  18  25
HETATM   25  C   UNL     1      -8.126  10.120  63.913  1.00  0.00    -0.157 C  
HETATM   26  O   UNL     1      -6.924  10.339  63.994  1.00  0.00    -0.121 OA 
HETATM   27  H1  UNL     1      -7.938   8.911  62.259  1.00  0.00     0.000 HD 
HETATM   28  H2  UNL     1      -9.602   9.104  62.845  1.00  0.00     0.000 HD 
HETATM   29  N   UNL     1      -8.606   9.307  62.921  1.00  0.00    -0.215 N  
ENDBRANCH  18  25
ENDBRANCH  14  17
ENDBRANCH  13  14
ENDBRANCH  11  13
ENDBRANCH   2  11
TORSDOF 8
ENDMDL
MODEL      220
REMARK 921   NORMALIZED FREE ENERGY PREDICTED BY IDOCK:   -4.29 KCAL/MOL
REMARK 922        TOTAL FREE ENERGY PREDICTED BY IDOCK:   -7.85 KCAL/MOL
REMARK 923 INTER-LIGAND FREE ENERGY PREDICTED BY IDOCK:   -7.23 KCAL/MOL
REMARK 924 INTRA-LIGAND FREE ENERGY PREDICTED BY IDOCK:   -0.62 KCAL/MOL
REMARK 927      BINDING AFFINITY PREDICTED BY RF-SCORE:    0.00 PKD
ROOT
HETATM    1  C   UNL     1      -9.980  10.378  69.414  1.00  0.00    -0.240 C  
HETATM    2  C   UNL     1     -11.431   9.884  69.367  1.00  0.00    -0.026 C  
ENDROOT
BRANCH   2   3
HETATM    3  C   UNL     1     -11.939   9.677  70.812  1.00  0.00    -0.356 C  
BRANCH   3   4
HETATM    4  C   UNL     1     -12.670   8.347  71.021  1.00  0.00    -0.016 C  
BRANCH   4   5
HETATM    5  C   UNL     1     -11.715   7.175  71.026  1.00  0.00    -0.358 A  
HETATM    6  C   UNL     1     -11.040   6.801  72.197  1.00  0.00    -0.284 A  
HETATM    7  C   UNL     1     -10.160   5.719  72.192  1.00  0.00    -0.219 A  
HETATM    8  C   UNL     1     -11.500   6.432  69.857  1.00  0.00    -0.483 A  
HETATM    9  C   UNL     1      -9.947   4.993  71.020  1.00  0.00    -0.281 A  
HETATM   10  C   UNL     1     -10.619   5.349  69.853  1.00  0.00    -0.351 A  
ENDBRANCH   4   5
ENDBRANCH   3   4
ENDBRANCH   2   3
BRANCH   2  11
HETATM   11  N   UNL     1     -12.316  10.813  68.655  1.00  0.00    -0.786 NA 
HETATM   12  H   UNL     1     -13.179  10.958  69.179  1.00  0.00     0.000 HD 
BRANCH  11  13
HETATM   13  C   UNL     1     -11.691  12.101  68.325  1.00  0.00    -0.342 C  
BRANCH  13  14
HETATM   14  C   UNL     1     -11.242  12.165  66.839  1.00  0.00    -0.320 C  
HETATM   15  H   UNL     1     -12.131  12.148  65.091  1.00  0.00     0.000 HD 
HETATM   16  O   UNL     1     -12.405  12.110  66.000  1.00  0.00    -0.550 OA 
BRANCH  14  17
HETATM   17  C   UNL     1     -10.408  13.406  66.545  1.00  0.00    -0.284 A  
HETATM   18  C   UNL     1      -8.706  15.061  67.174  1.00  0.00    -0.242 A  
HETATM   19  H   UNL     1      -8.616  17.469  64.911  1.00  0.00     0.000 HD 
HETATM   20  C   UNL     1      -8.990  15.775  66.005  1.00  0.00    -0.287 A  
HETATM   21  C   UNL     1      -9.932  15.308  65.096  1.00  0.00    -0.260 A  
HETATM   22  O   UNL     1      -8.423  16.984  65.705  1.00  0.00    -0.508 OA 
HETATM   23  C   UNL     1     -10.651  14.141  65.373  1.00  0.00    -0.358 A  
HETATM   24  C   UNL     1      -9.424  13.878  67.432  1.00  0.00    -0.226 A  
BRANCH  18  25
HETATM   25  C   UNL     1      -7.706  15.490  68.195  1.00  0.00    -0.123 C  
HETATM   26  O   UNL     1      -6.587  14.996  68.256  1.00  0.00    -0.097 OA 
HETATM   27  H1  UNL     1      -7.379  16.774  69.769  1.00  0.00     0.000 HD 
HETATM   28  H2  UNL     1      -8.986  16.912  69.027  1.00  0.00     0.000 HD 
HETATM   29  N   UNL     1      -8.063  16.481  69.071  1.00  0.00    -0.235 N  
ENDBRANCH  18  25
ENDBRANCH  14  17
ENDBRANCH  13  14
ENDBRANCH  11  13
ENDBRANCH   2  11
TORSDOF 8
ENDMDL
MODEL      221
REMARK 921   NORMALIZED FREE ENERGY PREDICTED BY IDOCK:   -4.29 KCAL/MOL
REMARK 922        TOTAL FREE ENERGY PREDICTED BY IDOCK:   -7.85 KCAL/MOL
REMARK 923 INTER-LIGAND FREE ENERGY PREDICTED BY IDOCK:   -5.14 KCAL/MOL
REMARK 924 INTRA-LIGAND FREE ENERGY PREDICTED BY IDOCK:   -2.71 KCAL/MOL
REMARK 927      BINDING AFFINITY PREDICTED BY RF-SCORE:    0.00 PKD
ROOT
HETATM    1  C   UNL     1     -14.269   8.367  71.465  1.00  0.00    -0.471 C  
HETATM    2  C   UNL     1     -13.024   9.256  71.563  1.00  0.00    -0.359 C  
ENDROOT
BRANCH   2   3
HETATM    3  C   UNL     1     -11.765   8.358  71.565  1.00  0.00    -0.341 C  
BRANCH   3   4
HETATM    4  C   UNL     1     -11.915   7.090  70.718  1.00  0.00    -0.392 C  
BRANCH   4   5
HETATM    5  C   UNL     1     -10.576   6.569  70.245  1.00  0.00    -0.278 A  
HETATM    6  C   UNL     1      -9.403   7.307  70.451  1.00  0.00    -0.158 A  
HETATM    7  C   UNL     1      -8.172   6.819  70.011  1.00  0.00    -0.134 A  
HETATM    8  C   UNL     1     -10.488   5.326  69.603  1.00  0.00    -0.320 A  
HETATM    9  C   UNL     1      -8.098   5.585  69.365  1.00  0.00    -0.095 A  
HETATM   10  C   UNL     1      -9.256   4.838  69.163  1.00  0.00    -0.175 A  
ENDBRANCH   4   5
ENDBRANCH   3   4
ENDBRANCH   2   3
BRANCH   2  11
HETATM   11  N   UNL     1     -12.941  10.228  70.467  1.00  0.00    -0.549 NA 
HETATM   12  H   UNL     1     -13.539  11.032  70.654  1.00  0.00     0.000 HD 
BRANCH  11  13
HETATM   13  C   UNL     1     -11.572  10.666  70.159  1.00  0.00    -0.330 C  
BRANCH  13  14
HETATM   14  C   UNL     1     -11.378  10.942  68.643  1.00  0.00    -0.295 C  
HETATM   15  H   UNL     1     -10.703  12.423  67.549  1.00  0.00     0.000 HD 
HETATM   16  O   UNL     1     -10.822  12.254  68.476  1.00  0.00    -0.219 OA 
BRANCH  14  17
HETATM   17  C   UNL     1     -10.506   9.885  67.975  1.00  0.00    -0.266 A  
HETATM   18  C   UNL     1      -8.334   9.085  67.153  1.00  0.00    -0.110 A  
HETATM   19  H   UNL     1      -8.754   6.253  65.499  1.00  0.00     0.000 HD 
HETATM   20  C   UNL     1      -8.968   7.958  66.619  1.00  0.00    -0.151 A  
HETATM   21  C   UNL     1     -10.335   7.765  66.784  1.00  0.00    -0.348 A  
HETATM   22  O   UNL     1      -8.323   7.019  65.862  1.00  0.00    -0.128 OA 
HETATM   23  C   UNL     1     -11.103   8.732  67.441  1.00  0.00     0.340 A  
HETATM   24  C   UNL     1      -9.115  10.041  67.828  1.00  0.00    -0.137 A  
BRANCH  18  25
HETATM   25  C   UNL     1      -6.873   9.362  67.025  1.00  0.00    -0.084 C  
HETATM   26  O   UNL     1      -6.075   9.048  67.899  1.00  0.00    -0.049 OA 
HETATM   27  H1  UNL     1      -5.431  10.160  65.794  1.00  0.00     0.000 HD 
HETATM   28  H2  UNL     1      -7.079  10.228  65.139  1.00  0.00     0.000 HD 
HETATM   29  N   UNL     1      -6.430   9.971  65.882  1.00  0.00    -0.089 N  
ENDBRANCH  18  25
ENDBRANCH  14  17
ENDBRANCH  13  14
ENDBRANCH  11  13
ENDBRANCH   2  11
TORSDOF 8
ENDMDL
MODEL      222
REMARK 921   NORMALIZED FREE ENERGY PREDICTED BY IDOCK:   -4.29 KCAL/MOL
REMARK 922        TOTAL FREE ENERGY PREDICTED BY IDOCK:   -7.85 KCAL/MOL
REMARK 923 INTER-LIGAND FREE ENERGY PREDICTED BY IDOCK:   -7.02 KCAL/MOL
REMARK 924 INTRA-LIGAND FREE ENERGY PREDICTED BY IDOCK:   -0.83 KCAL/MOL
REMARK 927      BINDING AFFINITY PREDICTED BY RF-SCORE:    0.00 PKD
ROOT
HETATM    1  C   UNL     1     -10.591  12.701  63.949  1.00  0.00    -0.460 C  
HETATM    2  C   UNL     1     -10.658  13.040  65.443  1.00  0.00    -0.292 C  
ENDROOT
BRANCH   2   3
HETATM    3  C   UNL     1     -11.567  12.010  66.151  1.00  0.00    -0.371 C  
BRANCH   3   4
HETATM    4  C   UNL     1     -10.887  10.659  66.397  1.00  0.00    -0.132 C  
BRANCH   4   5
HETATM    5  C   UNL     1     -10.991  10.232  67.844  1.00  0.00    -0.350 A  
HETATM    6  C   UNL     1     -11.654  11.032  68.784  1.00  0.00    -0.386 A  
HETATM    7  C   UNL     1     -11.745  10.631  70.118  1.00  0.00    -0.417 A  
HETATM    8  C   UNL     1     -10.436   9.015  68.265  1.00  0.00    -0.247 A  
HETATM    9  C   UNL     1     -11.180   9.423  70.527  1.00  0.00    -0.329 A  
HETATM   10  C   UNL     1     -10.527   8.615  69.599  1.00  0.00    -0.220 A  
ENDBRANCH   4   5
ENDBRANCH   3   4
ENDBRANCH   2   3
BRANCH   2  11
HETATM   11  N   UNL     1      -9.333  13.054  66.075  1.00  0.00    -0.462 NA 
HETATM   12  H   UNL     1      -8.656  13.526  65.477  1.00  0.00     0.000 HD 
BRANCH  11  13
HETATM   13  C   UNL     1      -9.321  13.635  67.425  1.00  0.00    -0.227 C  
BRANCH  13  14
HETATM   14  C   UNL     1     -10.200  14.912  67.516  1.00  0.00    -0.233 C  
HETATM   15  H   UNL     1     -11.807  15.457  68.500  1.00  0.00     0.000 HD 
HETATM   16  O   UNL     1     -11.268  14.676  68.445  1.00  0.00    -0.252 OA 
BRANCH  14  17
HETATM   17  C   UNL     1      -9.389  16.140  67.910  1.00  0.00    -0.212 A  
HETATM   18  C   UNL     1      -9.172  18.563  68.255  1.00  0.00    -0.342 A  
HETATM   19  H   UNL     1      -6.019  19.306  68.915  1.00  0.00     0.000 HD 
HETATM   20  C   UNL     1      -7.810  18.388  68.522  1.00  0.00    -0.306 A  
HETATM   21  C   UNL     1      -7.243  17.118  68.525  1.00  0.00    -0.220 A  
HETATM   22  O   UNL     1      -6.944  19.425  68.734  1.00  0.00    -0.302 OA 
HETATM   23  C   UNL     1      -8.023  16.004  68.202  1.00  0.00    -0.142 A  
HETATM   24  C   UNL     1      -9.950  17.431  67.949  1.00  0.00    -0.301 A  
BRANCH  18  25
HETATM   25  C   UNL     1      -9.858  19.888  68.239  1.00  0.00    -0.399 C  
HETATM   26  O   UNL     1      -9.870  20.600  67.242  1.00  0.00    -0.471 OA 
HETATM   27  H1  UNL     1     -10.969  21.203  69.366  1.00  0.00     0.000 HD 
HETATM   28  H2  UNL     1     -10.510  19.712  70.212  1.00  0.00     0.000 HD 
HETATM   29  N   UNL     1     -10.500  20.297  69.377  1.00  0.00     0.061 N  
ENDBRANCH  18  25
ENDBRANCH  14  17
ENDBRANCH  13  14
ENDBRANCH  11  13
ENDBRANCH   2  11
TORSDOF 8
ENDMDL
MODEL      223
REMARK 921   NORMALIZED FREE ENERGY PREDICTED BY IDOCK:   -4.29 KCAL/MOL
REMARK 922        TOTAL FREE ENERGY PREDICTED BY IDOCK:   -7.85 KCAL/MOL
REMARK 923 INTER-LIGAND FREE ENERGY PREDICTED BY IDOCK:   -7.23 KCAL/MOL
REMARK 924 INTRA-LIGAND FREE ENERGY PREDICTED BY IDOCK:   -0.62 KCAL/MOL
REMARK 927      BINDING AFFINITY PREDICTED BY RF-SCORE:    0.00 PKD
ROOT
HETATM    1  C   UNL     1     -11.301  13.834  66.119  1.00  0.00    -0.320 C  
HETATM    2  C   UNL     1      -9.784  13.841  66.340  1.00  0.00    -0.294 C  
ENDROOT
BRANCH   2   3
HETATM    3  C   UNL     1      -9.328  15.286  66.646  1.00  0.00    -0.285 C  
BRANCH   3   4
HETATM    4  C   UNL     1     -10.102  16.353  65.862  1.00  0.00    -0.370 C  
BRANCH   4   5
HETATM    5  C   UNL     1      -9.792  17.748  66.355  1.00  0.00    -0.328 A  
HETATM    6  C   UNL     1      -8.756  17.974  67.271  1.00  0.00    -0.243 A  
HETATM    7  C   UNL     1      -8.478  19.266  67.721  1.00  0.00    -0.340 A  
HETATM    8  C   UNL     1     -10.532  18.844  65.888  1.00  0.00    -0.450 A  
HETATM    9  C   UNL     1      -9.227  20.347  67.257  1.00  0.00    -0.525 A  
HETATM   10  C   UNL     1     -10.253  20.135  66.339  1.00  0.00    -0.552 A  
ENDBRANCH   4   5
ENDBRANCH   3   4
ENDBRANCH   2   3
BRANCH   2  11
HETATM   11  N   UNL     1      -9.371  12.948  67.428  1.00  0.00    -0.187 NA 
HETATM   12  H   UNL     1      -9.082  13.487  68.244  1.00  0.00     0.000 HD 
BRANCH  11  13
HETATM   13  C   UNL     1     -10.385  11.951  67.801  1.00  0.00    -0.198 C  
BRANCH  13  14
HETATM   14  C   UNL     1     -10.105  10.568  67.154  1.00  0.00    -0.209 C  
HETATM   15  H   UNL     1      -8.545   9.647  66.404  1.00  0.00     0.000 HD 
HETATM   16  O   UNL     1      -8.717  10.493  66.800  1.00  0.00    -0.130 OA 
BRANCH  14  17
HETATM   17  C   UNL     1     -10.503   9.416  68.069  1.00  0.00    -0.278 A  
HETATM   18  C   UNL     1     -11.144   8.530  70.269  1.00  0.00    -0.222 A  
HETATM   19  H   UNL     1     -11.261   5.229  70.139  1.00  0.00     0.000 HD 
HETATM   20  C   UNL     1     -11.105   7.235  69.742  1.00  0.00    -0.182 A  
HETATM   21  C   UNL     1     -10.811   7.021  68.399  1.00  0.00    -0.191 A  
HETATM   22  O   UNL     1     -11.287   6.109  70.497  1.00  0.00    -0.336 OA 
HETATM   23  C   UNL     1     -10.493   8.103  67.573  1.00  0.00    -0.326 A  
HETATM   24  C   UNL     1     -10.839   9.612  69.422  1.00  0.00    -0.239 A  
BRANCH  18  25
HETATM   25  C   UNL     1     -11.457   8.844  71.694  1.00  0.00    -0.339 C  
HETATM   26  O   UNL     1     -10.694   8.550  72.605  1.00  0.00    -0.302 OA 
HETATM   27  H1  UNL     1     -12.843   9.711  72.943  1.00  0.00     0.000 HD 
HETATM   28  H2  UNL     1     -13.270   9.760  71.221  1.00  0.00     0.000 HD 
HETATM   29  N   UNL     1     -12.629   9.496  71.969  1.00  0.00    -0.384 N  
ENDBRANCH  18  25
ENDBRANCH  14  17
ENDBRANCH  13  14
ENDBRANCH  11  13
ENDBRANCH   2  11
TORSDOF 8
ENDMDL
MODEL      224
REMARK 921   NORMALIZED FREE ENERGY PREDICTED BY IDOCK:   -4.28 KCAL/MOL
REMARK 922        TOTAL FREE ENERGY PREDICTED BY IDOCK:   -7.84 KCAL/MOL
REMARK 923 INTER-LIGAND FREE ENERGY PREDICTED BY IDOCK:   -5.29 KCAL/MOL
REMARK 924 INTRA-LIGAND FREE ENERGY PREDICTED BY IDOCK:   -2.55 KCAL/MOL
REMARK 927      BINDING AFFINITY PREDICTED BY RF-SCORE:    0.00 PKD
ROOT
HETATM    1  C   UNL     1     -14.385   8.434  71.836  1.00  0.00    -0.561 C  
HETATM    2  C   UNL     1     -13.122   9.304  71.879  1.00  0.00    -0.415 C  
ENDROOT
BRANCH   2   3
HETATM    3  C   UNL     1     -11.984   8.505  72.553  1.00  0.00    -0.401 C  
BRANCH   3   4
HETATM    4  C   UNL     1     -12.150   6.985  72.439  1.00  0.00    -0.127 C  
BRANCH   4   5
HETATM    5  C   UNL     1     -10.898   6.250  72.860  1.00  0.00    -0.284 A  
HETATM    6  C   UNL     1      -9.680   6.927  73.004  1.00  0.00    -0.190 A  
HETATM    7  C   UNL     1      -8.529   6.240  73.393  1.00  0.00    -0.122 A  
HETATM    8  C   UNL     1     -10.942   4.874  73.127  1.00  0.00    -0.376 A  
HETATM    9  C   UNL     1      -8.582   4.870  73.647  1.00  0.00    -0.104 A  
HETATM   10  C   UNL     1      -9.791   4.188  73.516  1.00  0.00    -0.154 A  
ENDBRANCH   4   5
ENDBRANCH   3   4
ENDBRANCH   2   3
BRANCH   2  11
HETATM   11  N   UNL     1     -12.699   9.745  70.544  1.00  0.00    -0.530 NA 
HETATM   12  H   UNL     1     -13.236  10.560  70.249  1.00  0.00     0.000 HD 
BRANCH  11  13
HETATM   13  C   UNL     1     -11.258  10.009  70.431  1.00  0.00    -0.323 C  
BRANCH  13  14
HETATM   14  C   UNL     1     -10.661   9.424  69.122  1.00  0.00    -0.197 C  
HETATM   15  H   UNL     1      -9.305   9.973  67.816  1.00  0.00     0.000 HD 
HETATM   16  O   UNL     1      -9.670  10.330  68.617  1.00  0.00    -0.155 OA 
BRANCH  14  17
HETATM   17  C   UNL     1     -10.080   8.031  69.329  1.00  0.00    -0.198 A  
HETATM   18  C   UNL     1      -8.180   6.522  69.716  1.00  0.00    -0.126 A  
HETATM   19  H   UNL     1      -9.198   3.385  69.489  1.00  0.00     0.000 HD 
HETATM   20  C   UNL     1      -9.041   5.428  69.576  1.00  0.00    -0.112 A  
HETATM   21  C   UNL     1     -10.401   5.615  69.356  1.00  0.00    -0.343 A  
HETATM   22  O   UNL     1      -8.614   4.128  69.584  1.00  0.00    -0.069 OA 
HETATM   23  C   UNL     1     -10.914   6.908  69.214  1.00  0.00    -0.260 A  
HETATM   24  C   UNL     1      -8.713   7.819  69.589  1.00  0.00    -0.135 A  
BRANCH  18  25
HETATM   25  C   UNL     1      -6.713   6.406  69.960  1.00  0.00    -0.053 C  
HETATM   26  O   UNL     1      -6.238   6.441  71.088  1.00  0.00    -0.038 OA 
HETATM   27  H1  UNL     1      -4.886   6.161  69.044  1.00  0.00     0.000 HD 
HETATM   28  H2  UNL     1      -6.269   6.197  67.932  1.00  0.00     0.000 HD 
HETATM   29  N   UNL     1      -5.890   6.240  68.878  1.00  0.00    -0.019 N  
ENDBRANCH  18  25
ENDBRANCH  14  17
ENDBRANCH  13  14
ENDBRANCH  11  13
ENDBRANCH   2  11
TORSDOF 8
ENDMDL
MODEL      225
REMARK 921   NORMALIZED FREE ENERGY PREDICTED BY IDOCK:   -4.28 KCAL/MOL
REMARK 922        TOTAL FREE ENERGY PREDICTED BY IDOCK:   -7.84 KCAL/MOL
REMARK 923 INTER-LIGAND FREE ENERGY PREDICTED BY IDOCK:   -6.85 KCAL/MOL
REMARK 924 INTRA-LIGAND FREE ENERGY PREDICTED BY IDOCK:   -0.99 KCAL/MOL
REMARK 927      BINDING AFFINITY PREDICTED BY RF-SCORE:    0.00 PKD
ROOT
HETATM    1  C   UNL     1      -5.956  15.275  67.798  1.00  0.00    -0.157 C  
HETATM    2  C   UNL     1      -7.131  16.086  67.237  1.00  0.00    -0.203 C  
ENDROOT
BRANCH   2   3
HETATM    3  C   UNL     1      -6.577  17.315  66.481  1.00  0.00    -0.283 C  
BRANCH   3   4
HETATM    4  C   UNL     1      -6.760  18.636  67.238  1.00  0.00    -0.207 C  
BRANCH   4   5
HETATM    5  C   UNL     1      -8.213  19.048  67.304  1.00  0.00    -0.294 A  
HETATM    6  C   UNL     1      -8.820  19.351  68.531  1.00  0.00    -0.411 A  
HETATM    7  C   UNL     1     -10.162  19.730  68.583  1.00  0.00    -0.515 A  
HETATM    8  C   UNL     1      -8.975  19.147  66.131  1.00  0.00    -0.232 A  
HETATM    9  C   UNL     1     -10.913  19.816  67.411  1.00  0.00    -0.325 A  
HETATM   10  C   UNL     1     -10.317  19.526  66.184  1.00  0.00    -0.614 A  
ENDBRANCH   4   5
ENDBRANCH   3   4
ENDBRANCH   2   3
BRANCH   2  11
HETATM   11  N   UNL     1      -7.984  15.294  66.344  1.00  0.00    -0.210 NA 
HETATM   12  H   UNL     1      -7.873  14.298  66.532  1.00  0.00     0.000 HD 
BRANCH  11  13
HETATM   13  C   UNL     1      -9.405  15.671  66.385  1.00  0.00    -0.300 C  
BRANCH  13  14
HETATM   14  C   UNL     1      -9.980  15.609  67.826  1.00  0.00    -0.223 C  
HETATM   15  H   UNL     1     -11.367  16.558  68.837  1.00  0.00     0.000 HD 
HETATM   16  O   UNL     1     -11.015  16.595  67.955  1.00  0.00    -0.355 OA 
BRANCH  14  17
HETATM   17  C   UNL     1     -10.496  14.220  68.179  1.00  0.00    -0.246 A  
HETATM   18  C   UNL     1     -10.630  11.801  67.773  1.00  0.00    -0.232 A  
HETATM   19  H   UNL     1     -12.878  10.464  69.794  1.00  0.00     0.000 HD 
HETATM   20  C   UNL     1     -11.580  11.697  68.794  1.00  0.00    -0.313 A  
HETATM   21  C   UNL     1     -11.962  12.815  69.528  1.00  0.00    -0.338 A  
HETATM   22  O   UNL     1     -12.233  10.535  69.101  1.00  0.00    -0.250 OA 
HETATM   23  C   UNL     1     -11.438  14.072  69.209  1.00  0.00    -0.344 A  
HETATM   24  C   UNL     1     -10.097  13.068  67.475  1.00  0.00    -0.218 A  
BRANCH  18  25
HETATM   25  C   UNL     1     -10.162  10.650  66.946  1.00  0.00    -0.223 C  
HETATM   26  O   UNL     1     -10.484  10.523  65.771  1.00  0.00    -0.223 OA 
HETATM   27  H1  UNL     1      -9.016   8.941  66.965  1.00  0.00     0.000 HD 
HETATM   28  H2  UNL     1      -9.048   9.825  68.504  1.00  0.00     0.000 HD 
HETATM   29  N   UNL     1      -9.336   9.728  67.530  1.00  0.00    -0.133 N  
ENDBRANCH  18  25
ENDBRANCH  14  17
ENDBRANCH  13  14
ENDBRANCH  11  13
ENDBRANCH   2  11
TORSDOF 8
ENDMDL
MODEL      226
REMARK 921   NORMALIZED FREE ENERGY PREDICTED BY IDOCK:   -4.28 KCAL/MOL
REMARK 922        TOTAL FREE ENERGY PREDICTED BY IDOCK:   -7.84 KCAL/MOL
REMARK 923 INTER-LIGAND FREE ENERGY PREDICTED BY IDOCK:   -7.19 KCAL/MOL
REMARK 924 INTRA-LIGAND FREE ENERGY PREDICTED BY IDOCK:   -0.65 KCAL/MOL
REMARK 927      BINDING AFFINITY PREDICTED BY RF-SCORE:    0.00 PKD
ROOT
HETATM    1  C   UNL     1     -12.219   9.252  71.238  1.00  0.00    -0.410 C  
HETATM    2  C   UNL     1     -10.707   9.355  71.472  1.00  0.00    -0.297 C  
ENDROOT
BRANCH   2   3
HETATM    3  C   UNL     1     -10.191   8.006  72.022  1.00  0.00    -0.288 C  
BRANCH   3   4
HETATM    4  C   UNL     1     -11.049   7.437  73.157  1.00  0.00    -0.357 C  
BRANCH   4   5
HETATM    5  C   UNL     1     -10.681   6.006  73.477  1.00  0.00    -0.270 A  
HETATM    6  C   UNL     1     -11.460   4.940  73.006  1.00  0.00    -0.327 A  
HETATM    7  C   UNL     1     -11.113   3.622  73.307  1.00  0.00    -0.252 A  
HETATM    8  C   UNL     1      -9.540   5.723  74.242  1.00  0.00    -0.169 A  
HETATM    9  C   UNL     1      -9.981   3.353  74.076  1.00  0.00    -0.173 A  
HETATM   10  C   UNL     1      -9.194   4.405  74.542  1.00  0.00    -0.118 A  
ENDBRANCH   4   5
ENDBRANCH   3   4
ENDBRANCH   2   3
BRANCH   2  11
HETATM   11  N   UNL     1      -9.974   9.709  70.251  1.00  0.00    -0.257 NA 
HETATM   12  H   UNL     1      -9.015   9.364  70.295  1.00  0.00     0.000 HD 
BRANCH  11  13
HETATM   13  C   UNL     1     -10.625   9.264  69.011  1.00  0.00    -0.205 C  
BRANCH  13  14
HETATM   14  C   UNL     1      -9.596   8.984  67.883  1.00  0.00    -0.147 C  
HETATM   15  H   UNL     1      -8.990   7.412  66.879  1.00  0.00     0.000 HD 
HETATM   16  O   UNL     1      -9.620   7.584  67.569  1.00  0.00    -0.135 OA 
BRANCH  14  17
HETATM   17  C   UNL     1      -9.860   9.830  66.643  1.00  0.00    -0.275 A  
HETATM   18  C   UNL     1     -11.060  11.625  65.472  1.00  0.00    -0.297 A  
HETATM   19  H   UNL     1     -10.214  11.616  62.276  1.00  0.00     0.000 HD 
HETATM   20  C   UNL     1     -10.398  11.276  64.290  1.00  0.00    -0.340 A  
HETATM   21  C   UNL     1      -9.456  10.253  64.277  1.00  0.00    -0.365 A  
HETATM   22  O   UNL     1     -10.663  11.854  63.079  1.00  0.00    -0.288 OA 
HETATM   23  C   UNL     1      -9.203   9.522  65.442  1.00  0.00    -0.306 A  
HETATM   24  C   UNL     1     -10.782  10.893  66.641  1.00  0.00    -0.289 A  
BRANCH  18  25
HETATM   25  C   UNL     1     -12.077  12.713  65.571  1.00  0.00    -0.458 C  
HETATM   26  O   UNL     1     -13.161  12.640  65.005  1.00  0.00    -0.808 OA 
HETATM   27  H1  UNL     1     -12.474  14.552  66.402  1.00  0.00     0.000 HD 
HETATM   28  H2  UNL     1     -10.886  13.880  66.822  1.00  0.00     0.000 HD 
HETATM   29  N   UNL     1     -11.778  13.809  66.335  1.00  0.00    -0.359 N  
ENDBRANCH  18  25
ENDBRANCH  14  17
ENDBRANCH  13  14
ENDBRANCH  11  13
ENDBRANCH   2  11
TORSDOF 8
ENDMDL
MODEL      227
REMARK 921   NORMALIZED FREE ENERGY PREDICTED BY IDOCK:   -4.28 KCAL/MOL
REMARK 922        TOTAL FREE ENERGY PREDICTED BY IDOCK:   -7.84 KCAL/MOL
REMARK 923 INTER-LIGAND FREE ENERGY PREDICTED BY IDOCK:   -6.02 KCAL/MOL
REMARK 924 INTRA-LIGAND FREE ENERGY PREDICTED BY IDOCK:   -1.82 KCAL/MOL
REMARK 927      BINDING AFFINITY PREDICTED BY RF-SCORE:    0.00 PKD
ROOT
HETATM    1  C   UNL     1     -11.030  15.827  67.024  1.00  0.00    -0.221 C  
HETATM    2  C   UNL     1     -10.199  16.180  65.785  1.00  0.00    -0.374 C  
ENDROOT
BRANCH   2   3
HETATM    3  C   UNL     1      -8.698  16.090  66.143  1.00  0.00    -0.348 C  
BRANCH   3   4
HETATM    4  C   UNL     1      -8.437  15.853  67.635  1.00  0.00    -0.170 C  
BRANCH   4   5
HETATM    5  C   UNL     1      -7.616  14.605  67.871  1.00  0.00    -0.151 A  
HETATM    6  C   UNL     1      -8.235  13.379  68.148  1.00  0.00    -0.160 A  
HETATM    7  C   UNL     1      -7.469  12.232  68.365  1.00  0.00    -0.122 A  
HETATM    8  C   UNL     1      -6.217  14.656  67.801  1.00  0.00    -0.154 A  
HETATM    9  C   UNL     1      -6.077  12.296  68.302  1.00  0.00    -0.054 A  
HETATM   10  C   UNL     1      -5.452  13.509  68.018  1.00  0.00    -0.117 A  
ENDBRANCH   4   5
ENDBRANCH   3   4
ENDBRANCH   2   3
BRANCH   2  11
HETATM   11  N   UNL     1     -10.493  15.304  64.644  1.00  0.00    -0.520 NA 
HETATM   12  H   UNL     1      -9.673  14.752  64.396  1.00  0.00     0.000 HD 
BRANCH  11  13
HETATM   13  C   UNL     1     -11.660  14.433  64.845  1.00  0.00    -0.395 C  
BRANCH  13  14
HETATM   14  C   UNL     1     -11.351  12.956  64.478  1.00  0.00    -0.341 C  
HETATM   15  H   UNL     1     -10.019  12.018  63.386  1.00  0.00     0.000 HD 
HETATM   16  O   UNL     1     -10.208  12.922  63.611  1.00  0.00    -0.361 OA 
BRANCH  14  17
HETATM   17  C   UNL     1     -11.131  12.092  65.714  1.00  0.00    -0.362 A  
HETATM   18  C   UNL     1     -10.064  10.200  66.861  1.00  0.00    -0.279 A  
HETATM   19  H   UNL     1     -11.409   9.825  69.857  1.00  0.00     0.000 HD 
HETATM   20  C   UNL     1     -10.860  10.452  67.984  1.00  0.00    -0.270 A  
HETATM   21  C   UNL     1     -11.749  11.521  68.001  1.00  0.00    -0.343 A  
HETATM   22  O   UNL     1     -10.869   9.654  69.095  1.00  0.00    -0.220 OA 
HETATM   23  C   UNL     1     -11.897  12.324  66.867  1.00  0.00    -0.334 A  
HETATM   24  C   UNL     1     -10.211  11.027  65.732  1.00  0.00    -0.316 A  
BRANCH  18  25
HETATM   25  C   UNL     1      -9.083   9.079  66.765  1.00  0.00    -0.145 C  
HETATM   26  O   UNL     1      -8.408   8.725  67.723  1.00  0.00    -0.117 OA 
HETATM   27  H1  UNL     1      -8.292   7.663  65.501  1.00  0.00     0.000 HD 
HETATM   28  H2  UNL     1      -9.526   8.702  64.762  1.00  0.00     0.000 HD 
HETATM   29  N   UNL     1      -8.962   8.429  65.567  1.00  0.00    -0.144 N  
ENDBRANCH  18  25
ENDBRANCH  14  17
ENDBRANCH  13  14
ENDBRANCH  11  13
ENDBRANCH   2  11
TORSDOF 8
ENDMDL
MODEL      228
REMARK 921   NORMALIZED FREE ENERGY PREDICTED BY IDOCK:   -4.28 KCAL/MOL
REMARK 922        TOTAL FREE ENERGY PREDICTED BY IDOCK:   -7.83 KCAL/MOL
REMARK 923 INTER-LIGAND FREE ENERGY PREDICTED BY IDOCK:   -7.34 KCAL/MOL
REMARK 924 INTRA-LIGAND FREE ENERGY PREDICTED BY IDOCK:   -0.49 KCAL/MOL
REMARK 927      BINDING AFFINITY PREDICTED BY RF-SCORE:    0.00 PKD
ROOT
HETATM    1  C   UNL     1      -7.855   9.723  66.730  1.00  0.00    -0.102 C  
HETATM    2  C   UNL     1      -9.197   9.034  67.002  1.00  0.00    -0.136 C  
ENDROOT
BRANCH   2   3
HETATM    3  C   UNL     1      -9.066   8.162  68.272  1.00  0.00    -0.135 C  
BRANCH   3   4
HETATM    4  C   UNL     1     -10.287   7.273  68.535  1.00  0.00    -0.210 C  
BRANCH   4   5
HETATM    5  C   UNL     1     -10.854   7.493  69.919  1.00  0.00    -0.250 A  
HETATM    6  C   UNL     1     -10.581   8.669  70.631  1.00  0.00    -0.249 A  
HETATM    7  C   UNL     1     -11.108   8.863  71.909  1.00  0.00    -0.442 A  
HETATM    8  C   UNL     1     -11.678   6.523  70.508  1.00  0.00    -0.438 A  
HETATM    9  C   UNL     1     -11.919   7.887  72.488  1.00  0.00    -0.349 A  
HETATM   10  C   UNL     1     -12.205   6.718  71.785  1.00  0.00    -0.402 A  
ENDBRANCH   4   5
ENDBRANCH   3   4
ENDBRANCH   2   3
BRANCH   2  11
HETATM   11  N   UNL     1     -10.297   9.991  67.167  1.00  0.00    -0.227 NA 
HETATM   12  H   UNL     1     -11.164   9.506  67.396  1.00  0.00     0.000 HD 
BRANCH  11  13
HETATM   13  C   UNL     1     -10.025  11.052  68.148  1.00  0.00    -0.177 C  
BRANCH  13  14
HETATM   14  C   UNL     1     -11.276  11.933  68.412  1.00  0.00    -0.258 C  
HETATM   15  H   UNL     1     -12.336  12.452  69.978  1.00  0.00     0.000 HD 
HETATM   16  O   UNL     1     -11.571  11.913  69.816  1.00  0.00    -0.297 OA 
BRANCH  14  17
HETATM   17  C   UNL     1     -11.089  13.360  67.909  1.00  0.00    -0.289 A  
HETATM   18  C   UNL     1     -11.171  15.046  66.125  1.00  0.00    -0.307 A  
HETATM   19  H   UNL     1      -9.856  17.875  67.219  1.00  0.00     0.000 HD 
HETATM   20  C   UNL     1     -10.603  15.978  67.001  1.00  0.00    -0.302 A  
HETATM   21  C   UNL     1     -10.315  15.634  68.317  1.00  0.00    -0.244 A  
HETATM   22  O   UNL     1     -10.241  17.243  66.624  1.00  0.00    -0.302 OA 
HETATM   23  C   UNL     1     -10.538  14.328  68.763  1.00  0.00    -0.255 A  
HETATM   24  C   UNL     1     -11.407  13.740  66.592  1.00  0.00    -0.340 A  
BRANCH  18  25
HETATM   25  C   UNL     1     -11.515  15.337  64.703  1.00  0.00    -0.354 C  
HETATM   26  O   UNL     1     -11.173  16.376  64.152  1.00  0.00    -0.882 OA 
HETATM   27  H1  UNL     1     -12.455  14.594  63.031  1.00  0.00     0.000 HD 
HETATM   28  H2  UNL     1     -12.502  13.519  64.442  1.00  0.00     0.000 HD 
HETATM   29  N   UNL     1     -12.220  14.395  64.003  1.00  0.00    -0.388 N  
ENDBRANCH  18  25
ENDBRANCH  14  17
ENDBRANCH  13  14
ENDBRANCH  11  13
ENDBRANCH   2  11
TORSDOF 8
ENDMDL
MODEL      229
REMARK 921   NORMALIZED FREE ENERGY PREDICTED BY IDOCK:   -4.26 KCAL/MOL
REMARK 922        TOTAL FREE ENERGY PREDICTED BY IDOCK:   -7.80 KCAL/MOL
REMARK 923 INTER-LIGAND FREE ENERGY PREDICTED BY IDOCK:   -6.67 KCAL/MOL
REMARK 924 INTRA-LIGAND FREE ENERGY PREDICTED BY IDOCK:   -1.14 KCAL/MOL
REMARK 927      BINDING AFFINITY PREDICTED BY RF-SCORE:    0.00 PKD
ROOT
HETATM    1  C   UNL     1     -11.604   8.590  71.327  1.00  0.00    -0.332 C  
HETATM    2  C   UNL     1     -11.199   9.574  70.223  1.00  0.00    -0.261 C  
ENDROOT
BRANCH   2   3
HETATM    3  C   UNL     1     -12.312  10.635  70.063  1.00  0.00    -0.341 C  
BRANCH   3   4
HETATM    4  C   UNL     1     -11.781  12.038  69.747  1.00  0.00    -0.390 C  
BRANCH   4   5
HETATM    5  C   UNL     1     -12.478  13.101  70.566  1.00  0.00    -0.322 A  
HETATM    6  C   UNL     1     -12.421  14.450  70.193  1.00  0.00    -0.395 A  
HETATM    7  C   UNL     1     -13.067  15.424  70.956  1.00  0.00    -0.565 A  
HETATM    8  C   UNL     1     -13.209  12.746  71.709  1.00  0.00    -0.471 A  
HETATM    9  C   UNL     1     -13.782  15.061  72.097  1.00  0.00    -0.559 A  
HETATM   10  C   UNL     1     -13.855  13.721  72.471  1.00  0.00    -0.626 A  
ENDBRANCH   4   5
ENDBRANCH   3   4
ENDBRANCH   2   3
BRANCH   2  11
HETATM   11  N   UNL     1      -9.918  10.234  70.501  1.00  0.00    -0.269 NA 
HETATM   12  H   UNL     1      -9.694  10.177  71.494  1.00  0.00     0.000 HD 
BRANCH  11  13
HETATM   13  C   UNL     1      -8.799   9.732  69.691  1.00  0.00    -0.211 C  
BRANCH  13  14
HETATM   14  C   UNL     1      -7.969   8.660  70.448  1.00  0.00    -0.101 C  
HETATM   15  H   UNL     1      -7.627   8.200  72.324  1.00  0.00     0.000 HD 
HETATM   16  O   UNL     1      -8.135   8.856  71.860  1.00  0.00    -0.338 OA 
BRANCH  14  17
HETATM   17  C   UNL     1      -8.353   7.243  70.040  1.00  0.00    -0.137 A  
HETATM   18  C   UNL     1      -9.086   5.606  68.362  1.00  0.00    -0.121 A  
HETATM   19  H   UNL     1      -9.722   2.719  69.841  1.00  0.00     0.000 HD 
HETATM   20  C   UNL     1      -9.178   4.638  69.368  1.00  0.00    -0.119 A  
HETATM   21  C   UNL     1      -8.831   4.941  70.681  1.00  0.00    -0.147 A  
HETATM   22  O   UNL     1      -9.660   3.375  69.158  1.00  0.00    -0.167 OA 
HETATM   23  C   UNL     1      -8.439   6.240  71.018  1.00  0.00    -0.128 A  
HETATM   24  C   UNL     1      -8.673   6.905  68.712  1.00  0.00    -0.129 A  
BRANCH  18  25
HETATM   25  C   UNL     1      -9.433   5.360  66.932  1.00  0.00    -0.135 C  
HETATM   26  O   UNL     1      -8.590   5.029  66.107  1.00  0.00    -0.115 OA 
HETATM   27  H1  UNL     1     -10.979   5.329  65.574  1.00  0.00     0.000 HD 
HETATM   28  H2  UNL     1     -11.458   5.760  67.228  1.00  0.00     0.000 HD 
HETATM   29  N   UNL     1     -10.741   5.497  66.552  1.00  0.00    -0.289 N  
ENDBRANCH  18  25
ENDBRANCH  14  17
ENDBRANCH  13  14
ENDBRANCH  11  13
ENDBRANCH   2  11
TORSDOF 8
ENDMDL
MODEL      230
REMARK 921   NORMALIZED FREE ENERGY PREDICTED BY IDOCK:   -4.25 KCAL/MOL
REMARK 922        TOTAL FREE ENERGY PREDICTED BY IDOCK:   -7.79 KCAL/MOL
REMARK 923 INTER-LIGAND FREE ENERGY PREDICTED BY IDOCK:   -7.27 KCAL/MOL
REMARK 924 INTRA-LIGAND FREE ENERGY PREDICTED BY IDOCK:   -0.52 KCAL/MOL
REMARK 927      BINDING AFFINITY PREDICTED BY RF-SCORE:    0.00 PKD
ROOT
HETATM    1  C   UNL     1     -10.754  15.104  68.670  1.00  0.00    -0.239 C  
HETATM    2  C   UNL     1      -9.810  14.285  67.782  1.00  0.00    -0.223 C  
ENDROOT
BRANCH   2   3
HETATM    3  C   UNL     1      -9.060  15.243  66.828  1.00  0.00    -0.283 C  
BRANCH   3   4
HETATM    4  C   UNL     1      -9.979  16.241  66.114  1.00  0.00    -0.355 C  
BRANCH   4   5
HETATM    5  C   UNL     1      -9.558  17.672  66.366  1.00  0.00    -0.285 A  
HETATM    6  C   UNL     1      -8.204  18.013  66.485  1.00  0.00    -0.298 A  
HETATM    7  C   UNL     1      -7.824  19.336  66.718  1.00  0.00    -0.276 A  
HETATM    8  C   UNL     1     -10.521  18.685  66.468  1.00  0.00    -0.465 A  
HETATM    9  C   UNL     1      -8.792  20.334  66.827  1.00  0.00    -0.372 A  
HETATM   10  C   UNL     1     -10.141  20.008  66.700  1.00  0.00    -0.607 A  
ENDBRANCH   4   5
ENDBRANCH   3   4
ENDBRANCH   2   3
BRANCH   2  11
HETATM   11  N   UNL     1      -8.844  13.502  68.561  1.00  0.00    -0.325 NA 
HETATM   12  H   UNL     1      -8.968  13.671  69.559  1.00  0.00     0.000 HD 
BRANCH  11  13
HETATM   13  C   UNL     1      -8.875  12.060  68.276  1.00  0.00    -0.182 C  
BRANCH  13  14
HETATM   14  C   UNL     1     -10.296  11.576  67.880  1.00  0.00    -0.183 C  
HETATM   15  H   UNL     1     -11.045  10.175  66.731  1.00  0.00     0.000 HD 
HETATM   16  O   UNL     1     -10.175  10.471  66.974  1.00  0.00    -0.207 OA 
BRANCH  14  17
HETATM   17  C   UNL     1     -11.134  11.202  69.097  1.00  0.00    -0.306 A  
HETATM   18  C   UNL     1     -12.621  11.798  70.959  1.00  0.00    -0.409 A  
HETATM   19  H   UNL     1     -13.097   9.153  72.883  1.00  0.00     0.000 HD 
HETATM   20  C   UNL     1     -12.560  10.476  71.411  1.00  0.00    -0.434 A  
HETATM   21  C   UNL     1     -11.837   9.516  70.711  1.00  0.00    -0.350 A  
HETATM   22  O   UNL     1     -13.138  10.051  72.576  1.00  0.00    -0.253 OA 
HETATM   23  C   UNL     1     -11.113   9.881  69.572  1.00  0.00    -0.255 A  
HETATM   24  C   UNL     1     -11.902  12.148  69.801  1.00  0.00    -0.397 A  
BRANCH  18  25
HETATM   25  C   UNL     1     -13.378  12.884  71.648  1.00  0.00    -0.269 C  
HETATM   26  O   UNL     1     -13.628  12.841  72.846  1.00  0.00    -0.356 OA 
HETATM   27  H1  UNL     1     -14.299  14.704  71.376  1.00  0.00     0.000 HD 
HETATM   28  H2  UNL     1     -13.572  14.019  69.909  1.00  0.00     0.000 HD 
HETATM   29  N   UNL     1     -13.782  13.961  70.905  1.00  0.00     0.058 N  
ENDBRANCH  18  25
ENDBRANCH  14  17
ENDBRANCH  13  14
ENDBRANCH  11  13
ENDBRANCH   2  11
TORSDOF 8
ENDMDL
MODEL      231
REMARK 921   NORMALIZED FREE ENERGY PREDICTED BY IDOCK:   -4.25 KCAL/MOL
REMARK 922        TOTAL FREE ENERGY PREDICTED BY IDOCK:   -7.79 KCAL/MOL
REMARK 923 INTER-LIGAND FREE ENERGY PREDICTED BY IDOCK:   -6.80 KCAL/MOL
REMARK 924 INTRA-LIGAND FREE ENERGY PREDICTED BY IDOCK:   -0.98 KCAL/MOL
REMARK 927      BINDING AFFINITY PREDICTED BY RF-SCORE:    0.00 PKD
ROOT
HETATM    1  C   UNL     1     -12.897  10.593  70.488  1.00  0.00    -0.356 C  
HETATM    2  C   UNL     1     -11.707  10.864  69.558  1.00  0.00    -0.328 C  
ENDROOT
BRANCH   2   3
HETATM    3  C   UNL     1     -10.922   9.549  69.351  1.00  0.00    -0.192 C  
BRANCH   3   4
HETATM    4  C   UNL     1      -9.888   9.272  70.449  1.00  0.00    -0.290 C  
BRANCH   4   5
HETATM    5  C   UNL     1     -10.259   8.064  71.278  1.00  0.00    -0.230 A  
HETATM    6  C   UNL     1     -10.240   8.118  72.679  1.00  0.00    -0.388 A  
HETATM    7  C   UNL     1     -10.584   6.997  73.436  1.00  0.00    -0.399 A  
HETATM    8  C   UNL     1     -10.644   6.869  70.654  1.00  0.00    -0.248 A  
HETATM    9  C   UNL     1     -10.955   5.811  72.804  1.00  0.00    -0.314 A  
HETATM   10  C   UNL     1     -10.987   5.748  71.412  1.00  0.00    -0.304 A  
ENDBRANCH   4   5
ENDBRANCH   3   4
ENDBRANCH   2   3
BRANCH   2  11
HETATM   11  N   UNL     1     -12.123  11.406  68.260  1.00  0.00    -0.608 NA 
HETATM   12  H   UNL     1     -13.078  11.123  68.042  1.00  0.00     0.000 HD 
BRANCH  11  13
HETATM   13  C   UNL     1     -11.979  12.864  68.147  1.00  0.00    -0.261 C  
BRANCH  13  14
HETATM   14  C   UNL     1     -10.689  13.263  67.380  1.00  0.00    -0.258 C  
HETATM   15  H   UNL     1      -8.815  13.603  67.846  1.00  0.00     0.000 HD 
HETATM   16  O   UNL     1      -9.604  13.358  68.314  1.00  0.00    -0.218 OA 
BRANCH  14  17
HETATM   17  C   UNL     1     -10.364  12.286  66.257  1.00  0.00    -0.257 A  
HETATM   18  C   UNL     1      -9.147  10.344  65.371  1.00  0.00    -0.221 A  
HETATM   19  H   UNL     1      -9.748  10.048  62.134  1.00  0.00     0.000 HD 
HETATM   20  C   UNL     1      -9.704  10.589  64.111  1.00  0.00    -0.327 A  
HETATM   21  C   UNL     1     -10.604  11.633  63.921  1.00  0.00    -0.446 A  
HETATM   22  O   UNL     1      -9.370   9.881  62.989  1.00  0.00    -0.283 OA 
HETATM   23  C   UNL     1     -10.917  12.487  64.982  1.00  0.00    -0.329 A  
HETATM   24  C   UNL     1      -9.485  11.201  66.435  1.00  0.00    -0.216 A  
BRANCH  18  25
HETATM   25  C   UNL     1      -8.181   9.244  65.659  1.00  0.00    -0.118 C  
HETATM   26  O   UNL     1      -8.553   8.120  65.972  1.00  0.00    -0.131 OA 
HETATM   27  H1  UNL     1      -6.183   8.762  65.746  1.00  0.00     0.000 HD 
HETATM   28  H2  UNL     1      -6.516  10.441  65.278  1.00  0.00     0.000 HD 
HETATM   29  N   UNL     1      -6.843   9.514  65.549  1.00  0.00    -0.082 N  
ENDBRANCH  18  25
ENDBRANCH  14  17
ENDBRANCH  13  14
ENDBRANCH  11  13
ENDBRANCH   2  11
TORSDOF 8
ENDMDL
MODEL      232
REMARK 921   NORMALIZED FREE ENERGY PREDICTED BY IDOCK:   -4.23 KCAL/MOL
REMARK 922        TOTAL FREE ENERGY PREDICTED BY IDOCK:   -7.77 KCAL/MOL
REMARK 923 INTER-LIGAND FREE ENERGY PREDICTED BY IDOCK:   -7.03 KCAL/MOL
REMARK 924 INTRA-LIGAND FREE ENERGY PREDICTED BY IDOCK:   -0.74 KCAL/MOL
REMARK 927      BINDING AFFINITY PREDICTED BY RF-SCORE:    0.00 PKD
ROOT
HETATM    1  C   UNL     1     -10.362   5.641  66.409  1.00  0.00    -0.241 C  
HETATM    2  C   UNL     1     -10.867   6.873  67.169  1.00  0.00    -0.377 C  
ENDROOT
BRANCH   2   3
HETATM    3  C   UNL     1     -10.416   6.774  68.644  1.00  0.00    -0.232 C  
BRANCH   3   4
HETATM    4  C   UNL     1     -11.503   6.242  69.584  1.00  0.00    -0.425 C  
BRANCH   4   5
HETATM    5  C   UNL     1     -11.145   6.459  71.037  1.00  0.00    -0.349 A  
HETATM    6  C   UNL     1     -11.555   7.616  71.714  1.00  0.00    -0.307 A  
HETATM    7  C   UNL     1     -11.219   7.809  73.055  1.00  0.00    -0.380 A  
HETATM    8  C   UNL     1     -10.406   5.494  71.735  1.00  0.00    -0.272 A  
HETATM    9  C   UNL     1     -10.475   6.846  73.737  1.00  0.00    -0.390 A  
HETATM   10  C   UNL     1     -10.071   5.687  73.077  1.00  0.00    -0.202 A  
ENDBRANCH   4   5
ENDBRANCH   3   4
ENDBRANCH   2   3
BRANCH   2  11
HETATM   11  N   UNL     1     -10.386   8.130  66.584  1.00  0.00    -0.423 NA 
HETATM   12  H   UNL     1     -11.080   8.517  65.946  1.00  0.00     0.000 HD 
BRANCH  11  13
HETATM   13  C   UNL     1      -9.981   9.136  67.577  1.00  0.00    -0.205 C  
BRANCH  13  14
HETATM   14  C   UNL     1     -11.130  10.129  67.898  1.00  0.00    -0.238 C  
HETATM   15  H   UNL     1     -12.108  10.689  69.503  1.00  0.00     0.000 HD 
HETATM   16  O   UNL     1     -11.405  10.082  69.306  1.00  0.00    -0.203 OA 
BRANCH  14  17
HETATM   17  C   UNL     1     -10.804  11.548  67.448  1.00  0.00    -0.294 A  
HETATM   18  C   UNL     1     -10.575  13.953  67.893  1.00  0.00    -0.248 A  
HETATM   19  H   UNL     1      -9.994  15.550  65.057  1.00  0.00     0.000 HD 
HETATM   20  C   UNL     1     -10.319  14.165  66.534  1.00  0.00    -0.284 A  
HETATM   21  C   UNL     1     -10.265  13.096  65.645  1.00  0.00    -0.294 A  
HETATM   22  O   UNL     1     -10.168  15.406  65.980  1.00  0.00    -0.284 OA 
HETATM   23  C   UNL     1     -10.525  11.799  66.096  1.00  0.00    -0.284 A  
HETATM   24  C   UNL     1     -10.817  12.640  68.337  1.00  0.00    -0.268 A  
BRANCH  18  25
HETATM   25  C   UNL     1     -10.643  15.043  68.910  1.00  0.00    -0.242 C  
HETATM   26  O   UNL     1      -9.637  15.589  69.344  1.00  0.00    -0.248 OA 
HETATM   27  H1  UNL     1     -11.925  16.186  70.043  1.00  0.00     0.000 HD 
HETATM   28  H2  UNL     1     -12.727  15.006  68.987  1.00  0.00     0.000 HD 
HETATM   29  N   UNL     1     -11.878  15.441  69.347  1.00  0.00    -0.341 N  
ENDBRANCH  18  25
ENDBRANCH  14  17
ENDBRANCH  13  14
ENDBRANCH  11  13
ENDBRANCH   2  11
TORSDOF 8
ENDMDL
MODEL      233
REMARK 921   NORMALIZED FREE ENERGY PREDICTED BY IDOCK:   -4.23 KCAL/MOL
REMARK 922        TOTAL FREE ENERGY PREDICTED BY IDOCK:   -7.76 KCAL/MOL
REMARK 923 INTER-LIGAND FREE ENERGY PREDICTED BY IDOCK:   -7.11 KCAL/MOL
REMARK 924 INTRA-LIGAND FREE ENERGY PREDICTED BY IDOCK:   -0.65 KCAL/MOL
REMARK 927      BINDING AFFINITY PREDICTED BY RF-SCORE:    0.00 PKD
ROOT
HETATM    1  C   UNL     1     -12.331  15.245  72.707  1.00  0.00    -0.496 C  
HETATM    2  C   UNL     1     -13.047  14.358  71.681  1.00  0.00    -0.350 C  
ENDROOT
BRANCH   2   3
HETATM    3  C   UNL     1     -12.217  14.328  70.378  1.00  0.00    -0.411 C  
BRANCH   3   4
HETATM    4  C   UNL     1     -12.077  15.699  69.707  1.00  0.00    -0.346 C  
BRANCH   4   5
HETATM    5  C   UNL     1     -11.320  15.611  68.401  1.00  0.00    -0.365 A  
HETATM    6  C   UNL     1     -11.295  14.420  67.662  1.00  0.00    -0.348 A  
HETATM    7  C   UNL     1     -10.593  14.347  66.458  1.00  0.00    -0.296 A  
HETATM    8  C   UNL     1     -10.641  16.731  67.900  1.00  0.00    -0.350 A  
HETATM    9  C   UNL     1      -9.913  15.465  65.975  1.00  0.00    -0.350 A  
HETATM   10  C   UNL     1      -9.939  16.657  66.696  1.00  0.00    -0.290 A  
ENDBRANCH   4   5
ENDBRANCH   3   4
ENDBRANCH   2   3
BRANCH   2  11
HETATM   11  N   UNL     1     -13.257  12.991  72.171  1.00  0.00    -0.467 NA 
HETATM   12  H   UNL     1     -14.187  12.895  72.578  1.00  0.00     0.000 HD 
BRANCH  11  13
HETATM   13  C   UNL     1     -13.027  11.951  71.158  1.00  0.00    -0.172 C  
BRANCH  13  14
HETATM   14  C   UNL     1     -12.507  10.631  71.789  1.00  0.00    -0.219 C  
HETATM   15  H   UNL     1     -13.302   8.946  72.402  1.00  0.00     0.000 HD 
HETATM   16  O   UNL     1     -13.619   9.754  72.015  1.00  0.00    -0.399 OA 
BRANCH  14  17
HETATM   17  C   UNL     1     -11.445   9.962  70.925  1.00  0.00    -0.456 A  
HETATM   18  C   UNL     1      -9.788   8.192  70.527  1.00  0.00    -0.194 A  
HETATM   19  H   UNL     1      -8.091   8.868  67.772  1.00  0.00     0.000 HD 
HETATM   20  C   UNL     1      -9.400   8.841  69.350  1.00  0.00    -0.157 A  
HETATM   21  C   UNL     1     -10.038  10.005  68.936  1.00  0.00    -0.200 A  
HETATM   22  O   UNL     1      -8.354   8.427  68.571  1.00  0.00    -0.128 OA 
HETATM   23  C   UNL     1     -11.040  10.573  69.728  1.00  0.00    -0.354 A  
HETATM   24  C   UNL     1     -10.811   8.764  71.306  1.00  0.00    -0.347 A  
BRANCH  18  25
HETATM   25  C   UNL     1      -9.160   6.938  71.037  1.00  0.00    -0.155 C  
HETATM   26  O   UNL     1      -8.486   6.211  70.318  1.00  0.00    -0.122 OA 
HETATM   27  H1  UNL     1      -8.912   5.758  72.704  1.00  0.00     0.000 HD 
HETATM   28  H2  UNL     1      -9.889   7.215  72.971  1.00  0.00     0.000 HD 
HETATM   29  N   UNL     1      -9.341   6.615  72.355  1.00  0.00    -0.143 N  
ENDBRANCH  18  25
ENDBRANCH  14  17
ENDBRANCH  13  14
ENDBRANCH  11  13
ENDBRANCH   2  11
TORSDOF 8
ENDMDL
MODEL      234
REMARK 921   NORMALIZED FREE ENERGY PREDICTED BY IDOCK:   -4.23 KCAL/MOL
REMARK 922        TOTAL FREE ENERGY PREDICTED BY IDOCK:   -7.76 KCAL/MOL
REMARK 923 INTER-LIGAND FREE ENERGY PREDICTED BY IDOCK:   -6.78 KCAL/MOL
REMARK 924 INTRA-LIGAND FREE ENERGY PREDICTED BY IDOCK:   -0.98 KCAL/MOL
REMARK 927      BINDING AFFINITY PREDICTED BY RF-SCORE:    0.00 PKD
ROOT
HETATM    1  C   UNL     1     -10.862  14.846  65.818  1.00  0.00    -0.343 C  
HETATM    2  C   UNL     1     -10.269  14.587  67.209  1.00  0.00    -0.255 C  
ENDROOT
BRANCH   2   3
HETATM    3  C   UNL     1     -11.422  14.333  68.207  1.00  0.00    -0.334 C  
BRANCH   3   4
HETATM    4  C   UNL     1     -11.914  15.601  68.912  1.00  0.00    -0.298 C  
BRANCH   4   5
HETATM    5  C   UNL     1     -12.305  15.330  70.348  1.00  0.00    -0.422 A  
HETATM    6  C   UNL     1     -11.850  16.155  71.385  1.00  0.00    -0.490 A  
HETATM    7  C   UNL     1     -12.215  15.897  72.708  1.00  0.00    -0.604 A  
HETATM    8  C   UNL     1     -13.145  14.252  70.660  1.00  0.00    -0.247 A  
HETATM    9  C   UNL     1     -13.043  14.816  73.008  1.00  0.00    -0.614 A  
HETATM   10  C   UNL     1     -13.509  13.995  71.983  1.00  0.00    -0.528 A  
ENDBRANCH   4   5
ENDBRANCH   3   4
ENDBRANCH   2   3
BRANCH   2  11
HETATM   11  N   UNL     1      -9.340  13.452  67.220  1.00  0.00    -0.224 NA 
HETATM   12  H   UNL     1      -8.747  13.465  66.391  1.00  0.00     0.000 HD 
BRANCH  11  13
HETATM   13  C   UNL     1      -8.520  13.362  68.437  1.00  0.00    -0.135 C  
BRANCH  13  14
HETATM   14  C   UNL     1      -7.049  13.786  68.179  1.00  0.00    -0.118 C  
HETATM   15  H   UNL     1      -5.735  13.535  66.745  1.00  0.00     0.000 HD 
HETATM   16  O   UNL     1      -6.635  13.276  66.903  1.00  0.00     0.058 OA 
BRANCH  14  17
HETATM   17  C   UNL     1      -6.865  15.297  68.254  1.00  0.00    -0.122 A  
HETATM   18  C   UNL     1      -6.548  17.487  67.188  1.00  0.00    -0.194 A  
HETATM   19  H   UNL     1      -5.974  19.772  69.507  1.00  0.00     0.000 HD 
HETATM   20  C   UNL     1      -6.399  18.065  68.453  1.00  0.00    -0.196 A  
HETATM   21  C   UNL     1      -6.517  17.295  69.606  1.00  0.00    -0.165 A  
HETATM   22  O   UNL     1      -6.075  19.379  68.648  1.00  0.00    -0.223 OA 
HETATM   23  C   UNL     1      -6.730  15.917  69.506  1.00  0.00    -0.192 A  
HETATM   24  C   UNL     1      -6.779  16.102  67.103  1.00  0.00    -0.227 A  
BRANCH  18  25
HETATM   25  C   UNL     1      -6.442  18.243  65.906  1.00  0.00    -0.259 C  
HETATM   26  O   UNL     1      -7.386  18.873  65.444  1.00  0.00    -0.478 OA 
HETATM   27  H1  UNL     1      -5.169  18.752  64.372  1.00  0.00     0.000 HD 
HETATM   28  H2  UNL     1      -4.441  17.726  65.625  1.00  0.00     0.000 HD 
HETATM   29  N   UNL     1      -5.241  18.235  65.249  1.00  0.00    -0.168 N  
ENDBRANCH  18  25
ENDBRANCH  14  17
ENDBRANCH  13  14
ENDBRANCH  11  13
ENDBRANCH   2  11
TORSDOF 8
ENDMDL
MODEL      235
REMARK 921   NORMALIZED FREE ENERGY PREDICTED BY IDOCK:   -4.22 KCAL/MOL
REMARK 922        TOTAL FREE ENERGY PREDICTED BY IDOCK:   -7.74 KCAL/MOL
REMARK 923 INTER-LIGAND FREE ENERGY PREDICTED BY IDOCK:   -7.18 KCAL/MOL
REMARK 924 INTRA-LIGAND FREE ENERGY PREDICTED BY IDOCK:   -0.57 KCAL/MOL
REMARK 927      BINDING AFFINITY PREDICTED BY RF-SCORE:    0.00 PKD
ROOT
HETATM    1  C   UNL     1     -10.357   9.691  69.123  1.00  0.00    -0.219 C  
HETATM    2  C   UNL     1      -9.949   8.687  68.039  1.00  0.00    -0.182 C  
ENDROOT
BRANCH   2   3
HETATM    3  C   UNL     1     -10.980   7.536  68.007  1.00  0.00     0.004 C  
BRANCH   3   4
HETATM    4  C   UNL     1     -10.402   6.182  68.432  1.00  0.00    -0.240 C  
BRANCH   4   5
HETATM    5  C   UNL     1     -10.696   5.876  69.883  1.00  0.00    -0.406 A  
HETATM    6  C   UNL     1      -9.948   4.919  70.583  1.00  0.00    -0.305 A  
HETATM    7  C   UNL     1     -10.227   4.642  71.922  1.00  0.00    -0.254 A  
HETATM    8  C   UNL     1     -11.717   6.560  70.557  1.00  0.00    -0.438 A  
HETATM    9  C   UNL     1     -11.252   5.323  72.580  1.00  0.00    -0.272 A  
HETATM   10  C   UNL     1     -11.995   6.283  71.897  1.00  0.00    -0.342 A  
ENDBRANCH   4   5
ENDBRANCH   3   4
ENDBRANCH   2   3
BRANCH   2  11
HETATM   11  N   UNL     1      -9.850   9.304  66.711  1.00  0.00    -0.206 NA 
HETATM   12  H   UNL     1     -10.777   9.447  66.312  1.00  0.00     0.000 HD 
BRANCH  11  13
HETATM   13  C   UNL     1      -9.082  10.557  66.690  1.00  0.00    -0.155 C  
BRANCH  13  14
HETATM   14  C   UNL     1      -9.677  11.587  65.692  1.00  0.00    -0.232 C  
HETATM   15  H   UNL     1     -10.990  11.549  64.236  1.00  0.00     0.000 HD 
HETATM   16  O   UNL     1     -10.626  10.920  64.847  1.00  0.00    -0.302 OA 
BRANCH  14  17
HETATM   17  C   UNL     1     -10.314  12.775  66.404  1.00  0.00    -0.271 A  
HETATM   18  C   UNL     1     -10.669  15.190  66.676  1.00  0.00    -0.310 A  
HETATM   19  H   UNL     1     -12.403  15.748  69.434  1.00  0.00     0.000 HD 
HETATM   20  C   UNL     1     -11.410  14.935  67.835  1.00  0.00    -0.327 A  
HETATM   21  C   UNL     1     -11.641  13.632  68.260  1.00  0.00    -0.374 A  
HETATM   22  O   UNL     1     -11.900  15.921  68.648  1.00  0.00    -0.388 OA 
HETATM   23  C   UNL     1     -11.080  12.559  67.561  1.00  0.00    -0.311 A  
HETATM   24  C   UNL     1     -10.125  14.100  65.971  1.00  0.00    -0.330 A  
BRANCH  18  25
HETATM   25  C   UNL     1     -10.382  16.557  66.150  1.00  0.00    -0.334 C  
HETATM   26  O   UNL     1     -10.576  16.854  64.978  1.00  0.00    -0.700 OA 
HETATM   27  H1  UNL     1      -9.708  18.432  66.663  1.00  0.00     0.000 HD 
HETATM   28  H2  UNL     1      -9.748  17.270  68.004  1.00  0.00     0.000 HD 
HETATM   29  N   UNL     1      -9.904  17.497  67.023  1.00  0.00    -0.283 N  
ENDBRANCH  18  25
ENDBRANCH  14  17
ENDBRANCH  13  14
ENDBRANCH  11  13
ENDBRANCH   2  11
TORSDOF 8
ENDMDL
MODEL      236
REMARK 921   NORMALIZED FREE ENERGY PREDICTED BY IDOCK:   -4.20 KCAL/MOL
REMARK 922        TOTAL FREE ENERGY PREDICTED BY IDOCK:   -7.72 KCAL/MOL
REMARK 923 INTER-LIGAND FREE ENERGY PREDICTED BY IDOCK:   -6.52 KCAL/MOL
REMARK 924 INTRA-LIGAND FREE ENERGY PREDICTED BY IDOCK:   -1.20 KCAL/MOL
REMARK 927      BINDING AFFINITY PREDICTED BY RF-SCORE:    0.00 PKD
ROOT
HETATM    1  C   UNL     1     -10.667   6.306  72.247  1.00  0.00    -0.263 C  
HETATM    2  C   UNL     1     -11.435   6.317  70.919  1.00  0.00    -0.312 C  
ENDROOT
BRANCH   2   3
HETATM    3  C   UNL     1     -11.756   7.780  70.537  1.00  0.00    -0.118 C  
BRANCH   3   4
HETATM    4  C   UNL     1     -12.172   8.649  71.729  1.00  0.00    -0.403 C  
BRANCH   4   5
HETATM    5  C   UNL     1     -12.317  10.103  71.342  1.00  0.00    -0.515 A  
HETATM    6  C   UNL     1     -11.612  10.631  70.251  1.00  0.00    -0.424 A  
HETATM    7  C   UNL     1     -11.752  11.975  69.901  1.00  0.00    -0.374 A  
HETATM    8  C   UNL     1     -13.176  10.945  72.063  1.00  0.00    -0.456 A  
HETATM    9  C   UNL     1     -12.602  12.805  70.632  1.00  0.00    -0.248 A  
HETATM   10  C   UNL     1     -13.315  12.288  71.712  1.00  0.00    -0.353 A  
ENDBRANCH   4   5
ENDBRANCH   3   4
ENDBRANCH   2   3
BRANCH   2  11
HETATM   11  N   UNL     1     -10.688   5.671  69.834  1.00  0.00    -0.331 NA 
HETATM   12  H   UNL     1     -10.946   4.687  69.758  1.00  0.00     0.000 HD 
BRANCH  11  13
HETATM   13  C   UNL     1     -10.823   6.341  68.533  1.00  0.00    -0.323 C  
BRANCH  13  14
HETATM   14  C   UNL     1      -9.443   6.704  67.921  1.00  0.00    -0.117 C  
HETATM   15  H   UNL     1      -8.072   5.774  66.871  1.00  0.00     0.000 HD 
HETATM   16  O   UNL     1      -8.917   5.553  67.245  1.00  0.00    -0.113 OA 
BRANCH  14  17
HETATM   17  C   UNL     1      -9.529   7.902  66.982  1.00  0.00    -0.222 A  
HETATM   18  C   UNL     1      -8.841   9.109  64.957  1.00  0.00    -0.230 A  
HETATM   19  H   UNL     1     -10.203  12.121  64.950  1.00  0.00     0.000 HD 
HETATM   20  C   UNL     1      -9.629  10.194  65.353  1.00  0.00    -0.264 A  
HETATM   21  C   UNL     1     -10.388  10.135  66.517  1.00  0.00    -0.270 A  
HETATM   22  O   UNL     1      -9.667  11.384  64.680  1.00  0.00    -0.240 OA 
HETATM   23  C   UNL     1     -10.323   9.004  67.336  1.00  0.00    -0.335 A  
HETATM   24  C   UNL     1      -8.798   7.969  65.781  1.00  0.00    -0.170 A  
BRANCH  18  25
HETATM   25  C   UNL     1      -8.004   9.091  63.721  1.00  0.00    -0.147 C  
HETATM   26  O   UNL     1      -8.400   8.588  62.677  1.00  0.00    -0.186 OA 
HETATM   27  H1  UNL     1      -6.194   9.661  62.926  1.00  0.00     0.000 HD 
HETATM   28  H2  UNL     1      -6.425  10.108  64.628  1.00  0.00     0.000 HD 
HETATM   29  N   UNL     1      -6.766   9.674  63.771  1.00  0.00    -0.107 N  
ENDBRANCH  18  25
ENDBRANCH  14  17
ENDBRANCH  13  14
ENDBRANCH  11  13
ENDBRANCH   2  11
TORSDOF 8
ENDMDL
MODEL      237
REMARK 921   NORMALIZED FREE ENERGY PREDICTED BY IDOCK:   -4.19 KCAL/MOL
REMARK 922        TOTAL FREE ENERGY PREDICTED BY IDOCK:   -7.71 KCAL/MOL
REMARK 923 INTER-LIGAND FREE ENERGY PREDICTED BY IDOCK:   -6.75 KCAL/MOL
REMARK 924 INTRA-LIGAND FREE ENERGY PREDICTED BY IDOCK:   -0.96 KCAL/MOL
REMARK 927      BINDING AFFINITY PREDICTED BY RF-SCORE:    0.00 PKD
ROOT
HETATM    1  C   UNL     1     -11.834  12.091  67.910  1.00  0.00    -0.320 C  
HETATM    2  C   UNL     1     -11.743  12.389  66.408  1.00  0.00    -0.391 C  
ENDROOT
BRANCH   2   3
HETATM    3  C   UNL     1     -12.093  13.875  66.169  1.00  0.00    -0.478 C  
BRANCH   3   4
HETATM    4  C   UNL     1     -10.891  14.731  65.755  1.00  0.00    -0.334 C  
BRANCH   4   5
HETATM    5  C   UNL     1     -10.690  15.906  66.684  1.00  0.00    -0.270 A  
HETATM    6  C   UNL     1     -10.359  17.172  66.183  1.00  0.00    -0.327 A  
HETATM    7  C   UNL     1     -10.175  18.252  67.048  1.00  0.00    -0.392 A  
HETATM    8  C   UNL     1     -10.849  15.748  68.068  1.00  0.00    -0.309 A  
HETATM    9  C   UNL     1     -10.326  18.080  68.424  1.00  0.00    -0.377 A  
HETATM   10  C   UNL     1     -10.665  16.828  68.933  1.00  0.00    -0.333 A  
ENDBRANCH   4   5
ENDBRANCH   3   4
ENDBRANCH   2   3
BRANCH   2  11
HETATM   11  N   UNL     1     -10.414  12.096  65.857  1.00  0.00    -0.246 NA 
HETATM   12  H   UNL     1      -9.687  12.334  66.531  1.00  0.00     0.000 HD 
BRANCH  11  13
HETATM   13  C   UNL     1     -10.253  10.711  65.392  1.00  0.00    -0.273 C  
BRANCH  13  14
HETATM   14  C   UNL     1      -9.087   9.986  66.118  1.00  0.00    -0.156 C  
HETATM   15  H   UNL     1      -7.628  10.507  67.320  1.00  0.00     0.000 HD 
HETATM   16  O   UNL     1      -8.341  10.950  66.875  1.00  0.00    -0.126 OA 
BRANCH  14  17
HETATM   17  C   UNL     1      -9.583   8.852  67.008  1.00  0.00    -0.232 A  
HETATM   18  C   UNL     1     -10.150   6.491  67.377  1.00  0.00    -0.205 A  
HETATM   19  H   UNL     1     -11.562   6.146  70.346  1.00  0.00     0.000 HD 
HETATM   20  C   UNL     1     -10.627   6.820  68.650  1.00  0.00    -0.227 A  
HETATM   21  C   UNL     1     -10.554   8.126  69.122  1.00  0.00    -0.179 A  
HETATM   22  O   UNL     1     -11.238   5.922  69.482  1.00  0.00    -0.389 OA 
HETATM   23  C   UNL     1     -10.053   9.139  68.299  1.00  0.00    -0.221 A  
HETATM   24  C   UNL     1      -9.632   7.517  66.565  1.00  0.00    -0.239 A  
BRANCH  18  25
HETATM   25  C   UNL     1     -10.186   5.115  66.801  1.00  0.00    -0.253 C  
HETATM   26  O   UNL     1     -10.870   4.839  65.823  1.00  0.00    -0.295 OA 
HETATM   27  H1  UNL     1      -9.437   3.209  66.992  1.00  0.00     0.000 HD 
HETATM   28  H2  UNL     1      -8.827   4.364  68.193  1.00  0.00     0.000 HD 
HETATM   29  N   UNL     1      -9.412   4.149  67.386  1.00  0.00    -0.176 N  
ENDBRANCH  18  25
ENDBRANCH  14  17
ENDBRANCH  13  14
ENDBRANCH  11  13
ENDBRANCH   2  11
TORSDOF 8
ENDMDL
MODEL      238
REMARK 921   NORMALIZED FREE ENERGY PREDICTED BY IDOCK:   -4.19 KCAL/MOL
REMARK 922        TOTAL FREE ENERGY PREDICTED BY IDOCK:   -7.70 KCAL/MOL
REMARK 923 INTER-LIGAND FREE ENERGY PREDICTED BY IDOCK:   -6.66 KCAL/MOL
REMARK 924 INTRA-LIGAND FREE ENERGY PREDICTED BY IDOCK:   -1.04 KCAL/MOL
REMARK 927      BINDING AFFINITY PREDICTED BY RF-SCORE:    0.00 PKD
ROOT
HETATM    1  C   UNL     1      -8.229  13.871  67.714  1.00  0.00    -0.173 C  
HETATM    2  C   UNL     1      -8.622  14.935  68.747  1.00  0.00    -0.177 C  
ENDROOT
BRANCH   2   3
HETATM    3  C   UNL     1      -7.554  16.052  68.749  1.00  0.00    -0.184 C  
BRANCH   3   4
HETATM    4  C   UNL     1      -7.236  16.599  67.353  1.00  0.00    -0.184 C  
BRANCH   4   5
HETATM    5  C   UNL     1      -7.252  18.111  67.324  1.00  0.00    -0.211 A  
HETATM    6  C   UNL     1      -6.059  18.845  67.362  1.00  0.00    -0.175 A  
HETATM    7  C   UNL     1      -6.084  20.240  67.336  1.00  0.00    -0.235 A  
HETATM    8  C   UNL     1      -8.469  18.803  67.244  1.00  0.00    -0.283 A  
HETATM    9  C   UNL     1      -7.300  20.918  67.266  1.00  0.00    -0.378 A  
HETATM   10  C   UNL     1      -8.493  20.199  67.218  1.00  0.00    -0.403 A  
ENDBRANCH   4   5
ENDBRANCH   3   4
ENDBRANCH   2   3
BRANCH   2  11
HETATM   11  N   UNL     1      -9.946  15.511  68.483  1.00  0.00    -0.205 NA 
HETATM   12  H   UNL     1     -10.130  15.541  67.480  1.00  0.00     0.000 HD 
BRANCH  11  13
HETATM   13  C   UNL     1     -11.044  14.836  69.189  1.00  0.00    -0.265 C  
BRANCH  13  14
HETATM   14  C   UNL     1     -11.973  14.064  68.214  1.00  0.00    -0.349 C  
HETATM   15  H   UNL     1     -12.404  14.152  66.303  1.00  0.00     0.000 HD 
HETATM   16  O   UNL     1     -11.835  14.623  66.899  1.00  0.00    -0.381 OA 
BRANCH  14  17
HETATM   17  C   UNL     1     -11.684  12.568  68.208  1.00  0.00    -0.390 A  
HETATM   18  C   UNL     1     -11.399  10.421  69.369  1.00  0.00    -0.310 A  
HETATM   19  H   UNL     1     -10.322   8.144  67.229  1.00  0.00     0.000 HD 
HETATM   20  C   UNL     1     -11.016   9.835  68.158  1.00  0.00    -0.175 A  
HETATM   21  C   UNL     1     -11.000  10.576  66.981  1.00  0.00    -0.247 A  
HETATM   22  O   UNL     1     -10.582   8.542  68.051  1.00  0.00    -0.207 OA 
HETATM   23  C   UNL     1     -11.314  11.938  67.010  1.00  0.00    -0.392 A  
HETATM   24  C   UNL     1     -11.729  11.789  69.380  1.00  0.00    -0.405 A  
BRANCH  18  25
HETATM   25  C   UNL     1     -11.449   9.695  70.671  1.00  0.00    -0.306 C  
HETATM   26  O   UNL     1     -10.440   9.255  71.207  1.00  0.00    -0.299 OA 
HETATM   27  H1  UNL     1     -12.701   9.044  72.169  1.00  0.00     0.000 HD 
HETATM   28  H2  UNL     1     -13.515   9.912  70.852  1.00  0.00     0.000 HD 
HETATM   29  N   UNL     1     -12.666   9.541  71.278  1.00  0.00    -0.330 N  
ENDBRANCH  18  25
ENDBRANCH  14  17
ENDBRANCH  13  14
ENDBRANCH  11  13
ENDBRANCH   2  11
TORSDOF 8
ENDMDL
MODEL      239
REMARK 921   NORMALIZED FREE ENERGY PREDICTED BY IDOCK:   -4.19 KCAL/MOL
REMARK 922        TOTAL FREE ENERGY PREDICTED BY IDOCK:   -7.70 KCAL/MOL
REMARK 923 INTER-LIGAND FREE ENERGY PREDICTED BY IDOCK:   -6.71 KCAL/MOL
REMARK 924 INTRA-LIGAND FREE ENERGY PREDICTED BY IDOCK:   -0.99 KCAL/MOL
REMARK 927      BINDING AFFINITY PREDICTED BY RF-SCORE:    0.00 PKD
ROOT
HETATM    1  C   UNL     1     -11.685  12.187  67.444  1.00  0.00    -0.374 C  
HETATM    2  C   UNL     1     -11.361  12.303  65.949  1.00  0.00    -0.360 C  
ENDROOT
BRANCH   2   3
HETATM    3  C   UNL     1     -11.645  13.750  65.485  1.00  0.00    -0.335 C  
BRANCH   3   4
HETATM    4  C   UNL     1     -10.376  14.574  65.238  1.00  0.00    -0.435 C  
BRANCH   4   5
HETATM    5  C   UNL     1     -10.278  15.751  66.184  1.00  0.00    -0.332 A  
HETATM    6  C   UNL     1     -10.311  17.066  65.701  1.00  0.00    -0.226 A  
HETATM    7  C   UNL     1     -10.219  18.146  66.581  1.00  0.00    -0.388 A  
HETATM    8  C   UNL     1     -10.169  15.540  67.566  1.00  0.00    -0.254 A  
HETATM    9  C   UNL     1     -10.100  17.924  67.953  1.00  0.00    -0.350 A  
HETATM   10  C   UNL     1     -10.077  16.620  68.445  1.00  0.00    -0.268 A  
ENDBRANCH   4   5
ENDBRANCH   3   4
ENDBRANCH   2   3
BRANCH   2  11
HETATM   11  N   UNL     1      -9.971  11.946  65.647  1.00  0.00    -0.236 NA 
HETATM   12  H   UNL     1      -9.370  12.133  66.450  1.00  0.00     0.000 HD 
BRANCH  11  13
HETATM   13  C   UNL     1      -9.796  10.561  65.185  1.00  0.00    -0.297 C  
BRANCH  13  14
HETATM   14  C   UNL     1      -8.871   9.746  66.130  1.00  0.00    -0.141 C  
HETATM   15  H   UNL     1      -7.477  10.158  67.446  1.00  0.00     0.000 HD 
HETATM   16  O   UNL     1      -8.043  10.656  66.868  1.00  0.00    -0.118 OA 
BRANCH  14  17
HETATM   17  C   UNL     1      -9.662   8.840  67.065  1.00  0.00    -0.258 A  
HETATM   18  C   UNL     1     -10.587   8.302  69.276  1.00  0.00    -0.191 A  
HETATM   19  H   UNL     1     -11.895   5.266  69.217  1.00  0.00     0.000 HD 
HETATM   20  C   UNL     1     -11.020   7.068  68.778  1.00  0.00    -0.101 A  
HETATM   21  C   UNL     1     -10.821   6.729  67.444  1.00  0.00    -0.417 A  
HETATM   22  O   UNL     1     -11.601   6.103  69.556  1.00  0.00    -0.396 OA 
HETATM   23  C   UNL     1     -10.129   7.601  66.598  1.00  0.00    -0.278 A  
HETATM   24  C   UNL     1      -9.908   9.178  68.409  1.00  0.00    -0.181 A  
BRANCH  18  25
HETATM   25  C   UNL     1     -10.768   8.742  70.691  1.00  0.00    -0.225 C  
HETATM   26  O   UNL     1     -11.824   8.582  71.290  1.00  0.00    -0.281 OA 
HETATM   27  H1  UNL     1      -9.828   9.629  72.292  1.00  0.00     0.000 HD 
HETATM   28  H2  UNL     1      -8.815   9.458  70.845  1.00  0.00     0.000 HD 
HETATM   29  N   UNL     1      -9.705   9.327  71.325  1.00  0.00    -0.268 N  
ENDBRANCH  18  25
ENDBRANCH  14  17
ENDBRANCH  13  14
ENDBRANCH  11  13
ENDBRANCH   2  11
TORSDOF 8
ENDMDL
MODEL      240
REMARK 921   NORMALIZED FREE ENERGY PREDICTED BY IDOCK:   -4.13 KCAL/MOL
REMARK 922        TOTAL FREE ENERGY PREDICTED BY IDOCK:   -7.62 KCAL/MOL
REMARK 923 INTER-LIGAND FREE ENERGY PREDICTED BY IDOCK:   -6.08 KCAL/MOL
REMARK 924 INTRA-LIGAND FREE ENERGY PREDICTED BY IDOCK:   -1.54 KCAL/MOL
REMARK 927      BINDING AFFINITY PREDICTED BY RF-SCORE:    0.00 PKD
ROOT
HETATM    1  C   UNL     1     -10.743  11.878  64.602  1.00  0.00    -0.356 C  
HETATM    2  C   UNL     1     -10.582  11.230  65.983  1.00  0.00    -0.258 C  
ENDROOT
BRANCH   2   3
HETATM    3  C   UNL     1      -9.318  10.341  65.975  1.00  0.00    -0.224 C  
BRANCH   3   4
HETATM    4  C   UNL     1      -9.487   9.028  66.748  1.00  0.00    -0.238 C  
BRANCH   4   5
HETATM    5  C   UNL     1      -8.296   8.739  67.634  1.00  0.00    -0.114 A  
HETATM    6  C   UNL     1      -7.997   9.561  68.729  1.00  0.00    -0.088 A  
HETATM    7  C   UNL     1      -6.895   9.288  69.541  1.00  0.00    -0.048 A  
HETATM    8  C   UNL     1      -7.477   7.630  67.379  1.00  0.00    -0.100 A  
HETATM    9  C   UNL     1      -6.082   8.187  69.272  1.00  0.00    -0.038 A  
HETATM   10  C   UNL     1      -6.375   7.357  68.191  1.00  0.00    -0.048 A  
ENDBRANCH   4   5
ENDBRANCH   3   4
ENDBRANCH   2   3
BRANCH   2  11
HETATM   11  N   UNL     1     -10.487  12.222  67.060  1.00  0.00    -0.215 NA 
HETATM   12  H   UNL     1     -10.098  13.097  66.708  1.00  0.00     0.000 HD 
BRANCH  11  13
HETATM   13  C   UNL     1     -11.755  12.467  67.761  1.00  0.00    -0.359 C  
BRANCH  13  14
HETATM   14  C   UNL     1     -11.534  12.800  69.262  1.00  0.00    -0.289 C  
HETATM   15  H   UNL     1     -12.215  14.131  70.531  1.00  0.00     0.000 HD 
HETATM   16  O   UNL     1     -12.350  13.927  69.613  1.00  0.00    -0.328 OA 
BRANCH  14  17
HETATM   17  C   UNL     1     -11.827  11.606  70.163  1.00  0.00    -0.428 A  
HETATM   18  C   UNL     1     -11.462   9.274  70.841  1.00  0.00    -0.367 A  
HETATM   19  H   UNL     1     -13.666   8.439  73.159  1.00  0.00     0.000 HD 
HETATM   20  C   UNL     1     -12.500   9.397  71.771  1.00  0.00    -0.391 A  
HETATM   21  C   UNL     1     -13.170  10.605  71.933  1.00  0.00    -0.528 A  
HETATM   22  O   UNL     1     -12.962   8.355  72.527  1.00  0.00    -0.292 OA 
HETATM   23  C   UNL     1     -12.849  11.697  71.121  1.00  0.00    -0.392 A  
HETATM   24  C   UNL     1     -11.137  10.386  70.042  1.00  0.00    -0.379 A  
BRANCH  18  25
HETATM   25  C   UNL     1     -10.690   8.017  70.610  1.00  0.00    -0.228 C  
HETATM   26  O   UNL     1      -9.720   7.717  71.295  1.00  0.00    -0.157 OA 
HETATM   27  H1  UNL     1     -10.577   6.321  69.453  1.00  0.00     0.000 HD 
HETATM   28  H2  UNL     1     -11.917   7.408  69.038  1.00  0.00     0.000 HD 
HETATM   29  N   UNL     1     -11.105   7.179  69.610  1.00  0.00    -0.215 N  
ENDBRANCH  18  25
ENDBRANCH  14  17
ENDBRANCH  13  14
ENDBRANCH  11  13
ENDBRANCH   2  11
TORSDOF 8
ENDMDL
MODEL      241
REMARK 921   NORMALIZED FREE ENERGY PREDICTED BY IDOCK:   -4.12 KCAL/MOL
REMARK 922        TOTAL FREE ENERGY PREDICTED BY IDOCK:   -7.61 KCAL/MOL
REMARK 923 INTER-LIGAND FREE ENERGY PREDICTED BY IDOCK:   -6.24 KCAL/MOL
REMARK 924 INTRA-LIGAND FREE ENERGY PREDICTED BY IDOCK:   -1.36 KCAL/MOL
REMARK 927      BINDING AFFINITY PREDICTED BY RF-SCORE:    0.00 PKD
ROOT
HETATM    1  C   UNL     1     -11.440  16.055  68.895  1.00  0.00    -0.362 C  
HETATM    2  C   UNL     1     -10.547  14.812  68.991  1.00  0.00    -0.248 C  
ENDROOT
BRANCH   2   3
HETATM    3  C   UNL     1      -9.137  15.241  69.460  1.00  0.00    -0.188 C  
BRANCH   3   4
HETATM    4  C   UNL     1      -8.170  15.535  68.307  1.00  0.00    -0.142 C  
BRANCH   4   5
HETATM    5  C   UNL     1      -7.283  14.349  68.003  1.00  0.00    -0.146 A  
HETATM    6  C   UNL     1      -5.942  14.330  68.411  1.00  0.00    -0.103 A  
HETATM    7  C   UNL     1      -5.130  13.232  68.125  1.00  0.00    -0.100 A  
HETATM    8  C   UNL     1      -7.796  13.239  67.316  1.00  0.00    -0.118 A  
HETATM    9  C   UNL     1      -5.648  12.138  67.433  1.00  0.00    -0.128 A  
HETATM   10  C   UNL     1      -6.982  12.142  67.031  1.00  0.00    -0.068 A  
ENDBRANCH   4   5
ENDBRANCH   3   4
ENDBRANCH   2   3
BRANCH   2  11
HETATM   11  N   UNL     1     -11.089  13.800  69.905  1.00  0.00    -0.469 NA 
HETATM   12  H   UNL     1     -11.672  14.238  70.619  1.00  0.00     0.000 HD 
BRANCH  11  13
HETATM   13  C   UNL     1     -11.824  12.719  69.233  1.00  0.00    -0.303 C  
BRANCH  13  14
HETATM   14  C   UNL     1     -10.901  11.521  68.883  1.00  0.00    -0.218 C  
HETATM   15  H   UNL     1     -10.901   9.589  69.220  1.00  0.00     0.000 HD 
HETATM   16  O   UNL     1     -11.465  10.322  69.434  1.00  0.00    -0.234 OA 
BRANCH  14  17
HETATM   17  C   UNL     1     -10.681  11.385  67.381  1.00  0.00    -0.274 A  
HETATM   18  C   UNL     1     -10.858  12.249  65.088  1.00  0.00    -0.340 A  
HETATM   19  H   UNL     1      -9.945   9.899  62.949  1.00  0.00     0.000 HD 
HETATM   20  C   UNL     1     -10.370  11.029  64.607  1.00  0.00    -0.345 A  
HETATM   21  C   UNL     1     -10.004  10.013  65.484  1.00  0.00    -0.367 A  
HETATM   22  O   UNL     1     -10.276  10.728  63.276  1.00  0.00    -0.319 OA 
HETATM   23  C   UNL     1     -10.176  10.183  66.860  1.00  0.00    -0.295 A  
HETATM   24  C   UNL     1     -11.010  12.413  66.477  1.00  0.00    -0.312 A  
BRANCH  18  25
HETATM   25  C   UNL     1     -11.266  13.389  64.216  1.00  0.00    -0.380 C  
HETATM   26  O   UNL     1     -10.787  14.508  64.345  1.00  0.00    -0.284 OA 
HETATM   27  H1  UNL     1     -12.473  13.932  62.641  1.00  0.00     0.000 HD 
HETATM   28  H2  UNL     1     -12.595  12.224  63.108  1.00  0.00     0.000 HD 
HETATM   29  N   UNL     1     -12.194  13.153  63.237  1.00  0.00    -0.503 N  
ENDBRANCH  18  25
ENDBRANCH  14  17
ENDBRANCH  13  14
ENDBRANCH  11  13
ENDBRANCH   2  11
TORSDOF 8
ENDMDL
MODEL      242
REMARK 921   NORMALIZED FREE ENERGY PREDICTED BY IDOCK:   -4.12 KCAL/MOL
REMARK 922        TOTAL FREE ENERGY PREDICTED BY IDOCK:   -7.60 KCAL/MOL
REMARK 923 INTER-LIGAND FREE ENERGY PREDICTED BY IDOCK:   -6.87 KCAL/MOL
REMARK 924 INTRA-LIGAND FREE ENERGY PREDICTED BY IDOCK:   -0.74 KCAL/MOL
REMARK 927      BINDING AFFINITY PREDICTED BY RF-SCORE:    0.00 PKD
ROOT
HETATM    1  C   UNL     1     -10.595   7.941  66.896  1.00  0.00    -0.333 C  
HETATM    2  C   UNL     1      -9.974   8.780  68.019  1.00  0.00    -0.182 C  
ENDROOT
BRANCH   2   3
HETATM    3  C   UNL     1     -10.147   8.030  69.360  1.00  0.00    -0.197 C  
BRANCH   3   4
HETATM    4  C   UNL     1     -10.712   6.614  69.203  1.00  0.00    -0.304 C  
BRANCH   4   5
HETATM    5  C   UNL     1     -10.791   5.890  70.528  1.00  0.00    -0.366 A  
HETATM    6  C   UNL     1     -11.578   6.389  71.575  1.00  0.00    -0.364 A  
HETATM    7  C   UNL     1     -11.644   5.714  72.795  1.00  0.00    -0.289 A  
HETATM    8  C   UNL     1     -10.085   4.695  70.723  1.00  0.00    -0.264 A  
HETATM    9  C   UNL     1     -10.930   4.531  72.981  1.00  0.00    -0.308 A  
HETATM   10  C   UNL     1     -10.152   4.021  71.944  1.00  0.00    -0.214 A  
ENDBRANCH   4   5
ENDBRANCH   3   4
ENDBRANCH   2   3
BRANCH   2  11
HETATM   11  N   UNL     1      -8.553   9.065  67.787  1.00  0.00    -0.121 NA 
HETATM   12  H   UNL     1      -8.245   8.656  66.906  1.00  0.00     0.000 HD 
BRANCH  11  13
HETATM   13  C   UNL     1      -8.213  10.494  67.839  1.00  0.00    -0.107 C  
BRANCH  13  14
HETATM   14  C   UNL     1      -8.323  11.167  66.444  1.00  0.00    -0.167 C  
HETATM   15  H   UNL     1      -8.360  10.562  64.580  1.00  0.00     0.000 HD 
HETATM   16  O   UNL     1      -8.293  10.150  65.433  1.00  0.00    -0.144 OA 
BRANCH  14  17
HETATM   17  C   UNL     1      -9.573  12.030  66.320  1.00  0.00    -0.243 A  
HETATM   18  C   UNL     1     -11.491  12.878  65.042  1.00  0.00    -0.350 A  
HETATM   19  H   UNL     1     -13.003  15.258  66.767  1.00  0.00     0.000 HD 
HETATM   20  C   UNL     1     -11.797  13.740  66.100  1.00  0.00    -0.398 A  
HETATM   21  C   UNL     1     -11.039  13.732  67.266  1.00  0.00    -0.319 A  
HETATM   22  O   UNL     1     -12.796  14.673  66.048  1.00  0.00    -0.072 OA 
HETATM   23  C   UNL     1      -9.923  12.896  67.368  1.00  0.00    -0.217 A  
HETATM   24  C   UNL     1     -10.376  12.029  65.165  1.00  0.00    -0.313 A  
BRANCH  18  25
HETATM   25  C   UNL     1     -12.257  12.820  63.762  1.00  0.00    -0.489 C  
HETATM   26  O   UNL     1     -12.489  13.824  63.100  1.00  0.00    -0.786 OA 
HETATM   27  H1  UNL     1     -13.214  11.559  62.449  1.00  0.00     0.000 HD 
HETATM   28  H2  UNL     1     -12.495  10.751  63.856  1.00  0.00     0.000 HD 
HETATM   29  N   UNL     1     -12.690  11.598  63.323  1.00  0.00    -0.319 N  
ENDBRANCH  18  25
ENDBRANCH  14  17
ENDBRANCH  13  14
ENDBRANCH  11  13
ENDBRANCH   2  11
TORSDOF 8
ENDMDL
MODEL      243
REMARK 921   NORMALIZED FREE ENERGY PREDICTED BY IDOCK:   -4.12 KCAL/MOL
REMARK 922        TOTAL FREE ENERGY PREDICTED BY IDOCK:   -7.60 KCAL/MOL
REMARK 923 INTER-LIGAND FREE ENERGY PREDICTED BY IDOCK:   -6.28 KCAL/MOL
REMARK 924 INTRA-LIGAND FREE ENERGY PREDICTED BY IDOCK:   -1.32 KCAL/MOL
REMARK 927      BINDING AFFINITY PREDICTED BY RF-SCORE:    0.00 PKD
ROOT
HETATM    1  C   UNL     1     -12.007   6.024  71.969  1.00  0.00    -0.237 C  
HETATM    2  C   UNL     1     -12.144   7.491  71.545  1.00  0.00    -0.316 C  
ENDROOT
BRANCH   2   3
HETATM    3  C   UNL     1     -11.163   8.348  72.377  1.00  0.00    -0.438 C  
BRANCH   3   4
HETATM    4  C   UNL     1     -10.492   7.578  73.520  1.00  0.00    -0.362 C  
BRANCH   4   5
HETATM    5  C   UNL     1      -8.985   7.595  73.401  1.00  0.00    -0.281 A  
HETATM    6  C   UNL     1      -8.180   7.934  74.497  1.00  0.00    -0.259 A  
HETATM    7  C   UNL     1      -6.790   7.948  74.377  1.00  0.00    -0.142 A  
HETATM    8  C   UNL     1      -8.368   7.254  72.189  1.00  0.00    -0.115 A  
HETATM    9  C   UNL     1      -6.187   7.617  73.164  1.00  0.00    -0.061 A  
HETATM   10  C   UNL     1      -6.977   7.268  72.071  1.00  0.00    -0.063 A  
ENDBRANCH   4   5
ENDBRANCH   3   4
ENDBRANCH   2   3
BRANCH   2  11
HETATM   11  N   UNL     1     -11.887   7.688  70.114  1.00  0.00    -0.476 NA 
HETATM   12  H   UNL     1     -11.496   8.614  69.944  1.00  0.00     0.000 HD 
BRANCH  11  13
HETATM   13  C   UNL     1     -11.038   6.650  69.511  1.00  0.00    -0.322 C  
BRANCH  13  14
HETATM   14  C   UNL     1     -10.323   7.158  68.229  1.00  0.00    -0.195 C  
HETATM   15  H   UNL     1     -10.673   7.107  66.300  1.00  0.00     0.000 HD 
HETATM   16  O   UNL     1     -11.110   6.797  67.085  1.00  0.00    -0.384 OA 
BRANCH  14  17
HETATM   17  C   UNL     1     -10.068   8.660  68.271  1.00  0.00    -0.225 A  
HETATM   18  C   UNL     1     -10.483  10.942  67.462  1.00  0.00    -0.252 A  
HETATM   19  H   UNL     1      -8.343  13.023  68.883  1.00  0.00     0.000 HD 
HETATM   20  C   UNL     1      -9.465  11.408  68.300  1.00  0.00    -0.187 A  
HETATM   21  C   UNL     1      -8.780  10.537  69.141  1.00  0.00    -0.155 A  
HETATM   22  O   UNL     1      -9.035  12.707  68.313  1.00  0.00    -0.194 OA 
HETATM   23  C   UNL     1      -9.067   9.169  69.112  1.00  0.00    -0.144 A  
HETATM   24  C   UNL     1     -10.774   9.565  67.456  1.00  0.00    -0.311 A  
BRANCH  18  25
HETATM   25  C   UNL     1     -11.268  11.811  66.537  1.00  0.00    -0.321 C  
HETATM   26  O   UNL     1     -12.139  12.570  66.942  1.00  0.00    -0.537 OA 
HETATM   27  H1  UNL     1     -11.517  12.349  64.567  1.00  0.00     0.000 HD 
HETATM   28  H2  UNL     1     -10.250  11.137  64.845  1.00  0.00     0.000 HD 
HETATM   29  N   UNL     1     -10.980  11.755  65.199  1.00  0.00    -0.302 N  
ENDBRANCH  18  25
ENDBRANCH  14  17
ENDBRANCH  13  14
ENDBRANCH  11  13
ENDBRANCH   2  11
TORSDOF 8
ENDMDL
MODEL      244
REMARK 921   NORMALIZED FREE ENERGY PREDICTED BY IDOCK:   -4.11 KCAL/MOL
REMARK 922        TOTAL FREE ENERGY PREDICTED BY IDOCK:   -7.58 KCAL/MOL
REMARK 923 INTER-LIGAND FREE ENERGY PREDICTED BY IDOCK:   -5.79 KCAL/MOL
REMARK 924 INTRA-LIGAND FREE ENERGY PREDICTED BY IDOCK:   -1.79 KCAL/MOL
REMARK 927      BINDING AFFINITY PREDICTED BY RF-SCORE:    0.00 PKD
ROOT
HETATM    1  C   UNL     1      -5.444  17.023  69.703  1.00  0.00    -0.180 C  
HETATM    2  C   UNL     1      -6.554  16.289  68.940  1.00  0.00    -0.150 C  
ENDROOT
BRANCH   2   3
HETATM    3  C   UNL     1      -6.339  16.492  67.423  1.00  0.00    -0.199 C  
BRANCH   3   4
HETATM    4  C   UNL     1      -6.630  17.919  66.947  1.00  0.00    -0.211 C  
BRANCH   4   5
HETATM    5  C   UNL     1      -8.085  18.287  67.131  1.00  0.00    -0.232 A  
HETATM    6  C   UNL     1      -9.098  17.563  66.487  1.00  0.00    -0.284 A  
HETATM    7  C   UNL     1     -10.438  17.910  66.662  1.00  0.00    -0.318 A  
HETATM    8  C   UNL     1      -8.445  19.355  67.965  1.00  0.00    -0.355 A  
HETATM    9  C   UNL     1     -10.783  18.980  67.486  1.00  0.00    -0.532 A  
HETATM   10  C   UNL     1      -9.786  19.702  68.139  1.00  0.00    -0.503 A  
ENDBRANCH   4   5
ENDBRANCH   3   4
ENDBRANCH   2   3
BRANCH   2  11
HETATM   11  N   UNL     1      -6.594  14.855  69.251  1.00  0.00    -0.120 NA 
HETATM   12  H   UNL     1      -7.489  14.604  69.670  1.00  0.00     0.000 HD 
BRANCH  11  13
HETATM   13  C   UNL     1      -6.300  13.986  68.103  1.00  0.00    -0.128 C  
BRANCH  13  14
HETATM   14  C   UNL     1      -7.347  12.850  67.952  1.00  0.00    -0.127 C  
HETATM   15  H   UNL     1      -8.044  11.408  69.083  1.00  0.00     0.000 HD 
HETATM   16  O   UNL     1      -7.404  12.103  69.176  1.00  0.00    -0.051 OA 
BRANCH  14  17
HETATM   17  C   UNL     1      -8.722  13.385  67.569  1.00  0.00    -0.205 A  
HETATM   18  C   UNL     1     -10.900  14.356  68.159  1.00  0.00    -0.251 A  
HETATM   19  H   UNL     1     -12.827  14.458  65.475  1.00  0.00     0.000 HD 
HETATM   20  C   UNL     1     -11.297  14.239  66.823  1.00  0.00    -0.348 A  
HETATM   21  C   UNL     1     -10.423  13.745  65.861  1.00  0.00    -0.300 A  
HETATM   22  O   UNL     1     -12.558  14.537  66.383  1.00  0.00    -0.251 OA 
HETATM   23  C   UNL     1      -9.151  13.302  66.235  1.00  0.00     0.011 A  
HETATM   24  C   UNL     1      -9.610  13.923  68.519  1.00  0.00    -0.185 A  
BRANCH  18  25
HETATM   25  C   UNL     1     -11.774  14.881  69.249  1.00  0.00    -0.316 C  
HETATM   26  O   UNL     1     -11.824  16.074  69.522  1.00  0.00    -0.319 OA 
HETATM   27  H1  UNL     1     -13.146  14.349  70.686  1.00  0.00     0.000 HD 
HETATM   28  H2  UNL     1     -12.529  12.995  69.719  1.00  0.00     0.000 HD 
HETATM   29  N   UNL     1     -12.549  13.990  69.941  1.00  0.00    -0.241 N  
ENDBRANCH  18  25
ENDBRANCH  14  17
ENDBRANCH  13  14
ENDBRANCH  11  13
ENDBRANCH   2  11
TORSDOF 8
ENDMDL
MODEL      245
REMARK 921   NORMALIZED FREE ENERGY PREDICTED BY IDOCK:   -4.10 KCAL/MOL
REMARK 922        TOTAL FREE ENERGY PREDICTED BY IDOCK:   -7.57 KCAL/MOL
REMARK 923 INTER-LIGAND FREE ENERGY PREDICTED BY IDOCK:   -7.01 KCAL/MOL
REMARK 924 INTRA-LIGAND FREE ENERGY PREDICTED BY IDOCK:   -0.56 KCAL/MOL
REMARK 927      BINDING AFFINITY PREDICTED BY RF-SCORE:    0.00 PKD
ROOT
HETATM    1  C   UNL     1      -9.255   8.346  71.444  1.00  0.00    -0.242 C  
HETATM    2  C   UNL     1     -10.597   7.607  71.504  1.00  0.00    -0.212 C  
ENDROOT
BRANCH   2   3
HETATM    3  C   UNL     1     -10.591   6.652  72.719  1.00  0.00    -0.260 C  
BRANCH   3   4
HETATM    4  C   UNL     1      -9.433   5.648  72.705  1.00  0.00    -0.157 C  
BRANCH   4   5
HETATM    5  C   UNL     1      -9.928   4.220  72.653  1.00  0.00    -0.210 A  
HETATM    6  C   UNL     1     -10.864   3.749  73.583  1.00  0.00    -0.329 A  
HETATM    7  C   UNL     1     -11.315   2.429  73.528  1.00  0.00    -0.302 A  
HETATM    8  C   UNL     1      -9.464   3.347  71.659  1.00  0.00    -0.219 A  
HETATM    9  C   UNL     1     -10.840   1.567  72.540  1.00  0.00    -0.177 A  
HETATM   10  C   UNL     1      -9.916   2.027  71.605  1.00  0.00    -0.192 A  
ENDBRANCH   4   5
ENDBRANCH   3   4
ENDBRANCH   2   3
BRANCH   2  11
HETATM   11  N   UNL     1     -11.739   8.524  71.596  1.00  0.00    -0.287 NA 
HETATM   12  H   UNL     1     -12.171   8.467  72.518  1.00  0.00     0.000 HD 
BRANCH  11  13
HETATM   13  C   UNL     1     -11.414   9.919  71.265  1.00  0.00    -0.361 C  
BRANCH  13  14
HETATM   14  C   UNL     1     -12.654  10.698  70.750  1.00  0.00    -0.386 C  
HETATM   15  H   UNL     1     -14.258  11.494  71.551  1.00  0.00     0.000 HD 
HETATM   16  O   UNL     1     -13.498  11.018  71.865  1.00  0.00    -0.349 OA 
BRANCH  14  17
HETATM   17  C   UNL     1     -12.264  11.952  69.977  1.00  0.00    -0.291 A  
HETATM   18  C   UNL     1     -11.429  13.066  67.953  1.00  0.00    -0.352 A  
HETATM   19  H   UNL     1     -10.964  16.279  68.574  1.00  0.00     0.000 HD 
HETATM   20  C   UNL     1     -11.435  14.284  68.640  1.00  0.00    -0.296 A  
HETATM   21  C   UNL     1     -11.880  14.358  69.956  1.00  0.00    -0.377 A  
HETATM   22  O   UNL     1     -10.960  15.452  68.108  1.00  0.00    -0.273 OA 
HETATM   23  C   UNL     1     -12.274  13.196  70.626  1.00  0.00    -0.402 A  
HETATM   24  C   UNL     1     -11.845  11.907  68.634  1.00  0.00    -0.365 A  
BRANCH  18  25
HETATM   25  C   UNL     1     -10.974  12.904  66.541  1.00  0.00    -0.275 C  
HETATM   26  O   UNL     1      -9.808  13.082  66.211  1.00  0.00    -0.269 OA 
HETATM   27  H1  UNL     1     -11.587  12.416  64.639  1.00  0.00     0.000 HD 
HETATM   28  H2  UNL     1     -12.870  12.362  65.864  1.00  0.00     0.000 HD 
HETATM   29  N   UNL     1     -11.898  12.527  65.604  1.00  0.00    -0.424 N  
ENDBRANCH  18  25
ENDBRANCH  14  17
ENDBRANCH  13  14
ENDBRANCH  11  13
ENDBRANCH   2  11
TORSDOF 8
ENDMDL
MODEL      246
REMARK 921   NORMALIZED FREE ENERGY PREDICTED BY IDOCK:   -4.08 KCAL/MOL
REMARK 922        TOTAL FREE ENERGY PREDICTED BY IDOCK:   -7.54 KCAL/MOL
REMARK 923 INTER-LIGAND FREE ENERGY PREDICTED BY IDOCK:   -6.82 KCAL/MOL
REMARK 924 INTRA-LIGAND FREE ENERGY PREDICTED BY IDOCK:   -0.73 KCAL/MOL
REMARK 927      BINDING AFFINITY PREDICTED BY RF-SCORE:    0.00 PKD
ROOT
HETATM    1  C   UNL     1     -11.984  12.992  63.342  1.00  0.00    -0.592 C  
HETATM    2  C   UNL     1     -11.070  12.584  64.503  1.00  0.00    -0.317 C  
ENDROOT
BRANCH   2   3
HETATM    3  C   UNL     1     -10.523  11.163  64.236  1.00  0.00    -0.427 C  
BRANCH   3   4
HETATM    4  C   UNL     1      -9.111  10.935  64.788  1.00  0.00    -0.197 C  
BRANCH   4   5
HETATM    5  C   UNL     1      -9.117  10.014  65.986  1.00  0.00    -0.189 A  
HETATM    6  C   UNL     1      -7.970   9.848  66.773  1.00  0.00    -0.116 A  
HETATM    7  C   UNL     1      -7.985   8.995  67.878  1.00  0.00    -0.102 A  
HETATM    8  C   UNL     1     -10.284   9.319  66.338  1.00  0.00    -0.298 A  
HETATM    9  C   UNL     1      -9.148   8.301  68.212  1.00  0.00    -0.135 A  
HETATM   10  C   UNL     1     -10.298   8.466  67.442  1.00  0.00    -0.355 A  
ENDBRANCH   4   5
ENDBRANCH   3   4
ENDBRANCH   2   3
BRANCH   2  11
HETATM   11  N   UNL     1      -9.956  13.519  64.695  1.00  0.00    -0.632 NA 
HETATM   12  H   UNL     1      -9.952  14.228  63.961  1.00  0.00     0.000 HD 
BRANCH  11  13
HETATM   13  C   UNL     1      -9.927  14.151  66.022  1.00  0.00    -0.322 C  
BRANCH  13  14
HETATM   14  C   UNL     1     -10.871  15.381  66.099  1.00  0.00    -0.313 C  
HETATM   15  H   UNL     1     -12.446  15.891  67.149  1.00  0.00     0.000 HD 
HETATM   16  O   UNL     1     -11.869  15.139  67.102  1.00  0.00    -0.233 OA 
BRANCH  14  17
HETATM   17  C   UNL     1     -10.110  16.671  66.381  1.00  0.00    -0.325 A  
HETATM   18  C   UNL     1      -8.209  17.886  67.353  1.00  0.00    -0.224 A  
HETATM   19  H   UNL     1      -8.718  21.141  67.071  1.00  0.00     0.000 HD 
HETATM   20  C   UNL     1      -8.812  19.094  66.986  1.00  0.00    -0.295 A  
HETATM   21  C   UNL     1     -10.020  19.105  66.296  1.00  0.00    -0.462 A  
HETATM   22  O   UNL     1      -8.308  20.321  67.321  1.00  0.00    -0.329 OA 
HETATM   23  C   UNL     1     -10.674  17.903  66.013  1.00  0.00    -0.129 A  
HETATM   24  C   UNL     1      -8.869  16.682  67.046  1.00  0.00    -0.220 A  
BRANCH  18  25
HETATM   25  C   UNL     1      -6.913  17.788  68.087  1.00  0.00    -0.212 C  
HETATM   26  O   UNL     1      -6.866  17.572  69.292  1.00  0.00    -0.248 OA 
HETATM   27  H1  UNL     1      -4.868  17.864  67.875  1.00  0.00     0.000 HD 
HETATM   28  H2  UNL     1      -5.775  18.099  66.368  1.00  0.00     0.000 HD 
HETATM   29  N   UNL     1      -5.754  17.931  67.373  1.00  0.00    -0.145 N  
ENDBRANCH  18  25
ENDBRANCH  14  17
ENDBRANCH  13  14
ENDBRANCH  11  13
ENDBRANCH   2  11
TORSDOF 8
ENDMDL
MODEL      247
REMARK 921   NORMALIZED FREE ENERGY PREDICTED BY IDOCK:   -4.08 KCAL/MOL
REMARK 922        TOTAL FREE ENERGY PREDICTED BY IDOCK:   -7.54 KCAL/MOL
REMARK 923 INTER-LIGAND FREE ENERGY PREDICTED BY IDOCK:   -5.09 KCAL/MOL
REMARK 924 INTRA-LIGAND FREE ENERGY PREDICTED BY IDOCK:   -2.45 KCAL/MOL
REMARK 927      BINDING AFFINITY PREDICTED BY RF-SCORE:    0.00 PKD
ROOT
HETATM    1  C   UNL     1     -12.023  11.729  70.180  1.00  0.00    -0.421 C  
HETATM    2  C   UNL     1     -10.888  10.698  70.130  1.00  0.00    -0.157 C  
ENDROOT
BRANCH   2   3
HETATM    3  C   UNL     1     -11.490   9.281  70.265  1.00  0.00    -0.198 C  
BRANCH   3   4
HETATM    4  C   UNL     1     -10.897   8.470  71.423  1.00  0.00    -0.327 C  
BRANCH   4   5
HETATM    5  C   UNL     1     -10.099   7.285  70.927  1.00  0.00    -0.192 A  
HETATM    6  C   UNL     1     -10.614   5.984  71.012  1.00  0.00    -0.305 A  
HETATM    7  C   UNL     1      -9.870   4.896  70.553  1.00  0.00    -0.297 A  
HETATM    8  C   UNL     1      -8.831   7.474  70.359  1.00  0.00    -0.145 A  
HETATM    9  C   UNL     1      -8.606   5.095  69.999  1.00  0.00    -0.109 A  
HETATM   10  C   UNL     1      -8.088   6.385  69.900  1.00  0.00    -0.121 A  
ENDBRANCH   4   5
ENDBRANCH   3   4
ENDBRANCH   2   3
BRANCH   2  11
HETATM   11  N   UNL     1     -10.100  10.790  68.896  1.00  0.00    -0.197 NA 
HETATM   12  H   UNL     1      -9.225  10.276  68.990  1.00  0.00     0.000 HD 
BRANCH  11  13
HETATM   13  C   UNL     1     -10.824  10.358  67.691  1.00  0.00    -0.306 C  
BRANCH  13  14
HETATM   14  C   UNL     1      -9.863   9.813  66.600  1.00  0.00    -0.215 C  
HETATM   15  H   UNL     1      -7.976  10.060  66.126  1.00  0.00     0.000 HD 
HETATM   16  O   UNL     1      -8.564  10.393  66.794  1.00  0.00    -0.123 OA 
BRANCH  14  17
HETATM   17  C   UNL     1      -9.793   8.291  66.605  1.00  0.00    -0.337 A  
HETATM   18  C   UNL     1      -8.724   6.178  65.950  1.00  0.00    -0.158 A  
HETATM   19  H   UNL     1     -10.636   3.643  66.869  1.00  0.00     0.000 HD 
HETATM   20  C   UNL     1      -9.784   5.478  66.537  1.00  0.00    -0.162 A  
HETATM   21  C   UNL     1     -10.814   6.154  67.182  1.00  0.00    -0.442 A  
HETATM   22  O   UNL     1      -9.917   4.118  66.470  1.00  0.00    -0.220 OA 
HETATM   23  C   UNL     1     -10.828   7.552  67.199  1.00  0.00    -0.298 A  
HETATM   24  C   UNL     1      -8.742   7.585  65.990  1.00  0.00    -0.178 A  
BRANCH  18  25
HETATM   25  C   UNL     1      -7.580   5.529  65.246  1.00  0.00    -0.080 C  
HETATM   26  O   UNL     1      -7.612   5.284  64.047  1.00  0.00    -0.063 OA 
HETATM   27  H1  UNL     1      -5.682   4.775  65.495  1.00  0.00     0.000 HD 
HETATM   28  H2  UNL     1      -6.416   5.427  66.974  1.00  0.00     0.000 HD 
HETATM   29  N   UNL     1      -6.464   5.220  65.976  1.00  0.00    -0.039 N  
ENDBRANCH  18  25
ENDBRANCH  14  17
ENDBRANCH  13  14
ENDBRANCH  11  13
ENDBRANCH   2  11
TORSDOF 8
ENDMDL
MODEL      248
REMARK 921   NORMALIZED FREE ENERGY PREDICTED BY IDOCK:   -4.07 KCAL/MOL
REMARK 922        TOTAL FREE ENERGY PREDICTED BY IDOCK:   -7.53 KCAL/MOL
REMARK 923 INTER-LIGAND FREE ENERGY PREDICTED BY IDOCK:   -6.77 KCAL/MOL
REMARK 924 INTRA-LIGAND FREE ENERGY PREDICTED BY IDOCK:   -0.76 KCAL/MOL
REMARK 927      BINDING AFFINITY PREDICTED BY RF-SCORE:    0.00 PKD
ROOT
HETATM    1  C   UNL     1     -10.202  19.704  66.912  1.00  0.00    -0.560 C  
HETATM    2  C   UNL     1      -8.976  19.106  66.212  1.00  0.00    -0.309 C  
ENDROOT
BRANCH   2   3
HETATM    3  C   UNL     1      -7.760  19.200  67.161  1.00  0.00    -0.263 C  
BRANCH   3   4
HETATM    4  C   UNL     1      -6.717  20.234  66.722  1.00  0.00    -0.273 C  
BRANCH   4   5
HETATM    5  C   UNL     1      -6.199  19.953  65.330  1.00  0.00    -0.282 A  
HETATM    6  C   UNL     1      -5.610  18.720  65.016  1.00  0.00    -0.266 A  
HETATM    7  C   UNL     1      -5.133  18.470  63.729  1.00  0.00    -0.040 A  
HETATM    8  C   UNL     1      -6.315  20.922  64.323  1.00  0.00    -0.322 A  
HETATM    9  C   UNL     1      -5.245  19.445  62.738  1.00  0.00    -0.352 A  
HETATM   10  C   UNL     1      -5.838  20.670  63.036  1.00  0.00    -0.280 A  
ENDBRANCH   4   5
ENDBRANCH   3   4
ENDBRANCH   2   3
BRANCH   2  11
HETATM   11  N   UNL     1      -9.186  17.711  65.808  1.00  0.00    -0.444 NA 
HETATM   12  H   UNL     1      -8.300  17.272  65.557  1.00  0.00     0.000 HD 
BRANCH  11  13
HETATM   13  C   UNL     1      -9.898  16.900  66.806  1.00  0.00    -0.279 C  
BRANCH  13  14
HETATM   14  C   UNL     1     -10.664  15.717  66.153  1.00  0.00    -0.303 C  
HETATM   15  H   UNL     1     -11.299  15.263  64.354  1.00  0.00     0.000 HD 
HETATM   16  O   UNL     1     -10.831  15.986  64.754  1.00  0.00    -0.587 OA 
BRANCH  14  17
HETATM   17  C   UNL     1      -9.959  14.384  66.377  1.00  0.00    -0.305 A  
HETATM   18  C   UNL     1      -9.632  12.004  65.866  1.00  0.00    -0.238 A  
HETATM   19  H   UNL     1      -7.515  10.688  68.038  1.00  0.00     0.000 HD 
HETATM   20  C   UNL     1      -8.717  11.919  66.921  1.00  0.00    -0.191 A  
HETATM   21  C   UNL     1      -8.390  13.042  67.672  1.00  0.00    -0.181 A  
HETATM   22  O   UNL     1      -8.137  10.746  67.322  1.00  0.00    -0.114 OA 
HETATM   23  C   UNL     1      -9.021  14.263  67.415  1.00  0.00    -0.205 A  
HETATM   24  C   UNL     1     -10.247  13.243  65.606  1.00  0.00    -0.295 A  
BRANCH  18  25
HETATM   25  C   UNL     1     -10.031  10.849  65.010  1.00  0.00    -0.298 C  
HETATM   26  O   UNL     1     -10.486   9.816  65.485  1.00  0.00    -0.072 OA 
HETATM   27  H1  UNL     1     -10.166  10.183  63.068  1.00  0.00     0.000 HD 
HETATM   28  H2  UNL     1      -9.527  11.830  63.240  1.00  0.00     0.000 HD 
HETATM   29  N   UNL     1      -9.893  10.973  63.653  1.00  0.00    -0.315 N  
ENDBRANCH  18  25
ENDBRANCH  14  17
ENDBRANCH  13  14
ENDBRANCH  11  13
ENDBRANCH   2  11
TORSDOF 8
ENDMDL
MODEL      249
REMARK 921   NORMALIZED FREE ENERGY PREDICTED BY IDOCK:   -4.07 KCAL/MOL
REMARK 922        TOTAL FREE ENERGY PREDICTED BY IDOCK:   -7.53 KCAL/MOL
REMARK 923 INTER-LIGAND FREE ENERGY PREDICTED BY IDOCK:   -7.11 KCAL/MOL
REMARK 924 INTRA-LIGAND FREE ENERGY PREDICTED BY IDOCK:   -0.42 KCAL/MOL
REMARK 927      BINDING AFFINITY PREDICTED BY RF-SCORE:    0.00 PKD
ROOT
HETATM    1  C   UNL     1      -9.787  16.505  67.257  1.00  0.00    -0.254 C  
HETATM    2  C   UNL     1      -9.977  14.988  67.127  1.00  0.00    -0.237 C  
ENDROOT
BRANCH   2   3
HETATM    3  C   UNL     1     -10.689  14.461  68.393  1.00  0.00    -0.250 C  
BRANCH   3   4
HETATM    4  C   UNL     1     -11.467  15.540  69.154  1.00  0.00    -0.356 C  
BRANCH   4   5
HETATM    5  C   UNL     1     -12.192  14.971  70.352  1.00  0.00    -0.393 A  
HETATM    6  C   UNL     1     -12.756  15.813  71.320  1.00  0.00    -0.498 A  
HETATM    7  C   UNL     1     -13.423  15.279  72.423  1.00  0.00    -0.565 A  
HETATM    8  C   UNL     1     -12.325  13.583  70.505  1.00  0.00    -0.412 A  
HETATM    9  C   UNL     1     -13.540  13.897  72.569  1.00  0.00    -0.680 A  
HETATM   10  C   UNL     1     -12.992  13.049  71.608  1.00  0.00    -0.417 A  
ENDBRANCH   4   5
ENDBRANCH   3   4
ENDBRANCH   2   3
BRANCH   2  11
HETATM   11  N   UNL     1     -10.746  14.619  65.932  1.00  0.00    -0.297 NA 
HETATM   12  H   UNL     1     -10.964  15.446  65.377  1.00  0.00     0.000 HD 
BRANCH  11  13
HETATM   13  C   UNL     1     -10.101  13.594  65.099  1.00  0.00    -0.275 C  
BRANCH  13  14
HETATM   14  C   UNL     1     -10.757  12.199  65.284  1.00  0.00    -0.288 C  
HETATM   15  H   UNL     1     -11.745  10.939  64.151  1.00  0.00     0.000 HD 
HETATM   16  O   UNL     1     -11.343  11.793  64.039  1.00  0.00    -0.363 OA 
BRANCH  14  17
HETATM   17  C   UNL     1      -9.764  11.160  65.790  1.00  0.00    -0.266 A  
HETATM   18  C   UNL     1      -9.213   8.884  66.530  1.00  0.00    -0.231 A  
HETATM   19  H   UNL     1      -6.110   8.814  67.669  1.00  0.00     0.000 HD 
HETATM   20  C   UNL     1      -7.921   9.316  66.847  1.00  0.00    -0.105 A  
HETATM   21  C   UNL     1      -7.531  10.630  66.611  1.00  0.00    -0.129 A  
HETATM   22  O   UNL     1      -6.987   8.520  67.453  1.00  0.00    -0.076 OA 
HETATM   23  C   UNL     1      -8.453  11.551  66.103  1.00  0.00    -0.060 A  
HETATM   24  C   UNL     1     -10.125   9.817  66.003  1.00  0.00    -0.322 A  
BRANCH  18  25
HETATM   25  C   UNL     1      -9.706   7.492  66.747  1.00  0.00    -0.216 C  
HETATM   26  O   UNL     1     -10.899   7.218  66.741  1.00  0.00    -0.311 OA 
HETATM   27  H1  UNL     1      -9.117   5.550  67.088  1.00  0.00     0.000 HD 
HETATM   28  H2  UNL     1      -7.781   6.710  66.935  1.00  0.00     0.000 HD 
HETATM   29  N   UNL     1      -8.780   6.502  66.940  1.00  0.00    -0.113 N  
ENDBRANCH  18  25
ENDBRANCH  14  17
ENDBRANCH  13  14
ENDBRANCH  11  13
ENDBRANCH   2  11
TORSDOF 8
ENDMDL
MODEL      250
REMARK 921   NORMALIZED FREE ENERGY PREDICTED BY IDOCK:   -4.07 KCAL/MOL
REMARK 922        TOTAL FREE ENERGY PREDICTED BY IDOCK:   -7.52 KCAL/MOL
REMARK 923 INTER-LIGAND FREE ENERGY PREDICTED BY IDOCK:   -6.91 KCAL/MOL
REMARK 924 INTRA-LIGAND FREE ENERGY PREDICTED BY IDOCK:   -0.61 KCAL/MOL
REMARK 927      BINDING AFFINITY PREDICTED BY RF-SCORE:    0.00 PKD
ROOT
HETATM    1  C   UNL     1      -9.977   9.255  70.839  1.00  0.00    -0.367 C  
HETATM    2  C   UNL     1     -11.359   9.458  70.207  1.00  0.00    -0.220 C  
ENDROOT
BRANCH   2   3
HETATM    3  C   UNL     1     -12.032  10.689  70.856  1.00  0.00    -0.469 C  
BRANCH   3   4
HETATM    4  C   UNL     1     -11.905  11.969  70.023  1.00  0.00    -0.392 C  
BRANCH   4   5
HETATM    5  C   UNL     1     -12.530  13.157  70.720  1.00  0.00    -0.389 A  
HETATM    6  C   UNL     1     -13.310  12.988  71.872  1.00  0.00    -0.539 A  
HETATM    7  C   UNL     1     -13.883  14.090  72.507  1.00  0.00    -0.610 A  
HETATM    8  C   UNL     1     -12.324  14.454  70.228  1.00  0.00    -0.410 A  
HETATM    9  C   UNL     1     -13.680  15.374  72.003  1.00  0.00    -0.613 A  
HETATM   10  C   UNL     1     -12.898  15.555  70.864  1.00  0.00    -0.535 A  
ENDBRANCH   4   5
ENDBRANCH   3   4
ENDBRANCH   2   3
BRANCH   2  11
HETATM   11  N   UNL     1     -11.289   9.638  68.752  1.00  0.00    -0.473 NA 
HETATM   12  H   UNL     1     -11.822  10.459  68.466  1.00  0.00     0.000 HD 
BRANCH  11  13
HETATM   13  C   UNL     1      -9.920   9.704  68.222  1.00  0.00    -0.155 C  
BRANCH  13  14
HETATM   14  C   UNL     1      -9.887  10.218  66.758  1.00  0.00    -0.197 C  
HETATM   15  H   UNL     1      -9.119  11.756  65.815  1.00  0.00     0.000 HD 
HETATM   16  O   UNL     1      -9.138  11.441  66.711  1.00  0.00    -0.166 OA 
BRANCH  14  17
HETATM   17  C   UNL     1      -9.312   9.182  65.799  1.00  0.00    -0.309 A  
HETATM   18  C   UNL     1      -8.637   6.884  65.257  1.00  0.00    -0.006 A  
HETATM   19  H   UNL     1      -7.094   6.845  62.334  1.00  0.00     0.000 HD 
HETATM   20  C   UNL     1      -8.123   7.338  64.038  1.00  0.00    -0.021 A  
HETATM   21  C   UNL     1      -8.228   8.676  63.675  1.00  0.00    -0.148 A  
HETATM   22  O   UNL     1      -7.443   6.537  63.162  1.00  0.00    -0.060 OA 
HETATM   23  C   UNL     1      -8.802   9.596  64.558  1.00  0.00    -0.257 A  
HETATM   24  C   UNL     1      -9.228   7.817  66.129  1.00  0.00    -0.182 A  
BRANCH  18  25
HETATM   25  C   UNL     1      -8.570   5.465  65.717  1.00  0.00    -0.139 C  
HETATM   26  O   UNL     1      -7.507   4.919  65.982  1.00  0.00    -0.080 OA 
HETATM   27  H1  UNL     1      -9.699   3.806  66.170  1.00  0.00     0.000 HD 
HETATM   28  H2  UNL     1     -10.640   5.219  65.652  1.00  0.00     0.000 HD 
HETATM   29  N   UNL     1      -9.745   4.776  65.856  1.00  0.00    -0.178 N  
ENDBRANCH  18  25
ENDBRANCH  14  17
ENDBRANCH  13  14
ENDBRANCH  11  13
ENDBRANCH   2  11
TORSDOF 8
ENDMDL
MODEL      251
REMARK 921   NORMALIZED FREE ENERGY PREDICTED BY IDOCK:   -4.07 KCAL/MOL
REMARK 922        TOTAL FREE ENERGY PREDICTED BY IDOCK:   -7.52 KCAL/MOL
REMARK 923 INTER-LIGAND FREE ENERGY PREDICTED BY IDOCK:   -7.24 KCAL/MOL
REMARK 924 INTRA-LIGAND FREE ENERGY PREDICTED BY IDOCK:   -0.29 KCAL/MOL
REMARK 927      BINDING AFFINITY PREDICTED BY RF-SCORE:    0.00 PKD
ROOT
HETATM    1  C   UNL     1     -10.402  13.070  67.259  1.00  0.00    -0.238 C  
HETATM    2  C   UNL     1      -8.940  13.284  67.670  1.00  0.00    -0.199 C  
ENDROOT
BRANCH   2   3
HETATM    3  C   UNL     1      -8.760  14.745  68.140  1.00  0.00    -0.168 C  
BRANCH   3   4
HETATM    4  C   UNL     1      -8.491  15.729  66.995  1.00  0.00    -0.251 C  
BRANCH   4   5
HETATM    5  C   UNL     1      -9.082  17.092  67.276  1.00  0.00    -0.227 A  
HETATM    6  C   UNL     1     -10.085  17.624  66.454  1.00  0.00    -0.356 A  
HETATM    7  C   UNL     1     -10.625  18.884  66.720  1.00  0.00    -0.480 A  
HETATM    8  C   UNL     1      -8.643  17.841  68.377  1.00  0.00    -0.292 A  
HETATM    9  C   UNL     1     -10.174  19.624  67.812  1.00  0.00    -0.565 A  
HETATM   10  C   UNL     1      -9.184  19.100  68.642  1.00  0.00    -0.429 A  
ENDBRANCH   4   5
ENDBRANCH   3   4
ENDBRANCH   2   3
BRANCH   2  11
HETATM   11  N   UNL     1      -8.516  12.363  68.731  1.00  0.00    -0.360 NA 
HETATM   12  H   UNL     1      -8.762  12.735  69.648  1.00  0.00     0.000 HD 
BRANCH  11  13
HETATM   13  C   UNL     1      -9.028  10.994  68.575  1.00  0.00    -0.163 C  
BRANCH  13  14
HETATM   14  C   UNL     1      -8.261   9.982  69.469  1.00  0.00    -0.167 C  
HETATM   15  H   UNL     1      -6.724  10.050  70.684  1.00  0.00     0.000 HD 
HETATM   16  O   UNL     1      -7.193  10.669  70.138  1.00  0.00    -0.169 OA 
BRANCH  14  17
HETATM   17  C   UNL     1      -9.179   9.287  70.467  1.00  0.00    -0.311 A  
HETATM   18  C   UNL     1     -11.358   9.019  71.570  1.00  0.00    -0.416 A  
HETATM   19  H   UNL     1     -11.089   6.825  74.028  1.00  0.00     0.000 HD 
HETATM   20  C   UNL     1     -10.794   8.058  72.416  1.00  0.00    -0.327 A  
HETATM   21  C   UNL     1      -9.463   7.680  72.277  1.00  0.00    -0.209 A  
HETATM   22  O   UNL     1     -11.471   7.477  73.453  1.00  0.00    -0.185 OA 
HETATM   23  C   UNL     1      -8.656   8.305  71.322  1.00  0.00    -0.179 A  
HETATM   24  C   UNL     1     -10.539   9.627  70.601  1.00  0.00    -0.386 A  
BRANCH  18  25
HETATM   25  C   UNL     1     -12.777   9.474  71.649  1.00  0.00    -0.388 C  
HETATM   26  O   UNL     1     -13.540   9.070  72.518  1.00  0.00    -0.461 OA 
HETATM   27  H1  UNL     1     -14.186  10.695  70.779  1.00  0.00     0.000 HD 
HETATM   28  H2  UNL     1     -12.590  10.740  70.002  1.00  0.00     0.000 HD 
HETATM   29  N   UNL     1     -13.216  10.384  70.725  1.00  0.00    -0.311 N  
ENDBRANCH  18  25
ENDBRANCH  14  17
ENDBRANCH  13  14
ENDBRANCH  11  13
ENDBRANCH   2  11
TORSDOF 8
ENDMDL
MODEL      252
REMARK 921   NORMALIZED FREE ENERGY PREDICTED BY IDOCK:   -4.04 KCAL/MOL
REMARK 922        TOTAL FREE ENERGY PREDICTED BY IDOCK:   -7.49 KCAL/MOL
REMARK 923 INTER-LIGAND FREE ENERGY PREDICTED BY IDOCK:   -6.04 KCAL/MOL
REMARK 924 INTRA-LIGAND FREE ENERGY PREDICTED BY IDOCK:   -1.45 KCAL/MOL
REMARK 927      BINDING AFFINITY PREDICTED BY RF-SCORE:    0.00 PKD
ROOT
HETATM    1  C   UNL     1      -9.085  10.549  62.484  1.00  0.00    -0.317 C  
HETATM    2  C   UNL     1      -9.376  10.588  63.989  1.00  0.00    -0.267 C  
ENDROOT
BRANCH   2   3
HETATM    3  C   UNL     1     -10.737  11.284  64.219  1.00  0.00    -0.416 C  
BRANCH   3   4
HETATM    4  C   UNL     1     -10.613  12.762  64.606  1.00  0.00    -0.371 C  
BRANCH   4   5
HETATM    5  C   UNL     1     -10.737  12.964  66.099  1.00  0.00    -0.290 A  
HETATM    6  C   UNL     1     -11.961  13.325  66.678  1.00  0.00    -0.446 A  
HETATM    7  C   UNL     1     -12.065  13.509  68.058  1.00  0.00    -0.298 A  
HETATM    8  C   UNL     1      -9.624  12.777  66.932  1.00  0.00    -0.235 A  
HETATM    9  C   UNL     1     -10.950  13.330  68.875  1.00  0.00    -0.278 A  
HETATM   10  C   UNL     1      -9.730  12.962  68.312  1.00  0.00    -0.217 A  
ENDBRANCH   4   5
ENDBRANCH   3   4
ENDBRANCH   2   3
BRANCH   2  11
HETATM   11  N   UNL     1      -9.392   9.251  64.592  1.00  0.00    -0.435 NA 
HETATM   12  H   UNL     1      -8.661   8.666  64.187  1.00  0.00     0.000 HD 
BRANCH  11  13
HETATM   13  C   UNL     1      -9.296   9.255  66.059  1.00  0.00    -0.223 C  
BRANCH  13  14
HETATM   14  C   UNL     1     -10.343   8.313  66.712  1.00  0.00    -0.290 C  
HETATM   15  H   UNL     1     -10.690   6.383  66.736  1.00  0.00     0.000 HD 
HETATM   16  O   UNL     1     -10.049   6.960  66.337  1.00  0.00    -0.108 OA 
BRANCH  14  17
HETATM   17  C   UNL     1     -10.388   8.468  68.227  1.00  0.00    -0.246 A  
HETATM   18  C   UNL     1      -9.845   7.687  70.492  1.00  0.00    -0.183 A  
HETATM   19  H   UNL     1     -11.378   9.595  72.715  1.00  0.00     0.000 HD 
HETATM   20  C   UNL     1     -10.611   8.732  71.020  1.00  0.00    -0.230 A  
HETATM   21  C   UNL     1     -11.226   9.657  70.183  1.00  0.00    -0.302 A  
HETATM   22  O   UNL     1     -10.858   8.886  72.357  1.00  0.00    -0.272 OA 
HETATM   23  C   UNL     1     -11.131   9.514  68.795  1.00  0.00    -0.044 A  
HETATM   24  C   UNL     1      -9.743   7.566  69.094  1.00  0.00    -0.166 A  
BRANCH  18  25
HETATM   25  C   UNL     1      -9.150   6.659  71.321  1.00  0.00    -0.151 C  
HETATM   26  O   UNL     1      -8.249   6.953  72.097  1.00  0.00    -0.105 OA 
HETATM   27  H1  UNL     1      -9.080   4.654  71.774  1.00  0.00     0.000 HD 
HETATM   28  H2  UNL     1     -10.311   5.096  70.575  1.00  0.00     0.000 HD 
HETATM   29  N   UNL     1      -9.555   5.357  71.208  1.00  0.00    -0.153 N  
ENDBRANCH  18  25
ENDBRANCH  14  17
ENDBRANCH  13  14
ENDBRANCH  11  13
ENDBRANCH   2  11
TORSDOF 8
ENDMDL
MODEL      253
REMARK 921   NORMALIZED FREE ENERGY PREDICTED BY IDOCK:   -4.04 KCAL/MOL
REMARK 922        TOTAL FREE ENERGY PREDICTED BY IDOCK:   -7.48 KCAL/MOL
REMARK 923 INTER-LIGAND FREE ENERGY PREDICTED BY IDOCK:   -6.52 KCAL/MOL
REMARK 924 INTRA-LIGAND FREE ENERGY PREDICTED BY IDOCK:   -0.96 KCAL/MOL
REMARK 927      BINDING AFFINITY PREDICTED BY RF-SCORE:    0.00 PKD
ROOT
HETATM    1  C   UNL     1      -8.674  14.293  67.271  1.00  0.00    -0.230 C  
HETATM    2  C   UNL     1      -9.905  14.090  68.163  1.00  0.00    -0.235 C  
ENDROOT
BRANCH   2   3
HETATM    3  C   UNL     1     -10.147  15.376  68.986  1.00  0.00    -0.234 C  
BRANCH   3   4
HETATM    4  C   UNL     1     -11.617  15.807  69.034  1.00  0.00    -0.406 C  
BRANCH   4   5
HETATM    5  C   UNL     1     -12.242  15.524  70.381  1.00  0.00    -0.443 A  
HETATM    6  C   UNL     1     -11.452  15.427  71.535  1.00  0.00    -0.478 A  
HETATM    7  C   UNL     1     -12.037  15.165  72.775  1.00  0.00    -0.486 A  
HETATM    8  C   UNL     1     -13.631  15.369  70.498  1.00  0.00     0.026 A  
HETATM    9  C   UNL     1     -13.418  15.003  72.877  1.00  0.00    -0.565 A  
HETATM   10  C   UNL     1     -14.215  15.107  71.739  1.00  0.00    -0.674 A  
ENDBRANCH   4   5
ENDBRANCH   3   4
ENDBRANCH   2   3
BRANCH   2  11
HETATM   11  N   UNL     1     -11.109  13.759  67.391  1.00  0.00    -0.290 NA 
HETATM   12  H   UNL     1     -11.212  14.393  66.599  1.00  0.00     0.000 HD 
BRANCH  11  13
HETATM   13  C   UNL     1     -11.165  12.360  66.942  1.00  0.00    -0.305 C  
BRANCH  13  14
HETATM   14  C   UNL     1     -10.907  11.366  68.106  1.00  0.00    -0.213 C  
HETATM   15  H   UNL     1     -12.009  10.362  69.380  1.00  0.00     0.000 HD 
HETATM   16  O   UNL     1     -12.167  10.970  68.667  1.00  0.00    -0.571 OA 
BRANCH  14  17
HETATM   17  C   UNL     1     -10.099  10.155  67.658  1.00  0.00    -0.231 A  
HETATM   18  C   UNL     1      -8.096   9.150  66.651  1.00  0.00    -0.111 A  
HETATM   19  H   UNL     1      -8.564   5.900  66.269  1.00  0.00     0.000 HD 
HETATM   20  C   UNL     1      -8.706   7.893  66.729  1.00  0.00    -0.134 A  
HETATM   21  C   UNL     1      -9.969   7.749  67.291  1.00  0.00    -0.277 A  
HETATM   22  O   UNL     1      -8.150   6.753  66.216  1.00  0.00    -0.104 OA 
HETATM   23  C   UNL     1     -10.669   8.874  67.735  1.00  0.00    -0.204 A  
HETATM   24  C   UNL     1      -8.804  10.273  67.118  1.00  0.00    -0.141 A  
BRANCH  18  25
HETATM   25  C   UNL     1      -6.743   9.388  66.069  1.00  0.00    -0.081 C  
HETATM   26  O   UNL     1      -6.548   9.388  64.860  1.00  0.00    -0.077 OA 
HETATM   27  H1  UNL     1      -4.779   9.793  66.530  1.00  0.00     0.000 HD 
HETATM   28  H2  UNL     1      -5.851   9.646  67.937  1.00  0.00     0.000 HD 
HETATM   29  N   UNL     1      -5.704   9.630  66.928  1.00  0.00    -0.050 N  
ENDBRANCH  18  25
ENDBRANCH  14  17
ENDBRANCH  13  14
ENDBRANCH  11  13
ENDBRANCH   2  11
TORSDOF 8
ENDMDL
MODEL      254
REMARK 921   NORMALIZED FREE ENERGY PREDICTED BY IDOCK:   -4.03 KCAL/MOL
REMARK 922        TOTAL FREE ENERGY PREDICTED BY IDOCK:   -7.47 KCAL/MOL
REMARK 923 INTER-LIGAND FREE ENERGY PREDICTED BY IDOCK:   -6.84 KCAL/MOL
REMARK 924 INTRA-LIGAND FREE ENERGY PREDICTED BY IDOCK:   -0.64 KCAL/MOL
REMARK 927      BINDING AFFINITY PREDICTED BY RF-SCORE:    0.00 PKD
ROOT
HETATM    1  C   UNL     1      -8.913  14.513  66.536  1.00  0.00    -0.211 C  
HETATM    2  C   UNL     1      -7.997  14.176  67.718  1.00  0.00    -0.170 C  
ENDROOT
BRANCH   2   3
HETATM    3  C   UNL     1      -7.448  15.491  68.319  1.00  0.00    -0.116 C  
BRANCH   3   4
HETATM    4  C   UNL     1      -8.125  16.749  67.763  1.00  0.00    -0.186 C  
BRANCH   4   5
HETATM    5  C   UNL     1      -7.253  17.973  67.923  1.00  0.00    -0.222 A  
HETATM    6  C   UNL     1      -7.022  18.533  69.187  1.00  0.00    -0.263 A  
HETATM    7  C   UNL     1      -6.215  19.664  69.324  1.00  0.00    -0.337 A  
HETATM    8  C   UNL     1      -6.648  18.561  66.803  1.00  0.00    -0.208 A  
HETATM    9  C   UNL     1      -5.627  20.246  68.202  1.00  0.00    -0.253 A  
HETATM   10  C   UNL     1      -5.842  19.692  66.941  1.00  0.00    -0.173 A  
ENDBRANCH   4   5
ENDBRANCH   3   4
ENDBRANCH   2   3
BRANCH   2  11
HETATM   11  N   UNL     1      -8.685  13.402  68.758  1.00  0.00    -0.371 NA 
HETATM   12  H   UNL     1      -9.196  14.021  69.386  1.00  0.00     0.000 HD 
BRANCH  11  13
HETATM   13  C   UNL     1      -9.570  12.352  68.235  1.00  0.00    -0.211 C  
BRANCH  13  14
HETATM   14  C   UNL     1     -11.047  12.572  68.662  1.00  0.00    -0.265 C  
HETATM   15  H   UNL     1     -12.787  12.628  67.761  1.00  0.00     0.000 HD 
HETATM   16  O   UNL     1     -11.884  12.494  67.500  1.00  0.00    -0.374 OA 
BRANCH  14  17
HETATM   17  C   UNL     1     -11.489  11.576  69.728  1.00  0.00    -0.362 A  
HETATM   18  C   UNL     1     -11.433   9.343  70.750  1.00  0.00    -0.364 A  
HETATM   19  H   UNL     1     -13.713   9.164  73.138  1.00  0.00     0.000 HD 
HETATM   20  C   UNL     1     -12.438   9.741  71.638  1.00  0.00    -0.410 A  
HETATM   21  C   UNL     1     -12.941  11.037  71.610  1.00  0.00    -0.561 A  
HETATM   22  O   UNL     1     -13.030   8.894  72.535  1.00  0.00    -0.418 OA 
HETATM   23  C   UNL     1     -12.483  11.943  70.648  1.00  0.00    -0.347 A  
HETATM   24  C   UNL     1     -10.969  10.270  69.799  1.00  0.00    -0.338 A  
BRANCH  18  25
HETATM   25  C   UNL     1     -10.838   7.975  70.720  1.00  0.00    -0.232 C  
HETATM   26  O   UNL     1     -11.329   7.068  70.061  1.00  0.00    -0.281 OA 
HETATM   27  H1  UNL     1      -9.289   6.817  71.423  1.00  0.00     0.000 HD 
HETATM   28  H2  UNL     1      -9.267   8.499  71.988  1.00  0.00     0.000 HD 
HETATM   29  N   UNL     1      -9.697   7.752  71.443  1.00  0.00    -0.165 N  
ENDBRANCH  18  25
ENDBRANCH  14  17
ENDBRANCH  13  14
ENDBRANCH  11  13
ENDBRANCH   2  11
TORSDOF 8
ENDMDL
MODEL      255
REMARK 921   NORMALIZED FREE ENERGY PREDICTED BY IDOCK:   -4.03 KCAL/MOL
REMARK 922        TOTAL FREE ENERGY PREDICTED BY IDOCK:   -7.46 KCAL/MOL
REMARK 923 INTER-LIGAND FREE ENERGY PREDICTED BY IDOCK:   -6.21 KCAL/MOL
REMARK 924 INTRA-LIGAND FREE ENERGY PREDICTED BY IDOCK:   -1.25 KCAL/MOL
REMARK 927      BINDING AFFINITY PREDICTED BY RF-SCORE:    0.00 PKD
ROOT
HETATM    1  C   UNL     1     -12.397  12.756  65.879  1.00  0.00    -0.319 C  
HETATM    2  C   UNL     1     -10.958  13.031  66.329  1.00  0.00    -0.284 C  
ENDROOT
BRANCH   2   3
HETATM    3  C   UNL     1     -10.667  12.215  67.609  1.00  0.00    -0.252 C  
BRANCH   3   4
HETATM    4  C   UNL     1     -11.157  12.892  68.893  1.00  0.00    -0.301 C  
BRANCH   4   5
HETATM    5  C   UNL     1     -11.627  11.883  69.916  1.00  0.00    -0.333 A  
HETATM    6  C   UNL     1     -12.621  12.212  70.849  1.00  0.00    -0.340 A  
HETATM    7  C   UNL     1     -13.048  11.274  71.790  1.00  0.00    -0.527 A  
HETATM    8  C   UNL     1     -11.082  10.591  69.937  1.00  0.00    -0.371 A  
HETATM    9  C   UNL     1     -12.492   9.995  71.807  1.00  0.00    -0.475 A  
HETATM   10  C   UNL     1     -11.510   9.654  70.879  1.00  0.00    -0.427 A  
ENDBRANCH   4   5
ENDBRANCH   3   4
ENDBRANCH   2   3
BRANCH   2  11
HETATM   11  N   UNL     1      -9.973  12.701  65.292  1.00  0.00    -0.416 NA 
HETATM   12  H   UNL     1      -9.398  13.514  65.072  1.00  0.00     0.000 HD 
BRANCH  11  13
HETATM   13  C   UNL     1      -9.126  11.544  65.618  1.00  0.00    -0.126 C  
BRANCH  13  14
HETATM   14  C   UNL     1      -9.740  10.213  65.107  1.00  0.00    -0.304 C  
HETATM   15  H   UNL     1      -9.622   9.136  63.472  1.00  0.00     0.000 HD 
HETATM   16  O   UNL     1      -9.247   9.951  63.786  1.00  0.00    -0.256 OA 
BRANCH  14  17
HETATM   17  C   UNL     1      -9.447   9.048  66.046  1.00  0.00    -0.323 A  
HETATM   18  C   UNL     1      -7.957   7.297  66.910  1.00  0.00    -0.112 A  
HETATM   19  H   UNL     1      -9.625   5.368  69.014  1.00  0.00     0.000 HD 
HETATM   20  C   UNL     1      -9.004   6.822  67.708  1.00  0.00    -0.116 A  
HETATM   21  C   UNL     1     -10.240   7.459  67.714  1.00  0.00    -0.250 A  
HETATM   22  O   UNL     1      -8.915   5.691  68.473  1.00  0.00    -0.115 OA 
HETATM   23  C   UNL     1     -10.466   8.553  66.874  1.00  0.00    -0.345 A  
HETATM   24  C   UNL     1      -8.193   8.411  66.083  1.00  0.00    -0.113 A  
BRANCH  18  25
HETATM   25  C   UNL     1      -6.602   6.675  66.851  1.00  0.00    -0.048 C  
HETATM   26  O   UNL     1      -6.323   5.804  66.037  1.00  0.00    -0.036 OA 
HETATM   27  H1  UNL     1      -4.724   6.692  67.690  1.00  0.00     0.000 HD 
HETATM   28  H2  UNL     1      -5.861   7.850  68.407  1.00  0.00     0.000 HD 
HETATM   29  N   UNL     1      -5.650   7.117  67.730  1.00  0.00    -0.023 N  
ENDBRANCH  18  25
ENDBRANCH  14  17
ENDBRANCH  13  14
ENDBRANCH  11  13
ENDBRANCH   2  11
TORSDOF 8
ENDMDL
MODEL      256
REMARK 921   NORMALIZED FREE ENERGY PREDICTED BY IDOCK:   -4.02 KCAL/MOL
REMARK 922        TOTAL FREE ENERGY PREDICTED BY IDOCK:   -7.46 KCAL/MOL
REMARK 923 INTER-LIGAND FREE ENERGY PREDICTED BY IDOCK:   -6.65 KCAL/MOL
REMARK 924 INTRA-LIGAND FREE ENERGY PREDICTED BY IDOCK:   -0.81 KCAL/MOL
REMARK 927      BINDING AFFINITY PREDICTED BY RF-SCORE:    0.00 PKD
ROOT
HETATM    1  C   UNL     1     -12.529  12.604  62.982  1.00  0.00     0.008 C  
HETATM    2  C   UNL     1     -11.804  12.187  64.268  1.00  0.00    -0.378 C  
ENDROOT
BRANCH   2   3
HETATM    3  C   UNL     1     -10.279  12.304  64.044  1.00  0.00    -0.399 C  
BRANCH   3   4
HETATM    4  C   UNL     1      -9.757  11.425  62.902  1.00  0.00    -0.344 C  
BRANCH   4   5
HETATM    5  C   UNL     1      -9.166  10.131  63.415  1.00  0.00    -0.324 A  
HETATM    6  C   UNL     1      -8.657   9.172  62.529  1.00  0.00    -0.220 A  
HETATM    7  C   UNL     1      -8.114   7.979  63.011  1.00  0.00    -0.120 A  
HETATM    8  C   UNL     1      -9.106   9.877  64.792  1.00  0.00    -0.283 A  
HETATM    9  C   UNL     1      -8.069   7.734  64.383  1.00  0.00    -0.091 A  
HETATM   10  C   UNL     1      -8.563   8.685  65.273  1.00  0.00    -0.206 A  
ENDBRANCH   4   5
ENDBRANCH   3   4
ENDBRANCH   2   3
BRANCH   2  11
HETATM   11  N   UNL     1     -12.202  12.998  65.424  1.00  0.00    -0.446 NA 
HETATM   12  H   UNL     1     -13.208  12.939  65.575  1.00  0.00     0.000 HD 
BRANCH  11  13
HETATM   13  C   UNL     1     -11.476  12.674  66.661  1.00  0.00    -0.351 C  
BRANCH  13  14
HETATM   14  C   UNL     1     -11.921  13.571  67.847  1.00  0.00    -0.337 C  
HETATM   15  H   UNL     1     -12.388  13.295  69.732  1.00  0.00     0.000 HD 
HETATM   16  O   UNL     1     -12.116  12.746  69.005  1.00  0.00    -0.262 OA 
BRANCH  14  17
HETATM   17  C   UNL     1     -10.922  14.687  68.128  1.00  0.00    -0.269 A  
HETATM   18  C   UNL     1      -9.709  16.716  67.459  1.00  0.00    -0.247 A  
HETATM   19  H   UNL     1      -7.443  17.454  69.751  1.00  0.00     0.000 HD 
HETATM   20  C   UNL     1      -8.974  16.650  68.648  1.00  0.00    -0.246 A  
HETATM   21  C   UNL     1      -9.222  15.652  69.584  1.00  0.00    -0.189 A  
HETATM   22  O   UNL     1      -7.943  17.499  68.944  1.00  0.00    -0.257 OA 
HETATM   23  C   UNL     1     -10.177  14.666  69.318  1.00  0.00    -0.156 A  
HETATM   24  C   UNL     1     -10.679  15.727  67.212  1.00  0.00    -0.313 A  
BRANCH  18  25
HETATM   25  C   UNL     1      -9.508  17.756  66.408  1.00  0.00    -0.264 C  
HETATM   26  O   UNL     1      -8.504  17.785  65.708  1.00  0.00    -0.519 OA 
HETATM   27  H1  UNL     1     -10.358  19.398  65.506  1.00  0.00     0.000 HD 
HETATM   28  H2  UNL     1     -11.344  18.670  66.790  1.00  0.00     0.000 HD 
HETATM   29  N   UNL     1     -10.496  18.686  66.224  1.00  0.00    -0.434 N  
ENDBRANCH  18  25
ENDBRANCH  14  17
ENDBRANCH  13  14
ENDBRANCH  11  13
ENDBRANCH   2  11
TORSDOF 8
ENDMDL
MODEL      257
REMARK 921   NORMALIZED FREE ENERGY PREDICTED BY IDOCK:   -4.02 KCAL/MOL
REMARK 922        TOTAL FREE ENERGY PREDICTED BY IDOCK:   -7.45 KCAL/MOL
REMARK 923 INTER-LIGAND FREE ENERGY PREDICTED BY IDOCK:   -6.77 KCAL/MOL
REMARK 924 INTRA-LIGAND FREE ENERGY PREDICTED BY IDOCK:   -0.67 KCAL/MOL
REMARK 927      BINDING AFFINITY PREDICTED BY RF-SCORE:    0.00 PKD
ROOT
HETATM    1  C   UNL     1     -12.483  13.988  70.703  1.00  0.00    -0.435 C  
HETATM    2  C   UNL     1     -11.617  13.521  69.526  1.00  0.00    -0.294 C  
ENDROOT
BRANCH   2   3
HETATM    3  C   UNL     1     -11.967  12.052  69.197  1.00  0.00    -0.326 C  
BRANCH   3   4
HETATM    4  C   UNL     1     -12.336  11.218  70.429  1.00  0.00    -0.415 C  
BRANCH   4   5
HETATM    5  C   UNL     1     -11.312  10.141  70.705  1.00  0.00    -0.436 A  
HETATM    6  C   UNL     1     -11.536   9.170  71.691  1.00  0.00    -0.449 A  
HETATM    7  C   UNL     1     -10.585   8.179  71.940  1.00  0.00    -0.324 A  
HETATM    8  C   UNL     1     -10.122  10.089  69.965  1.00  0.00    -0.289 A  
HETATM    9  C   UNL     1      -9.401   8.143  71.203  1.00  0.00    -0.187 A  
HETATM   10  C   UNL     1      -9.172   9.098  70.214  1.00  0.00    -0.249 A  
ENDBRANCH   4   5
ENDBRANCH   3   4
ENDBRANCH   2   3
BRANCH   2  11
HETATM   11  N   UNL     1     -11.796  14.355  68.332  1.00  0.00    -0.407 NA 
HETATM   12  H   UNL     1     -12.704  14.178  67.904  1.00  0.00     0.000 HD 
BRANCH  11  13
HETATM   13  C   UNL     1     -11.613  15.793  68.575  1.00  0.00    -0.362 C  
BRANCH  13  14
HETATM   14  C   UNL     1     -10.643  16.436  67.546  1.00  0.00    -0.309 C  
HETATM   15  H   UNL     1     -10.317  18.238  66.844  1.00  0.00     0.000 HD 
HETATM   16  O   UNL     1     -10.910  17.844  67.474  1.00  0.00    -0.364 OA 
BRANCH  14  17
HETATM   17  C   UNL     1      -9.183  16.169  67.889  1.00  0.00    -0.200 A  
HETATM   18  C   UNL     1      -6.993  16.907  68.723  1.00  0.00    -0.204 A  
HETATM   19  H   UNL     1      -4.770  14.503  68.264  1.00  0.00     0.000 HD 
HETATM   20  C   UNL     1      -6.460  15.659  68.383  1.00  0.00    -0.113 A  
HETATM   21  C   UNL     1      -7.267  14.663  67.843  1.00  0.00    -0.171 A  
HETATM   22  O   UNL     1      -5.132  15.351  68.495  1.00  0.00    -0.088 OA 
HETATM   23  C   UNL     1      -8.615  14.923  67.580  1.00  0.00    -0.195 A  
HETATM   24  C   UNL     1      -8.356  17.149  68.470  1.00  0.00    -0.262 A  
BRANCH  18  25
HETATM   25  C   UNL     1      -6.197  18.023  69.312  1.00  0.00    -0.244 C  
HETATM   26  O   UNL     1      -6.090  19.108  68.754  1.00  0.00    -0.219 OA 
HETATM   27  H1  UNL     1      -5.047  18.579  70.925  1.00  0.00     0.000 HD 
HETATM   28  H2  UNL     1      -5.680  16.923  71.007  1.00  0.00     0.000 HD 
HETATM   29  N   UNL     1      -5.591  17.816  70.522  1.00  0.00    -0.232 N  
ENDBRANCH  18  25
ENDBRANCH  14  17
ENDBRANCH  13  14
ENDBRANCH  11  13
ENDBRANCH   2  11
TORSDOF 8
ENDMDL
MODEL      258
REMARK 921   NORMALIZED FREE ENERGY PREDICTED BY IDOCK:   -4.01 KCAL/MOL
REMARK 922        TOTAL FREE ENERGY PREDICTED BY IDOCK:   -7.44 KCAL/MOL
REMARK 923 INTER-LIGAND FREE ENERGY PREDICTED BY IDOCK:   -4.79 KCAL/MOL
REMARK 924 INTRA-LIGAND FREE ENERGY PREDICTED BY IDOCK:   -2.66 KCAL/MOL
REMARK 927      BINDING AFFINITY PREDICTED BY RF-SCORE:    0.00 PKD
ROOT
HETATM    1  C   UNL     1     -11.671  12.713  64.992  1.00  0.00    -0.401 C  
HETATM    2  C   UNL     1     -10.242  12.348  65.415  1.00  0.00    -0.278 C  
ENDROOT
BRANCH   2   3
HETATM    3  C   UNL     1     -10.303  11.484  66.695  1.00  0.00    -0.262 C  
BRANCH   3   4
HETATM    4  C   UNL     1      -9.104  11.683  67.628  1.00  0.00    -0.174 C  
BRANCH   4   5
HETATM    5  C   UNL     1      -9.102  10.684  68.763  1.00  0.00    -0.170 A  
HETATM    6  C   UNL     1     -10.273  10.004  69.125  1.00  0.00    -0.224 A  
HETATM    7  C   UNL     1     -10.263   9.084  70.175  1.00  0.00    -0.224 A  
HETATM    8  C   UNL     1      -7.919  10.412  69.464  1.00  0.00    -0.152 A  
HETATM    9  C   UNL     1      -9.082   8.828  70.871  1.00  0.00    -0.256 A  
HETATM   10  C   UNL     1      -7.909   9.491  70.513  1.00  0.00    -0.182 A  
ENDBRANCH   4   5
ENDBRANCH   3   4
ENDBRANCH   2   3
BRANCH   2  11
HETATM   11  N   UNL     1      -9.511  11.632  64.364  1.00  0.00    -0.426 NA 
HETATM   12  H   UNL     1      -8.534  11.923  64.345  1.00  0.00     0.000 HD 
BRANCH  11  13
HETATM   13  C   UNL     1      -9.611  10.168  64.457  1.00  0.00    -0.311 C  
BRANCH  13  14
HETATM   14  C   UNL     1      -8.215   9.496  64.546  1.00  0.00    -0.152 C  
HETATM   15  H   UNL     1      -6.359  10.105  64.723  1.00  0.00     0.000 HD 
HETATM   16  O   UNL     1      -7.214  10.516  64.669  1.00  0.00    -0.065 OA 
BRANCH  14  17
HETATM   17  C   UNL     1      -8.130   8.500  65.697  1.00  0.00    -0.119 A  
HETATM   18  C   UNL     1      -9.114   6.752  67.114  1.00  0.00    -0.130 A  
HETATM   19  H   UNL     1      -7.053   6.057  69.603  1.00  0.00     0.000 HD 
HETATM   20  C   UNL     1      -7.966   6.773  67.912  1.00  0.00    -0.114 A  
HETATM   21  C   UNL     1      -6.897   7.606  67.600  1.00  0.00    -0.069 A  
HETATM   22  O   UNL     1      -7.833   6.043  69.061  1.00  0.00    -0.093 OA 
HETATM   23  C   UNL     1      -6.986   8.478  66.511  1.00  0.00    -0.075 A  
HETATM   24  C   UNL     1      -9.184   7.622  66.010  1.00  0.00    -0.118 A  
BRANCH  18  25
HETATM   25  C   UNL     1     -10.299   5.884  67.377  1.00  0.00    -0.220 C  
HETATM   26  O   UNL     1     -10.506   4.858  66.740  1.00  0.00    -0.243 OA 
HETATM   27  H1  UNL     1     -11.971   5.659  68.555  1.00  0.00     0.000 HD 
HETATM   28  H2  UNL     1     -10.998   7.097  68.923  1.00  0.00     0.000 HD 
HETATM   29  N   UNL     1     -11.161   6.253  68.375  1.00  0.00    -0.329 N  
ENDBRANCH  18  25
ENDBRANCH  14  17
ENDBRANCH  13  14
ENDBRANCH  11  13
ENDBRANCH   2  11
TORSDOF 8
ENDMDL
MODEL      259
REMARK 921   NORMALIZED FREE ENERGY PREDICTED BY IDOCK:   -3.99 KCAL/MOL
REMARK 922        TOTAL FREE ENERGY PREDICTED BY IDOCK:   -7.42 KCAL/MOL
REMARK 923 INTER-LIGAND FREE ENERGY PREDICTED BY IDOCK:   -6.58 KCAL/MOL
REMARK 924 INTRA-LIGAND FREE ENERGY PREDICTED BY IDOCK:   -0.84 KCAL/MOL
REMARK 927      BINDING AFFINITY PREDICTED BY RF-SCORE:    0.00 PKD
ROOT
HETATM    1  C   UNL     1     -12.942  13.618  65.373  1.00  0.00    -0.331 C  
HETATM    2  C   UNL     1     -12.001  13.730  66.579  1.00  0.00    -0.434 C  
ENDROOT
BRANCH   2   3
HETATM    3  C   UNL     1     -10.627  14.250  66.097  1.00  0.00    -0.293 C  
BRANCH   3   4
HETATM    4  C   UNL     1     -10.302  13.871  64.648  1.00  0.00    -0.366 C  
BRANCH   4   5
HETATM    5  C   UNL     1      -9.808  12.446  64.537  1.00  0.00    -0.104 A  
HETATM    6  C   UNL     1      -9.924  11.735  63.335  1.00  0.00    -0.446 A  
HETATM    7  C   UNL     1      -9.466  10.420  63.242  1.00  0.00    -0.361 A  
HETATM    8  C   UNL     1      -9.209  11.817  65.639  1.00  0.00    -0.109 A  
HETATM    9  C   UNL     1      -8.882   9.802  64.347  1.00  0.00    -0.258 A  
HETATM   10  C   UNL     1      -8.752  10.502  65.544  1.00  0.00    -0.197 A  
ENDBRANCH   4   5
ENDBRANCH   3   4
ENDBRANCH   2   3
BRANCH   2  11
HETATM   11  N   UNL     1     -12.531  14.614  67.623  1.00  0.00    -0.452 NA 
HETATM   12  H   UNL     1     -13.546  14.535  67.679  1.00  0.00     0.000 HD 
BRANCH  11  13
HETATM   13  C   UNL     1     -11.924  14.408  68.946  1.00  0.00    -0.302 C  
BRANCH  13  14
HETATM   14  C   UNL     1     -11.548  15.751  69.628  1.00  0.00    -0.358 C  
HETATM   15  H   UNL     1     -10.936  16.313  71.404  1.00  0.00     0.000 HD 
HETATM   16  O   UNL     1     -11.166  15.491  70.987  1.00  0.00    -0.332 OA 
BRANCH  14  17
HETATM   17  C   UNL     1     -10.444  16.486  68.877  1.00  0.00    -0.304 A  
HETATM   18  C   UNL     1      -8.081  16.812  68.291  1.00  0.00    -0.202 A  
HETATM   19  H   UNL     1      -7.758  19.569  66.496  1.00  0.00     0.000 HD 
HETATM   20  C   UNL     1      -8.433  17.958  67.571  1.00  0.00    -0.232 A  
HETATM   21  C   UNL     1      -9.763  18.351  67.464  1.00  0.00    -0.308 A  
HETATM   22  O   UNL     1      -7.519  18.790  66.985  1.00  0.00    -0.215 OA 
HETATM   23  C   UNL     1     -10.759  17.631  68.129  1.00  0.00    -0.312 A  
HETATM   24  C   UNL     1      -9.096  16.086  68.941  1.00  0.00    -0.235 A  
BRANCH  18  25
HETATM   25  C   UNL     1      -6.681  16.320  68.448  1.00  0.00    -0.136 C  
HETATM   26  O   UNL     1      -6.272  15.851  69.503  1.00  0.00    -0.143 OA 
HETATM   27  H1  UNL     1      -4.890  16.052  67.471  1.00  0.00     0.000 HD 
HETATM   28  H2  UNL     1      -6.174  16.764  66.474  1.00  0.00     0.000 HD 
HETATM   29  N   UNL     1      -5.847  16.388  67.363  1.00  0.00    -0.151 N  
ENDBRANCH  18  25
ENDBRANCH  14  17
ENDBRANCH  13  14
ENDBRANCH  11  13
ENDBRANCH   2  11
TORSDOF 8
ENDMDL
MODEL      260
REMARK 921   NORMALIZED FREE ENERGY PREDICTED BY IDOCK:   -3.99 KCAL/MOL
REMARK 922        TOTAL FREE ENERGY PREDICTED BY IDOCK:   -7.41 KCAL/MOL
REMARK 923 INTER-LIGAND FREE ENERGY PREDICTED BY IDOCK:   -6.34 KCAL/MOL
REMARK 924 INTRA-LIGAND FREE ENERGY PREDICTED BY IDOCK:   -1.06 KCAL/MOL
REMARK 927      BINDING AFFINITY PREDICTED BY RF-SCORE:    0.00 PKD
ROOT
HETATM    1  C   UNL     1     -11.750  12.783  67.742  1.00  0.00    -0.412 C  
HETATM    2  C   UNL     1     -11.753  12.862  66.210  1.00  0.00    -0.399 C  
ENDROOT
BRANCH   2   3
HETATM    3  C   UNL     1     -11.833  14.346  65.784  1.00  0.00    -0.365 C  
BRANCH   3   4
HETATM    4  C   UNL     1     -10.473  15.052  65.760  1.00  0.00    -0.353 C  
BRANCH   4   5
HETATM    5  C   UNL     1     -10.445  16.250  66.681  1.00  0.00    -0.290 A  
HETATM    6  C   UNL     1     -10.443  17.554  66.167  1.00  0.00    -0.288 A  
HETATM    7  C   UNL     1     -10.416  18.655  67.025  1.00  0.00    -0.453 A  
HETATM    8  C   UNL     1     -10.436  16.073  68.072  1.00  0.00    -0.275 A  
HETATM    9  C   UNL     1     -10.398  18.466  68.407  1.00  0.00    -0.357 A  
HETATM   10  C   UNL     1     -10.409  17.174  68.929  1.00  0.00    -0.348 A  
ENDBRANCH   4   5
ENDBRANCH   3   4
ENDBRANCH   2   3
BRANCH   2  11
HETATM   11  N   UNL     1     -10.568  12.236  65.614  1.00  0.00    -0.252 NA 
HETATM   12  H   UNL     1      -9.748  12.829  65.738  1.00  0.00     0.000 HD 
BRANCH  11  13
HETATM   13  C   UNL     1     -10.299  10.876  66.104  1.00  0.00    -0.248 C  
BRANCH  13  14
HETATM   14  C   UNL     1      -8.838  10.717  66.603  1.00  0.00    -0.145 C  
HETATM   15  H   UNL     1      -7.261  11.874  66.756  1.00  0.00     0.000 HD 
HETATM   16  O   UNL     1      -8.156  11.971  66.451  1.00  0.00    -0.017 OA 
BRANCH  14  17
HETATM   17  C   UNL     1      -8.774  10.226  68.044  1.00  0.00    -0.122 A  
HETATM   18  C   UNL     1      -9.851   9.625  70.168  1.00  0.00    -0.310 A  
HETATM   19  H   UNL     1      -7.535   9.030  72.451  1.00  0.00     0.000 HD 
HETATM   20  C   UNL     1      -8.587   9.441  70.740  1.00  0.00    -0.145 A  
HETATM   21  C   UNL     1      -7.433   9.604  69.982  1.00  0.00    -0.142 A  
HETATM   22  O   UNL     1      -8.394   9.155  72.063  1.00  0.00    -0.321 OA 
HETATM   23  C   UNL     1      -7.525  10.013  68.648  1.00  0.00    -0.083 A  
HETATM   24  C   UNL     1      -9.930  10.019  68.820  1.00  0.00    -0.181 A  
BRANCH  18  25
HETATM   25  C   UNL     1     -11.136   9.464  70.910  1.00  0.00    -0.319 C  
HETATM   26  O   UNL     1     -11.564   8.363  71.234  1.00  0.00    -0.269 OA 
HETATM   27  H1  UNL     1     -12.713  10.483  71.751  1.00  0.00     0.000 HD 
HETATM   28  H2  UNL     1     -11.486  11.518  70.994  1.00  0.00     0.000 HD 
HETATM   29  N   UNL     1     -11.834  10.593  71.245  1.00  0.00    -0.251 N  
ENDBRANCH  18  25
ENDBRANCH  14  17
ENDBRANCH  13  14
ENDBRANCH  11  13
ENDBRANCH   2  11
TORSDOF 8
ENDMDL
MODEL      261
REMARK 921   NORMALIZED FREE ENERGY PREDICTED BY IDOCK:   -3.98 KCAL/MOL
REMARK 922        TOTAL FREE ENERGY PREDICTED BY IDOCK:   -7.40 KCAL/MOL
REMARK 923 INTER-LIGAND FREE ENERGY PREDICTED BY IDOCK:   -6.77 KCAL/MOL
REMARK 924 INTRA-LIGAND FREE ENERGY PREDICTED BY IDOCK:   -0.63 KCAL/MOL
REMARK 927      BINDING AFFINITY PREDICTED BY RF-SCORE:    0.00 PKD
ROOT
HETATM    1  C   UNL     1     -13.019  12.797  64.649  1.00  0.00    -0.231 C  
HETATM    2  C   UNL     1     -11.592  12.582  65.168  1.00  0.00    -0.353 C  
ENDROOT
BRANCH   2   3
HETATM    3  C   UNL     1     -10.645  12.374  63.964  1.00  0.00    -0.444 C  
BRANCH   3   4
HETATM    4  C   UNL     1     -10.303  10.904  63.698  1.00  0.00    -0.364 C  
BRANCH   4   5
HETATM    5  C   UNL     1      -9.528  10.291  64.842  1.00  0.00    -0.337 A  
HETATM    6  C   UNL     1     -10.183   9.843  65.998  1.00  0.00    -0.269 A  
HETATM    7  C   UNL     1      -9.459   9.280  67.049  1.00  0.00    -0.205 A  
HETATM    8  C   UNL     1      -8.136  10.149  64.757  1.00  0.00    -0.153 A  
HETATM    9  C   UNL     1      -8.073   9.152  66.957  1.00  0.00    -0.109 A  
HETATM   10  C   UNL     1      -7.413   9.585  65.809  1.00  0.00    -0.100 A  
ENDBRANCH   4   5
ENDBRANCH   3   4
ENDBRANCH   2   3
BRANCH   2  11
HETATM   11  N   UNL     1     -11.118  13.703  65.987  1.00  0.00    -0.293 NA 
HETATM   12  H   UNL     1     -11.266  13.512  66.977  1.00  0.00     0.000 HD 
BRANCH  11  13
HETATM   13  C   UNL     1      -9.718  14.077  65.737  1.00  0.00    -0.194 C  
BRANCH  13  14
HETATM   14  C   UNL     1      -9.585  15.552  65.270  1.00  0.00     0.033 C  
HETATM   15  H   UNL     1     -10.792  16.926  64.562  1.00  0.00     0.000 HD 
HETATM   16  O   UNL     1     -10.873  16.024  64.849  1.00  0.00    -0.534 OA 
BRANCH  14  17
HETATM   17  C   UNL     1      -9.000  16.447  66.356  1.00  0.00    -0.340 A  
HETATM   18  C   UNL     1      -9.043  18.483  67.729  1.00  0.00    -0.292 A  
HETATM   19  H   UNL     1      -6.263  18.675  69.508  1.00  0.00     0.000 HD 
HETATM   20  C   UNL     1      -7.806  18.124  68.274  1.00  0.00    -0.293 A  
HETATM   21  C   UNL     1      -7.184  16.935  67.907  1.00  0.00    -0.159 A  
HETATM   22  O   UNL     1      -7.103  18.919  69.138  1.00  0.00    -0.308 OA 
HETATM   23  C   UNL     1      -7.768  16.111  66.940  1.00  0.00    -0.284 A  
HETATM   24  C   UNL     1      -9.628  17.636  66.770  1.00  0.00    -0.297 A  
BRANCH  18  25
HETATM   25  C   UNL     1      -9.777  19.735  68.075  1.00  0.00    -0.394 C  
HETATM   26  O   UNL     1     -10.254  19.921  69.187  1.00  0.00    -0.407 OA 
HETATM   27  H1  UNL     1     -10.397  21.557  67.347  1.00  0.00     0.000 HD 
HETATM   28  H2  UNL     1      -9.494  20.568  66.184  1.00  0.00     0.000 HD 
HETATM   29  N   UNL     1      -9.895  20.701  67.111  1.00  0.00    -0.442 N  
ENDBRANCH  18  25
ENDBRANCH  14  17
ENDBRANCH  13  14
ENDBRANCH  11  13
ENDBRANCH   2  11
TORSDOF 8
ENDMDL
MODEL      262
REMARK 921   NORMALIZED FREE ENERGY PREDICTED BY IDOCK:   -3.96 KCAL/MOL
REMARK 922        TOTAL FREE ENERGY PREDICTED BY IDOCK:   -7.37 KCAL/MOL
REMARK 923 INTER-LIGAND FREE ENERGY PREDICTED BY IDOCK:   -6.59 KCAL/MOL
REMARK 924 INTRA-LIGAND FREE ENERGY PREDICTED BY IDOCK:   -0.78 KCAL/MOL
REMARK 927      BINDING AFFINITY PREDICTED BY RF-SCORE:    0.00 PKD
ROOT
HETATM    1  C   UNL     1      -9.328  13.790  67.362  1.00  0.00    -0.226 C  
HETATM    2  C   UNL     1     -10.421  13.742  68.437  1.00  0.00    -0.252 C  
ENDROOT
BRANCH   2   3
HETATM    3  C   UNL     1     -10.619  15.161  69.017  1.00  0.00    -0.245 C  
BRANCH   3   4
HETATM    4  C   UNL     1      -9.405  16.077  68.823  1.00  0.00    -0.222 C  
BRANCH   4   5
HETATM    5  C   UNL     1      -9.785  17.380  68.157  1.00  0.00    -0.291 A  
HETATM    6  C   UNL     1     -10.144  17.418  66.803  1.00  0.00    -0.313 A  
HETATM    7  C   UNL     1     -10.493  18.626  66.195  1.00  0.00    -0.473 A  
HETATM    8  C   UNL     1      -9.798  18.573  68.893  1.00  0.00    -0.377 A  
HETATM    9  C   UNL     1     -10.493  19.808  66.935  1.00  0.00    -0.596 A  
HETATM   10  C   UNL     1     -10.147  19.780  68.285  1.00  0.00    -0.575 A  
ENDBRANCH   4   5
ENDBRANCH   3   4
ENDBRANCH   2   3
BRANCH   2  11
HETATM   11  N   UNL     1     -11.696  13.234  67.918  1.00  0.00    -0.339 NA 
HETATM   12  H   UNL     1     -11.746  13.355  66.907  1.00  0.00     0.000 HD 
BRANCH  11  13
HETATM   13  C   UNL     1     -11.978  11.838  68.284  1.00  0.00    -0.165 C  
BRANCH  13  14
HETATM   14  C   UNL     1     -11.221  11.412  69.571  1.00  0.00    -0.256 C  
HETATM   15  H   UNL     1     -11.470  11.647  71.502  1.00  0.00     0.000 HD 
HETATM   16  O   UNL     1     -11.933  11.907  70.714  1.00  0.00    -0.305 OA 
BRANCH  14  17
HETATM   17  C   UNL     1     -11.031   9.902  69.652  1.00  0.00    -0.285 A  
HETATM   18  C   UNL     1      -9.991   7.814  68.883  1.00  0.00    -0.185 A  
HETATM   19  H   UNL     1     -11.415   5.246  70.400  1.00  0.00     0.000 HD 
HETATM   20  C   UNL     1     -10.817   7.098  69.756  1.00  0.00    -0.240 A  
HETATM   21  C   UNL     1     -11.709   7.759  70.594  1.00  0.00    -0.191 A  
HETATM   22  O   UNL     1     -10.854   5.732  69.807  1.00  0.00    -0.324 OA 
HETATM   23  C   UNL     1     -11.829   9.150  70.528  1.00  0.00    -0.137 A  
HETATM   24  C   UNL     1     -10.109   9.216  68.840  1.00  0.00    -0.209 A  
BRANCH  18  25
HETATM   25  C   UNL     1      -9.004   7.183  67.958  1.00  0.00    -0.127 C  
HETATM   26  O   UNL     1      -9.333   6.738  66.865  1.00  0.00    -0.139 OA 
HETATM   27  H1  UNL     1      -7.021   6.691  67.721  1.00  0.00     0.000 HD 
HETATM   28  H2  UNL     1      -7.402   7.499  69.255  1.00  0.00     0.000 HD 
HETATM   29  N   UNL     1      -7.695   7.123  68.353  1.00  0.00    -0.118 N  
ENDBRANCH  18  25
ENDBRANCH  14  17
ENDBRANCH  13  14
ENDBRANCH  11  13
ENDBRANCH   2  11
TORSDOF 8
ENDMDL
MODEL      263
REMARK 921   NORMALIZED FREE ENERGY PREDICTED BY IDOCK:   -3.96 KCAL/MOL
REMARK 922        TOTAL FREE ENERGY PREDICTED BY IDOCK:   -7.36 KCAL/MOL
REMARK 923 INTER-LIGAND FREE ENERGY PREDICTED BY IDOCK:   -6.62 KCAL/MOL
REMARK 924 INTRA-LIGAND FREE ENERGY PREDICTED BY IDOCK:   -0.74 KCAL/MOL
REMARK 927      BINDING AFFINITY PREDICTED BY RF-SCORE:    0.00 PKD
ROOT
HETATM    1  C   UNL     1      -9.848  12.602  67.481  1.00  0.00    -0.203 C  
HETATM    2  C   UNL     1      -8.358  12.760  67.804  1.00  0.00    -0.177 C  
ENDROOT
BRANCH   2   3
HETATM    3  C   UNL     1      -8.090  14.218  68.240  1.00  0.00    -0.143 C  
BRANCH   3   4
HETATM    4  C   UNL     1      -8.179  15.229  67.091  1.00  0.00    -0.250 C  
BRANCH   4   5
HETATM    5  C   UNL     1      -8.572  16.604  67.581  1.00  0.00    -0.207 A  
HETATM    6  C   UNL     1      -9.912  16.915  67.850  1.00  0.00    -0.274 A  
HETATM    7  C   UNL     1     -10.266  18.188  68.302  1.00  0.00    -0.402 A  
HETATM    8  C   UNL     1      -7.595  17.587  67.788  1.00  0.00    -0.197 A  
HETATM    9  C   UNL     1      -9.286  19.161  68.495  1.00  0.00    -0.426 A  
HETATM   10  C   UNL     1      -7.950  18.859  68.239  1.00  0.00    -0.343 A  
ENDBRANCH   4   5
ENDBRANCH   3   4
ENDBRANCH   2   3
BRANCH   2  11
HETATM   11  N   UNL     1      -7.910  11.835  68.852  1.00  0.00    -0.310 NA 
HETATM   12  H   UNL     1      -8.190  12.174  69.772  1.00  0.00     0.000 HD 
BRANCH  11  13
HETATM   13  C   UNL     1      -8.354  10.448  68.656  1.00  0.00    -0.127 C  
BRANCH  13  14
HETATM   14  C   UNL     1      -8.109   9.576  69.917  1.00  0.00    -0.157 C  
HETATM   15  H   UNL     1      -6.985   9.691  71.519  1.00  0.00     0.000 HD 
HETATM   16  O   UNL     1      -7.135  10.224  70.748  1.00  0.00    -0.315 OA 
BRANCH  14  17
HETATM   17  C   UNL     1      -9.397   9.306  70.686  1.00  0.00    -0.329 A  
HETATM   18  C   UNL     1     -10.758   7.931  72.199  1.00  0.00    -0.316 A  
HETATM   19  H   UNL     1     -13.827   9.150  72.340  1.00  0.00     0.000 HD 
HETATM   20  C   UNL     1     -11.841   8.789  71.982  1.00  0.00    -0.372 A  
HETATM   21  C   UNL     1     -11.709   9.909  71.167  1.00  0.00    -0.478 A  
HETATM   22  O   UNL     1     -13.092   8.567  72.488  1.00  0.00    -0.324 OA 
HETATM   23  C   UNL     1     -10.501  10.155  70.509  1.00  0.00    -0.173 A  
HETATM   24  C   UNL     1      -9.542   8.200  71.544  1.00  0.00    -0.226 A  
BRANCH  18  25
HETATM   25  C   UNL     1     -10.815   6.714  73.062  1.00  0.00    -0.267 C  
HETATM   26  O   UNL     1     -11.286   5.657  72.662  1.00  0.00    -0.285 OA 
HETATM   27  H1  UNL     1     -10.345   5.966  74.920  1.00  0.00     0.000 HD 
HETATM   28  H2  UNL     1      -9.898   7.667  74.675  1.00  0.00     0.000 HD 
HETATM   29  N   UNL     1     -10.305   6.798  74.330  1.00  0.00    -0.324 N  
ENDBRANCH  18  25
ENDBRANCH  14  17
ENDBRANCH  13  14
ENDBRANCH  11  13
ENDBRANCH   2  11
TORSDOF 8
ENDMDL
MODEL      264
REMARK 921   NORMALIZED FREE ENERGY PREDICTED BY IDOCK:   -3.94 KCAL/MOL
REMARK 922        TOTAL FREE ENERGY PREDICTED BY IDOCK:   -7.33 KCAL/MOL
REMARK 923 INTER-LIGAND FREE ENERGY PREDICTED BY IDOCK:   -6.51 KCAL/MOL
REMARK 924 INTRA-LIGAND FREE ENERGY PREDICTED BY IDOCK:   -0.83 KCAL/MOL
REMARK 927      BINDING AFFINITY PREDICTED BY RF-SCORE:    0.00 PKD
ROOT
HETATM    1  C   UNL     1      -9.323  10.350  62.672  1.00  0.00    -0.335 C  
HETATM    2  C   UNL     1      -9.130   9.712  64.053  1.00  0.00    -0.200 C  
ENDROOT
BRANCH   2   3
HETATM    3  C   UNL     1      -7.668   9.930  64.507  1.00  0.00    -0.142 C  
BRANCH   3   4
HETATM    4  C   UNL     1      -6.799   8.672  64.402  1.00  0.00    -0.077 C  
BRANCH   4   5
HETATM    5  C   UNL     1      -7.125   7.672  65.488  1.00  0.00    -0.063 A  
HETATM    6  C   UNL     1      -7.035   8.024  66.842  1.00  0.00    -0.074 A  
HETATM    7  C   UNL     1      -7.337   7.093  67.837  1.00  0.00    -0.097 A  
HETATM    8  C   UNL     1      -7.539   6.375  65.153  1.00  0.00    -0.089 A  
HETATM    9  C   UNL     1      -7.739   5.803  67.493  1.00  0.00    -0.097 A  
HETATM   10  C   UNL     1      -7.841   5.445  66.150  1.00  0.00    -0.103 A  
ENDBRANCH   4   5
ENDBRANCH   3   4
ENDBRANCH   2   3
BRANCH   2  11
HETATM   11  N   UNL     1     -10.050  10.258  65.057  1.00  0.00    -0.323 NA 
HETATM   12  H   UNL     1     -10.632   9.518  65.450  1.00  0.00     0.000 HD 
BRANCH  11  13
HETATM   13  C   UNL     1      -9.387  11.015  66.128  1.00  0.00    -0.191 C  
BRANCH  13  14
HETATM   14  C   UNL     1     -10.373  11.958  66.870  1.00  0.00    -0.210 C  
HETATM   15  H   UNL     1     -10.450  12.825  68.627  1.00  0.00     0.000 HD 
HETATM   16  O   UNL     1      -9.847  12.248  68.173  1.00  0.00    -0.201 OA 
BRANCH  14  17
HETATM   17  C   UNL     1     -10.641  13.237  66.086  1.00  0.00    -0.293 A  
HETATM   18  C   UNL     1     -10.447  15.668  65.794  1.00  0.00    -0.383 A  
HETATM   19  H   UNL     1     -12.281  16.620  63.213  1.00  0.00     0.000 HD 
HETATM   20  C   UNL     1     -11.276  15.584  64.670  1.00  0.00    -0.371 A  
HETATM   21  C   UNL     1     -11.754  14.355  64.228  1.00  0.00    -0.328 A  
HETATM   22  O   UNL     1     -11.718  16.677  63.976  1.00  0.00    -1.143 OA 
HETATM   23  C   UNL     1     -11.454  13.191  64.943  1.00  0.00    -0.337 A  
HETATM   24  C   UNL     1     -10.139  14.487  66.494  1.00  0.00    -0.280 A  
BRANCH  18  25
HETATM   25  C   UNL     1      -9.889  16.945  66.327  1.00  0.00    -0.302 C  
HETATM   26  O   UNL     1      -8.965  17.530  65.777  1.00  0.00    -0.512 OA 
HETATM   27  H1  UNL     1     -10.071  18.346  67.824  1.00  0.00     0.000 HD 
HETATM   28  H2  UNL     1     -11.231  17.006  67.923  1.00  0.00     0.000 HD 
HETATM   29  N   UNL     1     -10.453  17.473  67.458  1.00  0.00    -0.355 N  
ENDBRANCH  18  25
ENDBRANCH  14  17
ENDBRANCH  13  14
ENDBRANCH  11  13
ENDBRANCH   2  11
TORSDOF 8
ENDMDL
MODEL      265
REMARK 921   NORMALIZED FREE ENERGY PREDICTED BY IDOCK:   -3.93 KCAL/MOL
REMARK 922        TOTAL FREE ENERGY PREDICTED BY IDOCK:   -7.33 KCAL/MOL
REMARK 923 INTER-LIGAND FREE ENERGY PREDICTED BY IDOCK:   -6.44 KCAL/MOL
REMARK 924 INTRA-LIGAND FREE ENERGY PREDICTED BY IDOCK:   -0.88 KCAL/MOL
REMARK 927      BINDING AFFINITY PREDICTED BY RF-SCORE:    0.00 PKD
ROOT
HETATM    1  C   UNL     1     -11.298  10.031  70.402  1.00  0.00    -0.392 C  
HETATM    2  C   UNL     1     -10.281  10.035  69.253  1.00  0.00    -0.214 C  
ENDROOT
BRANCH   2   3
HETATM    3  C   UNL     1     -10.737  11.051  68.182  1.00  0.00    -0.246 C  
BRANCH   3   4
HETATM    4  C   UNL     1      -9.991  10.915  66.850  1.00  0.00    -0.232 C  
BRANCH   4   5
HETATM    5  C   UNL     1     -10.791  11.479  65.698  1.00  0.00    -0.310 A  
HETATM    6  C   UNL     1     -11.878  12.334  65.926  1.00  0.00    -0.420 A  
HETATM    7  C   UNL     1     -12.611  12.849  64.856  1.00  0.00    -0.525 A  
HETATM    8  C   UNL     1     -10.445  11.165  64.376  1.00  0.00    -0.418 A  
HETATM    9  C   UNL     1     -12.264  12.522  63.546  1.00  0.00    -0.652 A  
HETATM   10  C   UNL     1     -11.179  11.681  63.306  1.00  0.00    -0.305 A  
ENDBRANCH   4   5
ENDBRANCH   3   4
ENDBRANCH   2   3
BRANCH   2  11
HETATM   11  N   UNL     1      -8.924  10.364  69.707  1.00  0.00    -0.397 NA 
HETATM   12  H   UNL     1      -8.914  10.535  70.712  1.00  0.00     0.000 HD 
BRANCH  11  13
HETATM   13  C   UNL     1      -7.913   9.361  69.344  1.00  0.00    -0.089 C  
BRANCH  13  14
HETATM   14  C   UNL     1      -7.488   8.498  70.563  1.00  0.00    -0.062 C  
HETATM   15  H   UNL     1      -7.423   8.733  72.509  1.00  0.00     0.000 HD 
HETATM   16  O   UNL     1      -7.683   9.260  71.763  1.00  0.00    -0.320 OA 
BRANCH  14  17
HETATM   17  C   UNL     1      -8.245   7.176  70.622  1.00  0.00    -0.117 A  
HETATM   18  C   UNL     1     -10.088   5.780  71.453  1.00  0.00    -0.249 A  
HETATM   19  H   UNL     1      -9.646   2.660  70.455  1.00  0.00     0.000 HD 
HETATM   20  C   UNL     1      -9.529   4.679  70.796  1.00  0.00    -0.167 A  
HETATM   21  C   UNL     1      -8.375   4.815  70.033  1.00  0.00    -0.072 A  
HETATM   22  O   UNL     1     -10.025   3.408  70.901  1.00  0.00    -0.115 OA 
HETATM   23  C   UNL     1      -7.727   6.051  69.962  1.00  0.00    -0.100 A  
HETATM   24  C   UNL     1      -9.435   7.023  71.358  1.00  0.00    -0.159 A  
BRANCH  18  25
HETATM   25  C   UNL     1     -11.325   5.719  72.285  1.00  0.00    -0.278 C  
HETATM   26  O   UNL     1     -11.381   5.062  73.317  1.00  0.00    -0.325 OA 
HETATM   27  H1  UNL     1     -13.261   6.398  72.443  1.00  0.00     0.000 HD 
HETATM   28  H2  UNL     1     -12.382   7.002  71.025  1.00  0.00     0.000 HD 
HETATM   29  N   UNL     1     -12.415   6.440  71.875  1.00  0.00    -0.278 N  
ENDBRANCH  18  25
ENDBRANCH  14  17
ENDBRANCH  13  14
ENDBRANCH  11  13
ENDBRANCH   2  11
TORSDOF 8
ENDMDL
MODEL      266
REMARK 921   NORMALIZED FREE ENERGY PREDICTED BY IDOCK:   -3.93 KCAL/MOL
REMARK 922        TOTAL FREE ENERGY PREDICTED BY IDOCK:   -7.33 KCAL/MOL
REMARK 923 INTER-LIGAND FREE ENERGY PREDICTED BY IDOCK:   -6.75 KCAL/MOL
REMARK 924 INTRA-LIGAND FREE ENERGY PREDICTED BY IDOCK:   -0.58 KCAL/MOL
REMARK 927      BINDING AFFINITY PREDICTED BY RF-SCORE:    0.00 PKD
ROOT
HETATM    1  C   UNL     1     -11.804   8.565  72.257  1.00  0.00    -0.453 C  
HETATM    2  C   UNL     1     -10.799   8.337  71.121  1.00  0.00    -0.233 C  
ENDROOT
BRANCH   2   3
HETATM    3  C   UNL     1     -10.207   6.916  71.251  1.00  0.00    -0.213 C  
BRANCH   3   4
HETATM    4  C   UNL     1     -10.313   6.334  72.666  1.00  0.00    -0.219 C  
BRANCH   4   5
HETATM    5  C   UNL     1     -10.358   4.823  72.650  1.00  0.00    -0.253 A  
HETATM    6  C   UNL     1     -11.117   4.116  73.592  1.00  0.00    -0.337 A  
HETATM    7  C   UNL     1     -11.153   2.720  73.570  1.00  0.00    -0.315 A  
HETATM    8  C   UNL     1      -9.650   4.104  71.676  1.00  0.00    -0.232 A  
HETATM    9  C   UNL     1     -10.436   2.016  72.604  1.00  0.00    -0.228 A  
HETATM   10  C   UNL     1      -9.686   2.709  71.656  1.00  0.00    -0.226 A  
ENDBRANCH   4   5
ENDBRANCH   3   4
ENDBRANCH   2   3
BRANCH   2  11
HETATM   11  N   UNL     1     -11.404   8.506  69.795  1.00  0.00    -0.448 NA 
HETATM   12  H   UNL     1     -12.371   8.818  69.878  1.00  0.00     0.000 HD 
BRANCH  11  13
HETATM   13  C   UNL     1     -10.650   9.398  68.902  1.00  0.00    -0.208 C  
BRANCH  13  14
HETATM   14  C   UNL     1     -11.469  10.659  68.515  1.00  0.00    -0.265 C  
HETATM   15  H   UNL     1     -11.710  12.466  69.237  1.00  0.00     0.000 HD 
HETATM   16  O   UNL     1     -11.209  11.695  69.473  1.00  0.00    -0.248 OA 
BRANCH  14  17
HETATM   17  C   UNL     1     -11.161  11.130  67.098  1.00  0.00    -0.320 A  
HETATM   18  C   UNL     1      -9.942  10.929  64.975  1.00  0.00    -0.356 A  
HETATM   19  H   UNL     1     -10.627  13.534  63.058  1.00  0.00     0.000 HD 
HETATM   20  C   UNL     1     -10.536  12.118  64.539  1.00  0.00    -0.310 A  
HETATM   21  C   UNL     1     -11.455  12.790  65.338  1.00  0.00    -0.363 A  
HETATM   22  O   UNL     1     -10.223  12.727  63.355  1.00  0.00    -0.314 OA 
HETATM   23  C   UNL     1     -11.751  12.309  66.617  1.00  0.00    -0.417 A  
HETATM   24  C   UNL     1     -10.262  10.447  66.258  1.00  0.00    -0.286 A  
BRANCH  18  25
HETATM   25  C   UNL     1      -8.954  10.147  64.177  1.00  0.00    -0.238 C  
HETATM   26  O   UNL     1      -7.803   9.974  64.559  1.00  0.00    -0.137 OA 
HETATM   27  H1  UNL     1      -8.693   9.064  62.447  1.00  0.00     0.000 HD 
HETATM   28  H2  UNL     1     -10.327   9.722  62.666  1.00  0.00     0.000 HD 
HETATM   29  N   UNL     1      -9.369   9.599  62.993  1.00  0.00    -0.126 N  
ENDBRANCH  18  25
ENDBRANCH  14  17
ENDBRANCH  13  14
ENDBRANCH  11  13
ENDBRANCH   2  11
TORSDOF 8
ENDMDL
MODEL      267
REMARK 921   NORMALIZED FREE ENERGY PREDICTED BY IDOCK:   -3.92 KCAL/MOL
REMARK 922        TOTAL FREE ENERGY PREDICTED BY IDOCK:   -7.30 KCAL/MOL
REMARK 923 INTER-LIGAND FREE ENERGY PREDICTED BY IDOCK:   -6.40 KCAL/MOL
REMARK 924 INTRA-LIGAND FREE ENERGY PREDICTED BY IDOCK:   -0.90 KCAL/MOL
REMARK 927      BINDING AFFINITY PREDICTED BY RF-SCORE:    0.00 PKD
ROOT
HETATM    1  C   UNL     1     -12.982  12.105  63.735  1.00  0.00    -0.343 C  
HETATM    2  C   UNL     1     -11.905  12.198  64.823  1.00  0.00    -0.318 C  
ENDROOT
BRANCH   2   3
HETATM    3  C   UNL     1     -10.582  11.621  64.271  1.00  0.00    -0.394 C  
BRANCH   3   4
HETATM    4  C   UNL     1     -10.127  10.341  64.982  1.00  0.00    -0.353 C  
BRANCH   4   5
HETATM    5  C   UNL     1      -9.428  10.642  66.288  1.00  0.00    -0.213 A  
HETATM    6  C   UNL     1     -10.061  10.402  67.515  1.00  0.00    -0.231 A  
HETATM    7  C   UNL     1      -9.408  10.684  68.717  1.00  0.00    -0.183 A  
HETATM    8  C   UNL     1      -8.123  11.156  66.290  1.00  0.00    -0.142 A  
HETATM    9  C   UNL     1      -8.114  11.204  68.706  1.00  0.00    -0.140 A  
HETATM   10  C   UNL     1      -7.471  11.437  67.492  1.00  0.00    -0.113 A  
ENDBRANCH   4   5
ENDBRANCH   3   4
ENDBRANCH   2   3
BRANCH   2  11
HETATM   11  N   UNL     1     -11.693  13.575  65.286  1.00  0.00    -0.312 NA 
HETATM   12  H   UNL     1     -12.503  14.155  65.069  1.00  0.00     0.000 HD 
BRANCH  11  13
HETATM   13  C   UNL     1     -11.350  13.680  66.711  1.00  0.00    -0.328 C  
BRANCH  13  14
HETATM   14  C   UNL     1      -9.953  14.322  66.927  1.00  0.00    -0.263 C  
HETATM   15  H   UNL     1      -8.346  14.612  65.840  1.00  0.00     0.000 HD 
HETATM   16  O   UNL     1      -9.201  14.219  65.709  1.00  0.00    -0.048 OA 
BRANCH  14  17
HETATM   17  C   UNL     1     -10.053  15.770  67.392  1.00  0.00    -0.246 A  
HETATM   18  C   UNL     1      -9.575  18.163  67.113  1.00  0.00    -0.277 A  
HETATM   19  H   UNL     1     -10.556  19.807  69.808  1.00  0.00     0.000 HD 
HETATM   20  C   UNL     1     -10.153  18.409  68.362  1.00  0.00    -0.390 A  
HETATM   21  C   UNL     1     -10.709  17.374  69.106  1.00  0.00    -0.034 A  
HETATM   22  O   UNL     1     -10.162  19.640  68.960  1.00  0.00    -0.421 OA 
HETATM   23  C   UNL     1     -10.642  16.060  68.632  1.00  0.00    -0.266 A  
HETATM   24  C   UNL     1      -9.529  16.839  66.640  1.00  0.00    -0.275 A  
BRANCH  18  25
HETATM   25  C   UNL     1      -8.964  19.218  66.252  1.00  0.00    -0.328 C  
HETATM   26  O   UNL     1      -7.840  19.099  65.779  1.00  0.00    -0.450 OA 
HETATM   27  H1  UNL     1      -9.285  21.059  65.392  1.00  0.00     0.000 HD 
HETATM   28  H2  UNL     1     -10.645  20.448  66.356  1.00  0.00     0.000 HD 
HETATM   29  N   UNL     1      -9.703  20.338  65.980  1.00  0.00    -0.332 N  
ENDBRANCH  18  25
ENDBRANCH  14  17
ENDBRANCH  13  14
ENDBRANCH  11  13
ENDBRANCH   2  11
TORSDOF 8
ENDMDL
MODEL      268
REMARK 921   NORMALIZED FREE ENERGY PREDICTED BY IDOCK:   -3.91 KCAL/MOL
REMARK 922        TOTAL FREE ENERGY PREDICTED BY IDOCK:   -7.30 KCAL/MOL
REMARK 923 INTER-LIGAND FREE ENERGY PREDICTED BY IDOCK:   -6.93 KCAL/MOL
REMARK 924 INTRA-LIGAND FREE ENERGY PREDICTED BY IDOCK:   -0.37 KCAL/MOL
REMARK 927      BINDING AFFINITY PREDICTED BY RF-SCORE:    0.00 PKD
ROOT
HETATM    1  C   UNL     1      -8.510  16.891  68.840  1.00  0.00    -0.202 C  
HETATM    2  C   UNL     1      -8.069  16.593  67.402  1.00  0.00    -0.167 C  
ENDROOT
BRANCH   2   3
HETATM    3  C   UNL     1      -6.551  16.305  67.392  1.00  0.00    -0.212 C  
BRANCH   3   4
HETATM    4  C   UNL     1      -5.776  17.133  66.360  1.00  0.00    -0.159 C  
BRANCH   4   5
HETATM    5  C   UNL     1      -5.904  18.617  66.620  1.00  0.00    -0.172 A  
HETATM    6  C   UNL     1      -5.817  19.130  67.921  1.00  0.00    -0.205 A  
HETATM    7  C   UNL     1      -5.937  20.502  68.151  1.00  0.00    -0.320 A  
HETATM    8  C   UNL     1      -6.098  19.507  65.554  1.00  0.00    -0.240 A  
HETATM    9  C   UNL     1      -6.140  21.376  67.084  1.00  0.00    -0.403 A  
HETATM   10  C   UNL     1      -6.218  20.878  65.785  1.00  0.00    -0.268 A  
ENDBRANCH   4   5
ENDBRANCH   3   4
ENDBRANCH   2   3
BRANCH   2  11
HETATM   11  N   UNL     1      -8.795  15.461  66.816  1.00  0.00    -0.247 NA 
HETATM   12  H   UNL     1      -9.373  15.002  67.520  1.00  0.00     0.000 HD 
BRANCH  11  13
HETATM   13  C   UNL     1      -9.602  15.812  65.638  1.00  0.00    -0.264 C  
BRANCH  13  14
HETATM   14  C   UNL     1     -11.082  15.371  65.795  1.00  0.00    -0.260 C  
HETATM   15  H   UNL     1     -12.311  14.177  64.842  1.00  0.00     0.000 HD 
HETATM   16  O   UNL     1     -11.405  14.447  64.746  1.00  0.00    -0.361 OA 
BRANCH  14  17
HETATM   17  C   UNL     1     -11.358  14.766  67.166  1.00  0.00    -0.363 A  
HETATM   18  C   UNL     1     -11.619  12.832  68.658  1.00  0.00    -0.352 A  
HETATM   19  H   UNL     1     -12.685  13.854  71.616  1.00  0.00     0.000 HD 
HETATM   20  C   UNL     1     -12.002  13.697  69.688  1.00  0.00    -0.343 A  
HETATM   21  C   UNL     1     -12.029  15.073  69.489  1.00  0.00    -0.346 A  
HETATM   22  O   UNL     1     -12.425  13.266  70.916  1.00  0.00    -0.362 OA 
HETATM   23  C   UNL     1     -11.728  15.603  68.231  1.00  0.00    -0.253 A  
HETATM   24  C   UNL     1     -11.301  13.379  67.401  1.00  0.00    -0.338 A  
BRANCH  18  25
HETATM   25  C   UNL     1     -11.558  11.347  68.792  1.00  0.00    -0.313 C  
HETATM   26  O   UNL     1     -11.830  10.599  67.861  1.00  0.00    -0.485 OA 
HETATM   27  H1  UNL     1     -11.128   9.808  70.088  1.00  0.00     0.000 HD 
HETATM   28  H2  UNL     1     -10.928  11.431  70.779  1.00  0.00     0.000 HD 
HETATM   29  N   UNL     1     -11.169  10.823  69.996  1.00  0.00    -0.294 N  
ENDBRANCH  18  25
ENDBRANCH  14  17
ENDBRANCH  13  14
ENDBRANCH  11  13
ENDBRANCH   2  11
TORSDOF 8
ENDMDL
MODEL      269
REMARK 921   NORMALIZED FREE ENERGY PREDICTED BY IDOCK:   -3.91 KCAL/MOL
REMARK 922        TOTAL FREE ENERGY PREDICTED BY IDOCK:   -7.29 KCAL/MOL
REMARK 923 INTER-LIGAND FREE ENERGY PREDICTED BY IDOCK:   -6.50 KCAL/MOL
REMARK 924 INTRA-LIGAND FREE ENERGY PREDICTED BY IDOCK:   -0.80 KCAL/MOL
REMARK 927      BINDING AFFINITY PREDICTED BY RF-SCORE:    0.00 PKD
ROOT
HETATM    1  C   UNL     1      -9.251   9.593  64.870  1.00  0.00    -0.306 C  
HETATM    2  C   UNL     1      -9.021   9.631  66.385  1.00  0.00    -0.152 C  
ENDROOT
BRANCH   2   3
HETATM    3  C   UNL     1      -8.823  11.099  66.827  1.00  0.00    -0.162 C  
BRANCH   3   4
HETATM    4  C   UNL     1     -10.107  11.766  67.332  1.00  0.00    -0.212 C  
BRANCH   4   5
HETATM    5  C   UNL     1     -10.746  12.632  66.269  1.00  0.00    -0.280 A  
HETATM    6  C   UNL     1     -11.881  12.196  65.572  1.00  0.00    -0.350 A  
HETATM    7  C   UNL     1     -12.464  13.001  64.592  1.00  0.00    -0.460 A  
HETATM    8  C   UNL     1     -10.217  13.896  65.975  1.00  0.00    -0.317 A  
HETATM    9  C   UNL     1     -11.923  14.253  64.301  1.00  0.00    -0.449 A  
HETATM   10  C   UNL     1     -10.800  14.701  64.994  1.00  0.00    -0.431 A  
ENDBRANCH   4   5
ENDBRANCH   3   4
ENDBRANCH   2   3
BRANCH   2  11
HETATM   11  N   UNL     1     -10.130   9.030  67.136  1.00  0.00    -0.221 NA 
HETATM   12  H   UNL     1     -10.884   8.758  66.506  1.00  0.00     0.000 HD 
BRANCH  11  13
HETATM   13  C   UNL     1      -9.733   7.896  67.983  1.00  0.00    -0.159 C  
BRANCH  13  14
HETATM   14  C   UNL     1     -10.889   6.875  68.166  1.00  0.00    -0.194 C  
HETATM   15  H   UNL     1     -11.437   5.192  67.322  1.00  0.00     0.000 HD 
HETATM   16  O   UNL     1     -10.730   5.817  67.211  1.00  0.00    -0.259 OA 
BRANCH  14  17
HETATM   17  C   UNL     1     -10.953   6.329  69.587  1.00  0.00    -0.440 A  
HETATM   18  C   UNL     1     -10.284   4.708  71.308  1.00  0.00    -0.205 A  
HETATM   19  H   UNL     1     -12.097   5.178  74.032  1.00  0.00     0.000 HD 
HETATM   20  C   UNL     1     -11.207   5.284  72.187  1.00  0.00    -0.069 A  
HETATM   21  C   UNL     1     -11.966   6.384  71.803  1.00  0.00    -0.370 A  
HETATM   22  O   UNL     1     -11.470   4.787  73.434  1.00  0.00    -0.338 OA 
HETATM   23  C   UNL     1     -11.853   6.892  70.506  1.00  0.00    -0.385 A  
HETATM   24  C   UNL     1     -10.168   5.240  70.010  1.00  0.00    -0.358 A  
BRANCH  18  25
HETATM   25  C   UNL     1      -9.429   3.532  71.644  1.00  0.00    -0.147 C  
HETATM   26  O   UNL     1      -9.773   2.386  71.388  1.00  0.00    -0.148 OA 
HETATM   27  H1  UNL     1      -7.635   2.961  72.473  1.00  0.00     0.000 HD 
HETATM   28  H2  UNL     1      -7.912   4.714  72.452  1.00  0.00     0.000 HD 
HETATM   29  N   UNL     1      -8.219   3.764  72.242  1.00  0.00    -0.083 N  
ENDBRANCH  18  25
ENDBRANCH  14  17
ENDBRANCH  13  14
ENDBRANCH  11  13
ENDBRANCH   2  11
TORSDOF 8
ENDMDL
MODEL      270
REMARK 921   NORMALIZED FREE ENERGY PREDICTED BY IDOCK:   -3.90 KCAL/MOL
REMARK 922        TOTAL FREE ENERGY PREDICTED BY IDOCK:   -7.27 KCAL/MOL
REMARK 923 INTER-LIGAND FREE ENERGY PREDICTED BY IDOCK:   -6.66 KCAL/MOL
REMARK 924 INTRA-LIGAND FREE ENERGY PREDICTED BY IDOCK:   -0.62 KCAL/MOL
REMARK 927      BINDING AFFINITY PREDICTED BY RF-SCORE:    0.00 PKD
ROOT
HETATM    1  C   UNL     1      -8.387  10.593  67.749  1.00  0.00    -0.115 C  
HETATM    2  C   UNL     1      -8.507  10.931  66.258  1.00  0.00    -0.166 C  
ENDROOT
BRANCH   2   3
HETATM    3  C   UNL     1      -9.372   9.853  65.566  1.00  0.00    -0.280 C  
BRANCH   3   4
HETATM    4  C   UNL     1      -8.619   8.546  65.291  1.00  0.00    -0.192 C  
BRANCH   4   5
HETATM    5  C   UNL     1      -9.226   7.380  66.038  1.00  0.00    -0.092 A  
HETATM    6  C   UNL     1     -10.342   7.558  66.867  1.00  0.00    -0.379 A  
HETATM    7  C   UNL     1     -10.895   6.476  67.553  1.00  0.00    -0.433 A  
HETATM    8  C   UNL     1      -8.686   6.094  65.900  1.00  0.00    -0.158 A  
HETATM    9  C   UNL     1     -10.344   5.203  67.415  1.00  0.00    -0.209 A  
HETATM   10  C   UNL     1      -9.240   5.012  66.587  1.00  0.00    -0.129 A  
ENDBRANCH   4   5
ENDBRANCH   3   4
ENDBRANCH   2   3
BRANCH   2  11
HETATM   11  N   UNL     1      -9.089  12.259  66.030  1.00  0.00    -0.422 NA 
HETATM   12  H   UNL     1      -8.384  12.902  65.670  1.00  0.00     0.000 HD 
BRANCH  11  13
HETATM   13  C   UNL     1     -10.272  12.251  65.158  1.00  0.00    -0.279 C  
BRANCH  13  14
HETATM   14  C   UNL     1     -10.661  13.681  64.694  1.00  0.00    -0.430 C  
HETATM   15  H   UNL     1     -12.208  14.515  63.824  1.00  0.00     0.000 HD 
HETATM   16  O   UNL     1     -11.970  13.640  64.109  1.00  0.00    -0.422 OA 
BRANCH  14  17
HETATM   17  C   UNL     1     -10.599  14.691  65.834  1.00  0.00    -0.319 A  
HETATM   18  C   UNL     1     -11.250  15.457  68.075  1.00  0.00    -0.326 A  
HETATM   19  H   UNL     1     -10.077  18.505  68.584  1.00  0.00     0.000 HD 
HETATM   20  C   UNL     1     -10.552  16.649  67.854  1.00  0.00    -0.342 A  
HETATM   21  C   UNL     1      -9.854  16.856  66.669  1.00  0.00    -0.295 A  
HETATM   22  O   UNL     1     -10.551  17.696  68.735  1.00  0.00    -0.315 OA 
HETATM   23  C   UNL     1      -9.893  15.892  65.658  1.00  0.00    -0.337 A  
HETATM   24  C   UNL     1     -11.267  14.487  67.056  1.00  0.00    -0.342 A  
BRANCH  18  25
HETATM   25  C   UNL     1     -12.016  15.155  69.319  1.00  0.00    -0.292 C  
HETATM   26  O   UNL     1     -12.818  15.948  69.796  1.00  0.00    -0.075 OA 
HETATM   27  H1  UNL     1     -12.340  13.736  70.774  1.00  0.00     0.000 HD 
HETATM   28  H2  UNL     1     -11.161  13.265  69.533  1.00  0.00     0.000 HD 
HETATM   29  N   UNL     1     -11.816  13.942  69.923  1.00  0.00    -0.312 N  
ENDBRANCH  18  25
ENDBRANCH  14  17
ENDBRANCH  13  14
ENDBRANCH  11  13
ENDBRANCH   2  11
TORSDOF 8
ENDMDL
MODEL      271
REMARK 921   NORMALIZED FREE ENERGY PREDICTED BY IDOCK:   -3.87 KCAL/MOL
REMARK 922        TOTAL FREE ENERGY PREDICTED BY IDOCK:   -7.24 KCAL/MOL
REMARK 923 INTER-LIGAND FREE ENERGY PREDICTED BY IDOCK:   -6.20 KCAL/MOL
REMARK 924 INTRA-LIGAND FREE ENERGY PREDICTED BY IDOCK:   -1.04 KCAL/MOL
REMARK 927      BINDING AFFINITY PREDICTED BY RF-SCORE:    0.00 PKD
ROOT
HETATM    1  C   UNL     1      -6.490   8.346  72.090  1.00  0.00    -0.074 C  
HETATM    2  C   UNL     1      -7.674   7.707  71.353  1.00  0.00    -0.081 C  
ENDROOT
BRANCH   2   3
HETATM    3  C   UNL     1      -8.988   8.146  72.039  1.00  0.00    -0.236 C  
BRANCH   3   4
HETATM    4  C   UNL     1     -10.056   7.047  72.079  1.00  0.00    -0.201 C  
BRANCH   4   5
HETATM    5  C   UNL     1     -11.448   7.609  71.894  1.00  0.00    -0.313 A  
HETATM    6  C   UNL     1     -12.547   6.761  71.701  1.00  0.00    -0.380 A  
HETATM    7  C   UNL     1     -13.828   7.289  71.531  1.00  0.00    -0.463 A  
HETATM    8  C   UNL     1     -11.661   8.994  71.930  1.00  0.00    -0.445 A  
HETATM    9  C   UNL     1     -14.027   8.669  71.559  1.00  0.00    -0.405 A  
HETATM   10  C   UNL     1     -12.943   9.521  71.760  1.00  0.00    -0.502 A  
ENDBRANCH   4   5
ENDBRANCH   3   4
ENDBRANCH   2   3
BRANCH   2  11
HETATM   11  N   UNL     1      -7.710   8.067  69.931  1.00  0.00    -0.097 NA 
HETATM   12  H   UNL     1      -8.050   7.285  69.372  1.00  0.00     0.000 HD 
BRANCH  11  13
HETATM   13  C   UNL     1      -8.484   9.282  69.641  1.00  0.00    -0.140 C  
BRANCH  13  14
HETATM   14  C   UNL     1      -8.158   9.856  68.235  1.00  0.00    -0.104 C  
HETATM   15  H   UNL     1      -7.794   9.118  66.455  1.00  0.00     0.000 HD 
HETATM   16  O   UNL     1      -7.993   8.768  67.315  1.00  0.00    -0.097 OA 
BRANCH  14  17
HETATM   17  C   UNL     1      -9.226  10.829  67.751  1.00  0.00    -0.155 A  
HETATM   18  C   UNL     1     -10.858  12.619  68.159  1.00  0.00    -0.250 A  
HETATM   19  H   UNL     1     -12.627  13.148  65.417  1.00  0.00     0.000 HD 
HETATM   20  C   UNL     1     -11.283  12.514  66.831  1.00  0.00    -0.303 A  
HETATM   21  C   UNL     1     -10.676  11.617  65.958  1.00  0.00    -0.328 A  
HETATM   22  O   UNL     1     -12.338  13.219  66.319  1.00  0.00    -0.391 OA 
HETATM   23  C   UNL     1      -9.668  10.767  66.420  1.00  0.00    -0.241 A  
HETATM   24  C   UNL     1      -9.829  11.770  68.607  1.00  0.00    -0.153 A  
BRANCH  18  25
HETATM   25  C   UNL     1     -11.452  13.559  69.155  1.00  0.00    -0.295 C  
HETATM   26  O   UNL     1     -11.237  14.764  69.119  1.00  0.00    -0.245 OA 
HETATM   27  H1  UNL     1     -12.678  13.683  70.802  1.00  0.00     0.000 HD 
HETATM   28  H2  UNL     1     -12.472  12.042  70.159  1.00  0.00     0.000 HD 
HETATM   29  N   UNL     1     -12.273  13.041  70.121  1.00  0.00    -0.305 N  
ENDBRANCH  18  25
ENDBRANCH  14  17
ENDBRANCH  13  14
ENDBRANCH  11  13
ENDBRANCH   2  11
TORSDOF 8
ENDMDL
MODEL      272
REMARK 921   NORMALIZED FREE ENERGY PREDICTED BY IDOCK:   -3.87 KCAL/MOL
REMARK 922        TOTAL FREE ENERGY PREDICTED BY IDOCK:   -7.23 KCAL/MOL
REMARK 923 INTER-LIGAND FREE ENERGY PREDICTED BY IDOCK:   -6.12 KCAL/MOL
REMARK 924 INTRA-LIGAND FREE ENERGY PREDICTED BY IDOCK:   -1.11 KCAL/MOL
REMARK 927      BINDING AFFINITY PREDICTED BY RF-SCORE:    0.00 PKD
ROOT
HETATM    1  C   UNL     1     -11.794   8.416  71.249  1.00  0.00    -0.327 C  
HETATM    2  C   UNL     1     -11.356   9.531  70.291  1.00  0.00    -0.236 C  
ENDROOT
BRANCH   2   3
HETATM    3  C   UNL     1     -12.459  10.612  70.240  1.00  0.00    -0.381 C  
BRANCH   3   4
HETATM    4  C   UNL     1     -11.913  12.042  70.162  1.00  0.00    -0.401 C  
BRANCH   4   5
HETATM    5  C   UNL     1     -11.844  12.540  68.736  1.00  0.00    -0.347 A  
HETATM    6  C   UNL     1     -11.621  11.654  67.674  1.00  0.00    -0.349 A  
HETATM    7  C   UNL     1     -11.558  12.122  66.361  1.00  0.00    -0.429 A  
HETATM    8  C   UNL     1     -12.019  13.903  68.453  1.00  0.00    -0.391 A  
HETATM    9  C   UNL     1     -11.723  13.481  66.093  1.00  0.00    -0.397 A  
HETATM   10  C   UNL     1     -11.955  14.370  67.140  1.00  0.00    -0.419 A  
ENDBRANCH   4   5
ENDBRANCH   3   4
ENDBRANCH   2   3
BRANCH   2  11
HETATM   11  N   UNL     1     -10.080  10.139  70.684  1.00  0.00    -0.315 NA 
HETATM   12  H   UNL     1      -9.818   9.846  71.625  1.00  0.00     0.000 HD 
BRANCH  11  13
HETATM   13  C   UNL     1      -8.981   9.884  69.741  1.00  0.00    -0.221 C  
BRANCH  13  14
HETATM   14  C   UNL     1      -7.927   8.906  70.328  1.00  0.00    -0.115 C  
HETATM   15  H   UNL     1      -7.126   8.579  72.088  1.00  0.00     0.000 HD 
HETATM   16  O   UNL     1      -7.771   9.177  71.729  1.00  0.00    -0.344 OA 
BRANCH  14  17
HETATM   17  C   UNL     1      -8.301   7.449  70.087  1.00  0.00    -0.136 A  
HETATM   18  C   UNL     1      -9.128   5.644  68.640  1.00  0.00    -0.124 A  
HETATM   19  H   UNL     1      -9.539   2.894  70.429  1.00  0.00     0.000 HD 
HETATM   20  C   UNL     1      -9.099   4.774  69.735  1.00  0.00    -0.108 A  
HETATM   21  C   UNL     1      -8.647   5.206  70.977  1.00  0.00    -0.130 A  
HETATM   22  O   UNL     1      -9.558   3.486  69.686  1.00  0.00    -0.174 OA 
HETATM   23  C   UNL     1      -8.268   6.540  71.157  1.00  0.00    -0.121 A  
HETATM   24  C   UNL     1      -8.727   6.980  68.831  1.00  0.00    -0.131 A  
BRANCH  18  25
HETATM   25  C   UNL     1      -9.593   5.257  67.276  1.00  0.00    -0.137 C  
HETATM   26  O   UNL     1     -10.745   5.445  66.906  1.00  0.00    -0.271 OA 
HETATM   27  H1  UNL     1      -9.002   4.427  65.488  1.00  0.00     0.000 HD 
HETATM   28  H2  UNL     1      -7.718   4.539  66.709  1.00  0.00     0.000 HD 
HETATM   29  N   UNL     1      -8.685   4.692  66.421  1.00  0.00    -0.112 N  
ENDBRANCH  18  25
ENDBRANCH  14  17
ENDBRANCH  13  14
ENDBRANCH  11  13
ENDBRANCH   2  11
TORSDOF 8
ENDMDL
MODEL      273
REMARK 921   NORMALIZED FREE ENERGY PREDICTED BY IDOCK:   -3.87 KCAL/MOL
REMARK 922        TOTAL FREE ENERGY PREDICTED BY IDOCK:   -7.23 KCAL/MOL
REMARK 923 INTER-LIGAND FREE ENERGY PREDICTED BY IDOCK:   -6.94 KCAL/MOL
REMARK 924 INTRA-LIGAND FREE ENERGY PREDICTED BY IDOCK:   -0.29 KCAL/MOL
REMARK 927      BINDING AFFINITY PREDICTED BY RF-SCORE:    0.00 PKD
ROOT
HETATM    1  C   UNL     1     -11.351  15.249  64.478  1.00  0.00    -0.307 C  
HETATM    2  C   UNL     1     -11.028  13.860  65.042  1.00  0.00    -0.368 C  
ENDROOT
BRANCH   2   3
HETATM    3  C   UNL     1     -10.568  12.943  63.886  1.00  0.00    -0.367 C  
BRANCH   3   4
HETATM    4  C   UNL     1     -11.217  11.555  63.909  1.00  0.00    -0.439 C  
BRANCH   4   5
HETATM    5  C   UNL     1     -10.221  10.474  64.264  1.00  0.00    -0.314 A  
HETATM    6  C   UNL     1      -9.363   9.940  63.293  1.00  0.00    -0.221 A  
HETATM    7  C   UNL     1      -8.447   8.942  63.629  1.00  0.00    -0.145 A  
HETATM    8  C   UNL     1     -10.131   9.999  65.580  1.00  0.00    -0.325 A  
HETATM    9  C   UNL     1      -8.373   8.470  64.940  1.00  0.00    -0.171 A  
HETATM   10  C   UNL     1      -9.215   9.001  65.915  1.00  0.00    -0.290 A  
ENDBRANCH   4   5
ENDBRANCH   3   4
ENDBRANCH   2   3
BRANCH   2  11
HETATM   11  N   UNL     1      -9.996  13.904  66.085  1.00  0.00    -0.302 NA 
HETATM   12  H   UNL     1      -9.570  14.830  66.128  1.00  0.00     0.000 HD 
BRANCH  11  13
HETATM   13  C   UNL     1     -10.469  13.492  67.413  1.00  0.00    -0.247 C  
BRANCH  13  14
HETATM   14  C   UNL     1     -10.710  14.709  68.347  1.00  0.00    -0.241 C  
HETATM   15  H   UNL     1     -11.342  16.553  68.133  1.00  0.00     0.000 HD 
HETATM   16  O   UNL     1     -11.194  15.808  67.563  1.00  0.00    -0.308 OA 
BRANCH  14  17
HETATM   17  C   UNL     1     -11.670  14.379  69.484  1.00  0.00    -0.362 A  
HETATM   18  C   UNL     1     -12.881  14.991  71.531  1.00  0.00    -0.422 A  
HETATM   19  H   UNL     1     -14.400  12.322  72.756  1.00  0.00     0.000 HD 
HETATM   20  C   UNL     1     -13.346  13.676  71.632  1.00  0.00    -0.346 A  
HETATM   21  C   UNL     1     -13.021  12.730  70.665  1.00  0.00     0.100 A  
HETATM   22  O   UNL     1     -14.084  13.216  72.688  1.00  0.00    -0.701 OA 
HETATM   23  C   UNL     1     -12.173  13.074  69.609  1.00  0.00    -0.219 A  
HETATM   24  C   UNL     1     -12.043  15.329  70.453  1.00  0.00    -0.388 A  
BRANCH  18  25
HETATM   25  C   UNL     1     -13.189  16.065  72.521  1.00  0.00    -0.328 C  
HETATM   26  O   UNL     1     -14.283  16.150  73.066  1.00  0.00    -0.382 OA 
HETATM   27  H1  UNL     1     -12.413  17.696  73.504  1.00  0.00     0.000 HD 
HETATM   28  H2  UNL     1     -11.282  16.899  72.393  1.00  0.00     0.000 HD 
HETATM   29  N   UNL     1     -12.202  16.962  72.828  1.00  0.00     0.152 N  
ENDBRANCH  18  25
ENDBRANCH  14  17
ENDBRANCH  13  14
ENDBRANCH  11  13
ENDBRANCH   2  11
TORSDOF 8
ENDMDL
MODEL      274
REMARK 921   NORMALIZED FREE ENERGY PREDICTED BY IDOCK:   -3.84 KCAL/MOL
REMARK 922        TOTAL FREE ENERGY PREDICTED BY IDOCK:   -7.20 KCAL/MOL
REMARK 923 INTER-LIGAND FREE ENERGY PREDICTED BY IDOCK:   -6.38 KCAL/MOL
REMARK 924 INTRA-LIGAND FREE ENERGY PREDICTED BY IDOCK:   -0.82 KCAL/MOL
REMARK 927      BINDING AFFINITY PREDICTED BY RF-SCORE:    0.00 PKD
ROOT
HETATM    1  C   UNL     1     -10.187  14.072  65.848  1.00  0.00    -0.332 C  
HETATM    2  C   UNL     1      -9.532  13.055  66.791  1.00  0.00    -0.250 C  
ENDROOT
BRANCH   2   3
HETATM    3  C   UNL     1      -9.672  11.642  66.181  1.00  0.00    -0.253 C  
BRANCH   3   4
HETATM    4  C   UNL     1      -8.990  10.546  67.008  1.00  0.00    -0.149 C  
BRANCH   4   5
HETATM    5  C   UNL     1      -9.723  10.282  68.304  1.00  0.00    -0.154 A  
HETATM    6  C   UNL     1     -11.101  10.512  68.412  1.00  0.00    -0.335 A  
HETATM    7  C   UNL     1     -11.769  10.266  69.612  1.00  0.00    -0.230 A  
HETATM    8  C   UNL     1      -9.031   9.786  69.419  1.00  0.00    -0.197 A  
HETATM    9  C   UNL     1     -11.069   9.782  70.717  1.00  0.00    -0.415 A  
HETATM   10  C   UNL     1      -9.701   9.541  70.619  1.00  0.00    -0.311 A  
ENDBRANCH   4   5
ENDBRANCH   3   4
ENDBRANCH   2   3
BRANCH   2  11
HETATM   11  N   UNL     1      -8.117  13.352  67.041  1.00  0.00    -0.391 NA 
HETATM   12  H   UNL     1      -7.679  13.740  66.206  1.00  0.00     0.000 HD 
BRANCH  11  13
HETATM   13  C   UNL     1      -7.885  14.228  68.198  1.00  0.00    -0.139 C  
BRANCH  13  14
HETATM   14  C   UNL     1      -6.600  15.084  68.030  1.00  0.00    -0.145 C  
HETATM   15  H   UNL     1      -4.839  14.845  67.201  1.00  0.00     0.000 HD 
HETATM   16  O   UNL     1      -5.626  14.322  67.304  1.00  0.00    -0.290 OA 
BRANCH  14  17
HETATM   17  C   UNL     1      -6.883  16.414  67.343  1.00  0.00    -0.201 A  
HETATM   18  C   UNL     1      -8.393  18.259  66.751  1.00  0.00    -0.269 A  
HETATM   19  H   UNL     1      -6.885  20.279  64.613  1.00  0.00     0.000 HD 
HETATM   20  C   UNL     1      -7.387  18.805  65.948  1.00  0.00    -0.226 A  
HETATM   21  C   UNL     1      -6.137  18.202  65.864  1.00  0.00    -0.268 A  
HETATM   22  O   UNL     1      -7.569  19.908  65.158  1.00  0.00    -0.291 OA 
HETATM   23  C   UNL     1      -5.892  17.004  66.542  1.00  0.00    -0.162 A  
HETATM   24  C   UNL     1      -8.128  17.062  67.443  1.00  0.00    -0.193 A  
BRANCH  18  25
HETATM   25  C   UNL     1      -9.757  18.847  66.900  1.00  0.00    -0.318 C  
HETATM   26  O   UNL     1     -10.558  18.869  65.975  1.00  0.00    -0.457 OA 
HETATM   27  H1  UNL     1     -11.041  19.761  68.222  1.00  0.00     0.000 HD 
HETATM   28  H2  UNL     1      -9.459  19.338  68.905  1.00  0.00     0.000 HD 
HETATM   29  N   UNL     1     -10.109  19.359  68.120  1.00  0.00    -0.400 N  
ENDBRANCH  18  25
ENDBRANCH  14  17
ENDBRANCH  13  14
ENDBRANCH  11  13
ENDBRANCH   2  11
TORSDOF 8
ENDMDL
MODEL      275
REMARK 921   NORMALIZED FREE ENERGY PREDICTED BY IDOCK:   -3.83 KCAL/MOL
REMARK 922        TOTAL FREE ENERGY PREDICTED BY IDOCK:   -7.17 KCAL/MOL
REMARK 923 INTER-LIGAND FREE ENERGY PREDICTED BY IDOCK:   -5.82 KCAL/MOL
REMARK 924 INTRA-LIGAND FREE ENERGY PREDICTED BY IDOCK:   -1.35 KCAL/MOL
REMARK 927      BINDING AFFINITY PREDICTED BY RF-SCORE:    0.00 PKD
ROOT
HETATM    1  C   UNL     1     -12.202  10.749  70.990  1.00  0.00    -0.485 C  
HETATM    2  C   UNL     1     -11.462  11.286  69.759  1.00  0.00    -0.310 C  
ENDROOT
BRANCH   2   3
HETATM    3  C   UNL     1     -11.407  10.178  68.683  1.00  0.00    -0.172 C  
BRANCH   3   4
HETATM    4  C   UNL     1     -10.407   9.061  69.002  1.00  0.00    -0.233 C  
BRANCH   4   5
HETATM    5  C   UNL     1      -9.206   9.102  68.085  1.00  0.00    -0.137 A  
HETATM    6  C   UNL     1      -8.972   8.076  67.159  1.00  0.00    -0.150 A  
HETATM    7  C   UNL     1      -7.860   8.122  66.316  1.00  0.00    -0.095 A  
HETATM    8  C   UNL     1      -8.312  10.181  68.138  1.00  0.00    -0.117 A  
HETATM    9  C   UNL     1      -6.973   9.196  66.385  1.00  0.00    -0.080 A  
HETATM   10  C   UNL     1      -7.201  10.226  67.295  1.00  0.00    -0.089 A  
ENDBRANCH   4   5
ENDBRANCH   3   4
ENDBRANCH   2   3
BRANCH   2  11
HETATM   11  N   UNL     1     -12.094  12.489  69.205  1.00  0.00    -0.206 NA 
HETATM   12  H   UNL     1     -13.074  12.539  69.483  1.00  0.00     0.000 HD 
BRANCH  11  13
HETATM   13  C   UNL     1     -11.398  13.739  69.540  1.00  0.00    -0.224 C  
BRANCH  13  14
HETATM   14  C   UNL     1     -10.858  14.460  68.275  1.00  0.00    -0.242 C  
HETATM   15  H   UNL     1      -9.093  14.921  67.555  1.00  0.00     0.000 HD 
HETATM   16  O   UNL     1      -9.424  14.480  68.328  1.00  0.00    -0.195 OA 
BRANCH  14  17
HETATM   17  C   UNL     1     -11.351  13.808  66.989  1.00  0.00    -0.345 A  
HETATM   18  C   UNL     1     -11.112  12.180  65.166  1.00  0.00    -0.369 A  
HETATM   19  H   UNL     1     -13.454  12.713  62.894  1.00  0.00     0.000 HD 
HETATM   20  C   UNL     1     -12.239  12.730  64.546  1.00  0.00    -0.433 A  
HETATM   21  C   UNL     1     -12.942  13.772  65.142  1.00  0.00    -0.279 A  
HETATM   22  O   UNL     1     -12.689  12.339  63.314  1.00  0.00    -0.699 OA 
HETATM   23  C   UNL     1     -12.489  14.321  66.346  1.00  0.00    -0.287 A  
HETATM   24  C   UNL     1     -10.678  12.729  66.386  1.00  0.00    -0.282 A  
BRANCH  18  25
HETATM   25  C   UNL     1     -10.309  11.058  64.596  1.00  0.00    -0.345 C  
HETATM   26  O   UNL     1     -10.533   9.889  64.882  1.00  0.00     0.099 OA 
HETATM   27  H1  UNL     1      -8.756  10.598  63.327  1.00  0.00     0.000 HD 
HETATM   28  H2  UNL     1      -9.113  12.332  63.457  1.00  0.00     0.000 HD 
HETATM   29  N   UNL     1      -9.306  11.365  63.716  1.00  0.00    -0.146 N  
ENDBRANCH  18  25
ENDBRANCH  14  17
ENDBRANCH  13  14
ENDBRANCH  11  13
ENDBRANCH   2  11
TORSDOF 8
ENDMDL
MODEL      276
REMARK 921   NORMALIZED FREE ENERGY PREDICTED BY IDOCK:   -3.80 KCAL/MOL
REMARK 922        TOTAL FREE ENERGY PREDICTED BY IDOCK:   -7.13 KCAL/MOL
REMARK 923 INTER-LIGAND FREE ENERGY PREDICTED BY IDOCK:   -6.39 KCAL/MOL
REMARK 924 INTRA-LIGAND FREE ENERGY PREDICTED BY IDOCK:   -0.74 KCAL/MOL
REMARK 927      BINDING AFFINITY PREDICTED BY RF-SCORE:    0.00 PKD
ROOT
HETATM    1  C   UNL     1      -9.199   7.442  66.950  1.00  0.00    -0.183 C  
HETATM    2  C   UNL     1      -9.843   8.669  67.606  1.00  0.00    -0.180 C  
ENDROOT
BRANCH   2   3
HETATM    3  C   UNL     1     -10.242   9.676  66.504  1.00  0.00    -0.294 C  
BRANCH   3   4
HETATM    4  C   UNL     1     -10.659  11.048  67.047  1.00  0.00    -0.303 C  
BRANCH   4   5
HETATM    5  C   UNL     1     -11.157  11.960  65.949  1.00  0.00    -0.365 A  
HETATM    6  C   UNL     1     -11.753  13.191  66.251  1.00  0.00    -0.424 A  
HETATM    7  C   UNL     1     -12.211  14.027  65.230  1.00  0.00    -0.451 A  
HETATM    8  C   UNL     1     -11.014  11.590  64.604  1.00  0.00    -0.353 A  
HETATM    9  C   UNL     1     -12.072  13.644  63.896  1.00  0.00    -0.462 A  
HETATM   10  C   UNL     1     -11.472  12.426  63.584  1.00  0.00    -0.568 A  
ENDBRANCH   4   5
ENDBRANCH   3   4
ENDBRANCH   2   3
BRANCH   2  11
HETATM   11  N   UNL     1     -11.019   8.322  68.413  1.00  0.00    -0.425 NA 
HETATM   12  H   UNL     1     -11.150   7.311  68.438  1.00  0.00     0.000 HD 
BRANCH  11  13
HETATM   13  C   UNL     1     -10.994   8.873  69.775  1.00  0.00    -0.156 C  
BRANCH  13  14
HETATM   14  C   UNL     1      -9.746   8.399  70.570  1.00  0.00    -0.173 C  
HETATM   15  H   UNL     1      -8.547   9.175  71.913  1.00  0.00     0.000 HD 
HETATM   16  O   UNL     1      -9.310   9.464  71.427  1.00  0.00    -0.265 OA 
BRANCH  14  17
HETATM   17  C   UNL     1     -10.022   7.129  71.365  1.00  0.00    -0.193 A  
HETATM   18  C   UNL     1      -9.728   4.722  71.756  1.00  0.00    -0.225 A  
HETATM   19  H   UNL     1     -11.752   3.741  74.179  1.00  0.00     0.000 HD 
HETATM   20  C   UNL     1     -10.666   4.790  72.791  1.00  0.00    -0.217 A  
HETATM   21  C   UNL     1     -11.249   6.002  73.144  1.00  0.00    -0.177 A  
HETATM   22  O   UNL     1     -11.114   3.694  73.475  1.00  0.00    -0.222 OA 
HETATM   23  C   UNL     1     -10.944   7.161  72.423  1.00  0.00    -0.286 A  
HETATM   24  C   UNL     1      -9.416   5.898  71.050  1.00  0.00    -0.189 A  
BRANCH  18  25
HETATM   25  C   UNL     1      -9.053   3.464  71.321  1.00  0.00    -0.107 C  
HETATM   26  O   UNL     1      -8.009   3.078  71.832  1.00  0.00    -0.056 OA 
HETATM   27  H1  UNL     1      -9.181   1.864  70.034  1.00  0.00     0.000 HD 
HETATM   28  H2  UNL     1     -10.518   3.024  69.903  1.00  0.00     0.000 HD 
HETATM   29  N   UNL     1      -9.642   2.724  70.331  1.00  0.00    -0.115 N  
ENDBRANCH  18  25
ENDBRANCH  14  17
ENDBRANCH  13  14
ENDBRANCH  11  13
ENDBRANCH   2  11
TORSDOF 8
ENDMDL
MODEL      277
REMARK 921   NORMALIZED FREE ENERGY PREDICTED BY IDOCK:   -3.79 KCAL/MOL
REMARK 922        TOTAL FREE ENERGY PREDICTED BY IDOCK:   -7.11 KCAL/MOL
REMARK 923 INTER-LIGAND FREE ENERGY PREDICTED BY IDOCK:   -6.25 KCAL/MOL
REMARK 924 INTRA-LIGAND FREE ENERGY PREDICTED BY IDOCK:   -0.86 KCAL/MOL
REMARK 927      BINDING AFFINITY PREDICTED BY RF-SCORE:    0.00 PKD
ROOT
HETATM    1  C   UNL     1      -8.952   6.857  67.323  1.00  0.00    -0.118 C  
HETATM    2  C   UNL     1     -10.059   7.901  67.512  1.00  0.00    -0.213 C  
ENDROOT
BRANCH   2   3
HETATM    3  C   UNL     1      -9.774   8.707  68.800  1.00  0.00    -0.171 C  
BRANCH   3   4
HETATM    4  C   UNL     1     -11.004   8.884  69.697  1.00  0.00    -0.132 C  
BRANCH   4   5
HETATM    5  C   UNL     1     -10.927   8.018  70.934  1.00  0.00    -0.260 A  
HETATM    6  C   UNL     1     -10.244   8.455  72.077  1.00  0.00    -0.364 A  
HETATM    7  C   UNL     1     -10.178   7.648  73.214  1.00  0.00    -0.398 A  
HETATM    8  C   UNL     1     -11.555   6.765  70.960  1.00  0.00    -0.388 A  
HETATM    9  C   UNL     1     -10.798   6.399  73.225  1.00  0.00    -0.270 A  
HETATM   10  C   UNL     1     -11.488   5.959  72.098  1.00  0.00    -0.333 A  
ENDBRANCH   4   5
ENDBRANCH   3   4
ENDBRANCH   2   3
BRANCH   2  11
HETATM   11  N   UNL     1     -10.172   8.813  66.368  1.00  0.00    -0.346 NA 
HETATM   12  H   UNL     1     -11.117   9.189  66.301  1.00  0.00     0.000 HD 
BRANCH  11  13
HETATM   13  C   UNL     1      -9.183   9.900  66.370  1.00  0.00    -0.158 C  
BRANCH  13  14
HETATM   14  C   UNL     1      -9.521  10.994  65.322  1.00  0.00    -0.223 C  
HETATM   15  H   UNL     1     -10.687  11.138  63.752  1.00  0.00     0.000 HD 
HETATM   16  O   UNL     1     -10.480  10.468  64.393  1.00  0.00    -0.304 OA 
BRANCH  14  17
HETATM   17  C   UNL     1     -10.030  12.275  65.973  1.00  0.00    -0.270 A  
HETATM   18  C   UNL     1      -9.643  14.438  67.071  1.00  0.00    -0.251 A  
HETATM   19  H   UNL     1     -12.521  15.664  68.139  1.00  0.00     0.000 HD 
HETATM   20  C   UNL     1     -11.020  14.559  67.284  1.00  0.00    -0.305 A  
HETATM   21  C   UNL     1     -11.900  13.586  66.823  1.00  0.00    -0.450 A  
HETATM   22  O   UNL     1     -11.586  15.582  67.995  1.00  0.00    -0.342 OA 
HETATM   23  C   UNL     1     -11.407  12.442  66.189  1.00  0.00    -0.398 A  
HETATM   24  C   UNL     1      -9.161  13.290  66.416  1.00  0.00    -0.062 A  
BRANCH  18  25
HETATM   25  C   UNL     1      -8.635  15.439  67.528  1.00  0.00    -0.174 C  
HETATM   26  O   UNL     1      -7.880  15.217  68.466  1.00  0.00    -0.124 OA 
HETATM   27  H1  UNL     1      -7.866  17.313  67.167  1.00  0.00     0.000 HD 
HETATM   28  H2  UNL     1      -9.168  16.825  66.064  1.00  0.00     0.000 HD 
HETATM   29  N   UNL     1      -8.555  16.628  66.855  1.00  0.00    -0.195 N  
ENDBRANCH  18  25
ENDBRANCH  14  17
ENDBRANCH  13  14
ENDBRANCH  11  13
ENDBRANCH   2  11
TORSDOF 8
ENDMDL
MODEL      278
REMARK 921   NORMALIZED FREE ENERGY PREDICTED BY IDOCK:   -3.77 KCAL/MOL
REMARK 922        TOTAL FREE ENERGY PREDICTED BY IDOCK:   -7.08 KCAL/MOL
REMARK 923 INTER-LIGAND FREE ENERGY PREDICTED BY IDOCK:   -6.73 KCAL/MOL
REMARK 924 INTRA-LIGAND FREE ENERGY PREDICTED BY IDOCK:   -0.35 KCAL/MOL
REMARK 927      BINDING AFFINITY PREDICTED BY RF-SCORE:    0.00 PKD
ROOT
HETATM    1  C   UNL     1     -12.008  13.175  66.280  1.00  0.00    -0.473 C  
HETATM    2  C   UNL     1     -10.709  13.682  66.919  1.00  0.00    -0.275 C  
ENDROOT
BRANCH   2   3
HETATM    3  C   UNL     1     -10.813  13.535  68.454  1.00  0.00    -0.286 C  
BRANCH   3   4
HETATM    4  C   UNL     1     -11.418  14.760  69.148  1.00  0.00    -0.323 C  
BRANCH   4   5
HETATM    5  C   UNL     1     -12.329  14.367  70.289  1.00  0.00    -0.410 A  
HETATM    6  C   UNL     1     -12.458  13.027  70.678  1.00  0.00    -0.347 A  
HETATM    7  C   UNL     1     -13.301  12.673  71.733  1.00  0.00    -0.405 A  
HETATM    8  C   UNL     1     -13.050  15.346  70.988  1.00  0.00    -0.565 A  
HETATM    9  C   UNL     1     -14.021  13.655  72.414  1.00  0.00    -0.651 A  
HETATM   10  C   UNL     1     -13.893  14.991  72.042  1.00  0.00    -0.578 A  
ENDBRANCH   4   5
ENDBRANCH   3   4
ENDBRANCH   2   3
BRANCH   2  11
HETATM   11  N   UNL     1      -9.526  12.965  66.428  1.00  0.00    -0.319 NA 
HETATM   12  H   UNL     1      -8.803  13.622  66.138  1.00  0.00     0.000 HD 
BRANCH  11  13
HETATM   13  C   UNL     1      -8.982  11.987  67.382  1.00  0.00    -0.176 C  
BRANCH  13  14
HETATM   14  C   UNL     1      -8.259  10.816  66.663  1.00  0.00    -0.140 C  
HETATM   15  H   UNL     1      -6.433  10.103  66.604  1.00  0.00     0.000 HD 
HETATM   16  O   UNL     1      -6.876  10.819  67.044  1.00  0.00    -0.083 OA 
BRANCH  14  17
HETATM   17  C   UNL     1      -8.909   9.470  66.963  1.00  0.00    -0.139 A  
HETATM   18  C   UNL     1      -9.147   7.056  66.579  1.00  0.00    -0.183 A  
HETATM   19  H   UNL     1     -11.733   5.915  68.293  1.00  0.00     0.000 HD 
HETATM   20  C   UNL     1     -10.232   7.038  67.462  1.00  0.00    -0.199 A  
HETATM   21  C   UNL     1     -10.635   8.195  68.119  1.00  0.00    -0.168 A  
HETATM   22  O   UNL     1     -10.996   5.927  67.693  1.00  0.00    -0.282 OA 
HETATM   23  C   UNL     1      -9.990   9.408  67.857  1.00  0.00    -0.220 A  
HETATM   24  C   UNL     1      -8.496   8.280  66.337  1.00  0.00    -0.125 A  
BRANCH  18  25
HETATM   25  C   UNL     1      -8.650   5.858  65.840  1.00  0.00    -0.145 C  
HETATM   26  O   UNL     1      -7.541   5.831  65.322  1.00  0.00    -0.079 OA 
HETATM   27  H1  UNL     1      -9.125   3.943  65.261  1.00  0.00     0.000 HD 
HETATM   28  H2  UNL     1     -10.387   4.763  66.202  1.00  0.00     0.000 HD 
HETATM   29  N   UNL     1      -9.465   4.761  65.766  1.00  0.00    -0.159 N  
ENDBRANCH  18  25
ENDBRANCH  14  17
ENDBRANCH  13  14
ENDBRANCH  11  13
ENDBRANCH   2  11
TORSDOF 8
ENDMDL
MODEL      279
REMARK 921   NORMALIZED FREE ENERGY PREDICTED BY IDOCK:   -3.76 KCAL/MOL
REMARK 922        TOTAL FREE ENERGY PREDICTED BY IDOCK:   -7.08 KCAL/MOL
REMARK 923 INTER-LIGAND FREE ENERGY PREDICTED BY IDOCK:   -6.58 KCAL/MOL
REMARK 924 INTRA-LIGAND FREE ENERGY PREDICTED BY IDOCK:   -0.50 KCAL/MOL
REMARK 927      BINDING AFFINITY PREDICTED BY RF-SCORE:    0.00 PKD
ROOT
HETATM    1  C   UNL     1     -10.942   7.629  72.207  1.00  0.00    -0.328 C  
HETATM    2  C   UNL     1     -10.245   7.740  70.846  1.00  0.00    -0.199 C  
ENDROOT
BRANCH   2   3
HETATM    3  C   UNL     1      -9.637   6.367  70.479  1.00  0.00    -0.179 C  
BRANCH   3   4
HETATM    4  C   UNL     1     -10.630   5.419  69.797  1.00  0.00    -0.347 C  
BRANCH   4   5
HETATM    5  C   UNL     1     -10.087   4.881  68.492  1.00  0.00    -0.148 A  
HETATM    6  C   UNL     1      -9.298   3.723  68.464  1.00  0.00    -0.227 A  
HETATM    7  C   UNL     1      -8.800   3.233  67.256  1.00  0.00    -0.153 A  
HETATM    8  C   UNL     1     -10.379   5.528  67.283  1.00  0.00    -0.290 A  
HETATM    9  C   UNL     1      -9.090   3.891  66.061  1.00  0.00    -0.148 A  
HETATM   10  C   UNL     1      -9.881   5.038  66.075  1.00  0.00    -0.206 A  
ENDBRANCH   4   5
ENDBRANCH   3   4
ENDBRANCH   2   3
BRANCH   2  11
HETATM   11  N   UNL     1     -11.155   8.182  69.783  1.00  0.00    -0.431 NA 
HETATM   12  H   UNL     1     -11.881   8.790  70.163  1.00  0.00     0.000 HD 
BRANCH  11  13
HETATM   13  C   UNL     1     -10.481   8.830  68.649  1.00  0.00    -0.183 C  
BRANCH  13  14
HETATM   14  C   UNL     1     -10.642  10.374  68.683  1.00  0.00    -0.209 C  
HETATM   15  H   UNL     1      -9.586  11.892  69.334  1.00  0.00     0.000 HD 
HETATM   16  O   UNL     1      -9.487  10.948  69.313  1.00  0.00    -0.148 OA 
BRANCH  14  17
HETATM   17  C   UNL     1     -10.859  10.959  67.293  1.00  0.00    -0.342 A  
HETATM   18  C   UNL     1     -10.340  11.071  64.895  1.00  0.00    -0.378 A  
HETATM   19  H   UNL     1     -11.954  13.615  63.533  1.00  0.00     0.000 HD 
HETATM   20  C   UNL     1     -11.206  12.163  64.774  1.00  0.00    -0.323 A  
HETATM   21  C   UNL     1     -11.921  12.630  65.871  1.00  0.00    -0.497 A  
HETATM   22  O   UNL     1     -11.366  12.873  63.615  1.00  0.00    -0.428 OA 
HETATM   23  C   UNL     1     -11.734  12.044  67.127  1.00  0.00    -0.344 A  
HETATM   24  C   UNL     1     -10.174  10.479  66.160  1.00  0.00    -0.299 A  
BRANCH  18  25
HETATM   25  C   UNL     1      -9.543  10.507  63.766  1.00  0.00    -0.311 C  
HETATM   26  O   UNL     1      -9.350  11.133  62.731  1.00  0.00    -0.327 OA 
HETATM   27  H1  UNL     1      -8.462   8.870  63.146  1.00  0.00     0.000 HD 
HETATM   28  H2  UNL     1      -9.147   8.726  64.777  1.00  0.00     0.000 HD 
HETATM   29  N   UNL     1      -9.006   9.256  63.917  1.00  0.00    -0.135 N  
ENDBRANCH  18  25
ENDBRANCH  14  17
ENDBRANCH  13  14
ENDBRANCH  11  13
ENDBRANCH   2  11
TORSDOF 8
ENDMDL
MODEL      280
REMARK 921   NORMALIZED FREE ENERGY PREDICTED BY IDOCK:   -3.76 KCAL/MOL
REMARK 922        TOTAL FREE ENERGY PREDICTED BY IDOCK:   -7.07 KCAL/MOL
REMARK 923 INTER-LIGAND FREE ENERGY PREDICTED BY IDOCK:   -6.36 KCAL/MOL
REMARK 924 INTRA-LIGAND FREE ENERGY PREDICTED BY IDOCK:   -0.71 KCAL/MOL
REMARK 927      BINDING AFFINITY PREDICTED BY RF-SCORE:    0.00 PKD
ROOT
HETATM    1  C   UNL     1     -12.027   8.691  71.247  1.00  0.00    -0.339 C  
HETATM    2  C   UNL     1     -10.621   9.216  71.560  1.00  0.00    -0.358 C  
ENDROOT
BRANCH   2   3
HETATM    3  C   UNL     1      -9.887   8.186  72.449  1.00  0.00    -0.346 C  
BRANCH   3   4
HETATM    4  C   UNL     1     -10.832   7.246  73.207  1.00  0.00    -0.404 C  
BRANCH   4   5
HETATM    5  C   UNL     1     -10.583   5.797  72.856  1.00  0.00    -0.264 A  
HETATM    6  C   UNL     1     -10.070   5.437  71.603  1.00  0.00    -0.259 A  
HETATM    7  C   UNL     1      -9.844   4.097  71.288  1.00  0.00    -0.249 A  
HETATM    8  C   UNL     1     -10.849   4.787  73.792  1.00  0.00    -0.379 A  
HETATM    9  C   UNL     1     -10.121   3.100  72.223  1.00  0.00    -0.216 A  
HETATM   10  C   UNL     1     -10.622   3.447  73.476  1.00  0.00    -0.286 A  
ENDBRANCH   4   5
ENDBRANCH   3   4
ENDBRANCH   2   3
BRANCH   2  11
HETATM   11  N   UNL     1      -9.836   9.477  70.348  1.00  0.00    -0.257 NA 
HETATM   12  H   UNL     1      -9.009   8.881  70.321  1.00  0.00     0.000 HD 
BRANCH  11  13
HETATM   13  C   UNL     1     -10.603   9.350  69.100  1.00  0.00    -0.218 C  
BRANCH  13  14
HETATM   14  C   UNL     1      -9.706   9.535  67.846  1.00  0.00    -0.147 C  
HETATM   15  H   UNL     1      -9.826   9.084  65.942  1.00  0.00     0.000 HD 
HETATM   16  O   UNL     1     -10.375   8.971  66.709  1.00  0.00    -0.261 OA 
BRANCH  14  17
HETATM   17  C   UNL     1      -9.350  10.998  67.607  1.00  0.00    -0.162 A  
HETATM   18  C   UNL     1      -9.757  13.169  66.533  1.00  0.00    -0.268 A  
HETATM   19  H   UNL     1      -7.260  15.225  67.217  1.00  0.00     0.000 HD 
HETATM   20  C   UNL     1      -8.573  13.654  67.099  1.00  0.00    -0.192 A  
HETATM   21  C   UNL     1      -7.803  12.852  67.935  1.00  0.00    -0.151 A  
HETATM   22  O   UNL     1      -8.064  14.895  66.833  1.00  0.00    -0.195 OA 
HETATM   23  C   UNL     1      -8.179  11.527  68.172  1.00  0.00    -0.149 A  
HETATM   24  C   UNL     1     -10.133  11.838  66.794  1.00  0.00    -0.235 A  
BRANCH  18  25
HETATM   25  C   UNL     1     -10.641  13.966  65.632  1.00  0.00    -0.301 C  
HETATM   26  O   UNL     1     -10.491  13.972  64.417  1.00  0.00    -0.368 OA 
HETATM   27  H1  UNL     1     -12.258  15.236  65.583  1.00  0.00     0.000 HD 
HETATM   28  H2  UNL     1     -11.801  14.687  67.208  1.00  0.00     0.000 HD 
HETATM   29  N   UNL     1     -11.654  14.691  66.199  1.00  0.00    -0.355 N  
ENDBRANCH  18  25
ENDBRANCH  14  17
ENDBRANCH  13  14
ENDBRANCH  11  13
ENDBRANCH   2  11
TORSDOF 8
ENDMDL
MODEL      281
REMARK 921   NORMALIZED FREE ENERGY PREDICTED BY IDOCK:   -3.73 KCAL/MOL
REMARK 922        TOTAL FREE ENERGY PREDICTED BY IDOCK:   -7.03 KCAL/MOL
REMARK 923 INTER-LIGAND FREE ENERGY PREDICTED BY IDOCK:   -6.32 KCAL/MOL
REMARK 924 INTRA-LIGAND FREE ENERGY PREDICTED BY IDOCK:   -0.71 KCAL/MOL
REMARK 927      BINDING AFFINITY PREDICTED BY RF-SCORE:    0.00 PKD
ROOT
HETATM    1  C   UNL     1      -7.663   9.867  67.053  1.00  0.00    -0.095 C  
HETATM    2  C   UNL     1      -8.240  10.022  65.641  1.00  0.00    -0.143 C  
ENDROOT
BRANCH   2   3
HETATM    3  C   UNL     1      -9.106   8.784  65.313  1.00  0.00    -0.156 C  
BRANCH   3   4
HETATM    4  C   UNL     1      -8.286   7.531  64.988  1.00  0.00    -0.105 C  
BRANCH   4   5
HETATM    5  C   UNL     1      -8.785   6.321  65.745  1.00  0.00    -0.145 A  
HETATM    6  C   UNL     1     -10.092   6.276  66.248  1.00  0.00    -0.007 A  
HETATM    7  C   UNL     1     -10.544   5.155  66.946  1.00  0.00    -0.234 A  
HETATM    8  C   UNL     1      -7.947   5.214  65.941  1.00  0.00    -0.108 A  
HETATM    9  C   UNL     1      -9.698   4.064  67.144  1.00  0.00    -0.207 A  
HETATM   10  C   UNL     1      -8.400   4.093  66.639  1.00  0.00    -0.101 A  
ENDBRANCH   4   5
ENDBRANCH   3   4
ENDBRANCH   2   3
BRANCH   2  11
HETATM   11  N   UNL     1      -9.040  11.244  65.492  1.00  0.00    -0.289 NA 
HETATM   12  H   UNL     1      -8.892  11.660  64.573  1.00  0.00     0.000 HD 
BRANCH  11  13
HETATM   13  C   UNL     1     -10.475  11.053  65.746  1.00  0.00    -0.228 C  
BRANCH  13  14
HETATM   14  C   UNL     1     -11.223  12.405  65.898  1.00  0.00    -0.336 C  
HETATM   15  H   UNL     1     -12.878  13.193  65.201  1.00  0.00     0.000 HD 
HETATM   16  O   UNL     1     -12.421  12.365  65.109  1.00  0.00    -0.583 OA 
BRANCH  14  17
HETATM   17  C   UNL     1     -11.534  12.729  67.354  1.00  0.00    -0.396 A  
HETATM   18  C   UNL     1     -11.951  12.042  69.675  1.00  0.00    -0.360 A  
HETATM   19  H   UNL     1     -12.876  14.670  71.456  1.00  0.00     0.000 HD 
HETATM   20  C   UNL     1     -12.237  13.372  70.002  1.00  0.00    -0.298 A  
HETATM   21  C   UNL     1     -12.141  14.376  69.045  1.00  0.00    -0.298 A  
HETATM   22  O   UNL     1     -12.681  13.766  71.234  1.00  0.00    -0.341 OA 
HETATM   23  C   UNL     1     -11.810  14.054  67.725  1.00  0.00    -0.419 A  
HETATM   24  C   UNL     1     -11.602  11.734  68.347  1.00  0.00    -0.380 A  
BRANCH  18  25
HETATM   25  C   UNL     1     -12.024  10.909  70.644  1.00  0.00    -0.368 C  
HETATM   26  O   UNL     1     -12.891  10.848  71.506  1.00  0.00    -0.411 OA 
HETATM   27  H1  UNL     1     -11.146   9.133  71.199  1.00  0.00     0.000 HD 
HETATM   28  H2  UNL     1     -10.375   9.936  69.817  1.00  0.00     0.000 HD 
HETATM   29  N   UNL     1     -11.096   9.908  70.537  1.00  0.00    -0.307 N  
ENDBRANCH  18  25
ENDBRANCH  14  17
ENDBRANCH  13  14
ENDBRANCH  11  13
ENDBRANCH   2  11
TORSDOF 8
ENDMDL
MODEL      282
REMARK 921   NORMALIZED FREE ENERGY PREDICTED BY IDOCK:   -3.73 KCAL/MOL
REMARK 922        TOTAL FREE ENERGY PREDICTED BY IDOCK:   -7.02 KCAL/MOL
REMARK 923 INTER-LIGAND FREE ENERGY PREDICTED BY IDOCK:   -5.36 KCAL/MOL
REMARK 924 INTRA-LIGAND FREE ENERGY PREDICTED BY IDOCK:   -1.67 KCAL/MOL
REMARK 927      BINDING AFFINITY PREDICTED BY RF-SCORE:    0.00 PKD
ROOT
HETATM    1  C   UNL     1     -10.124   9.106  69.335  1.00  0.00    -0.198 C  
HETATM    2  C   UNL     1      -9.304   9.980  68.378  1.00  0.00    -0.138 C  
ENDROOT
BRANCH   2   3
HETATM    3  C   UNL     1      -9.972   9.962  66.984  1.00  0.00    -0.254 C  
BRANCH   3   4
HETATM    4  C   UNL     1      -9.485  11.080  66.056  1.00  0.00    -0.235 C  
BRANCH   4   5
HETATM    5  C   UNL     1     -10.634  11.774  65.360  1.00  0.00    -0.325 A  
HETATM    6  C   UNL     1     -11.478  12.646  66.061  1.00  0.00    -0.414 A  
HETATM    7  C   UNL     1     -12.537  13.282  65.411  1.00  0.00    -0.526 A  
HETATM    8  C   UNL     1     -10.864  11.564  63.993  1.00  0.00    -0.453 A  
HETATM    9  C   UNL     1     -12.762  13.058  64.052  1.00  0.00    -0.179 A  
HETATM   10  C   UNL     1     -11.923  12.200  63.344  1.00  0.00    -0.578 A  
ENDBRANCH   4   5
ENDBRANCH   3   4
ENDBRANCH   2   3
BRANCH   2  11
HETATM   11  N   UNL     1      -9.178  11.363  68.852  1.00  0.00    -0.382 NA 
HETATM   12  H   UNL     1      -9.888  11.568  69.554  1.00  0.00     0.000 HD 
BRANCH  11  13
HETATM   13  C   UNL     1      -7.840  11.702  69.358  1.00  0.00     0.354 C  
BRANCH  13  14
HETATM   14  C   UNL     1      -7.174  12.833  68.528  1.00  0.00    -0.114 C  
HETATM   15  H   UNL     1      -6.103  12.942  66.889  1.00  0.00     0.000 HD 
HETATM   16  O   UNL     1      -6.510  12.251  67.397  1.00  0.00    -0.128 OA 
BRANCH  14  17
HETATM   17  C   UNL     1      -8.180  13.892  68.091  1.00  0.00    -0.158 A  
HETATM   18  C   UNL     1     -10.221  15.209  68.455  1.00  0.00    -0.221 A  
HETATM   19  H   UNL     1     -10.897  16.971  65.740  1.00  0.00     0.000 HD 
HETATM   20  C   UNL     1     -10.076  15.759  67.176  1.00  0.00    -0.251 A  
HETATM   21  C   UNL     1      -8.990  15.422  66.375  1.00  0.00    -0.351 A  
HETATM   22  O   UNL     1     -10.995  16.598  66.608  1.00  0.00    -0.092 OA 
HETATM   23  C   UNL     1      -8.059  14.479  66.822  1.00  0.00     0.128 A  
HETATM   24  C   UNL     1      -9.266  14.276  68.899  1.00  0.00    -0.044 A  
BRANCH  18  25
HETATM   25  C   UNL     1     -11.351  15.523  69.377  1.00  0.00    -0.316 C  
HETATM   26  O   UNL     1     -12.473  15.061  69.209  1.00  0.00    -0.127 OA 
HETATM   27  H1  UNL     1     -11.876  16.557  71.077  1.00  0.00     0.000 HD 
HETATM   28  H2  UNL     1     -10.173  16.726  70.608  1.00  0.00     0.000 HD 
HETATM   29  N   UNL     1     -11.103  16.342  70.446  1.00  0.00    -0.353 N  
ENDBRANCH  18  25
ENDBRANCH  14  17
ENDBRANCH  13  14
ENDBRANCH  11  13
ENDBRANCH   2  11
TORSDOF 8
ENDMDL
MODEL      283
REMARK 921   NORMALIZED FREE ENERGY PREDICTED BY IDOCK:   -3.72 KCAL/MOL
REMARK 922        TOTAL FREE ENERGY PREDICTED BY IDOCK:   -7.02 KCAL/MOL
REMARK 923 INTER-LIGAND FREE ENERGY PREDICTED BY IDOCK:   -6.82 KCAL/MOL
REMARK 924 INTRA-LIGAND FREE ENERGY PREDICTED BY IDOCK:   -0.20 KCAL/MOL
REMARK 927      BINDING AFFINITY PREDICTED BY RF-SCORE:    0.00 PKD
ROOT
HETATM    1  C   UNL     1      -9.900  16.299  68.850  1.00  0.00    -0.246 C  
HETATM    2  C   UNL     1     -10.393  15.071  68.075  1.00  0.00    -0.236 C  
ENDROOT
BRANCH   2   3
HETATM    3  C   UNL     1     -10.827  15.512  66.659  1.00  0.00    -0.285 C  
BRANCH   3   4
HETATM    4  C   UNL     1     -10.005  14.867  65.537  1.00  0.00    -0.392 C  
BRANCH   4   5
HETATM    5  C   UNL     1     -10.782  13.788  64.819  1.00  0.00    -0.429 A  
HETATM    6  C   UNL     1     -10.127  12.831  64.032  1.00  0.00    -0.226 A  
HETATM    7  C   UNL     1     -10.854  11.838  63.373  1.00  0.00    -0.460 A  
HETATM    8  C   UNL     1     -12.177  13.719  64.945  1.00  0.00    -0.443 A  
HETATM    9  C   UNL     1     -12.242  11.786  63.497  1.00  0.00    -0.489 A  
HETATM   10  C   UNL     1     -12.903  12.726  64.285  1.00  0.00    -0.245 A  
ENDBRANCH   4   5
ENDBRANCH   3   4
ENDBRANCH   2   3
BRANCH   2  11
HETATM   11  N   UNL     1      -9.373  14.021  67.980  1.00  0.00    -0.198 NA 
HETATM   12  H   UNL     1      -8.753  14.049  68.789  1.00  0.00     0.000 HD 
BRANCH  11  13
HETATM   13  C   UNL     1      -9.922  12.669  67.798  1.00  0.00    -0.218 C  
BRANCH  13  14
HETATM   14  C   UNL     1     -11.076  12.372  68.794  1.00  0.00    -0.262 C  
HETATM   15  H   UNL     1     -13.036  12.399  68.737  1.00  0.00     0.000 HD 
HETATM   16  O   UNL     1     -12.329  12.581  68.128  1.00  0.00    -0.165 OA 
BRANCH  14  17
HETATM   17  C   UNL     1     -10.987  10.964  69.371  1.00  0.00    -0.304 A  
HETATM   18  C   UNL     1     -10.383   8.590  69.184  1.00  0.00    -0.227 A  
HETATM   19  H   UNL     1     -11.486   6.958  71.839  1.00  0.00     0.000 HD 
HETATM   20  C   UNL     1     -10.966   8.359  70.435  1.00  0.00    -0.239 A  
HETATM   21  C   UNL     1     -11.517   9.405  71.167  1.00  0.00    -0.422 A  
HETATM   22  O   UNL     1     -11.090   7.115  70.990  1.00  0.00    -0.247 OA 
HETATM   23  C   UNL     1     -11.545  10.695  70.630  1.00  0.00    -0.432 A  
HETATM   24  C   UNL     1     -10.401   9.897  68.663  1.00  0.00    -0.217 A  
BRANCH  18  25
HETATM   25  C   UNL     1      -9.765   7.526  68.340  1.00  0.00    -0.156 C  
HETATM   26  O   UNL     1     -10.326   6.458  68.130  1.00  0.00    -0.155 OA 
HETATM   27  H1  UNL     1      -8.120   7.049  67.200  1.00  0.00     0.000 HD 
HETATM   28  H2  UNL     1      -8.066   8.665  67.932  1.00  0.00     0.000 HD 
HETATM   29  N   UNL     1      -8.542   7.776  67.778  1.00  0.00    -0.121 N  
ENDBRANCH  18  25
ENDBRANCH  14  17
ENDBRANCH  13  14
ENDBRANCH  11  13
ENDBRANCH   2  11
TORSDOF 8
ENDMDL
MODEL      284
REMARK 921   NORMALIZED FREE ENERGY PREDICTED BY IDOCK:   -3.72 KCAL/MOL
REMARK 922        TOTAL FREE ENERGY PREDICTED BY IDOCK:   -7.02 KCAL/MOL
REMARK 923 INTER-LIGAND FREE ENERGY PREDICTED BY IDOCK:   -6.33 KCAL/MOL
REMARK 924 INTRA-LIGAND FREE ENERGY PREDICTED BY IDOCK:   -0.69 KCAL/MOL
REMARK 927      BINDING AFFINITY PREDICTED BY RF-SCORE:    0.00 PKD
ROOT
HETATM    1  C   UNL     1     -13.342  12.085  72.312  1.00  0.00    -0.261 C  
HETATM    2  C   UNL     1     -12.341  11.820  71.181  1.00  0.00    -0.224 C  
ENDROOT
BRANCH   2   3
HETATM    3  C   UNL     1     -12.502  10.360  70.699  1.00  0.00    -0.437 C  
BRANCH   3   4
HETATM    4  C   UNL     1     -12.852   9.379  71.823  1.00  0.00    -0.484 C  
BRANCH   4   5
HETATM    5  C   UNL     1     -11.817   8.284  71.956  1.00  0.00    -0.408 A  
HETATM    6  C   UNL     1     -10.494   8.584  72.309  1.00  0.00    -0.402 A  
HETATM    7  C   UNL     1      -9.545   7.567  72.429  1.00  0.00    -0.205 A  
HETATM    8  C   UNL     1     -12.172   6.945  71.740  1.00  0.00    -0.396 A  
HETATM    9  C   UNL     1      -9.908   6.240  72.202  1.00  0.00    -0.171 A  
HETATM   10  C   UNL     1     -11.222   5.929  71.860  1.00  0.00    -0.323 A  
ENDBRANCH   4   5
ENDBRANCH   3   4
ENDBRANCH   2   3
BRANCH   2  11
HETATM   11  N   UNL     1     -12.515  12.740  70.051  1.00  0.00    -0.078 NA 
HETATM   12  H   UNL     1     -13.328  13.338  70.197  1.00  0.00     0.000 HD 
BRANCH  11  13
HETATM   13  C   UNL     1     -11.326  13.552  69.751  1.00  0.00    -0.091 C  
BRANCH  13  14
HETATM   14  C   UNL     1     -11.618  15.072  69.866  1.00  0.00    -0.293 C  
HETATM   15  H   UNL     1     -12.112  16.314  71.302  1.00  0.00     0.000 HD 
HETATM   16  O   UNL     1     -11.933  15.383  71.231  1.00  0.00    -0.306 OA 
BRANCH  14  17
HETATM   17  C   UNL     1     -10.455  15.919  69.364  1.00  0.00    -0.265 A  
HETATM   18  C   UNL     1      -8.079  16.210  68.810  1.00  0.00    -0.218 A  
HETATM   19  H   UNL     1      -7.497  19.380  68.073  1.00  0.00     0.000 HD 
HETATM   20  C   UNL     1      -8.320  17.564  68.553  1.00  0.00    -0.274 A  
HETATM   21  C   UNL     1      -9.603  18.090  68.656  1.00  0.00    -0.335 A  
HETATM   22  O   UNL     1      -7.333  18.460  68.248  1.00  0.00    -0.255 OA 
HETATM   23  C   UNL     1     -10.660  17.278  69.078  1.00  0.00    -0.247 A  
HETATM   24  C   UNL     1      -9.155  15.399  69.216  1.00  0.00    -0.260 A  
BRANCH  18  25
HETATM   25  C   UNL     1      -6.736  15.567  68.715  1.00  0.00    -0.114 C  
HETATM   26  O   UNL     1      -5.869  15.748  69.561  1.00  0.00    -0.118 OA 
HETATM   27  H1  UNL     1      -5.571  14.301  67.587  1.00  0.00     0.000 HD 
HETATM   28  H2  UNL     1      -7.203  14.569  66.945  1.00  0.00     0.000 HD 
HETATM   29  N   UNL     1      -6.489  14.740  67.652  1.00  0.00    -0.164 N  
ENDBRANCH  18  25
ENDBRANCH  14  17
ENDBRANCH  13  14
ENDBRANCH  11  13
ENDBRANCH   2  11
TORSDOF 8
ENDMDL
MODEL      285
REMARK 921   NORMALIZED FREE ENERGY PREDICTED BY IDOCK:   -3.71 KCAL/MOL
REMARK 922        TOTAL FREE ENERGY PREDICTED BY IDOCK:   -7.00 KCAL/MOL
REMARK 923 INTER-LIGAND FREE ENERGY PREDICTED BY IDOCK:   -6.00 KCAL/MOL
REMARK 924 INTRA-LIGAND FREE ENERGY PREDICTED BY IDOCK:   -1.00 KCAL/MOL
REMARK 927      BINDING AFFINITY PREDICTED BY RF-SCORE:    0.00 PKD
ROOT
HETATM    1  C   UNL     1      -8.448   7.663  68.229  1.00  0.00    -0.125 C  
HETATM    2  C   UNL     1      -8.813   8.657  67.119  1.00  0.00    -0.129 C  
ENDROOT
BRANCH   2   3
HETATM    3  C   UNL     1      -8.340   8.090  65.761  1.00  0.00    -0.142 C  
BRANCH   3   4
HETATM    4  C   UNL     1      -7.715   6.694  65.863  1.00  0.00    -0.091 C  
BRANCH   4   5
HETATM    5  C   UNL     1      -8.566   5.646  65.183  1.00  0.00    -0.130 A  
HETATM    6  C   UNL     1      -9.670   5.081  65.836  1.00  0.00    -0.182 A  
HETATM    7  C   UNL     1     -10.450   4.114  65.200  1.00  0.00    -0.174 A  
HETATM    8  C   UNL     1      -8.270   5.234  63.876  1.00  0.00    -0.127 A  
HETATM    9  C   UNL     1     -10.140   3.704  63.904  1.00  0.00    -0.208 A  
HETATM   10  C   UNL     1      -9.051   4.267  63.241  1.00  0.00    -0.134 A  
ENDBRANCH   4   5
ENDBRANCH   3   4
ENDBRANCH   2   3
BRANCH   2  11
HETATM   11  N   UNL     1     -10.253   8.937  67.068  1.00  0.00    -0.256 NA 
HETATM   12  H   UNL     1     -10.754   8.359  67.742  1.00  0.00     0.000 HD 
BRANCH  11  13
HETATM   13  C   UNL     1     -10.593  10.355  67.252  1.00  0.00    -0.267 C  
BRANCH  13  14
HETATM   14  C   UNL     1     -10.096  10.899  68.619  1.00  0.00    -0.191 C  
HETATM   15  H   UNL     1      -9.784  12.667  69.409  1.00  0.00     0.000 HD 
HETATM   16  O   UNL     1     -10.088  12.333  68.573  1.00  0.00    -0.216 OA 
BRANCH  14  17
HETATM   17  C   UNL     1     -10.940  10.390  69.781  1.00  0.00    -0.345 A  
HETATM   18  C   UNL     1     -11.306   8.877  71.681  1.00  0.00    -0.407 A  
HETATM   19  H   UNL     1     -14.379   9.276  72.834  1.00  0.00     0.000 HD 
HETATM   20  C   UNL     1     -12.595   9.401  71.831  1.00  0.00    -0.401 A  
HETATM   21  C   UNL     1     -13.047  10.426  71.006  1.00  0.00    -0.450 A  
HETATM   22  O   UNL     1     -13.504   8.920  72.732  1.00  0.00    -0.408 OA 
HETATM   23  C   UNL     1     -12.232  10.904  69.976  1.00  0.00    -0.422 A  
HETATM   24  C   UNL     1     -10.490   9.379  70.650  1.00  0.00    -0.354 A  
BRANCH  18  25
HETATM   25  C   UNL     1     -10.745   7.783  72.527  1.00  0.00    -0.314 C  
HETATM   26  O   UNL     1     -11.253   6.670  72.569  1.00  0.00    -0.253 OA 
HETATM   27  H1  UNL     1      -9.233   7.299  73.836  1.00  0.00     0.000 HD 
HETATM   28  H2  UNL     1      -9.174   8.965  73.225  1.00  0.00     0.000 HD 
HETATM   29  N   UNL     1      -9.617   8.047  73.257  1.00  0.00    -0.276 N  
ENDBRANCH  18  25
ENDBRANCH  14  17
ENDBRANCH  13  14
ENDBRANCH  11  13
ENDBRANCH   2  11
TORSDOF 8
ENDMDL
MODEL      286
REMARK 921   NORMALIZED FREE ENERGY PREDICTED BY IDOCK:   -3.69 KCAL/MOL
REMARK 922        TOTAL FREE ENERGY PREDICTED BY IDOCK:   -6.97 KCAL/MOL
REMARK 923 INTER-LIGAND FREE ENERGY PREDICTED BY IDOCK:   -6.70 KCAL/MOL
REMARK 924 INTRA-LIGAND FREE ENERGY PREDICTED BY IDOCK:   -0.27 KCAL/MOL
REMARK 927      BINDING AFFINITY PREDICTED BY RF-SCORE:    0.00 PKD
ROOT
HETATM    1  C   UNL     1      -9.347   9.938  69.842  1.00  0.00    -0.250 C  
HETATM    2  C   UNL     1      -9.333   9.553  68.358  1.00  0.00    -0.133 C  
ENDROOT
BRANCH   2   3
HETATM    3  C   UNL     1     -10.256   8.331  68.147  1.00  0.00    -0.255 C  
BRANCH   3   4
HETATM    4  C   UNL     1     -10.263   7.808  66.707  1.00  0.00    -0.346 C  
BRANCH   4   5
HETATM    5  C   UNL     1      -9.684   6.414  66.612  1.00  0.00    -0.197 A  
HETATM    6  C   UNL     1      -8.516   6.168  65.879  1.00  0.00    -0.145 A  
HETATM    7  C   UNL     1      -7.989   4.878  65.797  1.00  0.00    -0.106 A  
HETATM    8  C   UNL     1     -10.304   5.345  67.275  1.00  0.00    -0.273 A  
HETATM    9  C   UNL     1      -8.619   3.820  66.451  1.00  0.00    -0.113 A  
HETATM   10  C   UNL     1      -9.776   4.055  67.192  1.00  0.00    -0.207 A  
ENDBRANCH   4   5
ENDBRANCH   3   4
ENDBRANCH   2   3
BRANCH   2  11
HETATM   11  N   UNL     1      -9.760  10.656  67.489  1.00  0.00    -0.164 NA 
HETATM   12  H   UNL     1     -10.767  10.621  67.333  1.00  0.00     0.000 HD 
BRANCH  11  13
HETATM   13  C   UNL     1      -9.358  11.986  67.969  1.00  0.00    -0.196 C  
BRANCH  13  14
HETATM   14  C   UNL     1     -10.289  13.104  67.428  1.00  0.00    -0.239 C  
HETATM   15  H   UNL     1     -11.705  13.236  66.077  1.00  0.00     0.000 HD 
HETATM   16  O   UNL     1     -11.135  12.552  66.409  1.00  0.00    -0.267 OA 
BRANCH  14  17
HETATM   17  C   UNL     1     -11.112  13.751  68.536  1.00  0.00    -0.292 A  
HETATM   18  C   UNL     1     -12.511  13.605  70.549  1.00  0.00    -0.394 A  
HETATM   19  H   UNL     1     -13.716  16.597  71.276  1.00  0.00     0.000 HD 
HETATM   20  C   UNL     1     -12.727  14.986  70.482  1.00  0.00    -0.357 A  
HETATM   21  C   UNL     1     -12.123  15.752  69.491  1.00  0.00    -0.261 A  
HETATM   22  O   UNL     1     -13.570  15.659  71.322  1.00  0.00    -0.546 OA 
HETATM   23  C   UNL     1     -11.336  15.136  68.513  1.00  0.00    -0.321 A  
HETATM   24  C   UNL     1     -11.703  13.000  69.569  1.00  0.00    -0.381 A  
BRANCH  18  25
HETATM   25  C   UNL     1     -13.116  12.714  71.583  1.00  0.00    -0.323 C  
HETATM   26  O   UNL     1     -13.129  11.496  71.462  1.00  0.00    -0.422 OA 
HETATM   27  H1  UNL     1     -14.066  12.686  73.407  1.00  0.00     0.000 HD 
HETATM   28  H2  UNL     1     -13.640  14.307  72.824  1.00  0.00     0.000 HD 
HETATM   29  N   UNL     1     -13.653  13.294  72.701  1.00  0.00    -0.512 N  
ENDBRANCH  18  25
ENDBRANCH  14  17
ENDBRANCH  13  14
ENDBRANCH  11  13
ENDBRANCH   2  11
TORSDOF 8
ENDMDL
MODEL      287
REMARK 921   NORMALIZED FREE ENERGY PREDICTED BY IDOCK:   -3.69 KCAL/MOL
REMARK 922        TOTAL FREE ENERGY PREDICTED BY IDOCK:   -6.97 KCAL/MOL
REMARK 923 INTER-LIGAND FREE ENERGY PREDICTED BY IDOCK:   -4.69 KCAL/MOL
REMARK 924 INTRA-LIGAND FREE ENERGY PREDICTED BY IDOCK:   -2.28 KCAL/MOL
REMARK 927      BINDING AFFINITY PREDICTED BY RF-SCORE:    0.00 PKD
ROOT
HETATM    1  C   UNL     1      -7.671  10.139  62.896  1.00  0.00    -0.148 C  
HETATM    2  C   UNL     1      -8.035   9.494  64.239  1.00  0.00    -0.136 C  
ENDROOT
BRANCH   2   3
HETATM    3  C   UNL     1      -7.316  10.258  65.374  1.00  0.00    -0.144 C  
BRANCH   3   4
HETATM    4  C   UNL     1      -6.361   9.383  66.195  1.00  0.00    -0.068 C  
BRANCH   4   5
HETATM    5  C   UNL     1      -6.757   9.334  67.653  1.00  0.00    -0.068 A  
HETATM    6  C   UNL     1      -6.553   8.176  68.416  1.00  0.00    -0.059 A  
HETATM    7  C   UNL     1      -6.922   8.140  69.761  1.00  0.00    -0.052 A  
HETATM    8  C   UNL     1      -7.322  10.459  68.270  1.00  0.00    -0.088 A  
HETATM    9  C   UNL     1      -7.493   9.262  70.362  1.00  0.00    -0.124 A  
HETATM   10  C   UNL     1      -7.691  10.422  69.616  1.00  0.00    -0.152 A  
ENDBRANCH   4   5
ENDBRANCH   3   4
ENDBRANCH   2   3
BRANCH   2  11
HETATM   11  N   UNL     1      -9.482   9.485  64.483  1.00  0.00    -0.431 NA 
HETATM   12  H   UNL     1      -9.893   8.608  64.164  1.00  0.00     0.000 HD 
BRANCH  11  13
HETATM   13  C   UNL     1      -9.854   9.751  65.880  1.00  0.00    -0.282 C  
BRANCH  13  14
HETATM   14  C   UNL     1     -10.319   8.463  66.612  1.00  0.00    -0.228 C  
HETATM   15  H   UNL     1      -9.612   6.653  66.878  1.00  0.00     0.000 HD 
HETATM   16  O   UNL     1      -9.328   7.442  66.431  1.00  0.00    -0.177 OA 
BRANCH  14  17
HETATM   17  C   UNL     1     -10.592   8.710  68.091  1.00  0.00    -0.189 A  
HETATM   18  C   UNL     1     -10.781   7.924  70.410  1.00  0.00    -0.233 A  
HETATM   19  H   UNL     1     -11.964  10.359  72.308  1.00  0.00     0.000 HD 
HETATM   20  C   UNL     1     -11.232   9.193  70.788  1.00  0.00    -0.277 A  
HETATM   21  C   UNL     1     -11.329  10.221  69.855  1.00  0.00    -0.354 A  
HETATM   22  O   UNL     1     -11.658   9.497  72.052  1.00  0.00    -0.311 OA 
HETATM   23  C   UNL     1     -11.030   9.975  68.512  1.00  0.00    -0.255 A  
HETATM   24  C   UNL     1     -10.466   7.695  69.058  1.00  0.00    -0.214 A  
BRANCH  18  25
HETATM   25  C   UNL     1     -10.643   6.772  71.349  1.00  0.00    -0.221 C  
HETATM   26  O   UNL     1      -9.549   6.324  71.669  1.00  0.00    -0.155 OA 
HETATM   27  H1  UNL     1     -11.690   5.437  72.513  1.00  0.00     0.000 HD 
HETATM   28  H2  UNL     1     -12.702   6.593  71.625  1.00  0.00     0.000 HD 
HETATM   29  N   UNL     1     -11.784   6.225  71.871  1.00  0.00    -0.321 N  
ENDBRANCH  18  25
ENDBRANCH  14  17
ENDBRANCH  13  14
ENDBRANCH  11  13
ENDBRANCH   2  11
TORSDOF 8
ENDMDL
MODEL      288
REMARK 921   NORMALIZED FREE ENERGY PREDICTED BY IDOCK:   -3.68 KCAL/MOL
REMARK 922        TOTAL FREE ENERGY PREDICTED BY IDOCK:   -6.96 KCAL/MOL
REMARK 923 INTER-LIGAND FREE ENERGY PREDICTED BY IDOCK:   -5.12 KCAL/MOL
REMARK 924 INTRA-LIGAND FREE ENERGY PREDICTED BY IDOCK:   -1.84 KCAL/MOL
REMARK 927      BINDING AFFINITY PREDICTED BY RF-SCORE:    0.00 PKD
ROOT
HETATM    1  C   UNL     1     -11.900   5.682  72.247  1.00  0.00    -0.145 C  
HETATM    2  C   UNL     1     -10.973   5.154  73.348  1.00  0.00    -0.320 C  
ENDROOT
BRANCH   2   3
HETATM    3  C   UNL     1     -10.183   3.943  72.802  1.00  0.00    -0.233 C  
BRANCH   3   4
HETATM    4  C   UNL     1      -8.799   4.309  72.255  1.00  0.00    -0.123 C  
BRANCH   4   5
HETATM    5  C   UNL     1      -8.572   3.740  70.873  1.00  0.00    -0.109 A  
HETATM    6  C   UNL     1      -9.584   3.778  69.904  1.00  0.00    -0.255 A  
HETATM    7  C   UNL     1      -9.367   3.250  68.630  1.00  0.00    -0.234 A  
HETATM    8  C   UNL     1      -7.334   3.176  70.534  1.00  0.00    -0.040 A  
HETATM    9  C   UNL     1      -8.134   2.682  68.308  1.00  0.00    -0.068 A  
HETATM   10  C   UNL     1      -7.118   2.647  69.260  1.00  0.00    -0.044 A  
ENDBRANCH   4   5
ENDBRANCH   3   4
ENDBRANCH   2   3
BRANCH   2  11
HETATM   11  N   UNL     1     -10.041   6.178  73.835  1.00  0.00    -0.229 NA 
HETATM   12  H   UNL     1      -9.098   5.997  73.493  1.00  0.00     0.000 HD 
BRANCH  11  13
HETATM   13  C   UNL     1     -10.448   7.555  73.521  1.00  0.00    -0.306 C  
BRANCH  13  14
HETATM   14  C   UNL     1      -9.337   8.330  72.763  1.00  0.00    -0.268 C  
HETATM   15  H   UNL     1      -7.399   8.148  72.520  1.00  0.00     0.000 HD 
HETATM   16  O   UNL     1      -8.080   7.674  72.983  1.00  0.00    -0.101 OA 
BRANCH  14  17
HETATM   17  C   UNL     1      -9.638   8.458  71.275  1.00  0.00    -0.239 A  
HETATM   18  C   UNL     1     -10.546   9.693  69.356  1.00  0.00    -0.243 A  
HETATM   19  H   UNL     1     -10.484   7.765  66.671  1.00  0.00     0.000 HD 
HETATM   20  C   UNL     1     -10.290   8.586  68.540  1.00  0.00    -0.198 A  
HETATM   21  C   UNL     1      -9.685   7.445  69.058  1.00  0.00    -0.160 A  
HETATM   22  O   UNL     1     -10.658   8.517  67.225  1.00  0.00    -0.295 OA 
HETATM   23  C   UNL     1      -9.379   7.375  70.420  1.00  0.00    -0.161 A  
HETATM   24  C   UNL     1     -10.217   9.615  70.721  1.00  0.00    -0.330 A  
BRANCH  18  25
HETATM   25  C   UNL     1     -11.185  10.954  68.877  1.00  0.00    -0.267 C  
HETATM   26  O   UNL     1     -12.399  11.065  68.766  1.00  0.00    -0.533 OA 
HETATM   27  H1  UNL     1     -10.810  12.876  68.246  1.00  0.00     0.000 HD 
HETATM   28  H2  UNL     1      -9.360  11.944  68.671  1.00  0.00     0.000 HD 
HETATM   29  N   UNL     1     -10.373  12.014  68.573  1.00  0.00    -0.217 N  
ENDBRANCH  18  25
ENDBRANCH  14  17
ENDBRANCH  13  14
ENDBRANCH  11  13
ENDBRANCH   2  11
TORSDOF 8
ENDMDL
MODEL      289
REMARK 921   NORMALIZED FREE ENERGY PREDICTED BY IDOCK:   -3.66 KCAL/MOL
REMARK 922        TOTAL FREE ENERGY PREDICTED BY IDOCK:   -6.93 KCAL/MOL
REMARK 923 INTER-LIGAND FREE ENERGY PREDICTED BY IDOCK:   -4.06 KCAL/MOL
REMARK 924 INTRA-LIGAND FREE ENERGY PREDICTED BY IDOCK:   -2.87 KCAL/MOL
REMARK 927      BINDING AFFINITY PREDICTED BY RF-SCORE:    0.00 PKD
ROOT
HETATM    1  C   UNL     1     -10.188   8.150  72.872  1.00  0.00    -0.341 C  
HETATM    2  C   UNL     1     -11.360   7.464  72.160  1.00  0.00    -0.271 C  
ENDROOT
BRANCH   2   3
HETATM    3  C   UNL     1     -11.343   7.864  70.667  1.00  0.00    -0.267 C  
BRANCH   3   4
HETATM    4  C   UNL     1     -10.143   8.734  70.278  1.00  0.00    -0.214 C  
BRANCH   4   5
HETATM    5  C   UNL     1      -9.784   8.576  68.817  1.00  0.00    -0.168 A  
HETATM    6  C   UNL     1     -10.642   7.908  67.934  1.00  0.00    -0.215 A  
HETATM    7  C   UNL     1     -10.302   7.766  66.587  1.00  0.00    -0.262 A  
HETATM    8  C   UNL     1      -8.588   9.113  68.321  1.00  0.00    -0.129 A  
HETATM    9  C   UNL     1      -9.105   8.296  66.107  1.00  0.00    -0.238 A  
HETATM   10  C   UNL     1      -8.249   8.971  66.975  1.00  0.00    -0.109 A  
ENDBRANCH   4   5
ENDBRANCH   3   4
ENDBRANCH   2   3
BRANCH   2  11
HETATM   11  N   UNL     1     -11.315   6.003  72.285  1.00  0.00    -0.290 NA 
HETATM   12  H   UNL     1     -12.195   5.647  72.656  1.00  0.00     0.000 HD 
BRANCH  11  13
HETATM   13  C   UNL     1     -10.961   5.306  71.040  1.00  0.00     0.034 C  
BRANCH  13  14
HETATM   14  C   UNL     1      -9.468   4.881  71.016  1.00  0.00    -0.164 C  
HETATM   15  H   UNL     1      -8.443   3.284  71.510  1.00  0.00     0.000 HD 
HETATM   16  O   UNL     1      -9.357   3.544  71.524  1.00  0.00    -0.116 OA 
BRANCH  14  17
HETATM   17  C   UNL     1      -8.862   4.993  69.622  1.00  0.00    -0.121 A  
HETATM   18  C   UNL     1      -8.877   4.496  67.217  1.00  0.00    -0.111 A  
HETATM   19  H   UNL     1      -6.068   5.575  65.848  1.00  0.00     0.000 HD 
HETATM   20  C   UNL     1      -7.632   5.122  67.095  1.00  0.00    -0.092 A  
HETATM   21  C   UNL     1      -7.020   5.710  68.196  1.00  0.00    -0.065 A  
HETATM   22  O   UNL     1      -6.913   5.149  65.931  1.00  0.00    -0.063 OA 
HETATM   23  C   UNL     1      -7.622   5.630  69.456  1.00  0.00    -0.072 A  
HETATM   24  C   UNL     1      -9.480   4.437  68.487  1.00  0.00    -0.217 A  
BRANCH  18  25
HETATM   25  C   UNL     1      -9.602   3.848  66.085  1.00  0.00    -0.183 C  
HETATM   26  O   UNL     1     -10.540   4.393  65.518  1.00  0.00    -0.265 OA 
HETATM   27  H1  UNL     1      -9.675   2.169  64.897  1.00  0.00     0.000 HD 
HETATM   28  H2  UNL     1      -8.392   2.149  66.123  1.00  0.00     0.000 HD 
HETATM   29  N   UNL     1      -9.179   2.613  65.671  1.00  0.00    -0.125 N  
ENDBRANCH  18  25
ENDBRANCH  14  17
ENDBRANCH  13  14
ENDBRANCH  11  13
ENDBRANCH   2  11
TORSDOF 8
ENDMDL
MODEL      290
REMARK 921   NORMALIZED FREE ENERGY PREDICTED BY IDOCK:   -3.64 KCAL/MOL
REMARK 922        TOTAL FREE ENERGY PREDICTED BY IDOCK:   -6.89 KCAL/MOL
REMARK 923 INTER-LIGAND FREE ENERGY PREDICTED BY IDOCK:   -4.93 KCAL/MOL
REMARK 924 INTRA-LIGAND FREE ENERGY PREDICTED BY IDOCK:   -1.96 KCAL/MOL
REMARK 927      BINDING AFFINITY PREDICTED BY RF-SCORE:    0.00 PKD
ROOT
HETATM    1  C   UNL     1     -11.909   7.097  71.733  1.00  0.00    -0.338 C  
HETATM    2  C   UNL     1     -10.792   6.168  72.224  1.00  0.00    -0.244 C  
ENDROOT
BRANCH   2   3
HETATM    3  C   UNL     1     -10.713   4.940  71.288  1.00  0.00    -0.011 C  
BRANCH   3   4
HETATM    4  C   UNL     1      -9.495   4.955  70.358  1.00  0.00    -0.233 C  
BRANCH   4   5
HETATM    5  C   UNL     1      -9.898   5.086  68.907  1.00  0.00    -0.245 A  
HETATM    6  C   UNL     1     -10.801   6.076  68.497  1.00  0.00    -0.363 A  
HETATM    7  C   UNL     1     -11.168   6.189  67.155  1.00  0.00    -0.192 A  
HETATM    8  C   UNL     1      -9.358   4.222  67.943  1.00  0.00    -0.200 A  
HETATM    9  C   UNL     1     -10.632   5.318  66.206  1.00  0.00    -0.308 A  
HETATM   10  C   UNL     1      -9.726   4.336  66.601  1.00  0.00    -0.239 A  
ENDBRANCH   4   5
ENDBRANCH   3   4
ENDBRANCH   2   3
BRANCH   2  11
HETATM   11  N   UNL     1      -9.488   6.838  72.279  1.00  0.00    -0.143 NA 
HETATM   12  H   UNL     1      -8.809   6.349  71.696  1.00  0.00     0.000 HD 
BRANCH  11  13
HETATM   13  C   UNL     1      -9.534   8.265  71.928  1.00  0.00    -0.220 C  
BRANCH  13  14
HETATM   14  C   UNL     1      -8.293   8.700  71.103  1.00  0.00    -0.164 C  
HETATM   15  H   UNL     1      -6.627   7.858  70.502  1.00  0.00     0.000 HD 
HETATM   16  O   UNL     1      -7.387   7.592  71.007  1.00  0.00    -0.069 OA 
BRANCH  14  17
HETATM   17  C   UNL     1      -8.675   9.220  69.722  1.00  0.00    -0.168 A  
HETATM   18  C   UNL     1      -9.875  10.793  68.265  1.00  0.00    -0.177 A  
HETATM   19  H   UNL     1      -9.573   9.831  65.117  1.00  0.00     0.000 HD 
HETATM   20  C   UNL     1      -9.454  10.058  67.152  1.00  0.00    -0.155 A  
HETATM   21  C   UNL     1      -8.629   8.949  67.301  1.00  0.00    -0.119 A  
HETATM   22  O   UNL     1      -9.859  10.330  65.873  1.00  0.00    -0.208 OA 
HETATM   23  C   UNL     1      -8.258   8.521  68.579  1.00  0.00    -0.123 A  
HETATM   24  C   UNL     1      -9.479  10.362  69.545  1.00  0.00    -0.164 A  
BRANCH  18  25
HETATM   25  C   UNL     1     -10.754  11.996  68.190  1.00  0.00    -0.216 C  
HETATM   26  O   UNL     1     -11.967  11.924  68.341  1.00  0.00    -0.408 OA 
HETATM   27  H1  UNL     1     -10.766  14.035  67.909  1.00  0.00     0.000 HD 
HETATM   28  H2  UNL     1      -9.156  13.292  67.845  1.00  0.00     0.000 HD 
HETATM   29  N   UNL     1     -10.166  13.211  67.961  1.00  0.00    -0.227 N  
ENDBRANCH  18  25
ENDBRANCH  14  17
ENDBRANCH  13  14
ENDBRANCH  11  13
ENDBRANCH   2  11
TORSDOF 8
ENDMDL
MODEL      291
REMARK 921   NORMALIZED FREE ENERGY PREDICTED BY IDOCK:   -3.64 KCAL/MOL
REMARK 922        TOTAL FREE ENERGY PREDICTED BY IDOCK:   -6.89 KCAL/MOL
REMARK 923 INTER-LIGAND FREE ENERGY PREDICTED BY IDOCK:   -6.04 KCAL/MOL
REMARK 924 INTRA-LIGAND FREE ENERGY PREDICTED BY IDOCK:   -0.85 KCAL/MOL
REMARK 927      BINDING AFFINITY PREDICTED BY RF-SCORE:    0.00 PKD
ROOT
HETATM    1  C   UNL     1     -11.504  11.010  69.936  1.00  0.00    -0.400 C  
HETATM    2  C   UNL     1     -10.380  10.744  68.927  1.00  0.00    -0.202 C  
ENDROOT
BRANCH   2   3
HETATM    3  C   UNL     1     -11.006  10.369  67.565  1.00  0.00    -0.358 C  
BRANCH   3   4
HETATM    4  C   UNL     1     -10.081   9.530  66.675  1.00  0.00    -0.321 C  
BRANCH   4   5
HETATM    5  C   UNL     1      -9.963  10.110  65.283  1.00  0.00    -0.381 A  
HETATM    6  C   UNL     1     -10.836  11.115  64.846  1.00  0.00    -0.261 A  
HETATM    7  C   UNL     1     -10.720  11.644  63.559  1.00  0.00    -0.495 A  
HETATM    8  C   UNL     1      -8.962   9.658  64.412  1.00  0.00    -0.276 A  
HETATM    9  C   UNL     1      -9.727  11.180  62.698  1.00  0.00    -0.226 A  
HETATM   10  C   UNL     1      -8.847  10.188  63.126  1.00  0.00    -0.232 A  
ENDBRANCH   4   5
ENDBRANCH   3   4
ENDBRANCH   2   3
BRANCH   2  11
HETATM   11  N   UNL     1      -9.487  11.897  68.765  1.00  0.00    -0.393 NA 
HETATM   12  H   UNL     1      -9.822  12.690  69.313  1.00  0.00     0.000 HD 
BRANCH  11  13
HETATM   13  C   UNL     1      -8.079  11.613  69.077  1.00  0.00     0.083 C  
BRANCH  13  14
HETATM   14  C   UNL     1      -7.116  12.234  68.030  1.00  0.00    -0.099 C  
HETATM   15  H   UNL     1      -6.237  11.631  66.384  1.00  0.00     0.000 HD 
HETATM   16  O   UNL     1      -6.826  11.252  67.025  1.00  0.00    -0.106 OA 
BRANCH  14  17
HETATM   17  C   UNL     1      -7.683  13.505  67.411  1.00  0.00    -0.149 A  
HETATM   18  C   UNL     1      -7.657  15.938  67.074  1.00  0.00    -0.264 A  
HETATM   19  H   UNL     1     -10.349  16.848  65.384  1.00  0.00     0.000 HD 
HETATM   20  C   UNL     1      -8.849  15.835  66.348  1.00  0.00    -0.336 A  
HETATM   21  C   UNL     1      -9.437  14.596  66.117  1.00  0.00    -0.308 A  
HETATM   22  O   UNL     1      -9.540  16.918  65.876  1.00  0.00    -0.469 OA 
HETATM   23  C   UNL     1      -8.868  13.441  66.661  1.00  0.00    -0.076 A  
HETATM   24  C   UNL     1      -7.086  14.766  67.601  1.00  0.00    -0.206 A  
BRANCH  18  25
HETATM   25  C   UNL     1      -6.961  17.227  67.360  1.00  0.00    -0.161 C  
HETATM   26  O   UNL     1      -7.099  17.816  68.424  1.00  0.00    -0.220 OA 
HETATM   27  H1  UNL     1      -5.659  18.623  66.592  1.00  0.00     0.000 HD 
HETATM   28  H2  UNL     1      -5.999  17.258  65.509  1.00  0.00     0.000 HD 
HETATM   29  N   UNL     1      -6.135  17.742  66.397  1.00  0.00    -0.184 N  
ENDBRANCH  18  25
ENDBRANCH  14  17
ENDBRANCH  13  14
ENDBRANCH  11  13
ENDBRANCH   2  11
TORSDOF 8
ENDMDL
MODEL      292
REMARK 921   NORMALIZED FREE ENERGY PREDICTED BY IDOCK:   -3.61 KCAL/MOL
REMARK 922        TOTAL FREE ENERGY PREDICTED BY IDOCK:   -6.85 KCAL/MOL
REMARK 923 INTER-LIGAND FREE ENERGY PREDICTED BY IDOCK:   -6.40 KCAL/MOL
REMARK 924 INTRA-LIGAND FREE ENERGY PREDICTED BY IDOCK:   -0.45 KCAL/MOL
REMARK 927      BINDING AFFINITY PREDICTED BY RF-SCORE:    0.00 PKD
ROOT
HETATM    1  C   UNL     1     -10.526   8.993  69.017  1.00  0.00    -0.235 C  
HETATM    2  C   UNL     1      -9.923   8.369  67.752  1.00  0.00    -0.186 C  
ENDROOT
BRANCH   2   3
HETATM    3  C   UNL     1     -10.888   7.287  67.217  1.00  0.00    -0.354 C  
BRANCH   3   4
HETATM    4  C   UNL     1     -10.185   5.991  66.799  1.00  0.00    -0.268 C  
BRANCH   4   5
HETATM    5  C   UNL     1      -9.952   5.073  67.977  1.00  0.00    -0.189 A  
HETATM    6  C   UNL     1      -9.374   3.808  67.802  1.00  0.00    -0.237 A  
HETATM    7  C   UNL     1      -9.164   2.967  68.896  1.00  0.00    -0.228 A  
HETATM    8  C   UNL     1     -10.300   5.482  69.272  1.00  0.00    -0.335 A  
HETATM    9  C   UNL     1      -9.523   3.381  70.178  1.00  0.00    -0.244 A  
HETATM   10  C   UNL     1     -10.089   4.641  70.366  1.00  0.00    -0.275 A  
ENDBRANCH   4   5
ENDBRANCH   3   4
ENDBRANCH   2   3
BRANCH   2  11
HETATM   11  N   UNL     1      -9.661   9.365  66.706  1.00  0.00    -0.183 NA 
HETATM   12  H   UNL     1     -10.464   9.451  66.084  1.00  0.00     0.000 HD 
BRANCH  11  13
HETATM   13  C   UNL     1      -9.265  10.684  67.221  1.00  0.00    -0.143 C  
BRANCH  13  14
HETATM   14  C   UNL     1      -9.756  11.836  66.304  1.00  0.00    -0.222 C  
HETATM   15  H   UNL     1     -10.913  11.996  64.729  1.00  0.00     0.000 HD 
HETATM   16  O   UNL     1     -10.612  11.291  65.290  1.00  0.00    -0.275 OA 
BRANCH  14  17
HETATM   17  C   UNL     1     -10.463  12.934  67.091  1.00  0.00    -0.241 A  
HETATM   18  C   UNL     1     -10.784  15.294  67.688  1.00  0.00    -0.282 A  
HETATM   19  H   UNL     1     -12.924  15.517  70.199  1.00  0.00     0.000 HD 
HETATM   20  C   UNL     1     -11.711  14.906  68.662  1.00  0.00    -0.330 A  
HETATM   21  C   UNL     1     -12.046  13.567  68.832  1.00  0.00    -0.315 A  
HETATM   22  O   UNL     1     -12.295  15.780  69.537  1.00  0.00    -0.281 OA 
HETATM   23  C   UNL     1     -11.412  12.586  68.065  1.00  0.00    -0.368 A  
HETATM   24  C   UNL     1     -10.167  14.298  66.910  1.00  0.00    -0.266 A  
BRANCH  18  25
HETATM   25  C   UNL     1     -10.376  16.708  67.439  1.00  0.00    -0.292 C  
HETATM   26  O   UNL     1     -10.063  17.463  68.351  1.00  0.00    -0.304 OA 
HETATM   27  H1  UNL     1     -10.061  18.117  65.973  1.00  0.00     0.000 HD 
HETATM   28  H2  UNL     1     -10.586  16.532  65.371  1.00  0.00     0.000 HD 
HETATM   29  N   UNL     1     -10.340  17.150  66.144  1.00  0.00    -0.343 N  
ENDBRANCH  18  25
ENDBRANCH  14  17
ENDBRANCH  13  14
ENDBRANCH  11  13
ENDBRANCH   2  11
TORSDOF 8
ENDMDL
MODEL      293
REMARK 921   NORMALIZED FREE ENERGY PREDICTED BY IDOCK:   -3.60 KCAL/MOL
REMARK 922        TOTAL FREE ENERGY PREDICTED BY IDOCK:   -6.84 KCAL/MOL
REMARK 923 INTER-LIGAND FREE ENERGY PREDICTED BY IDOCK:   -5.92 KCAL/MOL
REMARK 924 INTRA-LIGAND FREE ENERGY PREDICTED BY IDOCK:   -0.91 KCAL/MOL
REMARK 927      BINDING AFFINITY PREDICTED BY RF-SCORE:    0.00 PKD
ROOT
HETATM    1  C   UNL     1      -5.796  16.026  70.739  1.00  0.00     0.172 C  
HETATM    2  C   UNL     1      -6.900  15.778  69.704  1.00  0.00    -0.169 C  
ENDROOT
BRANCH   2   3
HETATM    3  C   UNL     1      -6.453  16.357  68.343  1.00  0.00    -0.135 C  
BRANCH   3   4
HETATM    4  C   UNL     1      -6.603  17.880  68.245  1.00  0.00    -0.199 C  
BRANCH   4   5
HETATM    5  C   UNL     1      -8.024  18.284  67.922  1.00  0.00    -0.261 A  
HETATM    6  C   UNL     1      -8.770  19.067  68.813  1.00  0.00    -0.351 A  
HETATM    7  C   UNL     1     -10.081  19.435  68.507  1.00  0.00    -0.527 A  
HETATM    8  C   UNL     1      -8.613  17.892  66.711  1.00  0.00    -0.271 A  
HETATM    9  C   UNL     1     -10.660  19.031  67.304  1.00  0.00    -0.554 A  
HETATM   10  C   UNL     1      -9.924  18.261  66.406  1.00  0.00    -0.385 A  
ENDBRANCH   4   5
ENDBRANCH   3   4
ENDBRANCH   2   3
BRANCH   2  11
HETATM   11  N   UNL     1      -7.222  14.353  69.558  1.00  0.00    -0.310 NA 
HETATM   12  H   UNL     1      -8.154  14.235  69.163  1.00  0.00     0.000 HD 
BRANCH  11  13
HETATM   13  C   UNL     1      -6.233  13.593  68.781  1.00  0.00    -0.089 C  
BRANCH  13  14
HETATM   14  C   UNL     1      -6.730  13.295  67.341  1.00  0.00    -0.073 C  
HETATM   15  H   UNL     1      -6.259  12.035  65.914  1.00  0.00     0.000 HD 
HETATM   16  O   UNL     1      -5.955  12.218  66.795  1.00  0.00    -0.252 OA 
BRANCH  14  17
HETATM   17  C   UNL     1      -8.220  12.976  67.303  1.00  0.00    -0.174 A  
HETATM   18  C   UNL     1     -10.124  11.503  67.792  1.00  0.00    -0.198 A  
HETATM   19  H   UNL     1     -12.853  12.718  66.376  1.00  0.00     0.000 HD 
HETATM   20  C   UNL     1     -10.961  12.377  67.091  1.00  0.00    -0.262 A  
HETATM   21  C   UNL     1     -10.461  13.550  66.536  1.00  0.00    -0.284 A  
HETATM   22  O   UNL     1     -12.284  12.124  66.852  1.00  0.00    -0.537 OA 
HETATM   23  C   UNL     1      -9.096  13.838  66.625  1.00  0.00    -0.196 A  
HETATM   24  C   UNL     1      -8.755  11.813  67.889  1.00  0.00    -0.164 A  
BRANCH  18  25
HETATM   25  C   UNL     1     -10.582  10.230  68.421  1.00  0.00    -0.216 C  
HETATM   26  O   UNL     1     -11.069  10.200  69.544  1.00  0.00    -0.230 OA 
HETATM   27  H1  UNL     1     -10.776   8.202  68.129  1.00  0.00     0.000 HD 
HETATM   28  H2  UNL     1     -10.071   9.081  66.757  1.00  0.00     0.000 HD 
HETATM   29  N   UNL     1     -10.463   9.073  67.699  1.00  0.00    -0.259 N  
ENDBRANCH  18  25
ENDBRANCH  14  17
ENDBRANCH  13  14
ENDBRANCH  11  13
ENDBRANCH   2  11
TORSDOF 8
ENDMDL
MODEL      294
REMARK 921   NORMALIZED FREE ENERGY PREDICTED BY IDOCK:   -3.59 KCAL/MOL
REMARK 922        TOTAL FREE ENERGY PREDICTED BY IDOCK:   -6.83 KCAL/MOL
REMARK 923 INTER-LIGAND FREE ENERGY PREDICTED BY IDOCK:   -5.39 KCAL/MOL
REMARK 924 INTRA-LIGAND FREE ENERGY PREDICTED BY IDOCK:   -1.44 KCAL/MOL
REMARK 927      BINDING AFFINITY PREDICTED BY RF-SCORE:    0.00 PKD
ROOT
HETATM    1  C   UNL     1      -6.389   8.708  71.780  1.00  0.00    -0.071 C  
HETATM    2  C   UNL     1      -7.344   8.707  70.580  1.00  0.00    -0.064 C  
ENDROOT
BRANCH   2   3
HETATM    3  C   UNL     1      -8.763   9.078  71.068  1.00  0.00    -0.280 C  
BRANCH   3   4
HETATM    4  C   UNL     1      -9.772   7.929  70.950  1.00  0.00    -0.177 C  
BRANCH   4   5
HETATM    5  C   UNL     1      -9.989   7.517  69.512  1.00  0.00    -0.180 A  
HETATM    6  C   UNL     1      -9.807   6.188  69.109  1.00  0.00    -0.176 A  
HETATM    7  C   UNL     1     -10.008   5.816  67.779  1.00  0.00    -0.166 A  
HETATM    8  C   UNL     1     -10.392   8.463  68.559  1.00  0.00    -0.232 A  
HETATM    9  C   UNL     1     -10.400   6.767  66.837  1.00  0.00    -0.324 A  
HETATM   10  C   UNL     1     -10.594   8.091  67.228  1.00  0.00    -0.360 A  
ENDBRANCH   4   5
ENDBRANCH   3   4
ENDBRANCH   2   3
BRANCH   2  11
HETATM   11  N   UNL     1      -6.921   9.636  69.526  1.00  0.00    -0.054 NA 
HETATM   12  H   UNL     1      -6.662   9.127  68.681  1.00  0.00     0.000 HD 
BRANCH  11  13
HETATM   13  C   UNL     1      -7.910  10.679  69.215  1.00  0.00    -0.138 C  
BRANCH  13  14
HETATM   14  C   UNL     1      -7.790  11.174  67.748  1.00  0.00    -0.114 C  
HETATM   15  H   UNL     1      -7.350  10.369  66.015  1.00  0.00     0.000 HD 
HETATM   16  O   UNL     1      -7.424  10.067  66.912  1.00  0.00    -0.094 OA 
BRANCH  14  17
HETATM   17  C   UNL     1      -9.075  11.832  67.258  1.00  0.00    -0.171 A  
HETATM   18  C   UNL     1     -10.988  13.337  67.586  1.00  0.00    -0.281 A  
HETATM   19  H   UNL     1     -13.080  13.033  65.044  1.00  0.00     0.000 HD 
HETATM   20  C   UNL     1     -11.508  12.919  66.356  1.00  0.00    -0.341 A  
HETATM   21  C   UNL     1     -10.818  12.007  65.564  1.00  0.00    -0.336 A  
HETATM   22  O   UNL     1     -12.727  13.316  65.879  1.00  0.00    -0.388 OA 
HETATM   23  C   UNL     1      -9.619  11.453  66.021  1.00  0.00    -0.247 A  
HETATM   24  C   UNL     1      -9.771  12.784  68.026  1.00  0.00    -0.220 A  
BRANCH  18  25
HETATM   25  C   UNL     1     -11.662  14.314  68.490  1.00  0.00    -0.341 C  
HETATM   26  O   UNL     1     -11.876  15.471  68.150  1.00  0.00    -0.301 OA 
HETATM   27  H1  UNL     1     -12.521  14.550  70.345  1.00  0.00     0.000 HD 
HETATM   28  H2  UNL     1     -11.901  12.918  70.021  1.00  0.00     0.000 HD 
HETATM   29  N   UNL     1     -12.061  13.882  69.726  1.00  0.00    -0.332 N  
ENDBRANCH  18  25
ENDBRANCH  14  17
ENDBRANCH  13  14
ENDBRANCH  11  13
ENDBRANCH   2  11
TORSDOF 8
ENDMDL
MODEL      295
REMARK 921   NORMALIZED FREE ENERGY PREDICTED BY IDOCK:   -3.56 KCAL/MOL
REMARK 922        TOTAL FREE ENERGY PREDICTED BY IDOCK:   -6.79 KCAL/MOL
REMARK 923 INTER-LIGAND FREE ENERGY PREDICTED BY IDOCK:   -5.95 KCAL/MOL
REMARK 924 INTRA-LIGAND FREE ENERGY PREDICTED BY IDOCK:   -0.84 KCAL/MOL
REMARK 927      BINDING AFFINITY PREDICTED BY RF-SCORE:    0.00 PKD
ROOT
HETATM    1  C   UNL     1      -8.419   8.380  67.673  1.00  0.00    -0.130 C  
HETATM    2  C   UNL     1      -9.723   9.184  67.608  1.00  0.00    -0.159 C  
ENDROOT
BRANCH   2   3
HETATM    3  C   UNL     1      -9.862   9.802  66.198  1.00  0.00    -0.329 C  
BRANCH   3   4
HETATM    4  C   UNL     1      -9.297  11.223  66.093  1.00  0.00    -0.230 C  
BRANCH   4   5
HETATM    5  C   UNL     1     -10.394  12.260  66.009  1.00  0.00    -0.273 A  
HETATM    6  C   UNL     1     -10.315  13.452  66.742  1.00  0.00    -0.263 A  
HETATM    7  C   UNL     1     -11.333  14.403  66.659  1.00  0.00    -0.359 A  
HETATM    8  C   UNL     1     -11.505  12.048  65.181  1.00  0.00    -0.344 A  
HETATM    9  C   UNL     1     -12.439  14.177  65.839  1.00  0.00    -0.479 A  
HETATM   10  C   UNL     1     -12.523  13.000  65.099  1.00  0.00    -0.552 A  
ENDBRANCH   4   5
ENDBRANCH   3   4
ENDBRANCH   2   3
BRANCH   2  11
HETATM   11  N   UNL     1     -10.903   8.365  67.911  1.00  0.00    -0.480 NA 
HETATM   12  H   UNL     1     -10.903   7.514  67.349  1.00  0.00     0.000 HD 
BRANCH  11  13
HETATM   13  C   UNL     1     -11.054   8.039  69.337  1.00  0.00     0.095 C  
BRANCH  13  14
HETATM   14  C   UNL     1     -10.547   9.187  70.251  1.00  0.00    -0.223 C  
HETATM   15  H   UNL     1     -11.365  10.647  71.274  1.00  0.00     0.000 HD 
HETATM   16  O   UNL     1     -11.674   9.945  70.714  1.00  0.00    -0.292 OA 
BRANCH  14  17
HETATM   17  C   UNL     1      -9.716   8.667  71.418  1.00  0.00    -0.314 A  
HETATM   18  C   UNL     1      -7.557   8.244  72.510  1.00  0.00    -0.159 A  
HETATM   19  H   UNL     1      -8.038   6.472  75.259  1.00  0.00     0.000 HD 
HETATM   20  C   UNL     1      -8.226   7.573  73.540  1.00  0.00    -0.138 A  
HETATM   21  C   UNL     1      -9.613   7.477  73.543  1.00  0.00    -0.339 A  
HETATM   22  O   UNL     1      -7.584   6.927  74.560  1.00  0.00    -0.111 OA 
HETATM   23  C   UNL     1     -10.352   8.003  72.479  1.00  0.00    -0.374 A  
HETATM   24  C   UNL     1      -8.314   8.784  71.455  1.00  0.00    -0.222 A  
BRANCH  18  25
HETATM   25  C   UNL     1      -6.074   8.396  72.436  1.00  0.00    -0.067 C  
HETATM   26  O   UNL     1      -5.504   9.396  72.852  1.00  0.00    -0.169 OA 
HETATM   27  H1  UNL     1      -4.332   7.473  71.849  1.00  0.00     0.000 HD 
HETATM   28  H2  UNL     1      -5.804   6.523  71.559  1.00  0.00     0.000 HD 
HETATM   29  N   UNL     1      -5.346   7.369  71.900  1.00  0.00    -0.036 N  
ENDBRANCH  18  25
ENDBRANCH  14  17
ENDBRANCH  13  14
ENDBRANCH  11  13
ENDBRANCH   2  11
TORSDOF 8
ENDMDL
MODEL      296
REMARK 921   NORMALIZED FREE ENERGY PREDICTED BY IDOCK:   -3.56 KCAL/MOL
REMARK 922        TOTAL FREE ENERGY PREDICTED BY IDOCK:   -6.78 KCAL/MOL
REMARK 923 INTER-LIGAND FREE ENERGY PREDICTED BY IDOCK:   -5.72 KCAL/MOL
REMARK 924 INTRA-LIGAND FREE ENERGY PREDICTED BY IDOCK:   -1.06 KCAL/MOL
REMARK 927      BINDING AFFINITY PREDICTED BY RF-SCORE:    0.00 PKD
ROOT
HETATM    1  C   UNL     1     -12.371  13.134  70.660  1.00  0.00    -0.405 C  
HETATM    2  C   UNL     1     -11.697  13.399  69.308  1.00  0.00    -0.330 C  
ENDROOT
BRANCH   2   3
HETATM    3  C   UNL     1     -11.867  12.154  68.409  1.00  0.00    -0.360 C  
BRANCH   3   4
HETATM    4  C   UNL     1     -12.032  10.848  69.193  1.00  0.00    -0.359 C  
BRANCH   4   5
HETATM    5  C   UNL     1     -10.898   9.884  68.925  1.00  0.00    -0.239 A  
HETATM    6  C   UNL     1     -10.425   9.031  69.931  1.00  0.00    -0.226 A  
HETATM    7  C   UNL     1      -9.378   8.145  69.674  1.00  0.00    -0.159 A  
HETATM    8  C   UNL     1     -10.310   9.821  67.653  1.00  0.00    -0.281 A  
HETATM    9  C   UNL     1      -8.794   8.097  68.408  1.00  0.00    -0.133 A  
HETATM   10  C   UNL     1      -9.263   8.934  67.398  1.00  0.00    -0.157 A  
ENDBRANCH   4   5
ENDBRANCH   3   4
ENDBRANCH   2   3
BRANCH   2  11
HETATM   11  N   UNL     1     -12.242  14.582  68.632  1.00  0.00    -0.579 NA 
HETATM   12  H   UNL     1     -13.216  14.729  68.896  1.00  0.00     0.000 HD 
BRANCH  11  13
HETATM   13  C   UNL     1     -11.460  15.807  68.846  1.00  0.00    -0.378 C  
BRANCH  13  14
HETATM   14  C   UNL     1     -10.693  16.238  67.566  1.00  0.00    -0.300 C  
HETATM   15  H   UNL     1     -10.358  17.921  66.617  1.00  0.00     0.000 HD 
HETATM   16  O   UNL     1     -10.827  17.657  67.400  1.00  0.00    -0.301 OA 
BRANCH  14  17
HETATM   17  C   UNL     1      -9.227  15.824  67.609  1.00  0.00    -0.200 A  
HETATM   18  C   UNL     1      -7.472  14.126  67.867  1.00  0.00    -0.158 A  
HETATM   19  H   UNL     1      -4.513  15.599  67.952  1.00  0.00     0.000 HD 
HETATM   20  C   UNL     1      -6.506  15.136  67.808  1.00  0.00    -0.161 A  
HETATM   21  C   UNL     1      -6.875  16.463  67.615  1.00  0.00    -0.161 A  
HETATM   22  O   UNL     1      -5.169  14.912  67.992  1.00  0.00    -0.113 OA 
HETATM   23  C   UNL     1      -8.228  16.807  67.535  1.00  0.00    -0.187 A  
HETATM   24  C   UNL     1      -8.829  14.484  67.767  1.00  0.00    -0.183 A  
BRANCH  18  25
HETATM   25  C   UNL     1      -7.158  12.680  68.065  1.00  0.00    -0.103 C  
HETATM   26  O   UNL     1      -6.822  12.233  69.154  1.00  0.00    -0.102 OA 
HETATM   27  H1  UNL     1      -7.058  10.853  67.124  1.00  0.00     0.000 HD 
HETATM   28  H2  UNL     1      -7.563  12.195  66.077  1.00  0.00     0.000 HD 
HETATM   29  N   UNL     1      -7.273  11.842  66.989  1.00  0.00    -0.145 N  
ENDBRANCH  18  25
ENDBRANCH  14  17
ENDBRANCH  13  14
ENDBRANCH  11  13
ENDBRANCH   2  11
TORSDOF 8
ENDMDL
MODEL      297
REMARK 921   NORMALIZED FREE ENERGY PREDICTED BY IDOCK:   -3.56 KCAL/MOL
REMARK 922        TOTAL FREE ENERGY PREDICTED BY IDOCK:   -6.78 KCAL/MOL
REMARK 923 INTER-LIGAND FREE ENERGY PREDICTED BY IDOCK:   -6.21 KCAL/MOL
REMARK 924 INTRA-LIGAND FREE ENERGY PREDICTED BY IDOCK:   -0.57 KCAL/MOL
REMARK 927      BINDING AFFINITY PREDICTED BY RF-SCORE:    0.00 PKD
ROOT
HETATM    1  C   UNL     1     -11.626  16.290  69.728  1.00  0.00    -0.140 C  
HETATM    2  C   UNL     1     -11.258  16.149  68.246  1.00  0.00    -0.343 C  
ENDROOT
BRANCH   2   3
HETATM    3  C   UNL     1     -10.770  17.517  67.718  1.00  0.00    -0.333 C  
BRANCH   3   4
HETATM    4  C   UNL     1      -9.717  18.181  68.612  1.00  0.00    -0.367 C  
BRANCH   4   5
HETATM    5  C   UNL     1      -8.471  18.547  67.837  1.00  0.00    -0.292 A  
HETATM    6  C   UNL     1      -7.940  19.842  67.899  1.00  0.00    -0.323 A  
HETATM    7  C   UNL     1      -6.790  20.172  67.180  1.00  0.00    -0.272 A  
HETATM    8  C   UNL     1      -7.818  17.585  67.053  1.00  0.00    -0.240 A  
HETATM    9  C   UNL     1      -6.154  19.210  66.395  1.00  0.00    -0.182 A  
HETATM   10  C   UNL     1      -6.668  17.916  66.334  1.00  0.00    -0.272 A  
ENDBRANCH   4   5
ENDBRANCH   3   4
ENDBRANCH   2   3
BRANCH   2  11
HETATM   11  N   UNL     1     -10.227  15.130  68.019  1.00  0.00    -0.229 NA 
HETATM   12  H   UNL     1     -10.469  14.262  68.496  1.00  0.00     0.000 HD 
BRANCH  11  13
HETATM   13  C   UNL     1      -9.940  14.876  66.600  1.00  0.00    -0.258 C  
BRANCH  13  14
HETATM   14  C   UNL     1     -10.943  13.868  65.976  1.00  0.00    -0.285 C  
HETATM   15  H   UNL     1     -11.615  13.470  64.178  1.00  0.00     0.000 HD 
HETATM   16  O   UNL     1     -11.001  14.087  64.559  1.00  0.00    -0.389 OA 
BRANCH  14  17
HETATM   17  C   UNL     1     -10.578  12.423  66.296  1.00  0.00    -0.277 A  
HETATM   18  C   UNL     1      -9.363  10.346  65.805  1.00  0.00    -0.230 A  
HETATM   19  H   UNL     1     -10.377   7.962  67.859  1.00  0.00     0.000 HD 
HETATM   20  C   UNL     1     -10.040   9.719  66.857  1.00  0.00    -0.226 A  
HETATM   21  C   UNL     1     -10.941  10.427  67.646  1.00  0.00    -0.374 A  
HETATM   22  O   UNL     1      -9.918   8.387  67.144  1.00  0.00    -0.190 OA 
HETATM   23  C   UNL     1     -11.222  11.765  67.355  1.00  0.00    -0.357 A  
HETATM   24  C   UNL     1      -9.643  11.698  65.535  1.00  0.00    -0.241 A  
BRANCH  18  25
HETATM   25  C   UNL     1      -8.379   9.660  64.918  1.00  0.00    -0.148 C  
HETATM   26  O   UNL     1      -7.627   8.788  65.335  1.00  0.00    -0.084 OA 
HETATM   27  H1  UNL     1      -7.669   9.549  62.990  1.00  0.00     0.000 HD 
HETATM   28  H2  UNL     1      -8.970  10.733  63.230  1.00  0.00     0.000 HD 
HETATM   29  N   UNL     1      -8.342  10.018  63.597  1.00  0.00    -0.154 N  
ENDBRANCH  18  25
ENDBRANCH  14  17
ENDBRANCH  13  14
ENDBRANCH  11  13
ENDBRANCH   2  11
TORSDOF 8
ENDMDL
MODEL      298
REMARK 921   NORMALIZED FREE ENERGY PREDICTED BY IDOCK:   -3.52 KCAL/MOL
REMARK 922        TOTAL FREE ENERGY PREDICTED BY IDOCK:   -6.72 KCAL/MOL
REMARK 923 INTER-LIGAND FREE ENERGY PREDICTED BY IDOCK:   -5.95 KCAL/MOL
REMARK 924 INTRA-LIGAND FREE ENERGY PREDICTED BY IDOCK:   -0.77 KCAL/MOL
REMARK 927      BINDING AFFINITY PREDICTED BY RF-SCORE:    0.00 PKD
ROOT
HETATM    1  C   UNL     1     -13.315  12.985  71.780  1.00  0.00    -0.468 C  
HETATM    2  C   UNL     1     -12.263  12.762  70.686  1.00  0.00    -0.288 C  
ENDROOT
BRANCH   2   3
HETATM    3  C   UNL     1     -12.404  11.323  70.140  1.00  0.00    -0.354 C  
BRANCH   3   4
HETATM    4  C   UNL     1     -11.336  10.359  70.667  1.00  0.00    -0.411 C  
BRANCH   4   5
HETATM    5  C   UNL     1     -10.512   9.766  69.547  1.00  0.00    -0.250 A  
HETATM    6  C   UNL     1      -9.714  10.580  68.732  1.00  0.00    -0.187 A  
HETATM    7  C   UNL     1      -8.956  10.024  67.699  1.00  0.00    -0.135 A  
HETATM    8  C   UNL     1     -10.523   8.383  69.317  1.00  0.00    -0.223 A  
HETATM    9  C   UNL     1      -8.983   8.648  67.473  1.00  0.00    -0.143 A  
HETATM   10  C   UNL     1      -9.765   7.828  68.284  1.00  0.00    -0.169 A  
ENDBRANCH   4   5
ENDBRANCH   3   4
ENDBRANCH   2   3
BRANCH   2  11
HETATM   11  N   UNL     1     -12.384  13.727  69.587  1.00  0.00    -0.288 NA 
HETATM   12  H   UNL     1     -13.182  14.345  69.738  1.00  0.00     0.000 HD 
BRANCH  11  13
HETATM   13  C   UNL     1     -11.165  14.510  69.341  1.00  0.00    -0.280 C  
BRANCH  13  14
HETATM   14  C   UNL     1     -11.389  16.026  69.593  1.00  0.00    -0.332 C  
HETATM   15  H   UNL     1     -11.774  17.161  71.145  1.00  0.00     0.000 HD 
HETATM   16  O   UNL     1     -11.637  16.234  70.991  1.00  0.00    -0.410 OA 
BRANCH  14  17
HETATM   17  C   UNL     1     -10.212  16.867  69.112  1.00  0.00    -0.292 A  
HETATM   18  C   UNL     1      -7.870  17.098  68.409  1.00  0.00    -0.244 A  
HETATM   19  H   UNL     1      -7.136  20.301  68.047  1.00  0.00     0.000 HD 
HETATM   20  C   UNL     1      -8.040  18.485  68.351  1.00  0.00    -0.323 A  
HETATM   21  C   UNL     1      -9.274  19.064  68.627  1.00  0.00    -0.414 A  
HETATM   22  O   UNL     1      -7.020  19.359  68.087  1.00  0.00    -0.255 OA 
HETATM   23  C   UNL     1     -10.348  18.261  69.023  1.00  0.00    -0.104 A  
HETATM   24  C   UNL     1      -8.964  16.301  68.793  1.00  0.00    -0.243 A  
BRANCH  18  25
HETATM   25  C   UNL     1      -6.582  16.400  68.123  1.00  0.00    -0.128 C  
HETATM   26  O   UNL     1      -5.732  16.226  68.987  1.00  0.00    -0.120 OA 
HETATM   27  H1  UNL     1      -5.489  15.456  66.658  1.00  0.00     0.000 HD 
HETATM   28  H2  UNL     1      -7.071  16.058  66.125  1.00  0.00     0.000 HD 
HETATM   29  N   UNL     1      -6.370  15.933  66.854  1.00  0.00     0.111 N  
ENDBRANCH  18  25
ENDBRANCH  14  17
ENDBRANCH  13  14
ENDBRANCH  11  13
ENDBRANCH   2  11
TORSDOF 8
ENDMDL
MODEL      299
REMARK 921   NORMALIZED FREE ENERGY PREDICTED BY IDOCK:   -3.51 KCAL/MOL
REMARK 922        TOTAL FREE ENERGY PREDICTED BY IDOCK:   -6.71 KCAL/MOL
REMARK 923 INTER-LIGAND FREE ENERGY PREDICTED BY IDOCK:   -5.72 KCAL/MOL
REMARK 924 INTRA-LIGAND FREE ENERGY PREDICTED BY IDOCK:   -0.99 KCAL/MOL
REMARK 927      BINDING AFFINITY PREDICTED BY RF-SCORE:    0.00 PKD
ROOT
HETATM    1  C   UNL     1     -10.633   7.727  72.960  1.00  0.00    -0.441 C  
HETATM    2  C   UNL     1     -11.479   7.084  71.854  1.00  0.00    -0.268 C  
ENDROOT
BRANCH   2   3
HETATM    3  C   UNL     1     -11.534   8.043  70.643  1.00  0.00    -0.237 C  
BRANCH   3   4
HETATM    4  C   UNL     1     -11.282   9.510  71.010  1.00  0.00    -0.432 C  
BRANCH   4   5
HETATM    5  C   UNL     1     -11.125  10.377  69.781  1.00  0.00    -0.352 A  
HETATM    6  C   UNL     1     -11.645  11.679  69.748  1.00  0.00    -0.389 A  
HETATM    7  C   UNL     1     -11.496  12.472  68.609  1.00  0.00    -0.348 A  
HETATM    8  C   UNL     1     -10.440   9.894  68.657  1.00  0.00    -0.231 A  
HETATM    9  C   UNL     1     -10.821  11.977  67.493  1.00  0.00    -0.284 A  
HETATM   10  C   UNL     1     -10.292  10.688  67.519  1.00  0.00    -0.254 A  
ENDBRANCH   4   5
ENDBRANCH   3   4
ENDBRANCH   2   3
BRANCH   2  11
HETATM   11  N   UNL     1     -10.954   5.780  71.433  1.00  0.00    -0.260 NA 
HETATM   12  H   UNL     1     -11.485   5.024  71.865  1.00  0.00     0.000 HD 
BRANCH  11  13
HETATM   13  C   UNL     1     -10.895   5.601  69.976  1.00  0.00    -0.296 C  
BRANCH  13  14
HETATM   14  C   UNL     1      -9.567   4.935  69.526  1.00  0.00    -0.170 C  
HETATM   15  H   UNL     1      -8.813   3.124  69.549  1.00  0.00     0.000 HD 
HETATM   16  O   UNL     1      -9.626   3.532  69.824  1.00  0.00    -0.184 OA 
BRANCH  14  17
HETATM   17  C   UNL     1      -9.278   5.171  68.048  1.00  0.00    -0.132 A  
HETATM   18  C   UNL     1      -9.456   4.526  65.685  1.00  0.00    -0.174 A  
HETATM   19  H   UNL     1      -7.569   6.524  63.849  1.00  0.00     0.000 HD 
HETATM   20  C   UNL     1      -8.606   5.584  65.347  1.00  0.00    -0.151 A  
HETATM   21  C   UNL     1      -8.125   6.450  66.323  1.00  0.00    -0.114 A  
HETATM   22  O   UNL     1      -8.146   5.806  64.078  1.00  0.00    -0.121 OA 
HETATM   23  C   UNL     1      -8.443   6.233  67.667  1.00  0.00    -0.116 A  
HETATM   24  C   UNL     1      -9.783   4.330  67.039  1.00  0.00    -0.237 A  
BRANCH  18  25
HETATM   25  C   UNL     1     -10.020   3.558  64.698  1.00  0.00    -0.153 C  
HETATM   26  O   UNL     1     -10.913   3.870  63.921  1.00  0.00    -0.241 OA 
HETATM   27  H1  UNL     1      -9.882   1.631  63.990  1.00  0.00     0.000 HD 
HETATM   28  H2  UNL     1      -8.744   2.020  65.296  1.00  0.00     0.000 HD 
HETATM   29  N   UNL     1      -9.497   2.293  64.665  1.00  0.00    -0.132 N  
ENDBRANCH  18  25
ENDBRANCH  14  17
ENDBRANCH  13  14
ENDBRANCH  11  13
ENDBRANCH   2  11
TORSDOF 8
ENDMDL
MODEL      300
REMARK 921   NORMALIZED FREE ENERGY PREDICTED BY IDOCK:   -3.51 KCAL/MOL
REMARK 922        TOTAL FREE ENERGY PREDICTED BY IDOCK:   -6.71 KCAL/MOL
REMARK 923 INTER-LIGAND FREE ENERGY PREDICTED BY IDOCK:   -5.64 KCAL/MOL
REMARK 924 INTRA-LIGAND FREE ENERGY PREDICTED BY IDOCK:   -1.07 KCAL/MOL
REMARK 927      BINDING AFFINITY PREDICTED BY RF-SCORE:    0.00 PKD
ROOT
HETATM    1  C   UNL     1      -6.012   8.426  72.373  1.00  0.00    -0.064 C  
HETATM    2  C   UNL     1      -7.290   7.826  71.776  1.00  0.00    -0.068 C  
ENDROOT
BRANCH   2   3
HETATM    3  C   UNL     1      -8.488   8.192  72.681  1.00  0.00    -0.251 C  
BRANCH   3   4
HETATM    4  C   UNL     1      -9.506   7.056  72.841  1.00  0.00    -0.171 C  
BRANCH   4   5
HETATM    5  C   UNL     1     -10.884   7.467  72.375  1.00  0.00    -0.305 A  
HETATM    6  C   UNL     1     -11.791   6.517  71.885  1.00  0.00    -0.381 A  
HETATM    7  C   UNL     1     -13.061   6.905  71.456  1.00  0.00    -0.341 A  
HETATM    8  C   UNL     1     -11.282   8.810  72.440  1.00  0.00    -0.251 A  
HETATM    9  C   UNL     1     -13.442   8.246  71.517  1.00  0.00    -0.320 A  
HETATM   10  C   UNL     1     -12.552   9.197  72.011  1.00  0.00    -0.463 A  
ENDBRANCH   4   5
ENDBRANCH   3   4
ENDBRANCH   2   3
BRANCH   2  11
HETATM   11  N   UNL     1      -7.540   8.289  70.406  1.00  0.00    -0.073 NA 
HETATM   12  H   UNL     1      -7.814   7.510  69.808  1.00  0.00     0.000 HD 
BRANCH  11  13
HETATM   13  C   UNL     1      -8.522   9.379  70.313  1.00  0.00    -0.212 C  
BRANCH  13  14
HETATM   14  C   UNL     1      -8.080  10.474  69.305  1.00  0.00    -0.148 C  
HETATM   15  H   UNL     1      -6.882  10.570  67.755  1.00  0.00     0.000 HD 
HETATM   16  O   UNL     1      -7.153   9.900  68.372  1.00  0.00    -0.071 OA 
BRANCH  14  17
HETATM   17  C   UNL     1      -9.266  11.104  68.585  1.00  0.00    -0.173 A  
HETATM   18  C   UNL     1     -10.217  12.465  66.775  1.00  0.00    -0.234 A  
HETATM   19  H   UNL     1     -13.446  12.922  67.315  1.00  0.00     0.000 HD 
HETATM   20  C   UNL     1     -11.477  12.351  67.371  1.00  0.00    -0.352 A  
HETATM   21  C   UNL     1     -11.652  11.600  68.528  1.00  0.00    -0.379 A  
HETATM   22  O   UNL     1     -12.590  13.000  66.910  1.00  0.00    -0.194 OA 
HETATM   23  C   UNL     1     -10.550  10.997  69.142  1.00  0.00    -0.253 A  
HETATM   24  C   UNL     1      -9.119  11.838  67.393  1.00  0.00    -0.175 A  
BRANCH  18  25
HETATM   25  C   UNL     1      -9.947  13.245  65.531  1.00  0.00    -0.207 C  
HETATM   26  O   UNL     1     -10.060  12.749  64.417  1.00  0.00    -0.320 OA 
HETATM   27  H1  UNL     1      -9.395  15.091  64.810  1.00  0.00     0.000 HD 
HETATM   28  H2  UNL     1      -9.493  14.990  66.579  1.00  0.00     0.000 HD 
HETATM   29  N   UNL     1      -9.580  14.558  65.660  1.00  0.00    -0.231 N  
ENDBRANCH  18  25
ENDBRANCH  14  17
ENDBRANCH  13  14
ENDBRANCH  11  13
ENDBRANCH   2  11
TORSDOF 8
ENDMDL
MODEL      301
REMARK 921   NORMALIZED FREE ENERGY PREDICTED BY IDOCK:   -3.51 KCAL/MOL
REMARK 922        TOTAL FREE ENERGY PREDICTED BY IDOCK:   -6.70 KCAL/MOL
REMARK 923 INTER-LIGAND FREE ENERGY PREDICTED BY IDOCK:   -6.35 KCAL/MOL
REMARK 924 INTRA-LIGAND FREE ENERGY PREDICTED BY IDOCK:   -0.36 KCAL/MOL
REMARK 927      BINDING AFFINITY PREDICTED BY RF-SCORE:    0.00 PKD
ROOT
HETATM    1  C   UNL     1      -9.151   9.895  69.689  1.00  0.00    -0.245 C  
HETATM    2  C   UNL     1     -10.682   9.895  69.768  1.00  0.00    -0.267 C  
ENDROOT
BRANCH   2   3
HETATM    3  C   UNL     1     -11.170  11.337  70.038  1.00  0.00    -0.213 C  
BRANCH   3   4
HETATM    4  C   UNL     1     -12.313  11.417  71.057  1.00  0.00    -0.448 C  
BRANCH   4   5
HETATM    5  C   UNL     1     -12.819  12.832  71.222  1.00  0.00    -0.355 A  
HETATM    6  C   UNL     1     -13.890  13.118  72.081  1.00  0.00    -0.506 A  
HETATM    7  C   UNL     1     -14.351  14.427  72.227  1.00  0.00    -0.522 A  
HETATM    8  C   UNL     1     -12.211  13.887  70.526  1.00  0.00    -0.443 A  
HETATM    9  C   UNL     1     -13.745  15.467  71.522  1.00  0.00    -0.601 A  
HETATM   10  C   UNL     1     -12.674  15.196  70.673  1.00  0.00    -0.451 A  
ENDBRANCH   4   5
ENDBRANCH   3   4
ENDBRANCH   2   3
BRANCH   2  11
HETATM   11  N   UNL     1     -11.308   9.377  68.546  1.00  0.00    -0.391 NA 
HETATM   12  H   UNL     1     -12.323   9.441  68.608  1.00  0.00     0.000 HD 
BRANCH  11  13
HETATM   13  C   UNL     1     -10.827  10.015  67.312  1.00  0.00    -0.217 C  
BRANCH  13  14
HETATM   14  C   UNL     1     -10.479   8.971  66.216  1.00  0.00     0.097 C  
HETATM   15  H   UNL     1      -9.217   8.857  64.720  1.00  0.00     0.000 HD 
HETATM   16  O   UNL     1      -9.430   9.495  65.390  1.00  0.00    -0.249 OA 
BRANCH  14  17
HETATM   17  C   UNL     1     -10.090   7.623  66.812  1.00  0.00    -0.325 A  
HETATM   18  C   UNL     1      -8.419   5.904  67.349  1.00  0.00    -0.103 A  
HETATM   19  H   UNL     1      -9.941   3.216  68.528  1.00  0.00     0.000 HD 
HETATM   20  C   UNL     1      -9.446   5.071  67.807  1.00  0.00    -0.133 A  
HETATM   21  C   UNL     1     -10.767   5.505  67.810  1.00  0.00    -0.186 A  
HETATM   22  O   UNL     1      -9.244   3.782  68.217  1.00  0.00    -0.135 OA 
HETATM   23  C   UNL     1     -11.089   6.765  67.297  1.00  0.00    -0.394 A  
HETATM   24  C   UNL     1      -8.755   7.177  66.853  1.00  0.00    -0.126 A  
BRANCH  18  25
HETATM   25  C   UNL     1      -6.979   5.516  67.319  1.00  0.00    -0.065 C  
HETATM   26  O   UNL     1      -6.337   5.484  66.277  1.00  0.00    -0.033 OA 
HETATM   27  H1  UNL     1      -5.384   4.942  68.485  1.00  0.00     0.000 HD 
HETATM   28  H2  UNL     1      -6.884   5.241  69.385  1.00  0.00     0.000 HD 
HETATM   29  N   UNL     1      -6.368   5.207  68.506  1.00  0.00    -0.034 N  
ENDBRANCH  18  25
ENDBRANCH  14  17
ENDBRANCH  13  14
ENDBRANCH  11  13
ENDBRANCH   2  11
TORSDOF 8
ENDMDL
MODEL      302
REMARK 921   NORMALIZED FREE ENERGY PREDICTED BY IDOCK:   -3.48 KCAL/MOL
REMARK 922        TOTAL FREE ENERGY PREDICTED BY IDOCK:   -6.66 KCAL/MOL
REMARK 923 INTER-LIGAND FREE ENERGY PREDICTED BY IDOCK:   -5.97 KCAL/MOL
REMARK 924 INTRA-LIGAND FREE ENERGY PREDICTED BY IDOCK:   -0.69 KCAL/MOL
REMARK 927      BINDING AFFINITY PREDICTED BY RF-SCORE:    0.00 PKD
ROOT
HETATM    1  C   UNL     1      -9.909  10.250  68.967  1.00  0.00    -0.215 C  
HETATM    2  C   UNL     1     -10.048   9.941  67.471  1.00  0.00    -0.197 C  
ENDROOT
BRANCH   2   3
HETATM    3  C   UNL     1     -10.879   8.650  67.300  1.00  0.00    -0.077 C  
BRANCH   3   4
HETATM    4  C   UNL     1     -10.026   7.385  67.156  1.00  0.00    -0.281 C  
BRANCH   4   5
HETATM    5  C   UNL     1     -10.130   6.495  68.374  1.00  0.00    -0.169 A  
HETATM    6  C   UNL     1      -9.270   5.402  68.542  1.00  0.00    -0.130 A  
HETATM    7  C   UNL     1      -9.374   4.585  69.669  1.00  0.00    -0.221 A  
HETATM    8  C   UNL     1     -11.086   6.761  69.364  1.00  0.00    -0.310 A  
HETATM    9  C   UNL     1     -10.335   4.854  70.643  1.00  0.00    -0.233 A  
HETATM   10  C   UNL     1     -11.190   5.943  70.491  1.00  0.00    -0.293 A  
ENDBRANCH   4   5
ENDBRANCH   3   4
ENDBRANCH   2   3
BRANCH   2  11
HETATM   11  N   UNL     1     -10.675  11.040  66.728  1.00  0.00    -0.267 NA 
HETATM   12  H   UNL     1     -11.556  11.311  67.163  1.00  0.00     0.000 HD 
BRANCH  11  13
HETATM   13  C   UNL     1      -9.807  12.213  66.550  1.00  0.00    -0.218 C  
BRANCH  13  14
HETATM   14  C   UNL     1     -10.626  13.522  66.389  1.00  0.00    -0.283 C  
HETATM   15  H   UNL     1     -12.465  14.095  66.758  1.00  0.00     0.000 HD 
HETATM   16  O   UNL     1     -11.964  13.294  66.856  1.00  0.00    -0.383 OA 
BRANCH  14  17
HETATM   17  C   UNL     1      -9.981  14.696  67.117  1.00  0.00    -0.240 A  
HETATM   18  C   UNL     1      -9.520  17.097  67.355  1.00  0.00    -0.247 A  
HETATM   19  H   UNL     1      -7.323  17.564  69.781  1.00  0.00     0.000 HD 
HETATM   20  C   UNL     1      -8.663  16.811  68.423  1.00  0.00    -0.236 A  
HETATM   21  C   UNL     1      -8.488  15.504  68.866  1.00  0.00    -0.207 A  
HETATM   22  O   UNL     1      -7.905  17.758  69.056  1.00  0.00    -0.217 OA 
HETATM   23  C   UNL     1      -9.128  14.451  68.205  1.00  0.00    -0.194 A  
HETATM   24  C   UNL     1     -10.172  16.029  66.710  1.00  0.00    -0.275 A  
BRANCH  18  25
HETATM   25  C   UNL     1      -9.766  18.470  66.824  1.00  0.00    -0.333 C  
HETATM   26  O   UNL     1     -10.873  18.991  66.863  1.00  0.00    -0.419 OA 
HETATM   27  H1  UNL     1      -8.874  20.096  65.935  1.00  0.00     0.000 HD 
HETATM   28  H2  UNL     1      -7.775  18.743  66.268  1.00  0.00     0.000 HD 
HETATM   29  N   UNL     1      -8.706  19.158  66.298  1.00  0.00    -0.320 N  
ENDBRANCH  18  25
ENDBRANCH  14  17
ENDBRANCH  13  14
ENDBRANCH  11  13
ENDBRANCH   2  11
TORSDOF 8
ENDMDL
MODEL      303
REMARK 921   NORMALIZED FREE ENERGY PREDICTED BY IDOCK:   -3.44 KCAL/MOL
REMARK 922        TOTAL FREE ENERGY PREDICTED BY IDOCK:   -6.60 KCAL/MOL
REMARK 923 INTER-LIGAND FREE ENERGY PREDICTED BY IDOCK:   -5.91 KCAL/MOL
REMARK 924 INTRA-LIGAND FREE ENERGY PREDICTED BY IDOCK:   -0.68 KCAL/MOL
REMARK 927      BINDING AFFINITY PREDICTED BY RF-SCORE:    0.00 PKD
ROOT
HETATM    1  C   UNL     1      -7.614  14.356  67.339  1.00  0.00    -0.196 C  
HETATM    2  C   UNL     1      -8.181  14.202  68.756  1.00  0.00    -0.074 C  
ENDROOT
BRANCH   2   3
HETATM    3  C   UNL     1      -9.282  15.264  68.975  1.00  0.00    -0.223 C  
BRANCH   3   4
HETATM    4  C   UNL     1     -10.689  14.671  69.111  1.00  0.00    -0.263 C  
BRANCH   4   5
HETATM    5  C   UNL     1     -11.230  14.199  67.780  1.00  0.00    -0.307 A  
HETATM    6  C   UNL     1     -11.799  12.926  67.645  1.00  0.00    -0.400 A  
HETATM    7  C   UNL     1     -12.296  12.498  66.413  1.00  0.00     0.135 A  
HETATM    8  C   UNL     1     -11.183  15.041  66.659  1.00  0.00    -0.311 A  
HETATM    9  C   UNL     1     -12.235  13.340  65.302  1.00  0.00    -0.492 A  
HETATM   10  C   UNL     1     -11.680  14.612  65.427  1.00  0.00    -0.330 A  
ENDBRANCH   4   5
ENDBRANCH   3   4
ENDBRANCH   2   3
BRANCH   2  11
HETATM   11  N   UNL     1      -8.726  12.861  68.999  1.00  0.00    -0.221 NA 
HETATM   12  H   UNL     1      -9.718  12.829  68.763  1.00  0.00     0.000 HD 
BRANCH  11  13
HETATM   13  C   UNL     1      -7.998  11.785  68.312  1.00  0.00    -0.147 C  
BRANCH  13  14
HETATM   14  C   UNL     1      -8.930  10.604  67.931  1.00  0.00    -0.138 C  
HETATM   15  H   UNL     1      -8.807   9.016  66.787  1.00  0.00     0.000 HD 
HETATM   16  O   UNL     1      -8.236   9.739  67.021  1.00  0.00    -0.116 OA 
BRANCH  14  17
HETATM   17  C   UNL     1      -9.417   9.838  69.155  1.00  0.00    -0.191 A  
HETATM   18  C   UNL     1     -11.038   9.466  70.963  1.00  0.00    -0.414 A  
HETATM   19  H   UNL     1      -9.882   7.153  73.024  1.00  0.00     0.000 HD 
HETATM   20  C   UNL     1     -10.201   8.475  71.488  1.00  0.00    -0.250 A  
HETATM   21  C   UNL     1      -9.014   8.134  70.850  1.00  0.00    -0.163 A  
HETATM   22  O   UNL     1     -10.449   7.826  72.667  1.00  0.00    -0.249 OA 
HETATM   23  C   UNL     1      -8.615   8.825  69.702  1.00  0.00    -0.130 A  
HETATM   24  C   UNL     1     -10.633  10.141  69.797  1.00  0.00    -0.298 A  
BRANCH  18  25
HETATM   25  C   UNL     1     -12.329   9.885  71.583  1.00  0.00    -0.406 C  
HETATM   26  O   UNL     1     -12.854   9.244  72.485  1.00  0.00    -0.370 OA 
HETATM   27  H1  UNL     1     -13.804  11.319  71.550  1.00  0.00     0.000 HD 
HETATM   28  H2  UNL     1     -12.492  11.584  70.385  1.00  0.00     0.000 HD 
HETATM   29  N   UNL     1     -12.921  11.032  71.127  1.00  0.00    -0.362 N  
ENDBRANCH  18  25
ENDBRANCH  14  17
ENDBRANCH  13  14
ENDBRANCH  11  13
ENDBRANCH   2  11
TORSDOF 8
ENDMDL
MODEL      304
REMARK 921   NORMALIZED FREE ENERGY PREDICTED BY IDOCK:   -3.42 KCAL/MOL
REMARK 922        TOTAL FREE ENERGY PREDICTED BY IDOCK:   -6.58 KCAL/MOL
REMARK 923 INTER-LIGAND FREE ENERGY PREDICTED BY IDOCK:   -5.63 KCAL/MOL
REMARK 924 INTRA-LIGAND FREE ENERGY PREDICTED BY IDOCK:   -0.94 KCAL/MOL
REMARK 927      BINDING AFFINITY PREDICTED BY RF-SCORE:    0.00 PKD
ROOT
HETATM    1  C   UNL     1     -12.644  14.379  70.868  1.00  0.00    -0.422 C  
HETATM    2  C   UNL     1     -12.133  13.231  69.988  1.00  0.00    -0.315 C  
ENDROOT
BRANCH   2   3
HETATM    3  C   UNL     1     -12.909  11.943  70.344  1.00  0.00     0.106 C  
BRANCH   3   4
HETATM    4  C   UNL     1     -12.294  11.158  71.509  1.00  0.00    -0.256 C  
BRANCH   4   5
HETATM    5  C   UNL     1     -11.233  10.190  71.036  1.00  0.00    -0.322 A  
HETATM    6  C   UNL     1     -10.393   9.541  71.951  1.00  0.00     0.396 A  
HETATM    7  C   UNL     1      -9.416   8.649  71.506  1.00  0.00    -0.320 A  
HETATM    8  C   UNL     1     -11.085   9.915  69.669  1.00  0.00    -0.279 A  
HETATM    9  C   UNL     1      -9.271   8.390  70.143  1.00  0.00    -0.159 A  
HETATM   10  C   UNL     1     -10.108   9.023  69.225  1.00  0.00    -0.197 A  
ENDBRANCH   4   5
ENDBRANCH   3   4
ENDBRANCH   2   3
BRANCH   2  11
HETATM   11  N   UNL     1     -12.272  13.518  68.556  1.00  0.00    -0.308 NA 
HETATM   12  H   UNL     1     -13.217  13.307  68.238  1.00  0.00     0.000 HD 
BRANCH  11  13
HETATM   13  C   UNL     1     -11.896  14.888  68.181  1.00  0.00    -0.278 C  
BRANCH  13  14
HETATM   14  C   UNL     1     -10.554  14.930  67.401  1.00  0.00    -0.263 C  
HETATM   15  H   UNL     1      -8.650  14.802  67.853  1.00  0.00     0.000 HD 
HETATM   16  O   UNL     1      -9.471  14.777  68.330  1.00  0.00    -0.195 OA 
BRANCH  14  17
HETATM   17  C   UNL     1     -10.494  13.871  66.306  1.00  0.00    -0.287 A  
HETATM   18  C   UNL     1      -9.688  11.726  65.421  1.00  0.00    -0.242 A  
HETATM   19  H   UNL     1     -10.625  11.410  62.267  1.00  0.00     0.000 HD 
HETATM   20  C   UNL     1     -10.313  12.011  64.203  1.00  0.00    -0.347 A  
HETATM   21  C   UNL     1     -11.049  13.179  64.036  1.00  0.00    -0.395 A  
HETATM   22  O   UNL     1     -10.201  11.217  63.095  1.00  0.00    -0.342 OA 
HETATM   23  C   UNL     1     -11.123  14.112  65.075  1.00  0.00    -0.372 A  
HETATM   24  C   UNL     1      -9.785  12.665  66.465  1.00  0.00    -0.256 A  
BRANCH  18  25
HETATM   25  C   UNL     1      -8.887  10.494  65.683  1.00  0.00    -0.182 C  
HETATM   26  O   UNL     1      -7.663  10.497  65.644  1.00  0.00    -0.148 OA 
HETATM   27  H1  UNL     1      -9.010   8.499  66.167  1.00  0.00     0.000 HD 
HETATM   28  H2  UNL     1     -10.576   9.324  66.037  1.00  0.00     0.000 HD 
HETATM   29  N   UNL     1      -9.558   9.341  65.989  1.00  0.00    -0.251 N  
ENDBRANCH  18  25
ENDBRANCH  14  17
ENDBRANCH  13  14
ENDBRANCH  11  13
ENDBRANCH   2  11
TORSDOF 8
ENDMDL
MODEL      305
REMARK 921   NORMALIZED FREE ENERGY PREDICTED BY IDOCK:   -3.40 KCAL/MOL
REMARK 922        TOTAL FREE ENERGY PREDICTED BY IDOCK:   -6.55 KCAL/MOL
REMARK 923 INTER-LIGAND FREE ENERGY PREDICTED BY IDOCK:   -5.89 KCAL/MOL
REMARK 924 INTRA-LIGAND FREE ENERGY PREDICTED BY IDOCK:   -0.66 KCAL/MOL
REMARK 927      BINDING AFFINITY PREDICTED BY RF-SCORE:    0.00 PKD
ROOT
HETATM    1  C   UNL     1      -9.873   9.498  66.034  1.00  0.00    -0.353 C  
HETATM    2  C   UNL     1     -10.123  10.842  66.729  1.00  0.00    -0.216 C  
ENDROOT
BRANCH   2   3
HETATM    3  C   UNL     1     -11.524  11.360  66.330  1.00  0.00    -0.028 C  
BRANCH   3   4
HETATM    4  C   UNL     1     -11.505  12.327  65.140  1.00  0.00    -0.390 C  
BRANCH   4   5
HETATM    5  C   UNL     1     -11.036  13.707  65.545  1.00  0.00    -0.301 A  
HETATM    6  C   UNL     1     -11.144  14.143  66.872  1.00  0.00    -0.312 A  
HETATM    7  C   UNL     1     -10.710  15.418  67.237  1.00  0.00    -0.307 A  
HETATM    8  C   UNL     1     -10.471  14.568  64.595  1.00  0.00    -0.240 A  
HETATM    9  C   UNL     1     -10.158  16.271  66.281  1.00  0.00    -0.340 A  
HETATM   10  C   UNL     1     -10.037  15.844  64.960  1.00  0.00     0.059 A  
ENDBRANCH   4   5
ENDBRANCH   3   4
ENDBRANCH   2   3
BRANCH   2  11
HETATM   11  N   UNL     1     -10.025  10.746  68.190  1.00  0.00    -0.157 NA 
HETATM   12  H   UNL     1      -9.524  11.549  68.569  1.00  0.00     0.000 HD 
BRANCH  11  13
HETATM   13  C   UNL     1     -11.319  10.579  68.867  1.00  0.00    -0.251 C  
BRANCH  13  14
HETATM   14  C   UNL     1     -11.164  10.523  70.411  1.00  0.00    -0.298 C  
HETATM   15  H   UNL     1     -12.193  11.144  71.960  1.00  0.00     0.000 HD 
HETATM   16  O   UNL     1     -12.288  11.178  71.015  1.00  0.00    -0.371 OA 
BRANCH  14  17
HETATM   17  C   UNL     1     -11.020   9.094  70.921  1.00  0.00    -0.349 A  
HETATM   18  C   UNL     1     -10.226   6.783  70.668  1.00  0.00    -0.216 A  
HETATM   19  H   UNL     1     -11.428   4.928  73.127  1.00  0.00     0.000 HD 
HETATM   20  C   UNL     1     -10.895   6.440  71.848  1.00  0.00    -0.240 A  
HETATM   21  C   UNL     1     -11.584   7.401  72.581  1.00  0.00    -0.295 A  
HETATM   22  O   UNL     1     -10.973   5.160  72.326  1.00  0.00    -0.211 OA 
HETATM   23  C   UNL     1     -11.662   8.715  72.110  1.00  0.00    -0.442 A  
HETATM   24  C   UNL     1     -10.297   8.113  70.215  1.00  0.00    -0.209 A  
BRANCH  18  25
HETATM   25  C   UNL     1      -9.461   5.814  69.830  1.00  0.00    -0.148 C  
HETATM   26  O   UNL     1     -10.004   5.127  68.974  1.00  0.00    -0.171 OA 
HETATM   27  H1  UNL     1      -7.586   5.056  69.452  1.00  0.00     0.000 HD 
HETATM   28  H2  UNL     1      -7.638   6.292  70.725  1.00  0.00     0.000 HD 
HETATM   29  N   UNL     1      -8.109   5.718  70.025  1.00  0.00    -0.106 N  
ENDBRANCH  18  25
ENDBRANCH  14  17
ENDBRANCH  13  14
ENDBRANCH  11  13
ENDBRANCH   2  11
TORSDOF 8
ENDMDL
MODEL      306
REMARK 921   NORMALIZED FREE ENERGY PREDICTED BY IDOCK:   -3.38 KCAL/MOL
REMARK 922        TOTAL FREE ENERGY PREDICTED BY IDOCK:   -6.51 KCAL/MOL
REMARK 923 INTER-LIGAND FREE ENERGY PREDICTED BY IDOCK:   -5.71 KCAL/MOL
REMARK 924 INTRA-LIGAND FREE ENERGY PREDICTED BY IDOCK:   -0.80 KCAL/MOL
REMARK 927      BINDING AFFINITY PREDICTED BY RF-SCORE:    0.00 PKD
ROOT
HETATM    1  C   UNL     1      -8.780   8.055  68.951  1.00  0.00    -0.131 C  
HETATM    2  C   UNL     1      -9.458   8.957  67.913  1.00  0.00    -0.142 C  
ENDROOT
BRANCH   2   3
HETATM    3  C   UNL     1      -9.511   8.213  66.559  1.00  0.00    -0.286 C  
BRANCH   3   4
HETATM    4  C   UNL     1      -8.280   7.342  66.289  1.00  0.00    -0.123 C  
BRANCH   4   5
HETATM    5  C   UNL     1      -8.651   6.031  65.634  1.00  0.00    -0.154 A  
HETATM    6  C   UNL     1      -9.450   5.093  66.303  1.00  0.00    -0.164 A  
HETATM    7  C   UNL     1      -9.788   3.885  65.690  1.00  0.00    -0.149 A  
HETATM    8  C   UNL     1      -8.211   5.739  64.335  1.00  0.00    -0.114 A  
HETATM    9  C   UNL     1      -9.337   3.602  64.401  1.00  0.00    -0.146 A  
HETATM   10  C   UNL     1      -8.550   4.531  63.724  1.00  0.00    -0.126 A  
ENDBRANCH   4   5
ENDBRANCH   3   4
ENDBRANCH   2   3
BRANCH   2  11
HETATM   11  N   UNL     1     -10.812   9.357  68.316  1.00  0.00    -0.435 NA 
HETATM   12  H   UNL     1     -10.862   9.486  69.326  1.00  0.00     0.000 HD 
BRANCH  11  13
HETATM   13  C   UNL     1     -11.316  10.549  67.618  1.00  0.00    -0.154 C  
BRANCH  13  14
HETATM   14  C   UNL     1     -10.287  11.712  67.639  1.00  0.00    -0.189 C  
HETATM   15  H   UNL     1      -9.332  12.779  66.300  1.00  0.00     0.000 HD 
HETATM   16  O   UNL     1      -9.961  12.068  66.288  1.00  0.00    -0.216 OA 
BRANCH  14  17
HETATM   17  C   UNL     1     -10.801  12.917  68.417  1.00  0.00    -0.276 A  
HETATM   18  C   UNL     1     -10.789  15.320  68.927  1.00  0.00    -0.247 A  
HETATM   19  H   UNL     1     -12.713  15.902  71.551  1.00  0.00     0.000 HD 
HETATM   20  C   UNL     1     -11.689  15.088  69.972  1.00  0.00    -0.306 A  
HETATM   21  C   UNL     1     -12.174  13.809  70.222  1.00  0.00    -0.429 A  
HETATM   22  O   UNL     1     -12.102  16.060  70.841  1.00  0.00    -0.394 OA 
HETATM   23  C   UNL     1     -11.718  12.728  69.462  1.00  0.00    -0.383 A  
HETATM   24  C   UNL     1     -10.351  14.226  68.158  1.00  0.00    -0.233 A  
BRANCH  18  25
HETATM   25  C   UNL     1     -10.227  16.661  68.590  1.00  0.00    -0.284 C  
HETATM   26  O   UNL     1     -10.904  17.533  68.058  1.00  0.00    -0.378 OA 
HETATM   27  H1  UNL     1      -8.535  17.828  68.676  1.00  0.00     0.000 HD 
HETATM   28  H2  UNL     1      -8.345  16.201  69.360  1.00  0.00     0.000 HD 
HETATM   29  N   UNL     1      -8.919  16.911  68.907  1.00  0.00    -0.247 N  
ENDBRANCH  18  25
ENDBRANCH  14  17
ENDBRANCH  13  14
ENDBRANCH  11  13
ENDBRANCH   2  11
TORSDOF 8
ENDMDL
MODEL      307
REMARK 921   NORMALIZED FREE ENERGY PREDICTED BY IDOCK:   -3.36 KCAL/MOL
REMARK 922        TOTAL FREE ENERGY PREDICTED BY IDOCK:   -6.48 KCAL/MOL
REMARK 923 INTER-LIGAND FREE ENERGY PREDICTED BY IDOCK:   -5.10 KCAL/MOL
REMARK 924 INTRA-LIGAND FREE ENERGY PREDICTED BY IDOCK:   -1.38 KCAL/MOL
REMARK 927      BINDING AFFINITY PREDICTED BY RF-SCORE:    0.00 PKD
ROOT
HETATM    1  C   UNL     1      -5.880   8.882  70.280  1.00  0.00    -0.030 C  
HETATM    2  C   UNL     1      -6.498   9.704  69.142  1.00  0.00    -0.044 C  
ENDROOT
BRANCH   2   3
HETATM    3  C   UNL     1      -8.022   9.816  69.374  1.00  0.00    -0.125 C  
BRANCH   3   4
HETATM    4  C   UNL     1      -8.748   8.466  69.345  1.00  0.00    -0.137 C  
BRANCH   4   5
HETATM    5  C   UNL     1      -9.964   8.463  70.243  1.00  0.00    -0.193 A  
HETATM    6  C   UNL     1     -10.519   9.663  70.708  1.00  0.00    -0.375 A  
HETATM    7  C   UNL     1     -11.642   9.650  71.537  1.00  0.00    -0.451 A  
HETATM    8  C   UNL     1     -10.567   7.252  70.613  1.00  0.00    -0.240 A  
HETATM    9  C   UNL     1     -12.227   8.440  71.907  1.00  0.00    -0.395 A  
HETATM   10  C   UNL     1     -11.690   7.240  71.443  1.00  0.00    -0.317 A  
ENDBRANCH   4   5
ENDBRANCH   3   4
ENDBRANCH   2   3
BRANCH   2  11
HETATM   11  N   UNL     1      -5.910  11.044  69.035  1.00  0.00    -0.040 NA 
HETATM   12  H   UNL     1      -5.483  11.177  68.119  1.00  0.00     0.000 HD 
BRANCH  11  13
HETATM   13  C   UNL     1      -6.852  12.135  69.327  1.00  0.00    -0.052 C  
BRANCH  13  14
HETATM   14  C   UNL     1      -6.921  13.167  68.169  1.00  0.00    -0.108 C  
HETATM   15  H   UNL     1      -6.397  13.211  66.280  1.00  0.00     0.000 HD 
HETATM   16  O   UNL     1      -6.356  12.580  66.988  1.00  0.00    -0.190 OA 
BRANCH  14  17
HETATM   17  C   UNL     1      -8.344  13.651  67.916  1.00  0.00    -0.174 A  
HETATM   18  C   UNL     1     -10.776  13.435  68.186  1.00  0.00    -0.267 A  
HETATM   19  H   UNL     1     -12.300  15.671  66.287  1.00  0.00     0.000 HD 
HETATM   20  C   UNL     1     -10.953  14.512  67.311  1.00  0.00    -0.305 A  
HETATM   21  C   UNL     1      -9.859  15.179  66.772  1.00  0.00    -0.251 A  
HETATM   22  O   UNL     1     -12.180  14.940  66.882  1.00  0.00    -0.140 OA 
HETATM   23  C   UNL     1      -8.563  14.739  67.057  1.00  0.00    -0.260 A  
HETATM   24  C   UNL     1      -9.466  13.014  68.479  1.00  0.00    -0.098 A  
BRANCH  18  25
HETATM   25  C   UNL     1     -11.896  12.672  68.811  1.00  0.00    -0.300 C  
HETATM   26  O   UNL     1     -12.283  11.602  68.359  1.00  0.00    -0.498 OA 
HETATM   27  H1  UNL     1     -13.250  12.670  70.360  1.00  0.00     0.000 HD 
HETATM   28  H2  UNL     1     -12.167  14.076  70.330  1.00  0.00     0.000 HD 
HETATM   29  N   UNL     1     -12.484  13.192  69.933  1.00  0.00    -0.108 N  
ENDBRANCH  18  25
ENDBRANCH  14  17
ENDBRANCH  13  14
ENDBRANCH  11  13
ENDBRANCH   2  11
TORSDOF 8
ENDMDL
MODEL      308
REMARK 921   NORMALIZED FREE ENERGY PREDICTED BY IDOCK:   -3.35 KCAL/MOL
REMARK 922        TOTAL FREE ENERGY PREDICTED BY IDOCK:   -6.47 KCAL/MOL
REMARK 923 INTER-LIGAND FREE ENERGY PREDICTED BY IDOCK:   -5.78 KCAL/MOL
REMARK 924 INTRA-LIGAND FREE ENERGY PREDICTED BY IDOCK:   -0.69 KCAL/MOL
REMARK 927      BINDING AFFINITY PREDICTED BY RF-SCORE:    0.00 PKD
ROOT
HETATM    1  C   UNL     1      -9.247   9.674  70.216  1.00  0.00    -0.285 C  
HETATM    2  C   UNL     1     -10.707   9.413  69.828  1.00  0.00    -0.234 C  
ENDROOT
BRANCH   2   3
HETATM    3  C   UNL     1     -11.572  10.605  70.297  1.00  0.00    -0.424 C  
BRANCH   3   4
HETATM    4  C   UNL     1     -12.318  11.308  69.156  1.00  0.00    -0.115 C  
BRANCH   4   5
HETATM    5  C   UNL     1     -12.152  12.809  69.217  1.00  0.00    -0.224 A  
HETATM    6  C   UNL     1     -12.192  13.488  70.443  1.00  0.00    -0.426 A  
HETATM    7  C   UNL     1     -12.038  14.875  70.490  1.00  0.00    -0.378 A  
HETATM    8  C   UNL     1     -11.939  13.546  68.043  1.00  0.00    -0.372 A  
HETATM    9  C   UNL     1     -11.837  15.598  69.314  1.00  0.00    -0.378 A  
HETATM   10  C   UNL     1     -11.786  14.932  68.091  1.00  0.00    -0.344 A  
ENDBRANCH   4   5
ENDBRANCH   3   4
ENDBRANCH   2   3
BRANCH   2  11
HETATM   11  N   UNL     1     -10.877   9.210  68.385  1.00  0.00    -0.447 NA 
HETATM   12  H   UNL     1     -11.331  10.019  67.960  1.00  0.00     0.000 HD 
BRANCH  11  13
HETATM   13  C   UNL     1      -9.631   8.887  67.676  1.00  0.00    -0.148 C  
BRANCH  13  14
HETATM   14  C   UNL     1      -9.848   7.804  66.585  1.00  0.00    -0.225 C  
HETATM   15  H   UNL     1      -9.006   7.324  64.880  1.00  0.00     0.000 HD 
HETATM   16  O   UNL     1      -8.873   7.986  65.548  1.00  0.00    -0.148 OA 
BRANCH  14  17
HETATM   17  C   UNL     1      -9.786   6.392  67.157  1.00  0.00    -0.182 A  
HETATM   18  C   UNL     1      -9.642   4.838  69.053  1.00  0.00    -0.233 A  
HETATM   19  H   UNL     1      -9.257   1.754  67.926  1.00  0.00     0.000 HD 
HETATM   20  C   UNL     1      -9.542   3.772  68.152  1.00  0.00    -0.113 A  
HETATM   21  C   UNL     1      -9.601   3.992  66.780  1.00  0.00    -0.234 A  
HETATM   22  O   UNL     1      -9.325   2.478  68.537  1.00  0.00    -0.178 OA 
HETATM   23  C   UNL     1      -9.703   5.295  66.285  1.00  0.00    -0.185 A  
HETATM   24  C   UNL     1      -9.762   6.143  68.542  1.00  0.00    -0.141 A  
BRANCH  18  25
HETATM   25  C   UNL     1      -9.595   4.686  70.537  1.00  0.00    -0.198 C  
HETATM   26  O   UNL     1      -8.590   4.295  71.117  1.00  0.00    -0.090 OA 
HETATM   27  H1  UNL     1     -10.681   4.911  72.270  1.00  0.00     0.000 HD 
HETATM   28  H2  UNL     1     -11.554   5.354  70.790  1.00  0.00     0.000 HD 
HETATM   29  N   UNL     1     -10.713   5.015  71.255  1.00  0.00    -0.080 N  
ENDBRANCH  18  25
ENDBRANCH  14  17
ENDBRANCH  13  14
ENDBRANCH  11  13
ENDBRANCH   2  11
TORSDOF 8
ENDMDL
MODEL      309
REMARK 921   NORMALIZED FREE ENERGY PREDICTED BY IDOCK:   -3.35 KCAL/MOL
REMARK 922        TOTAL FREE ENERGY PREDICTED BY IDOCK:   -6.47 KCAL/MOL
REMARK 923 INTER-LIGAND FREE ENERGY PREDICTED BY IDOCK:   -5.81 KCAL/MOL
REMARK 924 INTRA-LIGAND FREE ENERGY PREDICTED BY IDOCK:   -0.65 KCAL/MOL
REMARK 927      BINDING AFFINITY PREDICTED BY RF-SCORE:    0.00 PKD
ROOT
HETATM    1  C   UNL     1     -10.393  11.993  65.299  1.00  0.00    -0.311 C  
HETATM    2  C   UNL     1      -9.553  11.827  66.572  1.00  0.00    -0.210 C  
ENDROOT
BRANCH   2   3
HETATM    3  C   UNL     1      -9.618  13.136  67.391  1.00  0.00    -0.219 C  
BRANCH   3   4
HETATM    4  C   UNL     1      -8.775  14.271  66.801  1.00  0.00    -0.161 C  
BRANCH   4   5
HETATM    5  C   UNL     1      -9.400  15.625  67.052  1.00  0.00    -0.241 A  
HETATM    6  C   UNL     1      -9.724  16.038  68.352  1.00  0.00    -0.213 A  
HETATM    7  C   UNL     1     -10.301  17.289  68.574  1.00  0.00    -0.371 A  
HETATM    8  C   UNL     1      -9.652  16.497  65.983  1.00  0.00    -0.323 A  
HETATM    9  C   UNL     1     -10.556  18.144  67.503  1.00  0.00    -0.419 A  
HETATM   10  C   UNL     1     -10.229  17.748  66.207  1.00  0.00    -0.364 A  
ENDBRANCH   4   5
ENDBRANCH   3   4
ENDBRANCH   2   3
BRANCH   2  11
HETATM   11  N   UNL     1     -10.003  10.699  67.397  1.00  0.00    -0.177 NA 
HETATM   12  H   UNL     1      -9.312  10.483  68.115  1.00  0.00     0.000 HD 
BRANCH  11  13
HETATM   13  C   UNL     1     -11.330  10.891  68.000  1.00  0.00    -0.312 C  
BRANCH  13  14
HETATM   14  C   UNL     1     -11.283  10.794  69.549  1.00  0.00    -0.281 C  
HETATM   15  H   UNL     1     -12.594  10.598  70.994  1.00  0.00     0.000 HD 
HETATM   16  O   UNL     1     -12.622  10.657  70.046  1.00  0.00    -0.306 OA 
BRANCH  14  17
HETATM   17  C   UNL     1     -10.398   9.649  70.025  1.00  0.00    -0.298 A  
HETATM   18  C   UNL     1     -10.059   7.292  70.629  1.00  0.00    -0.198 A  
HETATM   19  H   UNL     1      -7.031   6.902  71.898  1.00  0.00     0.000 HD 
HETATM   20  C   UNL     1      -8.755   7.599  71.033  1.00  0.00    -0.137 A  
HETATM   21  C   UNL     1      -8.256   8.891  70.906  1.00  0.00    -0.207 A  
HETATM   22  O   UNL     1      -7.917   6.694  71.624  1.00  0.00    -0.102 OA 
HETATM   23  C   UNL     1      -9.078   9.913  70.424  1.00  0.00    -0.021 A  
HETATM   24  C   UNL     1     -10.870   8.327  70.128  1.00  0.00    -0.237 A  
BRANCH  18  25
HETATM   25  C   UNL     1     -10.666   5.933  70.726  1.00  0.00    -0.277 C  
HETATM   26  O   UNL     1     -11.443   5.632  71.623  1.00  0.00    -0.164 OA 
HETATM   27  H1  UNL     1     -10.761   4.083  69.830  1.00  0.00     0.000 HD 
HETATM   28  H2  UNL     1      -9.710   5.249  69.002  1.00  0.00     0.000 HD 
HETATM   29  N   UNL     1     -10.346   5.012  69.764  1.00  0.00    -0.267 N  
ENDBRANCH  18  25
ENDBRANCH  14  17
ENDBRANCH  13  14
ENDBRANCH  11  13
ENDBRANCH   2  11
TORSDOF 8
ENDMDL
MODEL      310
REMARK 921   NORMALIZED FREE ENERGY PREDICTED BY IDOCK:   -3.32 KCAL/MOL
REMARK 922        TOTAL FREE ENERGY PREDICTED BY IDOCK:   -6.43 KCAL/MOL
REMARK 923 INTER-LIGAND FREE ENERGY PREDICTED BY IDOCK:   -5.42 KCAL/MOL
REMARK 924 INTRA-LIGAND FREE ENERGY PREDICTED BY IDOCK:   -1.00 KCAL/MOL
REMARK 927      BINDING AFFINITY PREDICTED BY RF-SCORE:    0.00 PKD
ROOT
HETATM    1  C   UNL     1     -10.453  10.860  65.478  1.00  0.00    -0.286 C  
HETATM    2  C   UNL     1     -10.060   9.672  66.365  1.00  0.00    -0.247 C  
ENDROOT
BRANCH   2   3
HETATM    3  C   UNL     1      -8.662   9.168  65.940  1.00  0.00    -0.184 C  
BRANCH   3   4
HETATM    4  C   UNL     1      -8.639   7.691  65.533  1.00  0.00    -0.112 C  
BRANCH   4   5
HETATM    5  C   UNL     1      -8.239   6.797  66.685  1.00  0.00    -0.115 A  
HETATM    6  C   UNL     1      -8.470   5.415  66.638  1.00  0.00    -0.108 A  
HETATM    7  C   UNL     1      -8.098   4.598  67.706  1.00  0.00    -0.096 A  
HETATM    8  C   UNL     1      -7.615   7.339  67.817  1.00  0.00    -0.110 A  
HETATM    9  C   UNL     1      -7.486   5.150  68.831  1.00  0.00    -0.069 A  
HETATM   10  C   UNL     1      -7.243   6.521  68.885  1.00  0.00    -0.084 A  
ENDBRANCH   4   5
ENDBRANCH   3   4
ENDBRANCH   2   3
BRANCH   2  11
HETATM   11  N   UNL     1     -10.054  10.014  67.792  1.00  0.00    -0.173 NA 
HETATM   12  H   UNL     1      -9.271  10.629  68.010  1.00  0.00     0.000 HD 
BRANCH  11  13
HETATM   13  C   UNL     1     -11.316  10.597  68.272  1.00  0.00    -0.289 C  
BRANCH  13  14
HETATM   14  C   UNL     1     -11.179  11.172  69.708  1.00  0.00    -0.245 C  
HETATM   15  H   UNL     1     -12.188  12.422  70.833  1.00  0.00     0.000 HD 
HETATM   16  O   UNL     1     -12.271  12.070  69.955  1.00  0.00    -0.254 OA 
BRANCH  14  17
HETATM   17  C   UNL     1     -11.121  10.073  70.763  1.00  0.00    -0.407 A  
HETATM   18  C   UNL     1      -9.866   8.529  72.203  1.00  0.00    -0.388 A  
HETATM   19  H   UNL     1     -11.968   6.473  73.715  1.00  0.00     0.000 HD 
HETATM   20  C   UNL     1     -11.073   7.956  72.615  1.00  0.00    -0.385 A  
HETATM   21  C   UNL     1     -12.289   8.445  72.150  1.00  0.00    -0.426 A  
HETATM   22  O   UNL     1     -11.147   6.863  73.435  1.00  0.00    -0.240 OA 
HETATM   23  C   UNL     1     -12.313   9.484  71.216  1.00  0.00    -0.430 A  
HETATM   24  C   UNL     1      -9.904   9.586  71.275  1.00  0.00    -0.095 A  
BRANCH  18  25
HETATM   25  C   UNL     1      -8.522   8.067  72.659  1.00  0.00    -0.174 C  
HETATM   26  O   UNL     1      -7.797   8.768  73.353  1.00  0.00    -0.406 OA 
HETATM   27  H1  UNL     1      -7.194   6.497  72.606  1.00  0.00     0.000 HD 
HETATM   28  H2  UNL     1      -8.709   6.211  71.726  1.00  0.00     0.000 HD 
HETATM   29  N   UNL     1      -8.113   6.813  72.294  1.00  0.00    -0.099 N  
ENDBRANCH  18  25
ENDBRANCH  14  17
ENDBRANCH  13  14
ENDBRANCH  11  13
ENDBRANCH   2  11
TORSDOF 8
ENDMDL
MODEL      311
REMARK 921   NORMALIZED FREE ENERGY PREDICTED BY IDOCK:   -3.31 KCAL/MOL
REMARK 922        TOTAL FREE ENERGY PREDICTED BY IDOCK:   -6.41 KCAL/MOL
REMARK 923 INTER-LIGAND FREE ENERGY PREDICTED BY IDOCK:   -5.32 KCAL/MOL
REMARK 924 INTRA-LIGAND FREE ENERGY PREDICTED BY IDOCK:   -1.09 KCAL/MOL
REMARK 927      BINDING AFFINITY PREDICTED BY RF-SCORE:    0.00 PKD
ROOT
HETATM    1  C   UNL     1      -5.867   8.854  70.333  1.00  0.00    -0.030 C  
HETATM    2  C   UNL     1      -6.445   9.676  69.174  1.00  0.00    -0.044 C  
ENDROOT
BRANCH   2   3
HETATM    3  C   UNL     1      -7.959   9.883  69.412  1.00  0.00    -0.135 C  
BRANCH   3   4
HETATM    4  C   UNL     1      -8.749   8.574  69.513  1.00  0.00    -0.136 C  
BRANCH   4   5
HETATM    5  C   UNL     1      -9.955   8.713  70.414  1.00  0.00    -0.212 A  
HETATM    6  C   UNL     1     -10.210   7.778  71.426  1.00  0.00    -0.211 A  
HETATM    7  C   UNL     1     -11.326   7.914  72.253  1.00  0.00    -0.393 A  
HETATM    8  C   UNL     1     -10.832   9.796  70.259  1.00  0.00    -0.356 A  
HETATM    9  C   UNL     1     -12.197   8.990  72.083  1.00  0.00    -0.427 A  
HETATM   10  C   UNL     1     -11.948   9.932  71.086  1.00  0.00    -0.473 A  
ENDBRANCH   4   5
ENDBRANCH   3   4
ENDBRANCH   2   3
BRANCH   2  11
HETATM   11  N   UNL     1      -5.782  10.976  69.023  1.00  0.00    -0.040 NA 
HETATM   12  H   UNL     1      -5.333  11.045  68.110  1.00  0.00     0.000 HD 
BRANCH  11  13
HETATM   13  C   UNL     1      -6.665  12.129  69.251  1.00  0.00    -0.084 C  
BRANCH  13  14
HETATM   14  C   UNL     1      -6.655  13.114  68.052  1.00  0.00    -0.124 C  
HETATM   15  H   UNL     1      -5.973  13.099  66.213  1.00  0.00     0.000 HD 
HETATM   16  O   UNL     1      -5.980  12.496  66.947  1.00  0.00    -0.278 OA 
BRANCH  14  17
HETATM   17  C   UNL     1      -8.061  13.555  67.660  1.00  0.00    -0.180 A  
HETATM   18  C   UNL     1     -10.059  13.384  66.243  1.00  0.00    -0.299 A  
HETATM   19  H   UNL     1     -12.148  15.839  66.977  1.00  0.00     0.000 HD 
HETATM   20  C   UNL     1     -10.600  14.496  66.897  1.00  0.00    -0.279 A  
HETATM   21  C   UNL     1      -9.916  15.112  67.939  1.00  0.00    -0.221 A  
HETATM   22  O   UNL     1     -11.781  15.083  66.532  1.00  0.00    -0.266 OA 
HETATM   23  C   UNL     1      -8.646  14.657  68.305  1.00  0.00    -0.167 A  
HETATM   24  C   UNL     1      -8.788  12.925  66.634  1.00  0.00    -0.098 A  
BRANCH  18  25
HETATM   25  C   UNL     1     -10.732  12.663  65.122  1.00  0.00    -0.292 C  
HETATM   26  O   UNL     1     -10.422  12.851  63.952  1.00  0.00    -0.413 OA 
HETATM   27  H1  UNL     1     -12.170  11.265  64.666  1.00  0.00     0.000 HD 
HETATM   28  H2  UNL     1     -11.972  11.580  66.402  1.00  0.00     0.000 HD 
HETATM   29  N   UNL     1     -11.710  11.757  65.432  1.00  0.00    -0.154 N  
ENDBRANCH  18  25
ENDBRANCH  14  17
ENDBRANCH  13  14
ENDBRANCH  11  13
ENDBRANCH   2  11
TORSDOF 8
ENDMDL
MODEL      312
REMARK 921   NORMALIZED FREE ENERGY PREDICTED BY IDOCK:   -3.27 KCAL/MOL
REMARK 922        TOTAL FREE ENERGY PREDICTED BY IDOCK:   -6.35 KCAL/MOL
REMARK 923 INTER-LIGAND FREE ENERGY PREDICTED BY IDOCK:   -5.55 KCAL/MOL
REMARK 924 INTRA-LIGAND FREE ENERGY PREDICTED BY IDOCK:   -0.80 KCAL/MOL
REMARK 927      BINDING AFFINITY PREDICTED BY RF-SCORE:    0.00 PKD
ROOT
HETATM    1  C   UNL     1      -9.733   9.919  68.835  1.00  0.00    -0.176 C  
HETATM    2  C   UNL     1      -9.869   8.900  67.697  1.00  0.00    -0.182 C  
ENDROOT
BRANCH   2   3
HETATM    3  C   UNL     1     -10.852   7.789  68.131  1.00  0.00    -0.012 C  
BRANCH   3   4
HETATM    4  C   UNL     1     -10.159   6.517  68.632  1.00  0.00    -0.175 C  
BRANCH   4   5
HETATM    5  C   UNL     1     -10.536   6.197  70.061  1.00  0.00    -0.294 A  
HETATM    6  C   UNL     1      -9.861   5.199  70.777  1.00  0.00    -0.270 A  
HETATM    7  C   UNL     1     -10.216   4.910  72.095  1.00  0.00    -0.257 A  
HETATM    8  C   UNL     1     -11.563   6.908  70.697  1.00  0.00    -0.402 A  
HETATM    9  C   UNL     1     -11.246   5.617  72.715  1.00  0.00    -0.347 A  
HETATM   10  C   UNL     1     -11.918   6.618  72.016  1.00  0.00    -0.361 A  
ENDBRANCH   4   5
ENDBRANCH   3   4
ENDBRANCH   2   3
BRANCH   2  11
HETATM   11  N   UNL     1     -10.331   9.513  66.446  1.00  0.00    -0.214 NA 
HETATM   12  H   UNL     1     -11.345   9.620  66.452  1.00  0.00     0.000 HD 
BRANCH  11  13
HETATM   13  C   UNL     1      -9.681  10.794  66.133  1.00  0.00    -0.207 C  
BRANCH  13  14
HETATM   14  C   UNL     1     -10.646  11.774  65.413  1.00  0.00    -0.277 C  
HETATM   15  H   UNL     1     -12.560  11.818  64.987  1.00  0.00     0.000 HD 
HETATM   16  O   UNL     1     -11.969  11.218  65.427  1.00  0.00     0.181 OA 
BRANCH  14  17
HETATM   17  C   UNL     1     -10.626  13.163  66.041  1.00  0.00    -0.291 A  
HETATM   18  C   UNL     1     -11.050  14.688  67.919  1.00  0.00    -0.301 A  
HETATM   19  H   UNL     1     -10.536  17.806  66.948  1.00  0.00     0.000 HD 
HETATM   20  C   UNL     1     -10.689  15.767  67.105  1.00  0.00    -0.312 A  
HETATM   21  C   UNL     1     -10.266  15.561  65.796  1.00  0.00    -0.390 A  
HETATM   22  O   UNL     1     -10.781  17.073  67.501  1.00  0.00    -0.330 OA 
HETATM   23  C   UNL     1     -10.253  14.270  65.262  1.00  0.00    -0.408 A  
HETATM   24  C   UNL     1     -11.015  13.391  67.374  1.00  0.00    -0.287 A  
BRANCH  18  25
HETATM   25  C   UNL     1     -11.508  14.824  69.333  1.00  0.00    -0.301 C  
HETATM   26  O   UNL     1     -10.859  14.377  70.271  1.00  0.00     0.009 OA 
HETATM   27  H1  UNL     1     -12.997  15.577  70.537  1.00  0.00     0.000 HD 
HETATM   28  H2  UNL     1     -13.231  15.873  68.802  1.00  0.00     0.000 HD 
HETATM   29  N   UNL     1     -12.683  15.485  69.570  1.00  0.00     0.056 N  
ENDBRANCH  18  25
ENDBRANCH  14  17
ENDBRANCH  13  14
ENDBRANCH  11  13
ENDBRANCH   2  11
TORSDOF 8
ENDMDL
MODEL      313
REMARK 921   NORMALIZED FREE ENERGY PREDICTED BY IDOCK:   -3.26 KCAL/MOL
REMARK 922        TOTAL FREE ENERGY PREDICTED BY IDOCK:   -6.34 KCAL/MOL
REMARK 923 INTER-LIGAND FREE ENERGY PREDICTED BY IDOCK:   -5.40 KCAL/MOL
REMARK 924 INTRA-LIGAND FREE ENERGY PREDICTED BY IDOCK:   -0.94 KCAL/MOL
REMARK 927      BINDING AFFINITY PREDICTED BY RF-SCORE:    0.00 PKD
ROOT
HETATM    1  C   UNL     1     -10.439   9.773  66.847  1.00  0.00    -0.281 C  
HETATM    2  C   UNL     1      -9.619  10.936  67.418  1.00  0.00    -0.163 C  
ENDROOT
BRANCH   2   3
HETATM    3  C   UNL     1     -10.079  12.251  66.749  1.00  0.00    -0.224 C  
BRANCH   3   4
HETATM    4  C   UNL     1      -9.067  13.395  66.885  1.00  0.00    -0.237 C  
BRANCH   4   5
HETATM    5  C   UNL     1      -9.701  14.640  67.464  1.00  0.00    -0.210 A  
HETATM    6  C   UNL     1     -10.556  14.564  68.572  1.00  0.00    -0.252 A  
HETATM    7  C   UNL     1     -11.137  15.718  69.099  1.00  0.00    -0.283 A  
HETATM    8  C   UNL     1      -9.429  15.897  66.905  1.00  0.00    -0.242 A  
HETATM    9  C   UNL     1     -10.867  16.962  68.529  1.00  0.00    -0.335 A  
HETATM   10  C   UNL     1     -10.011  17.051  67.433  1.00  0.00    -0.278 A  
ENDBRANCH   4   5
ENDBRANCH   3   4
ENDBRANCH   2   3
BRANCH   2  11
HETATM   11  N   UNL     1      -9.745  11.048  68.876  1.00  0.00    -0.276 NA 
HETATM   12  H   UNL     1      -9.832  12.025  69.155  1.00  0.00     0.000 HD 
BRANCH  11  13
HETATM   13  C   UNL     1     -10.841  10.251  69.445  1.00  0.00    -0.245 C  
BRANCH  13  14
HETATM   14  C   UNL     1     -10.395   9.470  70.711  1.00  0.00    -0.306 C  
HETATM   15  H   UNL     1     -11.122   9.149  72.504  1.00  0.00     0.000 HD 
HETATM   16  O   UNL     1     -11.394   9.627  71.729  1.00  0.00    -0.347 OA 
BRANCH  14  17
HETATM   17  C   UNL     1     -10.136   7.998  70.415  1.00  0.00    -0.194 A  
HETATM   18  C   UNL     1      -8.647   6.160  69.753  1.00  0.00    -0.132 A  
HETATM   19  H   UNL     1     -10.414   3.394  69.359  1.00  0.00     0.000 HD 
HETATM   20  C   UNL     1      -9.743   5.291  69.756  1.00  0.00    -0.189 A  
HETATM   21  C   UNL     1     -11.008   5.742  70.117  1.00  0.00    -0.368 A  
HETATM   22  O   UNL     1      -9.669   3.984  69.357  1.00  0.00    -0.193 OA 
HETATM   23  C   UNL     1     -11.207   7.090  70.426  1.00  0.00    -0.339 A  
HETATM   24  C   UNL     1      -8.858   7.511  70.083  1.00  0.00    -0.147 A  
BRANCH  18  25
HETATM   25  C   UNL     1      -7.259   5.754  69.385  1.00  0.00    -0.066 C  
HETATM   26  O   UNL     1      -6.481   5.285  70.206  1.00  0.00    -0.032 OA 
HETATM   27  H1  UNL     1      -5.918   5.625  67.830  1.00  0.00     0.000 HD 
HETATM   28  H2  UNL     1      -7.506   6.280  67.382  1.00  0.00     0.000 HD 
HETATM   29  N   UNL     1      -6.867   5.903  68.081  1.00  0.00    -0.065 N  
ENDBRANCH  18  25
ENDBRANCH  14  17
ENDBRANCH  13  14
ENDBRANCH  11  13
ENDBRANCH   2  11
TORSDOF 8
ENDMDL
MODEL      314
REMARK 921   NORMALIZED FREE ENERGY PREDICTED BY IDOCK:   -3.23 KCAL/MOL
REMARK 922        TOTAL FREE ENERGY PREDICTED BY IDOCK:   -6.30 KCAL/MOL
REMARK 923 INTER-LIGAND FREE ENERGY PREDICTED BY IDOCK:   -3.80 KCAL/MOL
REMARK 924 INTRA-LIGAND FREE ENERGY PREDICTED BY IDOCK:   -2.50 KCAL/MOL
REMARK 927      BINDING AFFINITY PREDICTED BY RF-SCORE:    0.00 PKD
ROOT
HETATM    1  C   UNL     1     -12.014   5.625  72.327  1.00  0.00    -0.062 C  
HETATM    2  C   UNL     1     -12.140   7.117  71.996  1.00  0.00    -0.292 C  
ENDROOT
BRANCH   2   3
HETATM    3  C   UNL     1     -11.005   7.887  72.708  1.00  0.00    -0.456 C  
BRANCH   3   4
HETATM    4  C   UNL     1     -10.343   7.095  73.842  1.00  0.00    -0.339 C  
BRANCH   4   5
HETATM    5  C   UNL     1      -8.839   7.249  73.833  1.00  0.00    -0.245 A  
HETATM    6  C   UNL     1      -8.240   8.432  73.378  1.00  0.00    -0.174 A  
HETATM    7  C   UNL     1      -6.851   8.566  73.372  1.00  0.00    -0.076 A  
HETATM    8  C   UNL     1      -8.019   6.211  74.296  1.00  0.00    -0.102 A  
HETATM    9  C   UNL     1      -6.044   7.523  73.826  1.00  0.00    -0.064 A  
HETATM   10  C   UNL     1      -6.629   6.346  74.290  1.00  0.00    -0.074 A  
ENDBRANCH   4   5
ENDBRANCH   3   4
ENDBRANCH   2   3
BRANCH   2  11
HETATM   11  N   UNL     1     -12.089   7.377  70.552  1.00  0.00    -0.537 NA 
HETATM   12  H   UNL     1     -11.541   8.215  70.358  1.00  0.00     0.000 HD 
BRANCH  11  13
HETATM   13  C   UNL     1     -11.596   6.244  69.757  1.00  0.00    -0.260 C  
BRANCH  13  14
HETATM   14  C   UNL     1     -10.253   6.571  69.050  1.00  0.00    -0.177 C  
HETATM   15  H   UNL     1      -9.232   8.192  68.633  1.00  0.00     0.000 HD 
HETATM   16  O   UNL     1     -10.053   7.992  69.065  1.00  0.00    -0.190 OA 
BRANCH  14  17
HETATM   17  C   UNL     1      -9.076   5.843  69.689  1.00  0.00    -0.145 A  
HETATM   18  C   UNL     1      -8.052   3.830  70.655  1.00  0.00    -0.060 A  
HETATM   19  H   UNL     1      -5.096   4.595  71.922  1.00  0.00     0.000 HD 
HETATM   20  C   UNL     1      -6.920   4.583  70.985  1.00  0.00    -0.036 A  
HETATM   21  C   UNL     1      -6.836   5.929  70.646  1.00  0.00    -0.054 A  
HETATM   22  O   UNL     1      -5.865   4.083  71.699  1.00  0.00    -0.011 OA 
HETATM   23  C   UNL     1      -7.915   6.559  70.020  1.00  0.00    -0.116 A  
HETATM   24  C   UNL     1      -9.124   4.473  70.009  1.00  0.00    -0.161 A  
BRANCH  18  25
HETATM   25  C   UNL     1      -8.216   2.382  70.977  1.00  0.00    -0.050 C  
HETATM   26  O   UNL     1      -7.477   1.525  70.509  1.00  0.00    -0.033 OA 
HETATM   27  H1  UNL     1      -9.332   1.032  72.057  1.00  0.00     0.000 HD 
HETATM   28  H2  UNL     1      -9.836   2.723  72.246  1.00  0.00     0.000 HD 
HETATM   29  N   UNL     1      -9.219   2.022  71.837  1.00  0.00    -0.082 N  
ENDBRANCH  18  25
ENDBRANCH  14  17
ENDBRANCH  13  14
ENDBRANCH  11  13
ENDBRANCH   2  11
TORSDOF 8
ENDMDL
MODEL      315
REMARK 921   NORMALIZED FREE ENERGY PREDICTED BY IDOCK:   -3.17 KCAL/MOL
REMARK 922        TOTAL FREE ENERGY PREDICTED BY IDOCK:   -6.21 KCAL/MOL
REMARK 923 INTER-LIGAND FREE ENERGY PREDICTED BY IDOCK:   -5.46 KCAL/MOL
REMARK 924 INTRA-LIGAND FREE ENERGY PREDICTED BY IDOCK:   -0.75 KCAL/MOL
REMARK 927      BINDING AFFINITY PREDICTED BY RF-SCORE:    0.00 PKD
ROOT
HETATM    1  C   UNL     1      -7.121  14.055  67.872  1.00  0.00    -0.166 C  
HETATM    2  C   UNL     1      -8.487  14.628  68.268  1.00  0.00    -0.158 C  
ENDROOT
BRANCH   2   3
HETATM    3  C   UNL     1      -8.432  16.170  68.172  1.00  0.00    -0.175 C  
BRANCH   3   4
HETATM    4  C   UNL     1      -7.399  16.685  67.163  1.00  0.00    -0.220 C  
BRANCH   4   5
HETATM    5  C   UNL     1      -7.212  18.182  67.266  1.00  0.00    -0.211 A  
HETATM    6  C   UNL     1      -8.199  18.993  67.842  1.00  0.00    -0.311 A  
HETATM    7  C   UNL     1      -8.017  20.374  67.933  1.00  0.00    -0.166 A  
HETATM    8  C   UNL     1      -6.033  18.781  66.798  1.00  0.00    -0.173 A  
HETATM    9  C   UNL     1      -6.845  20.960  67.454  1.00  0.00    -0.434 A  
HETATM   10  C   UNL     1      -5.853  20.162  66.889  1.00  0.00    -0.191 A  
ENDBRANCH   4   5
ENDBRANCH   3   4
ENDBRANCH   2   3
BRANCH   2  11
HETATM   11  N   UNL     1      -9.576  14.115  67.428  1.00  0.00    -0.224 NA 
HETATM   12  H   UNL     1     -10.025  14.875  66.919  1.00  0.00     0.000 HD 
BRANCH  11  13
HETATM   13  C   UNL     1      -9.166  13.047  66.504  1.00  0.00    -0.181 C  
BRANCH  13  14
HETATM   14  C   UNL     1     -10.340  12.087  66.170  1.00  0.00    -0.224 C  
HETATM   15  H   UNL     1     -11.081  11.268  64.550  1.00  0.00     0.000 HD 
HETATM   16  O   UNL     1     -10.363  11.856  64.754  1.00  0.00    -0.259 OA 
BRANCH  14  17
HETATM   17  C   UNL     1     -10.244  10.775  66.941  1.00  0.00    -0.274 A  
HETATM   18  C   UNL     1      -9.882   9.514  69.018  1.00  0.00    -0.178 A  
HETATM   19  H   UNL     1      -9.768   6.281  68.341  1.00  0.00     0.000 HD 
HETATM   20  C   UNL     1      -9.949   8.323  68.288  1.00  0.00    -0.191 A  
HETATM   21  C   UNL     1     -10.197   8.338  66.920  1.00  0.00    -0.388 A  
HETATM   22  O   UNL     1      -9.722   7.090  68.837  1.00  0.00    -0.144 OA 
HETATM   23  C   UNL     1     -10.324   9.557  66.247  1.00  0.00    -0.226 A  
HETATM   24  C   UNL     1     -10.030  10.734  68.331  1.00  0.00    -0.174 A  
BRANCH  18  25
HETATM   25  C   UNL     1      -9.627   9.583  70.487  1.00  0.00    -0.251 C  
HETATM   26  O   UNL     1      -8.510   9.794  70.942  1.00  0.00    -0.185 OA 
HETATM   27  H1  UNL     1     -10.516   9.466  72.339  1.00  0.00     0.000 HD 
HETATM   28  H2  UNL     1     -11.629   9.255  70.972  1.00  0.00     0.000 HD 
HETATM   29  N   UNL     1     -10.690   9.419  71.334  1.00  0.00    -0.352 N  
ENDBRANCH  18  25
ENDBRANCH  14  17
ENDBRANCH  13  14
ENDBRANCH  11  13
ENDBRANCH   2  11
TORSDOF 8
ENDMDL
MODEL      316
REMARK 921   NORMALIZED FREE ENERGY PREDICTED BY IDOCK:   -3.16 KCAL/MOL
REMARK 922        TOTAL FREE ENERGY PREDICTED BY IDOCK:   -6.19 KCAL/MOL
REMARK 923 INTER-LIGAND FREE ENERGY PREDICTED BY IDOCK:   -5.29 KCAL/MOL
REMARK 924 INTRA-LIGAND FREE ENERGY PREDICTED BY IDOCK:   -0.90 KCAL/MOL
REMARK 927      BINDING AFFINITY PREDICTED BY RF-SCORE:    0.00 PKD
ROOT
HETATM    1  C   UNL     1      -9.375  10.045  69.465  1.00  0.00    -0.247 C  
HETATM    2  C   UNL     1      -9.678   9.399  68.108  1.00  0.00    -0.145 C  
ENDROOT
BRANCH   2   3
HETATM    3  C   UNL     1     -10.605  10.336  67.301  1.00  0.00    -0.324 C  
BRANCH   3   4
HETATM    4  C   UNL     1     -10.228  10.446  65.819  1.00  0.00    -0.305 C  
BRANCH   4   5
HETATM    5  C   UNL     1     -11.022  11.523  65.116  1.00  0.00    -0.298 A  
HETATM    6  C   UNL     1     -10.933  11.692  63.727  1.00  0.00    -0.495 A  
HETATM    7  C   UNL     1     -11.670  12.689  63.086  1.00  0.00    -0.290 A  
HETATM    8  C   UNL     1     -11.877  12.362  65.845  1.00  0.00    -0.467 A  
HETATM    9  C   UNL     1     -12.509  13.524  63.823  1.00  0.00    -0.296 A  
HETATM   10  C   UNL     1     -12.614  13.358  65.203  1.00  0.00    -0.495 A  
ENDBRANCH   4   5
ENDBRANCH   3   4
ENDBRANCH   2   3
BRANCH   2  11
HETATM   11  N   UNL     1      -8.461   9.117  67.337  1.00  0.00    -0.115 NA 
HETATM   12  H   UNL     1      -7.805   9.894  67.406  1.00  0.00     0.000 HD 
BRANCH  11  13
HETATM   13  C   UNL     1      -7.803   7.853  67.699  1.00  0.00    -0.122 C  
BRANCH  13  14
HETATM   14  C   UNL     1      -8.697   6.623  67.384  1.00  0.00    -0.118 C  
HETATM   15  H   UNL     1      -8.675   5.154  66.085  1.00  0.00     0.000 HD 
HETATM   16  O   UNL     1      -8.128   5.907  66.278  1.00  0.00    -0.101 OA 
BRANCH  14  17
HETATM   17  C   UNL     1      -8.872   5.715  68.596  1.00  0.00    -0.109 A  
HETATM   18  C   UNL     1      -9.523   5.341  70.934  1.00  0.00    -0.216 A  
HETATM   19  H   UNL     1      -8.688   2.272  71.836  1.00  0.00     0.000 HD 
HETATM   20  C   UNL     1      -9.052   4.027  70.840  1.00  0.00    -0.113 A  
HETATM   21  C   UNL     1      -8.535   3.541  69.644  1.00  0.00    -0.096 A  
HETATM   22  O   UNL     1      -9.008   3.164  71.900  1.00  0.00    -0.086 OA 
HETATM   23  C   UNL     1      -8.427   4.385  68.535  1.00  0.00    -0.102 A  
HETATM   24  C   UNL     1      -9.426   6.175  69.805  1.00  0.00    -0.168 A  
BRANCH  18  25
HETATM   25  C   UNL     1     -10.097   5.936  72.177  1.00  0.00    -0.180 C  
HETATM   26  O   UNL     1     -11.204   5.620  72.596  1.00  0.00    -0.269 OA 
HETATM   27  H1  UNL     1      -9.735   7.255  73.713  1.00  0.00     0.000 HD 
HETATM   28  H2  UNL     1      -8.414   7.114  72.536  1.00  0.00     0.000 HD 
HETATM   29  N   UNL     1      -9.342   6.848  72.864  1.00  0.00    -0.134 N  
ENDBRANCH  18  25
ENDBRANCH  14  17
ENDBRANCH  13  14
ENDBRANCH  11  13
ENDBRANCH   2  11
TORSDOF 8
ENDMDL
MODEL      317
REMARK 921   NORMALIZED FREE ENERGY PREDICTED BY IDOCK:   -3.11 KCAL/MOL
REMARK 922        TOTAL FREE ENERGY PREDICTED BY IDOCK:   -6.12 KCAL/MOL
REMARK 923 INTER-LIGAND FREE ENERGY PREDICTED BY IDOCK:   -5.46 KCAL/MOL
REMARK 924 INTRA-LIGAND FREE ENERGY PREDICTED BY IDOCK:   -0.66 KCAL/MOL
REMARK 927      BINDING AFFINITY PREDICTED BY RF-SCORE:    0.00 PKD
ROOT
HETATM    1  C   UNL     1     -10.560   6.228  66.714  1.00  0.00    -0.335 C  
HETATM    2  C   UNL     1     -10.782   7.467  67.589  1.00  0.00    -0.196 C  
ENDROOT
BRANCH   2   3
HETATM    3  C   UNL     1     -10.458   7.110  69.057  1.00  0.00    -0.221 C  
BRANCH   3   4
HETATM    4  C   UNL     1      -9.679   5.799  69.213  1.00  0.00    -0.188 C  
BRANCH   4   5
HETATM    5  C   UNL     1      -9.366   5.500  70.661  1.00  0.00    -0.195 A  
HETATM    6  C   UNL     1     -10.238   4.730  71.442  1.00  0.00    -0.237 A  
HETATM    7  C   UNL     1      -9.940   4.459  72.779  1.00  0.00    -0.209 A  
HETATM    8  C   UNL     1      -8.183   5.979  71.242  1.00  0.00    -0.123 A  
HETATM    9  C   UNL     1      -8.765   4.950  73.349  1.00  0.00    -0.104 A  
HETATM   10  C   UNL     1      -7.886   5.708  72.578  1.00  0.00    -0.103 A  
ENDBRANCH   4   5
ENDBRANCH   3   4
ENDBRANCH   2   3
BRANCH   2  11
HETATM   11  N   UNL     1      -9.964   8.609  67.162  1.00  0.00    -0.207 NA 
HETATM   12  H   UNL     1     -10.186   8.869  66.201  1.00  0.00     0.000 HD 
BRANCH  11  13
HETATM   13  C   UNL     1     -10.060   9.778  68.047  1.00  0.00    -0.171 C  
BRANCH  13  14
HETATM   14  C   UNL     1     -10.987  10.876  67.460  1.00  0.00    -0.293 C  
HETATM   15  H   UNL     1     -12.614  11.809  68.033  1.00  0.00     0.000 HD 
HETATM   16  O   UNL     1     -12.047  11.137  68.392  1.00  0.00    -0.605 OA 
BRANCH  14  17
HETATM   17  C   UNL     1     -10.224  12.152  67.124  1.00  0.00    -0.226 A  
HETATM   18  C   UNL     1      -8.258  13.609  67.337  1.00  0.00    -0.187 A  
HETATM   19  H   UNL     1      -8.846  16.485  65.816  1.00  0.00     0.000 HD 
HETATM   20  C   UNL     1      -8.915  14.581  66.573  1.00  0.00    -0.180 A  
HETATM   21  C   UNL     1     -10.183  14.342  66.055  1.00  0.00    -0.328 A  
HETATM   22  O   UNL     1      -8.400  15.826  66.334  1.00  0.00    -0.284 OA 
HETATM   23  C   UNL     1     -10.841  13.143  66.345  1.00  0.00    -0.299 A  
HETATM   24  C   UNL     1      -8.925  12.400  67.606  1.00  0.00    -0.183 A  
BRANCH  18  25
HETATM   25  C   UNL     1      -6.897  13.785  67.921  1.00  0.00    -0.155 C  
HETATM   26  O   UNL     1      -5.899  13.901  67.220  1.00  0.00    -0.319 OA 
HETATM   27  H1  UNL     1      -5.850  13.951  69.685  1.00  0.00     0.000 HD 
HETATM   28  H2  UNL     1      -7.602  13.749  69.884  1.00  0.00     0.000 HD 
HETATM   29  N   UNL     1      -6.781  13.832  69.285  1.00  0.00    -0.112 N  
ENDBRANCH  18  25
ENDBRANCH  14  17
ENDBRANCH  13  14
ENDBRANCH  11  13
ENDBRANCH   2  11
TORSDOF 8
ENDMDL
MODEL      318
REMARK 921   NORMALIZED FREE ENERGY PREDICTED BY IDOCK:   -3.10 KCAL/MOL
REMARK 922        TOTAL FREE ENERGY PREDICTED BY IDOCK:   -6.11 KCAL/MOL
REMARK 923 INTER-LIGAND FREE ENERGY PREDICTED BY IDOCK:   -5.44 KCAL/MOL
REMARK 924 INTRA-LIGAND FREE ENERGY PREDICTED BY IDOCK:   -0.67 KCAL/MOL
REMARK 927      BINDING AFFINITY PREDICTED BY RF-SCORE:    0.00 PKD
ROOT
HETATM    1  C   UNL     1      -9.395   9.612  69.957  1.00  0.00    -0.276 C  
HETATM    2  C   UNL     1     -10.623   9.988  69.119  1.00  0.00    -0.218 C  
ENDROOT
BRANCH   2   3
HETATM    3  C   UNL     1     -10.601  11.510  68.852  1.00  0.00    -0.236 C  
BRANCH   3   4
HETATM    4  C   UNL     1     -11.822  12.013  68.073  1.00  0.00    -0.338 C  
BRANCH   4   5
HETATM    5  C   UNL     1     -11.441  13.050  67.040  1.00  0.00    -0.381 A  
HETATM    6  C   UNL     1     -10.480  14.029  67.324  1.00  0.00    -0.268 A  
HETATM    7  C   UNL     1     -10.135  14.983  66.364  1.00  0.00    -0.289 A  
HETATM    8  C   UNL     1     -12.036  13.035  65.770  1.00  0.00    -0.510 A  
HETATM    9  C   UNL     1     -10.741  14.965  65.108  1.00  0.00    -0.429 A  
HETATM   10  C   UNL     1     -11.691  13.989  64.812  1.00  0.00    -0.403 A  
ENDBRANCH   4   5
ENDBRANCH   3   4
ENDBRANCH   2   3
BRANCH   2  11
HETATM   11  N   UNL     1     -10.677   9.259  67.846  1.00  0.00    -0.420 NA 
HETATM   12  H   UNL     1     -10.708   9.910  67.061  1.00  0.00     0.000 HD 
BRANCH  11  13
HETATM   13  C   UNL     1      -9.589   8.287  67.666  1.00  0.00    -0.152 C  
BRANCH  13  14
HETATM   14  C   UNL     1      -9.793   7.415  66.398  1.00  0.00    -0.066 C  
HETATM   15  H   UNL     1      -9.007   7.323  64.603  1.00  0.00     0.000 HD 
HETATM   16  O   UNL     1      -8.883   7.855  65.380  1.00  0.00    -0.103 OA 
BRANCH  14  17
HETATM   17  C   UNL     1      -9.618   5.929  66.688  1.00  0.00    -0.174 A  
HETATM   18  C   UNL     1      -9.273   4.062  68.245  1.00  0.00    -0.202 A  
HETATM   19  H   UNL     1      -8.787   1.274  66.536  1.00  0.00     0.000 HD 
HETATM   20  C   UNL     1      -9.169   3.191  67.155  1.00  0.00    -0.181 A  
HETATM   21  C   UNL     1      -9.324   3.658  65.854  1.00  0.00    -0.166 A  
HETATM   22  O   UNL     1      -8.857   1.865  67.277  1.00  0.00    -0.113 OA 
HETATM   23  C   UNL     1      -9.527   5.021  65.621  1.00  0.00    -0.153 A  
HETATM   24  C   UNL     1      -9.496   5.429  67.998  1.00  0.00    -0.138 A  
BRANCH  18  25
HETATM   25  C   UNL     1      -9.127   3.640  69.669  1.00  0.00    -0.129 C  
HETATM   26  O   UNL     1      -9.898   2.845  70.193  1.00  0.00    -0.033 OA 
HETATM   27  H1  UNL     1      -7.984   3.866  71.365  1.00  0.00     0.000 HD 
HETATM   28  H2  UNL     1      -7.425   4.808  69.968  1.00  0.00     0.000 HD 
HETATM   29  N   UNL     1      -8.084   4.154  70.391  1.00  0.00    -0.058 N  
ENDBRANCH  18  25
ENDBRANCH  14  17
ENDBRANCH  13  14
ENDBRANCH  11  13
ENDBRANCH   2  11
TORSDOF 8
ENDMDL
MODEL      319
REMARK 921   NORMALIZED FREE ENERGY PREDICTED BY IDOCK:   -3.09 KCAL/MOL
REMARK 922        TOTAL FREE ENERGY PREDICTED BY IDOCK:   -6.09 KCAL/MOL
REMARK 923 INTER-LIGAND FREE ENERGY PREDICTED BY IDOCK:   -5.61 KCAL/MOL
REMARK 924 INTRA-LIGAND FREE ENERGY PREDICTED BY IDOCK:   -0.47 KCAL/MOL
REMARK 927      BINDING AFFINITY PREDICTED BY RF-SCORE:    0.00 PKD
ROOT
HETATM    1  C   UNL     1      -5.361  16.014  69.810  1.00  0.00    -0.127 C  
HETATM    2  C   UNL     1      -6.783  16.150  69.250  1.00  0.00    -0.198 C  
ENDROOT
BRANCH   2   3
HETATM    3  C   UNL     1      -6.699  16.501  67.747  1.00  0.00    -0.158 C  
BRANCH   3   4
HETATM    4  C   UNL     1      -6.611  18.007  67.473  1.00  0.00    -0.190 C  
BRANCH   4   5
HETATM    5  C   UNL     1      -7.964  18.675  67.566  1.00  0.00    -0.256 A  
HETATM    6  C   UNL     1      -8.575  19.226  66.431  1.00  0.00    -0.355 A  
HETATM    7  C   UNL     1      -9.824  19.841  66.527  1.00  0.00    -0.546 A  
HETATM    8  C   UNL     1      -8.637  18.741  68.795  1.00  0.00    -0.316 A  
HETATM    9  C   UNL     1     -10.480  19.909  67.756  1.00  0.00    -0.511 A  
HETATM   10  C   UNL     1      -9.886  19.357  68.889  1.00  0.00    -0.523 A  
ENDBRANCH   4   5
ENDBRANCH   3   4
ENDBRANCH   2   3
BRANCH   2  11
HETATM   11  N   UNL     1      -7.577  14.930  69.434  1.00  0.00    -0.236 NA 
HETATM   12  H   UNL     1      -8.453  14.991  68.916  1.00  0.00     0.000 HD 
BRANCH  11  13
HETATM   13  C   UNL     1      -6.860  13.693  69.090  1.00  0.00    -0.095 C  
BRANCH  13  14
HETATM   14  C   UNL     1      -7.457  13.007  67.831  1.00  0.00    -0.137 C  
HETATM   15  H   UNL     1      -6.751  12.214  66.183  1.00  0.00     0.000 HD 
HETATM   16  O   UNL     1      -6.386  12.634  66.953  1.00  0.00    -0.170 OA 
BRANCH  14  17
HETATM   17  C   UNL     1      -8.321  11.803  68.189  1.00  0.00    -0.156 A  
HETATM   18  C   UNL     1      -8.831   9.857  69.599  1.00  0.00    -0.224 A  
HETATM   19  H   UNL     1     -11.323   8.147  68.260  1.00  0.00     0.000 HD 
HETATM   20  C   UNL     1      -9.872   9.518  68.728  1.00  0.00    -0.169 A  
HETATM   21  C   UNL     1     -10.168  10.316  67.628  1.00  0.00    -0.247 A  
HETATM   22  O   UNL     1     -10.617   8.377  68.852  1.00  0.00    -0.212 OA 
HETATM   23  C   UNL     1      -9.385  11.440  67.350  1.00  0.00    -0.171 A  
HETATM   24  C   UNL     1      -8.062  11.002  69.317  1.00  0.00    -0.012 A  
BRANCH  18  25
HETATM   25  C   UNL     1      -8.454   9.059  70.802  1.00  0.00    -0.200 C  
HETATM   26  O   UNL     1      -9.110   9.095  71.836  1.00  0.00    -0.354 OA 
HETATM   27  H1  UNL     1      -7.090   7.710  71.546  1.00  0.00     0.000 HD 
HETATM   28  H2  UNL     1      -6.798   8.204  69.867  1.00  0.00     0.000 HD 
HETATM   29  N   UNL     1      -7.348   8.256  70.723  1.00  0.00    -0.053 N  
ENDBRANCH  18  25
ENDBRANCH  14  17
ENDBRANCH  13  14
ENDBRANCH  11  13
ENDBRANCH   2  11
TORSDOF 8
ENDMDL
MODEL      320
REMARK 921   NORMALIZED FREE ENERGY PREDICTED BY IDOCK:   -3.08 KCAL/MOL
REMARK 922        TOTAL FREE ENERGY PREDICTED BY IDOCK:   -6.07 KCAL/MOL
REMARK 923 INTER-LIGAND FREE ENERGY PREDICTED BY IDOCK:   -5.74 KCAL/MOL
REMARK 924 INTRA-LIGAND FREE ENERGY PREDICTED BY IDOCK:   -0.33 KCAL/MOL
REMARK 927      BINDING AFFINITY PREDICTED BY RF-SCORE:    0.00 PKD
ROOT
HETATM    1  C   UNL     1      -8.515   7.887  68.336  1.00  0.00    -0.128 C  
HETATM    2  C   UNL     1      -9.121   8.784  67.250  1.00  0.00    -0.132 C  
ENDROOT
BRANCH   2   3
HETATM    3  C   UNL     1      -9.008   8.066  65.886  1.00  0.00    -0.181 C  
BRANCH   3   4
HETATM    4  C   UNL     1      -8.141   6.802  65.927  1.00  0.00    -0.123 C  
BRANCH   4   5
HETATM    5  C   UNL     1      -8.714   5.700  65.065  1.00  0.00    -0.068 A  
HETATM    6  C   UNL     1      -9.780   4.912  65.520  1.00  0.00    -0.129 A  
HETATM    7  C   UNL     1     -10.302   3.895  64.717  1.00  0.00    -0.184 A  
HETATM    8  C   UNL     1      -8.193   5.460  63.786  1.00  0.00    -0.122 A  
HETATM    9  C   UNL     1      -9.769   3.659  63.450  1.00  0.00    -0.141 A  
HETATM   10  C   UNL     1      -8.715   4.443  62.985  1.00  0.00    -0.116 A  
ENDBRANCH   4   5
ENDBRANCH   3   4
ENDBRANCH   2   3
BRANCH   2  11
HETATM   11  N   UNL     1     -10.523   9.123  67.520  1.00  0.00    -0.261 NA 
HETATM   12  H   UNL     1     -10.786   8.836  68.462  1.00  0.00     0.000 HD 
BRANCH  11  13
HETATM   13  C   UNL     1     -10.847  10.541  67.304  1.00  0.00    -0.279 C  
BRANCH  13  14
HETATM   14  C   UNL     1      -9.918  11.480  68.120  1.00  0.00    -0.192 C  
HETATM   15  H   UNL     1      -8.407  12.665  67.725  1.00  0.00     0.000 HD 
HETATM   16  O   UNL     1      -8.976  12.091  67.227  1.00  0.00    -0.168 OA 
BRANCH  14  17
HETATM   17  C   UNL     1     -10.703  12.530  68.896  1.00  0.00    -0.202 A  
HETATM   18  C   UNL     1     -12.288  13.173  70.658  1.00  0.00    -0.405 A  
HETATM   19  H   UNL     1     -12.960  16.401  70.417  1.00  0.00     0.000 HD 
HETATM   20  C   UNL     1     -12.227  14.497  70.210  1.00  0.00    -0.330 A  
HETATM   21  C   UNL     1     -11.396  14.853  69.154  1.00  0.00    -0.309 A  
HETATM   22  O   UNL     1     -13.002  15.502  70.721  1.00  0.00    -0.475 OA 
HETATM   23  C   UNL     1     -10.653  13.873  68.488  1.00  0.00    -0.260 A  
HETATM   24  C   UNL     1     -11.522  12.199  69.991  1.00  0.00    -0.156 A  
BRANCH  18  25
HETATM   25  C   UNL     1     -13.148  12.711  71.788  1.00  0.00    -0.360 C  
HETATM   26  O   UNL     1     -13.727  13.498  72.526  1.00  0.00    -0.609 OA 
HETATM   27  H1  UNL     1     -13.883  11.048  72.749  1.00  0.00     0.000 HD 
HETATM   28  H2  UNL     1     -12.830  10.694  71.364  1.00  0.00     0.000 HD 
HETATM   29  N   UNL     1     -13.295  11.363  71.977  1.00  0.00    -0.413 N  
ENDBRANCH  18  25
ENDBRANCH  14  17
ENDBRANCH  13  14
ENDBRANCH  11  13
ENDBRANCH   2  11
TORSDOF 8
ENDMDL
MODEL      321
REMARK 921   NORMALIZED FREE ENERGY PREDICTED BY IDOCK:   -3.08 KCAL/MOL
REMARK 922        TOTAL FREE ENERGY PREDICTED BY IDOCK:   -6.07 KCAL/MOL
REMARK 923 INTER-LIGAND FREE ENERGY PREDICTED BY IDOCK:   -4.76 KCAL/MOL
REMARK 924 INTRA-LIGAND FREE ENERGY PREDICTED BY IDOCK:   -1.31 KCAL/MOL
REMARK 927      BINDING AFFINITY PREDICTED BY RF-SCORE:    0.00 PKD
ROOT
HETATM    1  C   UNL     1     -11.880   7.071  71.729  1.00  0.00    -0.347 C  
HETATM    2  C   UNL     1     -11.236   8.155  70.857  1.00  0.00    -0.266 C  
ENDROOT
BRANCH   2   3
HETATM    3  C   UNL     1      -9.768   8.350  71.301  1.00  0.00    -0.245 C  
BRANCH   3   4
HETATM    4  C   UNL     1      -9.403   7.572  72.570  1.00  0.00    -0.200 C  
BRANCH   4   5
HETATM    5  C   UNL     1      -8.560   6.355  72.261  1.00  0.00    -0.117 A  
HETATM    6  C   UNL     1      -7.559   6.403  71.281  1.00  0.00    -0.094 A  
HETATM    7  C   UNL     1      -6.787   5.274  71.001  1.00  0.00    -0.048 A  
HETATM    8  C   UNL     1      -8.761   5.159  72.964  1.00  0.00    -0.114 A  
HETATM    9  C   UNL     1      -7.002   4.087  71.701  1.00  0.00    -0.031 A  
HETATM   10  C   UNL     1      -7.988   4.031  72.684  1.00  0.00    -0.086 A  
ENDBRANCH   4   5
ENDBRANCH   3   4
ENDBRANCH   2   3
BRANCH   2  11
HETATM   11  N   UNL     1     -11.284   7.827  69.427  1.00  0.00    -0.442 NA 
HETATM   12  H   UNL     1     -10.840   8.561  68.876  1.00  0.00     0.000 HD 
BRANCH  11  13
HETATM   13  C   UNL     1     -10.712   6.515  69.095  1.00  0.00    -0.275 C  
BRANCH  13  14
HETATM   14  C   UNL     1     -10.042   6.511  67.694  1.00  0.00    -0.147 C  
HETATM   15  H   UNL     1     -10.621   6.180  65.850  1.00  0.00     0.000 HD 
HETATM   16  O   UNL     1     -11.031   6.183  66.707  1.00  0.00    -0.333 OA 
BRANCH  14  17
HETATM   17  C   UNL     1      -9.368   7.840  67.377  1.00  0.00    -0.168 A  
HETATM   18  C   UNL     1      -9.249   9.958  66.138  1.00  0.00    -0.211 A  
HETATM   19  H   UNL     1      -6.396  11.480  66.825  1.00  0.00     0.000 HD 
HETATM   20  C   UNL     1      -8.012  10.221  66.737  1.00  0.00    -0.114 A  
HETATM   21  C   UNL     1      -7.470   9.342  67.668  1.00  0.00    -0.088 A  
HETATM   22  O   UNL     1      -7.235  11.301  66.418  1.00  0.00    -0.126 OA 
HETATM   23  C   UNL     1      -8.134   8.150  67.972  1.00  0.00    -0.128 A  
HETATM   24  C   UNL     1      -9.915   8.763  66.466  1.00  0.00    -0.360 A  
BRANCH  18  25
HETATM   25  C   UNL     1      -9.901  10.852  65.137  1.00  0.00    -0.275 C  
HETATM   26  O   UNL     1     -10.676  11.740  65.468  1.00  0.00    -0.265 OA 
HETATM   27  H1  UNL     1     -10.042  11.281  63.130  1.00  0.00     0.000 HD 
HETATM   28  H2  UNL     1      -8.943   9.944  63.522  1.00  0.00     0.000 HD 
HETATM   29  N   UNL     1      -9.596  10.670  63.815  1.00  0.00    -0.280 N  
ENDBRANCH  18  25
ENDBRANCH  14  17
ENDBRANCH  13  14
ENDBRANCH  11  13
ENDBRANCH   2  11
TORSDOF 8
ENDMDL
MODEL      322
REMARK 921   NORMALIZED FREE ENERGY PREDICTED BY IDOCK:   -3.02 KCAL/MOL
REMARK 922        TOTAL FREE ENERGY PREDICTED BY IDOCK:   -5.98 KCAL/MOL
REMARK 923 INTER-LIGAND FREE ENERGY PREDICTED BY IDOCK:   -5.95 KCAL/MOL
REMARK 924 INTRA-LIGAND FREE ENERGY PREDICTED BY IDOCK:   -0.04 KCAL/MOL
REMARK 927      BINDING AFFINITY PREDICTED BY RF-SCORE:    0.00 PKD
ROOT
HETATM    1  C   UNL     1      -7.528   6.394  65.511  1.00  0.00    -0.083 C  
HETATM    2  C   UNL     1      -8.978   6.617  65.957  1.00  0.00    -0.112 C  
ENDROOT
BRANCH   2   3
HETATM    3  C   UNL     1      -9.135   6.132  67.416  1.00  0.00    -0.110 C  
BRANCH   3   4
HETATM    4  C   UNL     1      -8.011   5.197  67.876  1.00  0.00    -0.095 C  
BRANCH   4   5
HETATM    5  C   UNL     1      -8.542   4.035  68.685  1.00  0.00    -0.117 A  
HETATM    6  C   UNL     1      -8.589   2.743  68.144  1.00  0.00    -0.116 A  
HETATM    7  C   UNL     1      -9.081   1.677  68.898  1.00  0.00    -0.173 A  
HETATM    8  C   UNL     1      -8.983   4.233  70.001  1.00  0.00    -0.152 A  
HETATM    9  C   UNL     1      -9.527   1.887  70.203  1.00  0.00    -0.138 A  
HETATM   10  C   UNL     1      -9.475   3.166  70.754  1.00  0.00    -0.231 A  
ENDBRANCH   4   5
ENDBRANCH   3   4
ENDBRANCH   2   3
BRANCH   2  11
HETATM   11  N   UNL     1      -9.387   8.023  65.852  1.00  0.00    -0.404 NA 
HETATM   12  H   UNL     1      -9.773   8.350  66.737  1.00  0.00     0.000 HD 
BRANCH  11  13
HETATM   13  C   UNL     1      -8.321   8.923  65.391  1.00  0.00    -0.148 C  
BRANCH  13  14
HETATM   14  C   UNL     1      -8.891  10.216  64.747  1.00  0.00    -0.195 C  
HETATM   15  H   UNL     1      -9.861  10.669  63.103  1.00  0.00     0.000 HD 
HETATM   16  O   UNL     1      -9.512   9.878  63.498  1.00  0.00    -0.266 OA 
BRANCH  14  17
HETATM   17  C   UNL     1      -9.867  10.934  65.670  1.00  0.00    -0.292 A  
HETATM   18  C   UNL     1     -11.420  12.775  66.157  1.00  0.00    -0.399 A  
HETATM   19  H   UNL     1     -12.376  12.606  69.317  1.00  0.00     0.000 HD 
HETATM   20  C   UNL     1     -11.560  12.291  67.462  1.00  0.00    -0.353 A  
HETATM   21  C   UNL     1     -10.905  11.133  67.867  1.00  0.00    -0.285 A  
HETATM   22  O   UNL     1     -12.281  12.934  68.431  1.00  0.00    -0.200 OA 
HETATM   23  C   UNL     1     -10.049  10.470  66.982  1.00  0.00    -0.259 A  
HETATM   24  C   UNL     1     -10.569  12.087  65.272  1.00  0.00    -0.328 A  
BRANCH  18  25
HETATM   25  C   UNL     1     -12.092  14.004  65.644  1.00  0.00    -0.417 C  
HETATM   26  O   UNL     1     -13.284  14.023  65.365  1.00  0.00    -0.761 OA 
HETATM   27  H1  UNL     1     -11.799  15.981  65.154  1.00  0.00     0.000 HD 
HETATM   28  H2  UNL     1     -10.349  15.146  65.744  1.00  0.00     0.000 HD 
HETATM   29  N   UNL     1     -11.340  15.140  65.504  1.00  0.00    -0.314 N  
ENDBRANCH  18  25
ENDBRANCH  14  17
ENDBRANCH  13  14
ENDBRANCH  11  13
ENDBRANCH   2  11
TORSDOF 8
ENDMDL
MODEL      323
REMARK 921   NORMALIZED FREE ENERGY PREDICTED BY IDOCK:   -3.01 KCAL/MOL
REMARK 922        TOTAL FREE ENERGY PREDICTED BY IDOCK:   -5.97 KCAL/MOL
REMARK 923 INTER-LIGAND FREE ENERGY PREDICTED BY IDOCK:   -5.04 KCAL/MOL
REMARK 924 INTRA-LIGAND FREE ENERGY PREDICTED BY IDOCK:   -0.93 KCAL/MOL
REMARK 927      BINDING AFFINITY PREDICTED BY RF-SCORE:    0.00 PKD
ROOT
HETATM    1  C   UNL     1     -11.466   5.725  71.881  1.00  0.00    -0.231 C  
HETATM    2  C   UNL     1     -12.085   7.081  71.518  1.00  0.00    -0.353 C  
ENDROOT
BRANCH   2   3
HETATM    3  C   UNL     1     -11.387   8.188  72.341  1.00  0.00    -0.456 C  
BRANCH   3   4
HETATM    4  C   UNL     1     -10.483   7.647  73.455  1.00  0.00    -0.361 C  
BRANCH   4   5
HETATM    5  C   UNL     1      -9.034   8.018  73.233  1.00  0.00    -0.338 A  
HETATM    6  C   UNL     1      -8.124   8.032  74.298  1.00  0.00    -0.312 A  
HETATM    7  C   UNL     1      -6.788   8.377  74.084  1.00  0.00    -0.170 A  
HETATM    8  C   UNL     1      -8.576   8.341  71.948  1.00  0.00    -0.224 A  
HETATM    9  C   UNL     1      -6.346   8.706  72.803  1.00  0.00    -0.065 A  
HETATM   10  C   UNL     1      -7.240   8.686  71.735  1.00  0.00    -0.103 A  
ENDBRANCH   4   5
ENDBRANCH   3   4
ENDBRANCH   2   3
BRANCH   2  11
HETATM   11  N   UNL     1     -11.978   7.381  70.086  1.00  0.00    -0.512 NA 
HETATM   12  H   UNL     1     -12.021   8.388  69.927  1.00  0.00     0.000 HD 
BRANCH  11  13
HETATM   13  C   UNL     1     -10.788   6.807  69.442  1.00  0.00    -0.271 C  
BRANCH  13  14
HETATM   14  C   UNL     1     -10.522   7.438  68.048  1.00  0.00    -0.199 C  
HETATM   15  H   UNL     1      -9.576   9.015  67.366  1.00  0.00     0.000 HD 
HETATM   16  O   UNL     1      -9.739   8.628  68.218  1.00  0.00    -0.148 OA 
BRANCH  14  17
HETATM   17  C   UNL     1      -9.839   6.462  67.098  1.00  0.00    -0.182 A  
HETATM   18  C   UNL     1      -7.867   5.677  65.861  1.00  0.00    -0.101 A  
HETATM   19  H   UNL     1      -8.742   3.221  63.829  1.00  0.00     0.000 HD 
HETATM   20  C   UNL     1      -8.661   4.709  65.238  1.00  0.00    -0.137 A  
HETATM   21  C   UNL     1     -10.009   4.582  65.555  1.00  0.00    -0.230 A  
HETATM   22  O   UNL     1      -8.203   3.878  64.252  1.00  0.00    -0.089 OA 
HETATM   23  C   UNL     1     -10.599   5.465  66.465  1.00  0.00    -0.353 A  
HETATM   24  C   UNL     1      -8.469   6.548  66.788  1.00  0.00    -0.113 A  
BRANCH  18  25
HETATM   25  C   UNL     1      -6.414   5.873  65.581  1.00  0.00    -0.043 C  
HETATM   26  O   UNL     1      -5.545   5.322  66.246  1.00  0.00    -0.016 OA 
HETATM   27  H1  UNL     1      -5.069   6.819  64.345  1.00  0.00     0.000 HD 
HETATM   28  H2  UNL     1      -6.773   7.142  63.965  1.00  0.00     0.000 HD 
HETATM   29  N   UNL     1      -6.062   6.684  64.536  1.00  0.00    -0.034 N  
ENDBRANCH  18  25
ENDBRANCH  14  17
ENDBRANCH  13  14
ENDBRANCH  11  13
ENDBRANCH   2  11
TORSDOF 8
ENDMDL
MODEL      324
REMARK 921   NORMALIZED FREE ENERGY PREDICTED BY IDOCK:   -3.00 KCAL/MOL
REMARK 922        TOTAL FREE ENERGY PREDICTED BY IDOCK:   -5.96 KCAL/MOL
REMARK 923 INTER-LIGAND FREE ENERGY PREDICTED BY IDOCK:   -5.01 KCAL/MOL
REMARK 924 INTRA-LIGAND FREE ENERGY PREDICTED BY IDOCK:   -0.96 KCAL/MOL
REMARK 927      BINDING AFFINITY PREDICTED BY RF-SCORE:    0.00 PKD
ROOT
HETATM    1  C   UNL     1      -8.955   9.597  69.428  1.00  0.00    -0.186 C  
HETATM    2  C   UNL     1      -9.246  10.404  68.157  1.00  0.00    -0.145 C  
ENDROOT
BRANCH   2   3
HETATM    3  C   UNL     1     -10.252  11.528  68.496  1.00  0.00    -0.219 C  
BRANCH   3   4
HETATM    4  C   UNL     1      -9.820  12.911  67.995  1.00  0.00    -0.223 C  
BRANCH   4   5
HETATM    5  C   UNL     1     -10.620  13.347  66.789  1.00  0.00    -0.277 A  
HETATM    6  C   UNL     1     -10.380  14.584  66.176  1.00  0.00    -0.305 A  
HETATM    7  C   UNL     1     -11.125  14.980  65.063  1.00  0.00    -0.421 A  
HETATM    8  C   UNL     1     -11.609  12.509  66.255  1.00  0.00    -0.449 A  
HETATM    9  C   UNL     1     -12.113  14.142  64.547  1.00  0.00    -0.489 A  
HETATM   10  C   UNL     1     -12.353  12.905  65.143  1.00  0.00    -0.547 A  
ENDBRANCH   4   5
ENDBRANCH   3   4
ENDBRANCH   2   3
BRANCH   2  11
HETATM   11  N   UNL     1      -8.033  10.983  67.569  1.00  0.00    -0.114 NA 
HETATM   12  H   UNL     1      -7.531  11.541  68.259  1.00  0.00     0.000 HD 
BRANCH  11  13
HETATM   13  C   UNL     1      -7.136   9.993  66.955  1.00  0.00    -0.089 C  
BRANCH  13  14
HETATM   14  C   UNL     1      -7.562   9.644  65.504  1.00  0.00    -0.109 C  
HETATM   15  H   UNL     1      -6.870   9.995  63.703  1.00  0.00     0.000 HD 
HETATM   16  O   UNL     1      -6.609  10.208  64.591  1.00  0.00    -0.127 OA 
BRANCH  14  17
HETATM   17  C   UNL     1      -7.705   8.142  65.293  1.00  0.00    -0.101 A  
HETATM   18  C   UNL     1      -8.764   5.984  65.796  1.00  0.00    -0.155 A  
HETATM   19  H   UNL     1      -7.132   3.563  64.245  1.00  0.00     0.000 HD 
HETATM   20  C   UNL     1      -7.837   5.351  64.961  1.00  0.00    -0.096 A  
HETATM   21  C   UNL     1      -6.883   6.088  64.269  1.00  0.00    -0.046 A  
HETATM   22  O   UNL     1      -7.761   3.993  64.812  1.00  0.00    -0.079 OA 
HETATM   23  C   UNL     1      -6.805   7.473  64.449  1.00  0.00    -0.054 A  
HETATM   24  C   UNL     1      -8.686   7.380  65.954  1.00  0.00    -0.161 A  
BRANCH  18  25
HETATM   25  C   UNL     1      -9.822   5.266  66.567  1.00  0.00    -0.185 C  
HETATM   26  O   UNL     1     -10.731   4.662  66.013  1.00  0.00    -0.295 OA 
HETATM   27  H1  UNL     1     -10.468   4.790  68.461  1.00  0.00     0.000 HD 
HETATM   28  H2  UNL     1      -8.988   5.768  68.412  1.00  0.00     0.000 HD 
HETATM   29  N   UNL     1      -9.745   5.281  67.934  1.00  0.00    -0.134 N  
ENDBRANCH  18  25
ENDBRANCH  14  17
ENDBRANCH  13  14
ENDBRANCH  11  13
ENDBRANCH   2  11
TORSDOF 8
ENDMDL
MODEL      325
REMARK 921   NORMALIZED FREE ENERGY PREDICTED BY IDOCK:   -2.98 KCAL/MOL
REMARK 922        TOTAL FREE ENERGY PREDICTED BY IDOCK:   -5.93 KCAL/MOL
REMARK 923 INTER-LIGAND FREE ENERGY PREDICTED BY IDOCK:   -5.32 KCAL/MOL
REMARK 924 INTRA-LIGAND FREE ENERGY PREDICTED BY IDOCK:   -0.62 KCAL/MOL
REMARK 927      BINDING AFFINITY PREDICTED BY RF-SCORE:    0.00 PKD
ROOT
HETATM    1  C   UNL     1      -7.954   7.309  69.086  1.00  0.00    -0.119 C  
HETATM    2  C   UNL     1      -8.801   7.710  67.872  1.00  0.00    -0.126 C  
ENDROOT
BRANCH   2   3
HETATM    3  C   UNL     1      -9.205   6.434  67.098  1.00  0.00    -0.128 C  
BRANCH   3   4
HETATM    4  C   UNL     1      -8.133   5.946  66.117  1.00  0.00    -0.109 C  
BRANCH   4   5
HETATM    5  C   UNL     1      -8.500   4.614  65.502  1.00  0.00    -0.123 A  
HETATM    6  C   UNL     1      -8.299   3.418  66.204  1.00  0.00    -0.103 A  
HETATM    7  C   UNL     1      -8.640   2.193  65.628  1.00  0.00    -0.113 A  
HETATM    8  C   UNL     1      -9.063   4.559  64.219  1.00  0.00    -0.138 A  
HETATM    9  C   UNL     1      -9.190   2.149  64.347  1.00  0.00    -0.127 A  
HETATM   10  C   UNL     1      -9.403   3.333  63.644  1.00  0.00    -0.099 A  
ENDBRANCH   4   5
ENDBRANCH   3   4
ENDBRANCH   2   3
BRANCH   2  11
HETATM   11  N   UNL     1     -10.001   8.465  68.250  1.00  0.00    -0.181 NA 
HETATM   12  H   UNL     1      -9.831   9.009  69.095  1.00  0.00     0.000 HD 
BRANCH  11  13
HETATM   13  C   UNL     1     -10.527   9.326  67.181  1.00  0.00    -0.249 C  
BRANCH  13  14
HETATM   14  C   UNL     1      -9.535  10.460  66.807  1.00  0.00    -0.166 C  
HETATM   15  H   UNL     1      -8.528  10.989  65.209  1.00  0.00     0.000 HD 
HETATM   16  O   UNL     1      -9.135  10.295  65.438  1.00  0.00    -0.164 OA 
BRANCH  14  17
HETATM   17  C   UNL     1     -10.129  11.843  67.044  1.00  0.00    -0.226 A  
HETATM   18  C   UNL     1     -10.949  14.009  66.225  1.00  0.00    -0.300 A  
HETATM   19  H   UNL     1     -11.580  15.994  68.792  1.00  0.00     0.000 HD 
HETATM   20  C   UNL     1     -11.103  14.434  67.549  1.00  0.00    -0.302 A  
HETATM   21  C   UNL     1     -10.817  13.581  68.609  1.00  0.00    -0.281 A  
HETATM   22  O   UNL     1     -11.476  15.705  67.893  1.00  0.00    -0.329 OA 
HETATM   23  C   UNL     1     -10.315  12.300  68.358  1.00  0.00    -0.231 A  
HETATM   24  C   UNL     1     -10.459  12.711  65.987  1.00  0.00    -0.288 A  
BRANCH  18  25
HETATM   25  C   UNL     1     -11.239  14.859  65.034  1.00  0.00    -0.404 C  
HETATM   26  O   UNL     1     -10.642  15.908  64.825  1.00  0.00    -0.562 OA 
HETATM   27  H1  UNL     1     -12.391  15.011  63.336  1.00  0.00     0.000 HD 
HETATM   28  H2  UNL     1     -12.691  13.553  64.302  1.00  0.00     0.000 HD 
HETATM   29  N   UNL     1     -12.193  14.429  64.150  1.00  0.00    -0.446 N  
ENDBRANCH  18  25
ENDBRANCH  14  17
ENDBRANCH  13  14
ENDBRANCH  11  13
ENDBRANCH   2  11
TORSDOF 8
ENDMDL
MODEL      326
REMARK 921   NORMALIZED FREE ENERGY PREDICTED BY IDOCK:   -2.98 KCAL/MOL
REMARK 922        TOTAL FREE ENERGY PREDICTED BY IDOCK:   -5.92 KCAL/MOL
REMARK 923 INTER-LIGAND FREE ENERGY PREDICTED BY IDOCK:   -5.49 KCAL/MOL
REMARK 924 INTRA-LIGAND FREE ENERGY PREDICTED BY IDOCK:   -0.43 KCAL/MOL
REMARK 927      BINDING AFFINITY PREDICTED BY RF-SCORE:    0.00 PKD
ROOT
HETATM    1  C   UNL     1      -7.720   6.253  65.466  1.00  0.00    -0.095 C  
HETATM    2  C   UNL     1      -9.178   6.712  65.580  1.00  0.00     0.290 C  
ENDROOT
BRANCH   2   3
HETATM    3  C   UNL     1      -9.671   6.465  67.024  1.00  0.00    -0.182 C  
BRANCH   3   4
HETATM    4  C   UNL     1      -8.715   5.607  67.860  1.00  0.00    -0.107 C  
BRANCH   4   5
HETATM    5  C   UNL     1      -9.185   5.474  69.291  1.00  0.00    -0.140 A  
HETATM    6  C   UNL     1      -9.439   4.214  69.851  1.00  0.00    -0.265 A  
HETATM    7  C   UNL     1      -9.874   4.100  71.172  1.00  0.00    -0.244 A  
HETATM    8  C   UNL     1      -9.360   6.615  70.087  1.00  0.00    -0.159 A  
HETATM    9  C   UNL     1     -10.054   5.243  71.952  1.00  0.00    -0.252 A  
HETATM   10  C   UNL     1      -9.795   6.500  71.409  1.00  0.00    -0.191 A  
ENDBRANCH   4   5
ENDBRANCH   3   4
ENDBRANCH   2   3
BRANCH   2  11
HETATM   11  N   UNL     1      -9.350   8.127  65.230  1.00  0.00    -0.277 NA 
HETATM   12  H   UNL     1      -9.631   8.667  66.048  1.00  0.00     0.000 HD 
BRANCH  11  13
HETATM   13  C   UNL     1      -8.172   8.732  64.593  1.00  0.00    -0.165 C  
BRANCH  13  14
HETATM   14  C   UNL     1      -8.567   9.784  63.521  1.00  0.00    -0.201 C  
HETATM   15  H   UNL     1      -9.300   9.744  61.702  1.00  0.00     0.000 HD 
HETATM   16  O   UNL     1      -9.058   9.101  62.359  1.00  0.00    -0.221 OA 
BRANCH  14  17
HETATM   17  C   UNL     1      -9.592  10.782  64.047  1.00  0.00    -0.339 A  
HETATM   18  C   UNL     1     -10.658  12.012  65.887  1.00  0.00    -0.302 A  
HETATM   19  H   UNL     1     -13.280  13.665  64.737  1.00  0.00     0.000 HD 
HETATM   20  C   UNL     1     -11.588  12.532  64.980  1.00  0.00    -0.349 A  
HETATM   21  C   UNL     1     -11.511  12.225  63.626  1.00  0.00    -0.572 A  
HETATM   22  O   UNL     1     -12.649  13.311  65.352  1.00  0.00    -0.478 OA 
HETATM   23  C   UNL     1     -10.531  11.340  63.165  1.00  0.00    -0.293 A  
HETATM   24  C   UNL     1      -9.667  11.136  65.407  1.00  0.00    -0.275 A  
BRANCH  18  25
HETATM   25  C   UNL     1     -10.669  12.297  67.351  1.00  0.00    -0.230 C  
HETATM   26  O   UNL     1     -10.396  13.404  67.798  1.00  0.00    -0.233 OA 
HETATM   27  H1  UNL     1     -11.019  11.478  69.206  1.00  0.00     0.000 HD 
HETATM   28  H2  UNL     1     -11.254  10.358  67.849  1.00  0.00     0.000 HD 
HETATM   29  N   UNL     1     -11.012  11.283  68.204  1.00  0.00    -0.212 N  
ENDBRANCH  18  25
ENDBRANCH  14  17
ENDBRANCH  13  14
ENDBRANCH  11  13
ENDBRANCH   2  11
TORSDOF 8
ENDMDL
MODEL      327
REMARK 921   NORMALIZED FREE ENERGY PREDICTED BY IDOCK:   -2.96 KCAL/MOL
REMARK 922        TOTAL FREE ENERGY PREDICTED BY IDOCK:   -5.89 KCAL/MOL
REMARK 923 INTER-LIGAND FREE ENERGY PREDICTED BY IDOCK:   -5.38 KCAL/MOL
REMARK 924 INTRA-LIGAND FREE ENERGY PREDICTED BY IDOCK:   -0.52 KCAL/MOL
REMARK 927      BINDING AFFINITY PREDICTED BY RF-SCORE:    0.00 PKD
ROOT
HETATM    1  C   UNL     1     -10.479   7.053  72.335  1.00  0.00    -0.236 C  
HETATM    2  C   UNL     1     -10.051   7.698  71.011  1.00  0.00    -0.189 C  
ENDROOT
BRANCH   2   3
HETATM    3  C   UNL     1      -9.391   6.623  70.119  1.00  0.00    -0.159 C  
BRANCH   3   4
HETATM    4  C   UNL     1     -10.270   5.386  69.896  1.00  0.00    -0.351 C  
BRANCH   4   5
HETATM    5  C   UNL     1     -10.122   4.837  68.495  1.00  0.00    -0.115 A  
HETATM    6  C   UNL     1      -9.474   3.616  68.266  1.00  0.00    -0.214 A  
HETATM    7  C   UNL     1      -9.342   3.116  66.969  1.00  0.00    -0.180 A  
HETATM    8  C   UNL     1     -10.649   5.539  67.401  1.00  0.00    -0.274 A  
HETATM    9  C   UNL     1      -9.861   3.828  65.887  1.00  0.00    -0.087 A  
HETATM   10  C   UNL     1     -10.516   5.039  66.105  1.00  0.00    -0.334 A  
ENDBRANCH   4   5
ENDBRANCH   3   4
ENDBRANCH   2   3
BRANCH   2  11
HETATM   11  N   UNL     1     -11.176   8.316  70.299  1.00  0.00    -0.379 NA 
HETATM   12  H   UNL     1     -11.795   8.794  70.953  1.00  0.00     0.000 HD 
BRANCH  11  13
HETATM   13  C   UNL     1     -10.771   9.223  69.216  1.00  0.00    -0.196 C  
BRANCH  13  14
HETATM   14  C   UNL     1     -11.677  10.483  69.145  1.00  0.00    -0.189 C  
HETATM   15  H   UNL     1     -12.558  11.666  70.437  1.00  0.00     0.000 HD 
HETATM   16  O   UNL     1     -12.004  10.896  70.480  1.00  0.00    -0.313 OA 
BRANCH  14  17
HETATM   17  C   UNL     1     -11.024  11.616  68.362  1.00  0.00    -0.265 A  
HETATM   18  C   UNL     1      -9.140  13.131  67.927  1.00  0.00    -0.207 A  
HETATM   19  H   UNL     1     -10.027  15.376  65.668  1.00  0.00     0.000 HD 
HETATM   20  C   UNL     1      -9.916  13.797  66.972  1.00  0.00    -0.251 A  
HETATM   21  C   UNL     1     -11.206  13.369  66.679  1.00  0.00    -0.330 A  
HETATM   22  O   UNL     1      -9.500  14.923  66.317  1.00  0.00    -0.279 OA 
HETATM   23  C   UNL     1     -11.763  12.298  67.384  1.00  0.00    -0.405 A  
HETATM   24  C   UNL     1      -9.707  12.043  68.616  1.00  0.00    -0.104 A  
BRANCH  18  25
HETATM   25  C   UNL     1      -7.747  13.523  68.294  1.00  0.00    -0.137 C  
HETATM   26  O   UNL     1      -7.385  14.692  68.309  1.00  0.00    -0.102 OA 
HETATM   27  H1  UNL     1      -5.915  12.799  68.888  1.00  0.00     0.000 HD 
HETATM   28  H2  UNL     1      -7.156  11.553  68.643  1.00  0.00     0.000 HD 
HETATM   29  N   UNL     1      -6.868  12.531  68.638  1.00  0.00    -0.083 N  
ENDBRANCH  18  25
ENDBRANCH  14  17
ENDBRANCH  13  14
ENDBRANCH  11  13
ENDBRANCH   2  11
TORSDOF 8
ENDMDL
MODEL      328
REMARK 921   NORMALIZED FREE ENERGY PREDICTED BY IDOCK:   -2.87 KCAL/MOL
REMARK 922        TOTAL FREE ENERGY PREDICTED BY IDOCK:   -5.77 KCAL/MOL
REMARK 923 INTER-LIGAND FREE ENERGY PREDICTED BY IDOCK:   -5.08 KCAL/MOL
REMARK 924 INTRA-LIGAND FREE ENERGY PREDICTED BY IDOCK:   -0.69 KCAL/MOL
REMARK 927      BINDING AFFINITY PREDICTED BY RF-SCORE:    0.00 PKD
ROOT
HETATM    1  C   UNL     1      -9.981  10.200  66.085  1.00  0.00    -0.310 C  
HETATM    2  C   UNL     1      -9.640   8.706  66.025  1.00  0.00    -0.195 C  
ENDROOT
BRANCH   2   3
HETATM    3  C   UNL     1      -8.149   8.546  65.650  1.00  0.00    -0.119 C  
BRANCH   3   4
HETATM    4  C   UNL     1      -7.918   8.249  64.164  1.00  0.00    -0.148 C  
BRANCH   4   5
HETATM    5  C   UNL     1      -7.720   6.772  63.910  1.00  0.00    -0.112 A  
HETATM    6  C   UNL     1      -7.112   5.952  64.870  1.00  0.00    -0.060 A  
HETATM    7  C   UNL     1      -6.933   4.589  64.627  1.00  0.00    -0.050 A  
HETATM    8  C   UNL     1      -8.159   6.196  62.710  1.00  0.00    -0.085 A  
HETATM    9  C   UNL     1      -7.365   4.029  63.425  1.00  0.00    -0.050 A  
HETATM   10  C   UNL     1      -7.980   4.833  62.468  1.00  0.00    -0.071 A  
ENDBRANCH   4   5
ENDBRANCH   3   4
ENDBRANCH   2   3
BRANCH   2  11
HETATM   11  N   UNL     1      -9.912   8.016  67.291  1.00  0.00    -0.193 NA 
HETATM   12  H   UNL     1     -10.912   8.014  67.490  1.00  0.00     0.000 HD 
BRANCH  11  13
HETATM   13  C   UNL     1      -9.370   6.652  67.358  1.00  0.00    -0.129 C  
BRANCH  13  14
HETATM   14  C   UNL     1     -10.400   5.646  67.939  1.00  0.00    -0.205 C  
HETATM   15  H   UNL     1     -10.572   3.695  68.035  1.00  0.00     0.000 HD 
HETATM   16  O   UNL     1      -9.942   4.310  67.680  1.00  0.00    -0.132 OA 
BRANCH  14  17
HETATM   17  C   UNL     1     -10.640   5.866  69.427  1.00  0.00    -0.379 A  
HETATM   18  C   UNL     1     -11.926   6.829  71.286  1.00  0.00    -0.414 A  
HETATM   19  H   UNL     1     -10.328   6.292  74.130  1.00  0.00     0.000 HD 
HETATM   20  C   UNL     1     -10.963   6.350  72.180  1.00  0.00    -0.251 A  
HETATM   21  C   UNL     1      -9.876   5.610  71.728  1.00  0.00    -0.208 A  
HETATM   22  O   UNL     1     -10.982   6.617  73.522  1.00  0.00    -0.238 OA 
HETATM   23  C   UNL     1      -9.705   5.386  70.358  1.00  0.00    -0.254 A  
HETATM   24  C   UNL     1     -11.751   6.581  69.912  1.00  0.00    -0.349 A  
BRANCH  18  25
HETATM   25  C   UNL     1     -13.122   7.623  71.691  1.00  0.00    -0.353 C  
HETATM   26  O   UNL     1     -14.248   7.141  71.704  1.00  0.00    -0.408 OA 
HETATM   27  H1  UNL     1     -13.751   9.468  72.350  1.00  0.00     0.000 HD 
HETATM   28  H2  UNL     1     -12.002   9.339  72.080  1.00  0.00     0.000 HD 
HETATM   29  N   UNL     1     -12.933   8.925  72.073  1.00  0.00    -0.369 N  
ENDBRANCH  18  25
ENDBRANCH  14  17
ENDBRANCH  13  14
ENDBRANCH  11  13
ENDBRANCH   2  11
TORSDOF 8
ENDMDL
MODEL      329
REMARK 921   NORMALIZED FREE ENERGY PREDICTED BY IDOCK:   -2.80 KCAL/MOL
REMARK 922        TOTAL FREE ENERGY PREDICTED BY IDOCK:   -5.67 KCAL/MOL
REMARK 923 INTER-LIGAND FREE ENERGY PREDICTED BY IDOCK:   -4.92 KCAL/MOL
REMARK 924 INTRA-LIGAND FREE ENERGY PREDICTED BY IDOCK:   -0.75 KCAL/MOL
REMARK 927      BINDING AFFINITY PREDICTED BY RF-SCORE:    0.00 PKD
ROOT
HETATM    1  C   UNL     1      -9.930   6.618  70.556  1.00  0.00    -0.197 C  
HETATM    2  C   UNL     1      -8.996   7.825  70.710  1.00  0.00    -0.148 C  
ENDROOT
BRANCH   2   3
HETATM    3  C   UNL     1      -8.158   7.979  69.420  1.00  0.00    -0.118 C  
BRANCH   3   4
HETATM    4  C   UNL     1      -7.099   6.886  69.242  1.00  0.00    -0.084 C  
BRANCH   4   5
HETATM    5  C   UNL     1      -6.817   6.608  67.783  1.00  0.00    -0.080 A  
HETATM    6  C   UNL     1      -6.768   7.651  66.848  1.00  0.00    -0.067 A  
HETATM    7  C   UNL     1      -6.508   7.385  65.503  1.00  0.00    -0.044 A  
HETATM    8  C   UNL     1      -6.586   5.296  67.345  1.00  0.00    -0.053 A  
HETATM    9  C   UNL     1      -6.289   6.075  65.077  1.00  0.00    -0.037 A  
HETATM   10  C   UNL     1      -6.326   5.032  65.999  1.00  0.00    -0.039 A  
ENDBRANCH   4   5
ENDBRANCH   3   4
ENDBRANCH   2   3
BRANCH   2  11
HETATM   11  N   UNL     1      -9.727   9.068  70.982  1.00  0.00    -0.253 NA 
HETATM   12  H   UNL     1      -9.249   9.616  71.697  1.00  0.00     0.000 HD 
BRANCH  11  13
HETATM   13  C   UNL     1      -9.978   9.887  69.788  1.00  0.00    -0.243 C  
BRANCH  13  14
HETATM   14  C   UNL     1     -11.422  10.458  69.768  1.00  0.00    -0.280 C  
HETATM   15  H   UNL     1     -12.908  10.590  71.041  1.00  0.00     0.000 HD 
HETATM   16  O   UNL     1     -12.024  10.242  71.052  1.00  0.00    -0.329 OA 
BRANCH  14  17
HETATM   17  C   UNL     1     -11.450  11.934  69.388  1.00  0.00    -0.366 A  
HETATM   18  C   UNL     1     -11.083  13.755  67.781  1.00  0.00    -0.288 A  
HETATM   19  H   UNL     1     -11.523  16.664  69.289  1.00  0.00     0.000 HD 
HETATM   20  C   UNL     1     -11.399  14.681  68.781  1.00  0.00    -0.281 A  
HETATM   21  C   UNL     1     -11.773  14.256  70.052  1.00  0.00    -0.364 A  
HETATM   22  O   UNL     1     -11.308  16.035  68.610  1.00  0.00    -0.349 OA 
HETATM   23  C   UNL     1     -11.780  12.892  70.359  1.00  0.00    -0.109 A  
HETATM   24  C   UNL     1     -11.111  12.384  68.098  1.00  0.00    -0.288 A  
BRANCH  18  25
HETATM   25  C   UNL     1     -10.679  14.128  66.394  1.00  0.00    -0.288 C  
HETATM   26  O   UNL     1      -9.521  14.400  66.106  1.00  0.00    -0.290 OA 
HETATM   27  H1  UNL     1     -11.369  14.399  64.474  1.00  0.00     0.000 HD 
HETATM   28  H2  UNL     1     -12.613  13.908  65.642  1.00  0.00     0.000 HD 
HETATM   29  N   UNL     1     -11.645  14.144  65.423  1.00  0.00    -0.325 N  
ENDBRANCH  18  25
ENDBRANCH  14  17
ENDBRANCH  13  14
ENDBRANCH  11  13
ENDBRANCH   2  11
TORSDOF 8
ENDMDL
MODEL      330
REMARK 921   NORMALIZED FREE ENERGY PREDICTED BY IDOCK:   -2.79 KCAL/MOL
REMARK 922        TOTAL FREE ENERGY PREDICTED BY IDOCK:   -5.65 KCAL/MOL
REMARK 923 INTER-LIGAND FREE ENERGY PREDICTED BY IDOCK:   -5.24 KCAL/MOL
REMARK 924 INTRA-LIGAND FREE ENERGY PREDICTED BY IDOCK:   -0.41 KCAL/MOL
REMARK 927      BINDING AFFINITY PREDICTED BY RF-SCORE:    0.00 PKD
ROOT
HETATM    1  C   UNL     1     -10.306  12.434  65.722  1.00  0.00    -0.289 C  
HETATM    2  C   UNL     1      -9.306  13.050  66.708  1.00  0.00    -0.244 C  
ENDROOT
BRANCH   2   3
HETATM    3  C   UNL     1      -9.677  14.533  66.938  1.00  0.00    -0.257 C  
BRANCH   3   4
HETATM    4  C   UNL     1      -8.777  15.240  67.958  1.00  0.00    -0.160 C  
BRANCH   4   5
HETATM    5  C   UNL     1      -8.368  16.617  67.486  1.00  0.00    -0.189 A  
HETATM    6  C   UNL     1      -7.796  16.804  66.220  1.00  0.00    -0.334 A  
HETATM    7  C   UNL     1      -7.421  18.079  65.794  1.00  0.00    -0.118 A  
HETATM    8  C   UNL     1      -8.569  17.735  68.308  1.00  0.00    -0.277 A  
HETATM    9  C   UNL     1      -7.617  19.182  66.624  1.00  0.00    -0.255 A  
HETATM   10  C   UNL     1      -8.193  19.009  67.881  1.00  0.00    -0.311 A  
ENDBRANCH   4   5
ENDBRANCH   3   4
ENDBRANCH   2   3
BRANCH   2  11
HETATM   11  N   UNL     1      -9.272  12.340  67.991  1.00  0.00    -0.190 NA 
HETATM   12  H   UNL     1     -10.097  12.564  68.547  1.00  0.00     0.000 HD 
BRANCH  11  13
HETATM   13  C   UNL     1      -9.117  10.884  67.865  1.00  0.00    -0.149 C  
BRANCH  13  14
HETATM   14  C   UNL     1     -10.277  10.114  68.552  1.00  0.00    -0.174 C  
HETATM   15  H   UNL     1     -11.452   8.614  68.086  1.00  0.00     0.000 HD 
HETATM   16  O   UNL     1     -10.741   9.085  67.666  1.00  0.00    -0.248 OA 
BRANCH  14  17
HETATM   17  C   UNL     1      -9.863   9.535  69.899  1.00  0.00    -0.254 A  
HETATM   18  C   UNL     1      -8.153   8.724  71.465  1.00  0.00    -0.174 A  
HETATM   19  H   UNL     1      -9.620   7.415  74.123  1.00  0.00     0.000 HD 
HETATM   20  C   UNL     1      -9.166   8.344  72.351  1.00  0.00    -0.275 A  
HETATM   21  C   UNL     1     -10.502   8.583  72.050  1.00  0.00    -0.407 A  
HETATM   22  O   UNL     1      -8.932   7.673  73.520  1.00  0.00    -0.190 OA 
HETATM   23  C   UNL     1     -10.850   9.157  70.823  1.00  0.00    -0.331 A  
HETATM   24  C   UNL     1      -8.515   9.317  70.241  1.00  0.00    -0.224 A  
BRANCH  18  25
HETATM   25  C   UNL     1      -6.698   8.509  71.716  1.00  0.00    -0.080 C  
HETATM   26  O   UNL     1      -6.281   7.528  72.318  1.00  0.00    -0.040 OA 
HETATM   27  H1  UNL     1      -4.820   9.293  71.409  1.00  0.00     0.000 HD 
HETATM   28  H2  UNL     1      -6.144  10.257  70.723  1.00  0.00     0.000 HD 
HETATM   29  N   UNL     1      -5.815   9.440  71.237  1.00  0.00    -0.070 N  
ENDBRANCH  18  25
ENDBRANCH  14  17
ENDBRANCH  13  14
ENDBRANCH  11  13
ENDBRANCH   2  11
TORSDOF 8
ENDMDL
MODEL      331
REMARK 921   NORMALIZED FREE ENERGY PREDICTED BY IDOCK:   -2.79 KCAL/MOL
REMARK 922        TOTAL FREE ENERGY PREDICTED BY IDOCK:   -5.65 KCAL/MOL
REMARK 923 INTER-LIGAND FREE ENERGY PREDICTED BY IDOCK:   -4.84 KCAL/MOL
REMARK 924 INTRA-LIGAND FREE ENERGY PREDICTED BY IDOCK:   -0.82 KCAL/MOL
REMARK 927      BINDING AFFINITY PREDICTED BY RF-SCORE:    0.00 PKD
ROOT
HETATM    1  C   UNL     1      -9.353   9.699  70.115  1.00  0.00    -0.294 C  
HETATM    2  C   UNL     1     -10.772   9.821  69.547  1.00  0.00    -0.233 C  
ENDROOT
BRANCH   2   3
HETATM    3  C   UNL     1     -11.209  11.303  69.603  1.00  0.00    -0.321 C  
BRANCH   3   4
HETATM    4  C   UNL     1     -11.967  11.766  68.354  1.00  0.00    -0.250 C  
BRANCH   4   5
HETATM    5  C   UNL     1     -11.298  12.953  67.698  1.00  0.00    -0.349 A  
HETATM    6  C   UNL     1     -11.647  13.350  66.400  1.00  0.00    -0.381 A  
HETATM    7  C   UNL     1     -11.024  14.446  65.802  1.00  0.00    -0.314 A  
HETATM    8  C   UNL     1     -10.322  13.686  68.389  1.00  0.00    -0.248 A  
HETATM    9  C   UNL     1     -10.048  15.162  66.496  1.00  0.00    -0.279 A  
HETATM   10  C   UNL     1      -9.699  14.782  67.790  1.00  0.00    -0.213 A  
ENDBRANCH   4   5
ENDBRANCH   3   4
ENDBRANCH   2   3
BRANCH   2  11
HETATM   11  N   UNL     1     -10.870   9.324  68.170  1.00  0.00    -0.455 NA 
HETATM   12  H   UNL     1     -11.367   9.993  67.582  1.00  0.00     0.000 HD 
BRANCH  11  13
HETATM   13  C   UNL     1      -9.576   8.970  67.569  1.00  0.00    -0.144 C  
BRANCH  13  14
HETATM   14  C   UNL     1      -9.747   8.287  66.185  1.00  0.00    -0.119 C  
HETATM   15  H   UNL     1      -9.537   8.820  64.309  1.00  0.00     0.000 HD 
HETATM   16  O   UNL     1      -9.432   9.237  65.156  1.00  0.00    -0.235 OA 
BRANCH  14  17
HETATM   17  C   UNL     1      -8.893   7.032  66.055  1.00  0.00    -0.155 A  
HETATM   18  C   UNL     1      -8.180   4.817  66.842  1.00  0.00    -0.107 A  
HETATM   19  H   UNL     1      -5.605   3.782  65.045  1.00  0.00     0.000 HD 
HETATM   20  C   UNL     1      -7.200   4.794  65.844  1.00  0.00    -0.076 A  
HETATM   21  C   UNL     1      -7.082   5.843  64.938  1.00  0.00    -0.060 A  
HETATM   22  O   UNL     1      -6.271   3.798  65.723  1.00  0.00    -0.030 OA 
HETATM   23  C   UNL     1      -7.910   6.963  65.055  1.00  0.00    -0.121 A  
HETATM   24  C   UNL     1      -9.019   5.943  66.938  1.00  0.00    -0.115 A  
BRANCH  18  25
HETATM   25  C   UNL     1      -8.375   3.731  67.847  1.00  0.00    -0.092 C  
HETATM   26  O   UNL     1      -7.599   3.561  68.778  1.00  0.00    -0.053 OA 
HETATM   27  H1  UNL     1      -9.605   2.178  68.403  1.00  0.00     0.000 HD 
HETATM   28  H2  UNL     1     -10.135   3.056  66.954  1.00  0.00     0.000 HD 
HETATM   29  N   UNL     1      -9.472   2.921  67.716  1.00  0.00    -0.193 N  
ENDBRANCH  18  25
ENDBRANCH  14  17
ENDBRANCH  13  14
ENDBRANCH  11  13
ENDBRANCH   2  11
TORSDOF 8
ENDMDL
MODEL      332
REMARK 921   NORMALIZED FREE ENERGY PREDICTED BY IDOCK:   -2.77 KCAL/MOL
REMARK 922        TOTAL FREE ENERGY PREDICTED BY IDOCK:   -5.63 KCAL/MOL
REMARK 923 INTER-LIGAND FREE ENERGY PREDICTED BY IDOCK:   -4.90 KCAL/MOL
REMARK 924 INTRA-LIGAND FREE ENERGY PREDICTED BY IDOCK:   -0.73 KCAL/MOL
REMARK 927      BINDING AFFINITY PREDICTED BY RF-SCORE:    0.00 PKD
ROOT
HETATM    1  C   UNL     1      -8.841   6.433  66.171  1.00  0.00    -0.158 C  
HETATM    2  C   UNL     1     -10.156   7.148  66.506  1.00  0.00    -0.084 C  
ENDROOT
BRANCH   2   3
HETATM    3  C   UNL     1     -10.379   7.098  68.035  1.00  0.00    -0.238 C  
BRANCH   3   4
HETATM    4  C   UNL     1      -9.332   6.263  68.781  1.00  0.00    -0.124 C  
BRANCH   4   5
HETATM    5  C   UNL     1      -9.584   6.247  70.271  1.00  0.00    -0.182 A  
HETATM    6  C   UNL     1      -8.683   6.850  71.160  1.00  0.00    -0.135 A  
HETATM    7  C   UNL     1      -8.923   6.830  72.535  1.00  0.00    -0.138 A  
HETATM    8  C   UNL     1     -10.737   5.639  70.788  1.00  0.00    -0.320 A  
HETATM    9  C   UNL     1     -10.069   6.214  73.037  1.00  0.00    -0.194 A  
HETATM   10  C   UNL     1     -10.976   5.620  72.163  1.00  0.00    -0.307 A  
ENDBRANCH   4   5
ENDBRANCH   3   4
ENDBRANCH   2   3
BRANCH   2  11
HETATM   11  N   UNL     1     -10.170   8.542  66.046  1.00  0.00    -0.327 NA 
HETATM   12  H   UNL     1     -10.768   9.111  66.644  1.00  0.00     0.000 HD 
BRANCH  11  13
HETATM   13  C   UNL     1      -8.835   9.146  65.929  1.00  0.00    -0.175 C  
BRANCH  13  14
HETATM   14  C   UNL     1      -8.882  10.525  65.217  1.00  0.00    -0.188 C  
HETATM   15  H   UNL     1     -10.047  11.401  63.905  1.00  0.00     0.000 HD 
HETATM   16  O   UNL     1     -10.018  10.557  64.341  1.00  0.00    -0.321 OA 
BRANCH  14  17
HETATM   17  C   UNL     1      -8.920  11.682  66.209  1.00  0.00    -0.194 A  
HETATM   18  C   UNL     1      -9.339  14.038  66.761  1.00  0.00    -0.289 A  
HETATM   19  H   UNL     1      -8.347  14.642  69.856  1.00  0.00     0.000 HD 
HETATM   20  C   UNL     1      -8.846  13.809  68.050  1.00  0.00    -0.182 A  
HETATM   21  C   UNL     1      -8.432  12.539  68.438  1.00  0.00    -0.125 A  
HETATM   22  O   UNL     1      -8.681  14.798  68.981  1.00  0.00    -0.183 OA 
HETATM   23  C   UNL     1      -8.451  11.487  67.518  1.00  0.00    -0.143 A  
HETATM   24  C   UNL     1      -9.369  12.966  65.850  1.00  0.00     0.028 A  
BRANCH  18  25
HETATM   25  C   UNL     1      -9.808  15.367  66.269  1.00  0.00    -0.297 C  
HETATM   26  O   UNL     1     -10.993  15.605  66.073  1.00  0.00    -0.299 OA 
HETATM   27  H1  UNL     1      -9.192  17.251  65.716  1.00  0.00     0.000 HD 
HETATM   28  H2  UNL     1      -7.882  16.166  66.222  1.00  0.00     0.000 HD 
HETATM   29  N   UNL     1      -8.872  16.342  66.053  1.00  0.00    -0.317 N  
ENDBRANCH  18  25
ENDBRANCH  14  17
ENDBRANCH  13  14
ENDBRANCH  11  13
ENDBRANCH   2  11
TORSDOF 8
ENDMDL
MODEL      333
REMARK 921   NORMALIZED FREE ENERGY PREDICTED BY IDOCK:   -2.76 KCAL/MOL
REMARK 922        TOTAL FREE ENERGY PREDICTED BY IDOCK:   -5.61 KCAL/MOL
REMARK 923 INTER-LIGAND FREE ENERGY PREDICTED BY IDOCK:   -5.03 KCAL/MOL
REMARK 924 INTRA-LIGAND FREE ENERGY PREDICTED BY IDOCK:   -0.58 KCAL/MOL
REMARK 927      BINDING AFFINITY PREDICTED BY RF-SCORE:    0.00 PKD
ROOT
HETATM    1  C   UNL     1      -9.098  10.375  68.988  1.00  0.00    -0.193 C  
HETATM    2  C   UNL     1      -8.456   9.533  67.878  1.00  0.00    -0.119 C  
ENDROOT
BRANCH   2   3
HETATM    3  C   UNL     1      -9.275   8.235  67.694  1.00  0.00    -0.150 C  
BRANCH   3   4
HETATM    4  C   UNL     1      -9.614   7.925  66.232  1.00  0.00    -0.200 C  
BRANCH   4   5
HETATM    5  C   UNL     1      -8.626   6.959  65.618  1.00  0.00    -0.119 A  
HETATM    6  C   UNL     1      -7.846   7.331  64.515  1.00  0.00    -0.121 A  
HETATM    7  C   UNL     1      -6.936   6.432  63.955  1.00  0.00    -0.043 A  
HETATM    8  C   UNL     1      -8.466   5.675  66.157  1.00  0.00    -0.128 A  
HETATM    9  C   UNL     1      -6.792   5.154  64.494  1.00  0.00    -0.048 A  
HETATM   10  C   UNL     1      -7.556   4.776  65.597  1.00  0.00    -0.086 A  
ENDBRANCH   4   5
ENDBRANCH   3   4
ENDBRANCH   2   3
BRANCH   2  11
HETATM   11  N   UNL     1      -8.374  10.255  66.603  1.00  0.00    -0.123 NA 
HETATM   12  H   UNL     1      -9.078   9.913  65.950  1.00  0.00     0.000 HD 
BRANCH  11  13
HETATM   13  C   UNL     1      -8.462  11.716  66.736  1.00  0.00    -0.177 C  
BRANCH  13  14
HETATM   14  C   UNL     1      -9.709  12.291  66.011  1.00  0.00    -0.242 C  
HETATM   15  H   UNL     1     -11.341  11.559  65.207  1.00  0.00     0.000 HD 
HETATM   16  O   UNL     1     -10.578  11.208  65.651  1.00  0.00    -0.259 OA 
BRANCH  14  17
HETATM   17  C   UNL     1     -10.440  13.325  66.858  1.00  0.00    -0.261 A  
HETATM   18  C   UNL     1     -10.878  15.649  67.525  1.00  0.00    -0.316 A  
HETATM   19  H   UNL     1     -12.885  15.685  70.151  1.00  0.00     0.000 HD 
HETATM   20  C   UNL     1     -11.722  15.183  68.539  1.00  0.00    -0.325 A  
HETATM   21  C   UNL     1     -11.961  13.822  68.697  1.00  0.00    -0.401 A  
HETATM   22  O   UNL     1     -12.311  16.001  69.463  1.00  0.00    -0.176 OA 
HETATM   23  C   UNL     1     -11.309  12.898  67.874  1.00  0.00    -0.336 A  
HETATM   24  C   UNL     1     -10.242  14.709  66.693  1.00  0.00    -0.275 A  
BRANCH  18  25
HETATM   25  C   UNL     1     -10.575  17.090  67.285  1.00  0.00    -0.267 C  
HETATM   26  O   UNL     1     -10.696  17.934  68.165  1.00  0.00    -0.367 OA 
HETATM   27  H1  UNL     1      -9.925  18.444  65.879  1.00  0.00     0.000 HD 
HETATM   28  H2  UNL     1     -10.014  16.768  65.302  1.00  0.00     0.000 HD 
HETATM   29  N   UNL     1     -10.132  17.459  66.043  1.00  0.00    -0.294 N  
ENDBRANCH  18  25
ENDBRANCH  14  17
ENDBRANCH  13  14
ENDBRANCH  11  13
ENDBRANCH   2  11
TORSDOF 8
ENDMDL
MODEL      334
REMARK 921   NORMALIZED FREE ENERGY PREDICTED BY IDOCK:   -2.71 KCAL/MOL
REMARK 922        TOTAL FREE ENERGY PREDICTED BY IDOCK:   -5.53 KCAL/MOL
REMARK 923 INTER-LIGAND FREE ENERGY PREDICTED BY IDOCK:   -4.75 KCAL/MOL
REMARK 924 INTRA-LIGAND FREE ENERGY PREDICTED BY IDOCK:   -0.78 KCAL/MOL
REMARK 927      BINDING AFFINITY PREDICTED BY RF-SCORE:    0.00 PKD
ROOT
HETATM    1  C   UNL     1     -10.325   9.093  66.291  1.00  0.00    -0.166 C  
HETATM    2  C   UNL     1      -9.055   9.582  66.999  1.00  0.00    -0.134 C  
ENDROOT
BRANCH   2   3
HETATM    3  C   UNL     1      -8.808  11.060  66.622  1.00  0.00    -0.168 C  
BRANCH   3   4
HETATM    4  C   UNL     1      -9.542  12.056  67.528  1.00  0.00    -0.177 C  
BRANCH   4   5
HETATM    5  C   UNL     1     -10.046  13.253  66.754  1.00  0.00    -0.258 A  
HETATM    6  C   UNL     1     -10.675  13.095  65.512  1.00  0.00    -0.297 A  
HETATM    7  C   UNL     1     -11.137  14.207  64.805  1.00  0.00    -0.393 A  
HETATM    8  C   UNL     1      -9.902  14.545  67.279  1.00  0.00    -0.236 A  
HETATM    9  C   UNL     1     -10.979  15.488  65.333  1.00  0.00    -0.365 A  
HETATM   10  C   UNL     1     -10.364  15.656  66.571  1.00  0.00    -0.296 A  
ENDBRANCH   4   5
ENDBRANCH   3   4
ENDBRANCH   2   3
BRANCH   2  11
HETATM   11  N   UNL     1      -9.138   9.446  68.458  1.00  0.00    -0.131 NA 
HETATM   12  H   UNL     1      -9.010  10.351  68.910  1.00  0.00     0.000 HD 
BRANCH  11  13
HETATM   13  C   UNL     1     -10.374   8.805  68.929  1.00  0.00    -0.212 C  
BRANCH  13  14
HETATM   14  C   UNL     1     -10.571   8.980  70.459  1.00  0.00    -0.227 C  
HETATM   15  H   UNL     1     -12.093   9.000  71.696  1.00  0.00     0.000 HD 
HETATM   16  O   UNL     1     -11.972   8.892  70.760  1.00  0.00    -0.253 OA 
BRANCH  14  17
HETATM   17  C   UNL     1      -9.771   7.961  71.262  1.00  0.00    -0.187 A  
HETATM   18  C   UNL     1      -9.270   5.649  71.923  1.00  0.00    -0.157 A  
HETATM   19  H   UNL     1      -7.065   5.659  74.387  1.00  0.00     0.000 HD 
HETATM   20  C   UNL     1      -8.352   6.133  72.862  1.00  0.00    -0.116 A  
HETATM   21  C   UNL     1      -8.110   7.497  72.983  1.00  0.00    -0.141 A  
HETATM   22  O   UNL     1      -7.688   5.330  73.749  1.00  0.00    -0.100 OA 
HETATM   23  C   UNL     1      -8.828   8.406  72.202  1.00  0.00    -0.285 A  
HETATM   24  C   UNL     1      -9.973   6.575  71.130  1.00  0.00    -0.202 A  
BRANCH  18  25
HETATM   25  C   UNL     1      -9.582   4.203  71.727  1.00  0.00    -0.156 C  
HETATM   26  O   UNL     1     -10.588   3.687  72.197  1.00  0.00    -0.020 OA 
HETATM   27  H1  UNL     1      -8.927   2.462  70.848  1.00  0.00     0.000 HD 
HETATM   28  H2  UNL     1      -7.877   3.867  70.573  1.00  0.00     0.000 HD 
HETATM   29  N   UNL     1      -8.714   3.451  70.982  1.00  0.00    -0.072 N  
ENDBRANCH  18  25
ENDBRANCH  14  17
ENDBRANCH  13  14
ENDBRANCH  11  13
ENDBRANCH   2  11
TORSDOF 8
ENDMDL
MODEL      335
REMARK 921   NORMALIZED FREE ENERGY PREDICTED BY IDOCK:   -2.66 KCAL/MOL
REMARK 922        TOTAL FREE ENERGY PREDICTED BY IDOCK:   -5.46 KCAL/MOL
REMARK 923 INTER-LIGAND FREE ENERGY PREDICTED BY IDOCK:   -4.79 KCAL/MOL
REMARK 924 INTRA-LIGAND FREE ENERGY PREDICTED BY IDOCK:   -0.67 KCAL/MOL
REMARK 927      BINDING AFFINITY PREDICTED BY RF-SCORE:    0.00 PKD
ROOT
HETATM    1  C   UNL     1      -9.392  12.571  67.045  1.00  0.00    -0.210 C  
HETATM    2  C   UNL     1      -8.043  12.823  67.728  1.00  0.00    -0.168 C  
ENDROOT
BRANCH   2   3
HETATM    3  C   UNL     1      -7.918  14.329  68.053  1.00  0.00    -0.142 C  
BRANCH   3   4
HETATM    4  C   UNL     1      -8.166  15.240  66.846  1.00  0.00    -0.263 C  
BRANCH   4   5
HETATM    5  C   UNL     1      -8.751  16.572  67.259  1.00  0.00    -0.204 A  
HETATM    6  C   UNL     1      -9.712  16.652  68.275  1.00  0.00    -0.244 A  
HETATM    7  C   UNL     1     -10.247  17.886  68.649  1.00  0.00    -0.387 A  
HETATM    8  C   UNL     1      -8.325  17.755  66.637  1.00  0.00    -0.285 A  
HETATM    9  C   UNL     1      -9.823  19.055  68.017  1.00  0.00    -0.414 A  
HETATM   10  C   UNL     1      -8.860  18.988  67.012  1.00  0.00    -0.309 A  
ENDBRANCH   4   5
ENDBRANCH   3   4
ENDBRANCH   2   3
BRANCH   2  11
HETATM   11  N   UNL     1      -7.878  12.033  68.953  1.00  0.00    -0.327 NA 
HETATM   12  H   UNL     1      -8.756  11.581  69.209  1.00  0.00     0.000 HD 
BRANCH  11  13
HETATM   13  C   UNL     1      -6.791  11.045  68.886  1.00  0.00    -0.079 C  
BRANCH  13  14
HETATM   14  C   UNL     1      -7.176   9.710  69.580  1.00  0.00    -0.084 C  
HETATM   15  H   UNL     1      -8.296   9.177  71.100  1.00  0.00     0.000 HD 
HETATM   16  O   UNL     1      -8.060   9.994  70.675  1.00  0.00    -0.166 OA 
BRANCH  14  17
HETATM   17  C   UNL     1      -7.804   8.718  68.608  1.00  0.00    -0.103 A  
HETATM   18  C   UNL     1      -9.285   6.821  68.118  1.00  0.00    -0.121 A  
HETATM   19  H   UNL     1      -8.892   5.899  64.968  1.00  0.00     0.000 HD 
HETATM   20  C   UNL     1      -8.832   6.829  66.795  1.00  0.00    -0.124 A  
HETATM   21  C   UNL     1      -7.914   7.780  66.362  1.00  0.00    -0.099 A  
HETATM   22  O   UNL     1      -9.200   5.893  65.867  1.00  0.00    -0.157 OA 
HETATM   23  C   UNL     1      -7.389   8.706  67.267  1.00  0.00    -0.088 A  
HETATM   24  C   UNL     1      -8.761   7.770  69.015  1.00  0.00    -0.135 A  
BRANCH  18  25
HETATM   25  C   UNL     1     -10.271   5.840  68.659  1.00  0.00    -0.197 C  
HETATM   26  O   UNL     1     -10.173   4.638  68.447  1.00  0.00    -0.060 OA 
HETATM   27  H1  UNL     1     -11.974   5.646  69.797  1.00  0.00     0.000 HD 
HETATM   28  H2  UNL     1     -11.389   7.313  69.625  1.00  0.00     0.000 HD 
HETATM   29  N   UNL     1     -11.299   6.316  69.428  1.00  0.00    -0.421 N  
ENDBRANCH  18  25
ENDBRANCH  14  17
ENDBRANCH  13  14
ENDBRANCH  11  13
ENDBRANCH   2  11
TORSDOF 8
ENDMDL
MODEL      336
REMARK 921   NORMALIZED FREE ENERGY PREDICTED BY IDOCK:   -2.64 KCAL/MOL
REMARK 922        TOTAL FREE ENERGY PREDICTED BY IDOCK:   -5.43 KCAL/MOL
REMARK 923 INTER-LIGAND FREE ENERGY PREDICTED BY IDOCK:   -4.28 KCAL/MOL
REMARK 924 INTRA-LIGAND FREE ENERGY PREDICTED BY IDOCK:   -1.15 KCAL/MOL
REMARK 927      BINDING AFFINITY PREDICTED BY RF-SCORE:    0.00 PKD
ROOT
HETATM    1  C   UNL     1      -7.621   5.759  63.658  1.00  0.00    -0.083 C  
HETATM    2  C   UNL     1      -8.181   6.389  64.939  1.00  0.00    -0.110 C  
ENDROOT
BRANCH   2   3
HETATM    3  C   UNL     1      -8.338   5.288  66.013  1.00  0.00    -0.118 C  
BRANCH   3   4
HETATM    4  C   UNL     1      -7.806   5.696  67.391  1.00  0.00    -0.101 C  
BRANCH   4   5
HETATM    5  C   UNL     1      -8.922   5.853  68.400  1.00  0.00    -0.112 A  
HETATM    6  C   UNL     1      -9.298   4.787  69.228  1.00  0.00    -0.196 A  
HETATM    7  C   UNL     1     -10.330   4.941  70.156  1.00  0.00    -0.253 A  
HETATM    8  C   UNL     1      -9.589   7.079  68.531  1.00  0.00    -0.137 A  
HETATM    9  C   UNL     1     -10.993   6.163  70.271  1.00  0.00    -0.417 A  
HETATM   10  C   UNL     1     -10.620   7.232  69.459  1.00  0.00    -0.244 A  
ENDBRANCH   4   5
ENDBRANCH   3   4
ENDBRANCH   2   3
BRANCH   2  11
HETATM   11  N   UNL     1      -7.330   7.469  65.452  1.00  0.00    -0.069 NA 
HETATM   12  H   UNL     1      -6.687   7.113  66.159  1.00  0.00     0.000 HD 
BRANCH  11  13
HETATM   13  C   UNL     1      -6.597   8.199  64.409  1.00  0.00    -0.065 C  
BRANCH  13  14
HETATM   14  C   UNL     1      -7.325   9.507  63.995  1.00  0.00    -0.115 C  
HETATM   15  H   UNL     1      -8.867   9.975  62.877  1.00  0.00     0.000 HD 
HETATM   16  O   UNL     1      -8.421   9.175  63.131  1.00  0.00    -0.189 OA 
BRANCH  14  17
HETATM   17  C   UNL     1      -7.799  10.306  65.203  1.00  0.00    -0.138 A  
HETATM   18  C   UNL     1      -9.584  11.178  66.648  1.00  0.00    -0.215 A  
HETATM   19  H   UNL     1      -8.293  13.267  68.861  1.00  0.00     0.000 HD 
HETATM   20  C   UNL     1      -8.628  11.901  67.368  1.00  0.00    -0.164 A  
HETATM   21  C   UNL     1      -7.277  11.809  67.050  1.00  0.00    -0.134 A  
HETATM   22  O   UNL     1      -8.943  12.776  68.372  1.00  0.00    -0.184 OA 
HETATM   23  C   UNL     1      -6.867  11.032  65.962  1.00  0.00    -0.017 A  
HETATM   24  C   UNL     1      -9.156  10.385  65.567  1.00  0.00    -0.208 A  
BRANCH  18  25
HETATM   25  C   UNL     1     -11.049  11.217  66.930  1.00  0.00    -0.247 C  
HETATM   26  O   UNL     1     -11.843  11.747  66.164  1.00  0.00    -0.477 OA 
HETATM   27  H1  UNL     1     -12.503  10.648  68.270  1.00  0.00     0.000 HD 
HETATM   28  H2  UNL     1     -10.856  10.165  68.721  1.00  0.00     0.000 HD 
HETATM   29  N   UNL     1     -11.502  10.622  68.077  1.00  0.00    -0.283 N  
ENDBRANCH  18  25
ENDBRANCH  14  17
ENDBRANCH  13  14
ENDBRANCH  11  13
ENDBRANCH   2  11
TORSDOF 8
ENDMDL
MODEL      337
REMARK 921   NORMALIZED FREE ENERGY PREDICTED BY IDOCK:   -2.63 KCAL/MOL
REMARK 922        TOTAL FREE ENERGY PREDICTED BY IDOCK:   -5.42 KCAL/MOL
REMARK 923 INTER-LIGAND FREE ENERGY PREDICTED BY IDOCK:   -5.10 KCAL/MOL
REMARK 924 INTRA-LIGAND FREE ENERGY PREDICTED BY IDOCK:   -0.32 KCAL/MOL
REMARK 927      BINDING AFFINITY PREDICTED BY RF-SCORE:    0.00 PKD
ROOT
HETATM    1  C   UNL     1     -10.090   8.227  70.365  1.00  0.00    -0.199 C  
HETATM    2  C   UNL     1      -8.615   8.318  69.956  1.00  0.00    -0.128 C  
ENDROOT
BRANCH   2   3
HETATM    3  C   UNL     1      -7.768   7.484  70.943  1.00  0.00    -0.090 C  
BRANCH   3   4
HETATM    4  C   UNL     1      -8.606   6.679  71.943  1.00  0.00    -0.124 C  
BRANCH   4   5
HETATM    5  C   UNL     1      -8.641   5.209  71.591  1.00  0.00    -0.132 A  
HETATM    6  C   UNL     1      -7.859   4.700  70.547  1.00  0.00    -0.054 A  
HETATM    7  C   UNL     1      -7.898   3.342  70.228  1.00  0.00    -0.046 A  
HETATM    8  C   UNL     1      -9.452   4.327  72.320  1.00  0.00    -0.183 A  
HETATM    9  C   UNL     1      -8.716   2.475  70.954  1.00  0.00    -0.117 A  
HETATM   10  C   UNL     1      -9.491   2.969  72.001  1.00  0.00    -0.204 A  
ENDBRANCH   4   5
ENDBRANCH   3   4
ENDBRANCH   2   3
BRANCH   2  11
HETATM   11  N   UNL     1      -8.384   7.851  68.584  1.00  0.00    -0.127 NA 
HETATM   12  H   UNL     1      -7.434   7.495  68.481  1.00  0.00     0.000 HD 
BRANCH  11  13
HETATM   13  C   UNL     1      -9.360   6.855  68.118  1.00  0.00    -0.124 C  
BRANCH  13  14
HETATM   14  C   UNL     1      -9.948   7.224  66.729  1.00  0.00    -0.217 C  
HETATM   15  H   UNL     1     -11.646   6.937  65.790  1.00  0.00     0.000 HD 
HETATM   16  O   UNL     1     -11.286   6.712  66.640  1.00  0.00    -0.231 OA 
BRANCH  14  17
HETATM   17  C   UNL     1      -9.915   8.726  66.472  1.00  0.00    -0.360 A  
HETATM   18  C   UNL     1     -10.703  11.009  66.921  1.00  0.00    -0.325 A  
HETATM   19  H   UNL     1      -9.372  13.088  64.722  1.00  0.00     0.000 HD 
HETATM   20  C   UNL     1      -9.908  11.474  65.868  1.00  0.00    -0.231 A  
HETATM   21  C   UNL     1      -9.099  10.601  65.148  1.00  0.00    -0.227 A  
HETATM   22  O   UNL     1      -9.912  12.772  65.437  1.00  0.00    -0.265 OA 
HETATM   23  C   UNL     1      -9.117   9.233  65.435  1.00  0.00    -0.277 A  
HETATM   24  C   UNL     1     -10.698   9.632  67.212  1.00  0.00    -0.284 A  
BRANCH  18  25
HETATM   25  C   UNL     1     -11.592  11.879  67.745  1.00  0.00    -0.323 C  
HETATM   26  O   UNL     1     -12.157  11.464  68.749  1.00  0.00    -0.480 OA 
HETATM   27  H1  UNL     1     -12.363  13.778  67.923  1.00  0.00     0.000 HD 
HETATM   28  H2  UNL     1     -11.282  13.549  66.534  1.00  0.00     0.000 HD 
HETATM   29  N   UNL     1     -11.755  13.183  67.360  1.00  0.00    -0.355 N  
ENDBRANCH  18  25
ENDBRANCH  14  17
ENDBRANCH  13  14
ENDBRANCH  11  13
ENDBRANCH   2  11
TORSDOF 8
ENDMDL
MODEL      338
REMARK 921   NORMALIZED FREE ENERGY PREDICTED BY IDOCK:   -2.51 KCAL/MOL
REMARK 922        TOTAL FREE ENERGY PREDICTED BY IDOCK:   -5.24 KCAL/MOL
REMARK 923 INTER-LIGAND FREE ENERGY PREDICTED BY IDOCK:   -4.60 KCAL/MOL
REMARK 924 INTRA-LIGAND FREE ENERGY PREDICTED BY IDOCK:   -0.64 KCAL/MOL
REMARK 927      BINDING AFFINITY PREDICTED BY RF-SCORE:    0.00 PKD
ROOT
HETATM    1  C   UNL     1      -9.877  10.258  69.014  1.00  0.00    -0.215 C  
HETATM    2  C   UNL     1     -10.157   9.922  67.544  1.00  0.00    -0.197 C  
ENDROOT
BRANCH   2   3
HETATM    3  C   UNL     1     -11.141   8.732  67.479  1.00  0.00     0.313 C  
BRANCH   3   4
HETATM    4  C   UNL     1     -10.448   7.369  67.360  1.00  0.00    -0.366 C  
BRANCH   4   5
HETATM    5  C   UNL     1     -10.549   6.573  68.642  1.00  0.00    -0.289 A  
HETATM    6  C   UNL     1      -9.802   5.402  68.822  1.00  0.00    -0.208 A  
HETATM    7  C   UNL     1      -9.902   4.673  70.009  1.00  0.00    -0.294 A  
HETATM    8  C   UNL     1     -11.386   7.008  69.680  1.00  0.00    -0.181 A  
HETATM    9  C   UNL     1     -10.745   5.110  71.031  1.00  0.00    -0.133 A  
HETATM   10  C   UNL     1     -11.485   6.278  70.866  1.00  0.00    -0.377 A  
ENDBRANCH   4   5
ENDBRANCH   3   4
ENDBRANCH   2   3
BRANCH   2  11
HETATM   11  N   UNL     1     -10.706  11.063  66.803  1.00  0.00    -0.267 NA 
HETATM   12  H   UNL     1     -11.432  11.529  67.347  1.00  0.00     0.000 HD 
BRANCH  11  13
HETATM   13  C   UNL     1      -9.693  12.032  66.360  1.00  0.00    -0.225 C  
BRANCH  13  14
HETATM   14  C   UNL     1     -10.257  13.477  66.303  1.00  0.00    -0.299 C  
HETATM   15  H   UNL     1     -11.713  14.463  67.172  1.00  0.00     0.000 HD 
HETATM   16  O   UNL     1     -11.367  13.579  67.207  1.00  0.00    -0.291 OA 
BRANCH  14  17
HETATM   17  C   UNL     1      -9.193  14.521  66.618  1.00  0.00    -0.290 A  
HETATM   18  C   UNL     1      -7.370  15.390  68.017  1.00  0.00    -0.131 A  
HETATM   19  H   UNL     1      -6.508  18.402  66.963  1.00  0.00     0.000 HD 
HETATM   20  C   UNL     1      -7.333  16.543  67.226  1.00  0.00    -0.166 A  
HETATM   21  C   UNL     1      -8.174  16.681  66.128  1.00  0.00    -0.295 A  
HETATM   22  O   UNL     1      -6.533  17.619  67.500  1.00  0.00    -0.156 OA 
HETATM   23  C   UNL     1      -9.112  15.685  65.837  1.00  0.00    -0.277 A  
HETATM   24  C   UNL     1      -8.306  14.387  67.703  1.00  0.00    -0.186 A  
BRANCH  18  25
HETATM   25  C   UNL     1      -6.498  15.163  69.207  1.00  0.00    -0.125 C  
HETATM   26  O   UNL     1      -5.744  14.202  69.284  1.00  0.00    -0.081 OA 
HETATM   27  H1  UNL     1      -5.949  15.923  71.038  1.00  0.00     0.000 HD 
HETATM   28  H2  UNL     1      -7.158  16.890  70.172  1.00  0.00     0.000 HD 
HETATM   29  N   UNL     1      -6.545  16.078  70.225  1.00  0.00     0.139 N  
ENDBRANCH  18  25
ENDBRANCH  14  17
ENDBRANCH  13  14
ENDBRANCH  11  13
ENDBRANCH   2  11
TORSDOF 8
ENDMDL
MODEL      339
REMARK 921   NORMALIZED FREE ENERGY PREDICTED BY IDOCK:   -2.49 KCAL/MOL
REMARK 922        TOTAL FREE ENERGY PREDICTED BY IDOCK:   -5.22 KCAL/MOL
REMARK 923 INTER-LIGAND FREE ENERGY PREDICTED BY IDOCK:   -4.94 KCAL/MOL
REMARK 924 INTRA-LIGAND FREE ENERGY PREDICTED BY IDOCK:   -0.28 KCAL/MOL
REMARK 927      BINDING AFFINITY PREDICTED BY RF-SCORE:    0.00 PKD
ROOT
HETATM    1  C   UNL     1     -10.243   6.245  72.412  1.00  0.00    -0.208 C  
HETATM    2  C   UNL     1      -9.759   6.964  71.148  1.00  0.00    -0.173 C  
ENDROOT
BRANCH   2   3
HETATM    3  C   UNL     1      -9.194   5.918  70.160  1.00  0.00    -0.169 C  
BRANCH   3   4
HETATM    4  C   UNL     1     -10.263   4.991  69.570  1.00  0.00    -0.286 C  
BRANCH   4   5
HETATM    5  C   UNL     1      -9.745   4.225  68.374  1.00  0.00    -0.165 A  
HETATM    6  C   UNL     1      -9.218   2.935  68.519  1.00  0.00    -0.239 A  
HETATM    7  C   UNL     1      -8.741   2.235  67.409  1.00  0.00    -0.142 A  
HETATM    8  C   UNL     1      -9.800   4.793  67.093  1.00  0.00    -0.222 A  
HETATM    9  C   UNL     1      -8.792   2.814  66.141  1.00  0.00    -0.140 A  
HETATM   10  C   UNL     1      -9.323   4.092  65.984  1.00  0.00    -0.164 A  
ENDBRANCH   4   5
ENDBRANCH   3   4
ENDBRANCH   2   3
BRANCH   2  11
HETATM   11  N   UNL     1     -10.824   7.738  70.500  1.00  0.00    -0.238 NA 
HETATM   12  H   UNL     1     -11.307   8.323  71.181  1.00  0.00     0.000 HD 
BRANCH  11  13
HETATM   13  C   UNL     1     -10.368   8.545  69.359  1.00  0.00    -0.215 C  
BRANCH  13  14
HETATM   14  C   UNL     1     -11.234   9.819  69.166  1.00  0.00    -0.061 C  
HETATM   15  H   UNL     1     -12.451  10.884  70.275  1.00  0.00     0.000 HD 
HETATM   16  O   UNL     1     -11.920  10.105  70.393  1.00  0.00    -0.268 OA 
BRANCH  14  17
HETATM   17  C   UNL     1     -10.405  11.013  68.707  1.00  0.00    -0.217 A  
HETATM   18  C   UNL     1     -10.205  13.223  67.653  1.00  0.00    -0.228 A  
HETATM   19  H   UNL     1      -7.009  14.001  67.320  1.00  0.00     0.000 HD 
HETATM   20  C   UNL     1      -8.813  13.131  67.762  1.00  0.00    -0.191 A  
HETATM   21  C   UNL     1      -8.217  12.028  68.363  1.00  0.00    -0.151 A  
HETATM   22  O   UNL     1      -7.954  14.063  67.246  1.00  0.00    -0.179 OA 
HETATM   23  C   UNL     1      -9.007  10.967  68.815  1.00  0.00    -0.166 A  
HETATM   24  C   UNL     1     -10.989  12.155  68.129  1.00  0.00    -0.271 A  
BRANCH  18  25
HETATM   25  C   UNL     1     -10.921  14.373  67.029  1.00  0.00    -0.304 C  
HETATM   26  O   UNL     1     -10.351  15.173  66.297  1.00  0.00    -0.273 OA 
HETATM   27  H1  UNL     1     -12.750  15.300  66.854  1.00  0.00     0.000 HD 
HETATM   28  H2  UNL     1     -12.753  13.850  67.878  1.00  0.00     0.000 HD 
HETATM   29  N   UNL     1     -12.260  14.513  67.281  1.00  0.00    -0.268 N  
ENDBRANCH  18  25
ENDBRANCH  14  17
ENDBRANCH  13  14
ENDBRANCH  11  13
ENDBRANCH   2  11
TORSDOF 8
ENDMDL
MODEL      340
REMARK 921   NORMALIZED FREE ENERGY PREDICTED BY IDOCK:   -2.37 KCAL/MOL
REMARK 922        TOTAL FREE ENERGY PREDICTED BY IDOCK:   -5.03 KCAL/MOL
REMARK 923 INTER-LIGAND FREE ENERGY PREDICTED BY IDOCK:   -4.45 KCAL/MOL
REMARK 924 INTRA-LIGAND FREE ENERGY PREDICTED BY IDOCK:   -0.58 KCAL/MOL
REMARK 927      BINDING AFFINITY PREDICTED BY RF-SCORE:    0.00 PKD
ROOT
HETATM    1  C   UNL     1      -7.538   9.674  68.179  1.00  0.00    -0.082 C  
HETATM    2  C   UNL     1      -8.192  10.324  66.953  1.00  0.00    -0.123 C  
ENDROOT
BRANCH   2   3
HETATM    3  C   UNL     1      -9.252  11.343  67.431  1.00  0.00    -0.164 C  
BRANCH   3   4
HETATM    4  C   UNL     1      -9.276  12.635  66.606  1.00  0.00    -0.218 C  
BRANCH   4   5
HETATM    5  C   UNL     1     -10.343  12.598  65.535  1.00  0.00    -0.305 A  
HETATM    6  C   UNL     1     -11.622  13.117  65.775  1.00  0.00    -0.383 A  
HETATM    7  C   UNL     1     -12.601  13.078  64.780  1.00  0.00    -0.460 A  
HETATM    8  C   UNL     1     -10.060  12.053  64.275  1.00  0.00    -0.319 A  
HETATM    9  C   UNL     1     -12.311  12.525  63.533  1.00  0.00    -0.623 A  
HETATM   10  C   UNL     1     -11.039  12.014  63.281  1.00  0.00    -0.400 A  
ENDBRANCH   4   5
ENDBRANCH   3   4
ENDBRANCH   2   3
BRANCH   2  11
HETATM   11  N   UNL     1      -7.216  10.991  66.084  1.00  0.00    -0.289 NA 
HETATM   12  H   UNL     1      -6.523  11.491  66.640  1.00  0.00     0.000 HD 
BRANCH  11  13
HETATM   13  C   UNL     1      -6.557  10.092  65.126  1.00  0.00    -0.115 C  
BRANCH  13  14
HETATM   14  C   UNL     1      -7.549   9.550  64.061  1.00  0.00    -0.122 C  
HETATM   15  H   UNL     1      -7.902   9.879  62.160  1.00  0.00     0.000 HD 
HETATM   16  O   UNL     1      -7.296  10.210  62.812  1.00  0.00    -0.132 OA 
BRANCH  14  17
HETATM   17  C   UNL     1      -7.460   8.036  63.912  1.00  0.00    -0.117 A  
HETATM   18  C   UNL     1      -7.278   5.781  64.869  1.00  0.00    -0.066 A  
HETATM   19  H   UNL     1      -6.849   3.581  62.439  1.00  0.00     0.000 HD 
HETATM   20  C   UNL     1      -7.167   5.258  63.576  1.00  0.00    -0.049 A  
HETATM   21  C   UNL     1      -7.237   6.089  62.463  1.00  0.00    -0.051 A  
HETATM   22  O   UNL     1      -6.925   3.937  63.316  1.00  0.00    -0.042 OA 
HETATM   23  C   UNL     1      -7.364   7.471  62.630  1.00  0.00    -0.094 A  
HETATM   24  C   UNL     1      -7.423   7.172  65.022  1.00  0.00    -0.093 A  
BRANCH  18  25
HETATM   25  C   UNL     1      -7.219   4.958  66.112  1.00  0.00    -0.077 C  
HETATM   26  O   UNL     1      -7.713   5.339  67.166  1.00  0.00    -0.094 OA 
HETATM   27  H1  UNL     1      -6.564   3.173  66.899  1.00  0.00     0.000 HD 
HETATM   28  H2  UNL     1      -6.199   3.398  65.176  1.00  0.00     0.000 HD 
HETATM   29  N   UNL     1      -6.605   3.736  66.049  1.00  0.00    -0.037 N  
ENDBRANCH  18  25
ENDBRANCH  14  17
ENDBRANCH  13  14
ENDBRANCH  11  13
ENDBRANCH   2  11
TORSDOF 8
ENDMDL
MODEL      341
REMARK 921   NORMALIZED FREE ENERGY PREDICTED BY IDOCK:   -2.24 KCAL/MOL
REMARK 922        TOTAL FREE ENERGY PREDICTED BY IDOCK:   -4.84 KCAL/MOL
REMARK 923 INTER-LIGAND FREE ENERGY PREDICTED BY IDOCK:   -3.89 KCAL/MOL
REMARK 924 INTRA-LIGAND FREE ENERGY PREDICTED BY IDOCK:   -0.95 KCAL/MOL
REMARK 927      BINDING AFFINITY PREDICTED BY RF-SCORE:    0.00 PKD
ROOT
HETATM    1  C   UNL     1     -10.256   9.155  66.416  1.00  0.00    -0.300 C  
HETATM    2  C   UNL     1      -8.833   9.591  66.784  1.00  0.00    -0.131 C  
ENDROOT
BRANCH   2   3
HETATM    3  C   UNL     1      -8.663  11.089  66.446  1.00  0.00    -0.174 C  
BRANCH   3   4
HETATM    4  C   UNL     1      -8.258  11.948  67.649  1.00  0.00    -0.148 C  
BRANCH   4   5
HETATM    5  C   UNL     1      -9.410  12.788  68.153  1.00  0.00    -0.214 A  
HETATM    6  C   UNL     1     -10.636  12.200  68.492  1.00  0.00    -0.252 A  
HETATM    7  C   UNL     1     -11.694  12.984  68.955  1.00  0.00    -0.376 A  
HETATM    8  C   UNL     1      -9.261  14.174  68.303  1.00  0.00    -0.198 A  
HETATM    9  C   UNL     1     -11.537  14.363  69.091  1.00  0.00    -0.344 A  
HETATM   10  C   UNL     1     -10.319  14.957  68.766  1.00  0.00    -0.245 A  
ENDBRANCH   4   5
ENDBRANCH   3   4
ENDBRANCH   2   3
BRANCH   2  11
HETATM   11  N   UNL     1      -8.525   9.361  68.200  1.00  0.00    -0.120 NA 
HETATM   12  H   UNL     1      -8.206  10.223  68.642  1.00  0.00     0.000 HD 
BRANCH  11  13
HETATM   13  C   UNL     1      -9.632   8.768  68.965  1.00  0.00    -0.162 C  
BRANCH  13  14
HETATM   14  C   UNL     1      -9.128   8.010  70.222  1.00  0.00    -0.148 C  
HETATM   15  H   UNL     1      -9.948   7.190  71.804  1.00  0.00     0.000 HD 
HETATM   16  O   UNL     1     -10.256   7.654  71.034  1.00  0.00    -0.194 OA 
BRANCH  14  17
HETATM   17  C   UNL     1      -8.302   6.782  69.859  1.00  0.00    -0.135 A  
HETATM   18  C   UNL     1      -8.036   4.619  68.725  1.00  0.00    -0.082 A  
HETATM   19  H   UNL     1      -5.160   3.252  69.613  1.00  0.00     0.000 HD 
HETATM   20  C   UNL     1      -6.781   4.475  69.326  1.00  0.00    -0.045 A  
HETATM   21  C   UNL     1      -6.266   5.472  70.147  1.00  0.00    -0.026 A  
HETATM   22  O   UNL     1      -6.012   3.350  69.205  1.00  0.00    -0.022 OA 
HETATM   23  C   UNL     1      -7.030   6.609  70.427  1.00  0.00    -0.063 A  
HETATM   24  C   UNL     1      -8.787   5.777  69.001  1.00  0.00    -0.111 A  
BRANCH  18  25
HETATM   25  C   UNL     1      -8.655   3.600  67.828  1.00  0.00    -0.099 C  
HETATM   26  O   UNL     1      -9.533   2.840  68.218  1.00  0.00    -0.202 OA 
HETATM   27  H1  UNL     1      -8.652   2.843  65.914  1.00  0.00     0.000 HD 
HETATM   28  H2  UNL     1      -7.508   4.173  66.183  1.00  0.00     0.000 HD 
HETATM   29  N   UNL     1      -8.229   3.540  66.528  1.00  0.00    -0.099 N  
ENDBRANCH  18  25
ENDBRANCH  14  17
ENDBRANCH  13  14
ENDBRANCH  11  13
ENDBRANCH   2  11
TORSDOF 8
ENDMDL
MODEL      342
REMARK 921   NORMALIZED FREE ENERGY PREDICTED BY IDOCK:   -2.22 KCAL/MOL
REMARK 922        TOTAL FREE ENERGY PREDICTED BY IDOCK:   -4.81 KCAL/MOL
REMARK 923 INTER-LIGAND FREE ENERGY PREDICTED BY IDOCK:   -4.22 KCAL/MOL
REMARK 924 INTRA-LIGAND FREE ENERGY PREDICTED BY IDOCK:   -0.59 KCAL/MOL
REMARK 927      BINDING AFFINITY PREDICTED BY RF-SCORE:    0.00 PKD
ROOT
HETATM    1  C   UNL     1      -8.945   9.940  69.577  1.00  0.00    -0.224 C  
HETATM    2  C   UNL     1      -8.855   9.066  68.320  1.00  0.00    -0.134 C  
ENDROOT
BRANCH   2   3
HETATM    3  C   UNL     1      -9.969   7.995  68.373  1.00  0.00    -0.204 C  
BRANCH   3   4
HETATM    4  C   UNL     1     -10.451   7.542  66.991  1.00  0.00    -0.409 C  
BRANCH   4   5
HETATM    5  C   UNL     1     -10.096   6.099  66.716  1.00  0.00    -0.234 A  
HETATM    6  C   UNL     1     -10.960   5.272  65.985  1.00  0.00     0.021 A  
HETATM    7  C   UNL     1     -10.624   3.940  65.737  1.00  0.00     0.493 A  
HETATM    8  C   UNL     1      -8.884   5.568  67.180  1.00  0.00    -0.106 A  
HETATM    9  C   UNL     1      -9.420   3.420  66.211  1.00  0.00    -0.128 A  
HETATM   10  C   UNL     1      -8.549   4.236  66.931  1.00  0.00    -0.108 A  
ENDBRANCH   4   5
ENDBRANCH   3   4
ENDBRANCH   2   3
BRANCH   2  11
HETATM   11  N   UNL     1      -8.974   9.847  67.083  1.00  0.00    -0.138 NA 
HETATM   12  H   UNL     1      -9.951  10.058  66.885  1.00  0.00     0.000 HD 
BRANCH  11  13
HETATM   13  C   UNL     1      -8.169  11.077  67.074  1.00  0.00    -0.138 C  
BRANCH  13  14
HETATM   14  C   UNL     1      -8.867  12.221  66.290  1.00  0.00    -0.007 C  
HETATM   15  H   UNL     1     -10.407  12.377  65.087  1.00  0.00     0.000 HD 
HETATM   16  O   UNL     1      -9.980  11.678  65.566  1.00  0.00    -0.226 OA 
BRANCH  14  17
HETATM   17  C   UNL     1      -9.307  13.358  67.205  1.00  0.00    -0.233 A  
HETATM   18  C   UNL     1     -10.797  14.293  68.919  1.00  0.00    -0.272 A  
HETATM   19  H   UNL     1     -10.129  17.504  69.331  1.00  0.00     0.000 HD 
HETATM   20  C   UNL     1     -10.159  15.529  68.779  1.00  0.00    -0.211 A  
HETATM   21  C   UNL     1      -9.089  15.683  67.902  1.00  0.00    -0.185 A  
HETATM   22  O   UNL     1     -10.563  16.664  69.427  1.00  0.00    -0.312 OA 
HETATM   23  C   UNL     1      -8.679  14.609  67.107  1.00  0.00    -0.242 A  
HETATM   24  C   UNL     1     -10.362  13.215  68.125  1.00  0.00    -0.247 A  
BRANCH  18  25
HETATM   25  C   UNL     1     -11.945  14.044  69.840  1.00  0.00    -0.336 C  
HETATM   26  O   UNL     1     -12.670  14.950  70.232  1.00  0.00    -0.328 OA 
HETATM   27  H1  UNL     1     -12.973  12.586  70.865  1.00  0.00     0.000 HD 
HETATM   28  H2  UNL     1     -11.602  11.988  69.909  1.00  0.00     0.000 HD 
HETATM   29  N   UNL     1     -12.189  12.756  70.235  1.00  0.00    -0.317 N  
ENDBRANCH  18  25
ENDBRANCH  14  17
ENDBRANCH  13  14
ENDBRANCH  11  13
ENDBRANCH   2  11
TORSDOF 8
ENDMDL
MODEL      343
REMARK 921   NORMALIZED FREE ENERGY PREDICTED BY IDOCK:   -2.18 KCAL/MOL
REMARK 922        TOTAL FREE ENERGY PREDICTED BY IDOCK:   -4.75 KCAL/MOL
REMARK 923 INTER-LIGAND FREE ENERGY PREDICTED BY IDOCK:   -4.47 KCAL/MOL
REMARK 924 INTRA-LIGAND FREE ENERGY PREDICTED BY IDOCK:   -0.28 KCAL/MOL
REMARK 927      BINDING AFFINITY PREDICTED BY RF-SCORE:    0.00 PKD
ROOT
HETATM    1  C   UNL     1     -10.628   7.721  71.280  1.00  0.00    -0.241 C  
HETATM    2  C   UNL     1      -9.152   7.763  70.867  1.00  0.00    -0.148 C  
ENDROOT
BRANCH   2   3
HETATM    3  C   UNL     1      -8.375   6.696  71.671  1.00  0.00    -0.115 C  
BRANCH   3   4
HETATM    4  C   UNL     1      -9.211   6.022  72.764  1.00  0.00    -0.142 C  
BRANCH   4   5
HETATM    5  C   UNL     1      -9.488   4.570  72.446  1.00  0.00    -0.176 A  
HETATM    6  C   UNL     1      -8.751   3.895  71.464  1.00  0.00    -0.131 A  
HETATM    7  C   UNL     1      -9.014   2.555  71.176  1.00  0.00    -0.149 A  
HETATM    8  C   UNL     1     -10.483   3.871  73.143  1.00  0.00    -0.254 A  
HETATM    9  C   UNL     1     -10.013   1.872  71.869  1.00  0.00    -0.222 A  
HETATM   10  C   UNL     1     -10.746   2.530  72.854  1.00  0.00    -0.199 A  
ENDBRANCH   4   5
ENDBRANCH   3   4
ENDBRANCH   2   3
BRANCH   2  11
HETATM   11  N   UNL     1      -8.965   7.539  69.429  1.00  0.00    -0.140 NA 
HETATM   12  H   UNL     1      -8.024   7.193  69.239  1.00  0.00     0.000 HD 
BRANCH  11  13
HETATM   13  C   UNL     1      -9.970   6.652  68.827  1.00  0.00    -0.144 C  
BRANCH  13  14
HETATM   14  C   UNL     1     -10.199   6.969  67.324  1.00  0.00    -0.234 C  
HETATM   15  H   UNL     1     -11.374   6.307  65.901  1.00  0.00     0.000 HD 
HETATM   16  O   UNL     1     -11.235   6.113  66.820  1.00  0.00    -0.279 OA 
BRANCH  14  17
HETATM   17  C   UNL     1     -10.536   8.437  67.092  1.00  0.00    -0.380 A  
HETATM   18  C   UNL     1     -10.360  10.511  65.788  1.00  0.00    -0.270 A  
HETATM   19  H   UNL     1     -11.805  12.982  67.442  1.00  0.00     0.000 HD 
HETATM   20  C   UNL     1     -11.083  11.179  66.782  1.00  0.00    -0.214 A  
HETATM   21  C   UNL     1     -11.562  10.497  67.894  1.00  0.00    -0.039 A  
HETATM   22  O   UNL     1     -11.314  12.528  66.767  1.00  0.00    -0.295 OA 
HETATM   23  C   UNL     1     -11.274   9.139  68.058  1.00  0.00     0.309 A  
HETATM   24  C   UNL     1     -10.093   9.140  65.956  1.00  0.00    -0.204 A  
BRANCH  18  25
HETATM   25  C   UNL     1      -9.818  11.168  64.563  1.00  0.00    -0.280 C  
HETATM   26  O   UNL     1      -8.893  10.684  63.922  1.00  0.00    -0.180 OA 
HETATM   27  H1  UNL     1     -10.025  12.788  63.311  1.00  0.00     0.000 HD 
HETATM   28  H2  UNL     1     -11.174  12.749  64.663  1.00  0.00     0.000 HD 
HETATM   29  N   UNL     1     -10.396  12.338  64.149  1.00  0.00    -0.345 N  
ENDBRANCH  18  25
ENDBRANCH  14  17
ENDBRANCH  13  14
ENDBRANCH  11  13
ENDBRANCH   2  11
TORSDOF 8
ENDMDL
MODEL      344
REMARK 921   NORMALIZED FREE ENERGY PREDICTED BY IDOCK:   -1.97 KCAL/MOL
REMARK 922        TOTAL FREE ENERGY PREDICTED BY IDOCK:   -4.45 KCAL/MOL
REMARK 923 INTER-LIGAND FREE ENERGY PREDICTED BY IDOCK:   -4.12 KCAL/MOL
REMARK 924 INTRA-LIGAND FREE ENERGY PREDICTED BY IDOCK:   -0.33 KCAL/MOL
REMARK 927      BINDING AFFINITY PREDICTED BY RF-SCORE:    0.00 PKD
ROOT
HETATM    1  C   UNL     1      -9.967  12.904  64.647  1.00  0.00    -0.153 C  
HETATM    2  C   UNL     1      -9.489  13.261  66.060  1.00  0.00    -0.082 C  
ENDROOT
BRANCH   2   3
HETATM    3  C   UNL     1      -9.307  14.793  66.157  1.00  0.00    -0.292 C  
BRANCH   3   4
HETATM    4  C   UNL     1      -9.482  15.343  67.577  1.00  0.00    -0.205 C  
BRANCH   4   5
HETATM    5  C   UNL     1      -8.405  16.346  67.927  1.00  0.00    -0.174 A  
HETATM    6  C   UNL     1      -8.736  17.652  68.312  1.00  0.00    -0.276 A  
HETATM    7  C   UNL     1      -7.736  18.571  68.633  1.00  0.00    -0.332 A  
HETATM    8  C   UNL     1      -7.054  15.975  67.887  1.00  0.00    -0.151 A  
HETATM    9  C   UNL     1      -6.395  18.194  68.580  1.00  0.00    -0.206 A  
HETATM   10  C   UNL     1      -6.054  16.895  68.208  1.00  0.00    -0.133 A  
ENDBRANCH   4   5
ENDBRANCH   3   4
ENDBRANCH   2   3
BRANCH   2  11
HETATM   11  N   UNL     1     -10.419  12.803  67.099  1.00  0.00    -0.232 NA 
HETATM   12  H   UNL     1     -10.807  13.597  67.608  1.00  0.00     0.000 HD 
BRANCH  11  13
HETATM   13  C   UNL     1     -11.495  11.936  66.598  1.00  0.00    -0.314 C  
BRANCH  13  14
HETATM   14  C   UNL     1     -11.121  10.432  66.696  1.00  0.00     0.109 C  
HETATM   15  H   UNL     1     -10.305   9.097  65.513  1.00  0.00     0.000 HD 
HETATM   16  O   UNL     1     -10.534  10.017  65.454  1.00  0.00    -0.162 OA 
BRANCH  14  17
HETATM   17  C   UNL     1     -10.190  10.147  67.867  1.00  0.00    -0.217 A  
HETATM   18  C   UNL     1      -8.024   9.427  68.776  1.00  0.00    -0.092 A  
HETATM   19  H   UNL     1      -8.231   9.190  72.067  1.00  0.00     0.000 HD 
HETATM   20  C   UNL     1      -8.555   9.512  70.068  1.00  0.00    -0.215 A  
HETATM   21  C   UNL     1      -9.862   9.941  70.274  1.00  0.00    -0.236 A  
HETATM   22  O   UNL     1      -7.871   9.132  71.190  1.00  0.00    -0.227 OA 
HETATM   23  C   UNL     1     -10.680  10.238  69.180  1.00  0.00    -0.259 A  
HETATM   24  C   UNL     1      -8.853   9.746  67.685  1.00  0.00    -0.127 A  
BRANCH  18  25
HETATM   25  C   UNL     1      -6.633   8.982  68.472  1.00  0.00    -0.055 C  
HETATM   26  O   UNL     1      -6.402   8.035  67.730  1.00  0.00    -0.050 OA 
HETATM   27  H1  UNL     1      -4.644   9.372  68.826  1.00  0.00     0.000 HD 
HETATM   28  H2  UNL     1      -5.769  10.475  69.645  1.00  0.00     0.000 HD 
HETATM   29  N   UNL     1      -5.595   9.676  69.034  1.00  0.00    -0.036 N  
ENDBRANCH  18  25
ENDBRANCH  14  17
ENDBRANCH  13  14
ENDBRANCH  11  13
ENDBRANCH   2  11
TORSDOF 8
ENDMDL
MODEL      345
REMARK 921   NORMALIZED FREE ENERGY PREDICTED BY IDOCK:   -1.95 KCAL/MOL
REMARK 922        TOTAL FREE ENERGY PREDICTED BY IDOCK:   -4.42 KCAL/MOL
REMARK 923 INTER-LIGAND FREE ENERGY PREDICTED BY IDOCK:   -4.62 KCAL/MOL
REMARK 924 INTRA-LIGAND FREE ENERGY PREDICTED BY IDOCK:    0.20 KCAL/MOL
REMARK 927      BINDING AFFINITY PREDICTED BY RF-SCORE:    0.00 PKD
ROOT
HETATM    1  C   UNL     1     -10.978   9.041  67.312  1.00  0.00     0.067 C  
HETATM    2  C   UNL     1      -9.463   9.093  67.080  1.00  0.00    -0.154 C  
ENDROOT
BRANCH   2   3
HETATM    3  C   UNL     1      -9.042  10.561  66.844  1.00  0.00    -0.161 C  
BRANCH   3   4
HETATM    4  C   UNL     1     -10.036  11.583  67.407  1.00  0.00    -0.209 C  
BRANCH   4   5
HETATM    5  C   UNL     1     -10.633  12.445  66.318  1.00  0.00    -0.277 A  
HETATM    6  C   UNL     1     -11.707  11.986  65.544  1.00  0.00    -0.315 A  
HETATM    7  C   UNL     1     -12.252  12.788  64.540  1.00  0.00    -0.500 A  
HETATM    8  C   UNL     1     -10.127  13.730  66.075  1.00  0.00    -0.320 A  
HETATM    9  C   UNL     1     -11.734  14.060  64.301  1.00  0.00    -0.388 A  
HETATM   10  C   UNL     1     -10.672  14.532  65.071  1.00  0.00    -0.444 A  
ENDBRANCH   4   5
ENDBRANCH   3   4
ENDBRANCH   2   3
BRANCH   2  11
HETATM   11  N   UNL     1      -8.704   8.531  68.203  1.00  0.00    -0.141 NA 
HETATM   12  H   UNL     1      -8.111   7.764  67.886  1.00  0.00     0.000 HD 
BRANCH  11  13
HETATM   13  C   UNL     1      -7.912   9.522  68.945  1.00  0.00    -0.091 C  
BRANCH  13  14
HETATM   14  C   UNL     1      -6.752   8.861  69.739  1.00  0.00    -0.045 C  
HETATM   15  H   UNL     1      -5.304   9.482  70.907  1.00  0.00     0.000 HD 
HETATM   16  O   UNL     1      -6.014   9.885  70.421  1.00  0.00    -0.057 OA 
BRANCH  14  17
HETATM   17  C   UNL     1      -7.255   7.803  70.714  1.00  0.00    -0.057 A  
HETATM   18  C   UNL     1      -8.874   6.995  72.375  1.00  0.00    -0.141 A  
HETATM   19  H   UNL     1      -7.779   4.172  73.702  1.00  0.00     0.000 HD 
HETATM   20  C   UNL     1      -8.067   5.874  72.594  1.00  0.00    -0.105 A  
HETATM   21  C   UNL     1      -6.895   5.687  71.869  1.00  0.00    -0.067 A  
HETATM   22  O   UNL     1      -8.327   4.934  73.554  1.00  0.00    -0.106 OA 
HETATM   23  C   UNL     1      -6.482   6.655  70.948  1.00  0.00    -0.052 A  
HETATM   24  C   UNL     1      -8.455   7.953  71.433  1.00  0.00    -0.133 A  
BRANCH  18  25
HETATM   25  C   UNL     1     -10.146   7.265  73.106  1.00  0.00    -0.273 C  
HETATM   26  O   UNL     1     -10.865   8.217  72.828  1.00  0.00    -0.347 OA 
HETATM   27  H1  UNL     1     -11.384   6.587  74.604  1.00  0.00     0.000 HD 
HETATM   28  H2  UNL     1      -9.934   5.597  74.340  1.00  0.00     0.000 HD 
HETATM   29  N   UNL     1     -10.514   6.402  74.104  1.00  0.00    -0.300 N  
ENDBRANCH  18  25
ENDBRANCH  14  17
ENDBRANCH  13  14
ENDBRANCH  11  13
ENDBRANCH   2  11
TORSDOF 8
ENDMDL
MODEL      346
REMARK 921   NORMALIZED FREE ENERGY PREDICTED BY IDOCK:   -1.64 KCAL/MOL
REMARK 922        TOTAL FREE ENERGY PREDICTED BY IDOCK:   -3.96 KCAL/MOL
REMARK 923 INTER-LIGAND FREE ENERGY PREDICTED BY IDOCK:   -3.55 KCAL/MOL
REMARK 924 INTRA-LIGAND FREE ENERGY PREDICTED BY IDOCK:   -0.41 KCAL/MOL
REMARK 927      BINDING AFFINITY PREDICTED BY RF-SCORE:    0.00 PKD
ROOT
HETATM    1  C   UNL     1      -9.777   6.420  73.199  1.00  0.00    -0.169 C  
HETATM    2  C   UNL     1      -9.181   7.118  71.971  1.00  0.00    -0.134 C  
ENDROOT
BRANCH   2   3
HETATM    3  C   UNL     1      -7.924   6.343  71.513  1.00  0.00    -0.105 C  
BRANCH   3   4
HETATM    4  C   UNL     1      -7.424   5.323  72.542  1.00  0.00    -0.096 C  
BRANCH   4   5
HETATM    5  C   UNL     1      -6.981   4.034  71.886  1.00  0.00    -0.038 A  
HETATM    6  C   UNL     1      -7.885   3.249  71.158  1.00  0.00    -0.051 A  
HETATM    7  C   UNL     1      -7.467   2.061  70.557  1.00  0.00    -0.032 A  
HETATM    8  C   UNL     1      -5.647   3.613  71.985  1.00  0.00    -0.008 A  
HETATM    9  C   UNL     1      -6.140   1.646  70.670  1.00  0.00    -0.018 A  
HETATM   10  C   UNL     1      -5.230   2.424  71.383  1.00  0.00    -0.004 A  
ENDBRANCH   4   5
ENDBRANCH   3   4
ENDBRANCH   2   3
BRANCH   2  11
HETATM   11  N   UNL     1     -10.137   7.217  70.863  1.00  0.00    -0.189 NA 
HETATM   12  H   UNL     1     -11.094   7.237  71.215  1.00  0.00     0.000 HD 
BRANCH  11  13
HETATM   13  C   UNL     1      -9.896   8.355  69.964  1.00  0.00    -0.182 C  
BRANCH  13  14
HETATM   14  C   UNL     1      -8.861   8.013  68.859  1.00  0.00    -0.141 C  
HETATM   15  H   UNL     1      -8.411   6.438  67.780  1.00  0.00     0.000 HD 
HETATM   16  O   UNL     1      -9.045   6.648  68.457  1.00  0.00    -0.130 OA 
BRANCH  14  17
HETATM   17  C   UNL     1      -8.962   8.956  67.666  1.00  0.00    -0.141 A  
HETATM   18  C   UNL     1      -9.834  10.983  66.587  1.00  0.00    -0.235 A  
HETATM   19  H   UNL     1      -8.944  11.009  63.403  1.00  0.00     0.000 HD 
HETATM   20  C   UNL     1      -9.217  10.595  65.393  1.00  0.00    -0.193 A  
HETATM   21  C   UNL     1      -8.452   9.435  65.331  1.00  0.00    -0.159 A  
HETATM   22  O   UNL     1      -9.363  11.273  64.214  1.00  0.00    -0.196 OA 
HETATM   23  C   UNL     1      -8.342   8.611  66.455  1.00  0.00    -0.108 A  
HETATM   24  C   UNL     1      -9.700  10.154  67.716  1.00  0.00    -0.176 A  
BRANCH  18  25
HETATM   25  C   UNL     1     -10.664  12.214  66.737  1.00  0.00    -0.234 C  
HETATM   26  O   UNL     1     -11.859  12.163  67.003  1.00  0.00    -0.547 OA 
HETATM   27  H1  UNL     1     -10.618  14.270  66.689  1.00  0.00     0.000 HD 
HETATM   28  H2  UNL     1      -9.055  13.490  66.377  1.00  0.00     0.000 HD 
HETATM   29  N   UNL     1     -10.051  13.429  66.586  1.00  0.00    -0.269 N  
ENDBRANCH  18  25
ENDBRANCH  14  17
ENDBRANCH  13  14
ENDBRANCH  11  13
ENDBRANCH   2  11
TORSDOF 8
ENDMDL
MODEL      347
REMARK 921   NORMALIZED FREE ENERGY PREDICTED BY IDOCK:   -1.50 KCAL/MOL
REMARK 922        TOTAL FREE ENERGY PREDICTED BY IDOCK:   -3.75 KCAL/MOL
REMARK 923 INTER-LIGAND FREE ENERGY PREDICTED BY IDOCK:   -4.24 KCAL/MOL
REMARK 924 INTRA-LIGAND FREE ENERGY PREDICTED BY IDOCK:    0.48 KCAL/MOL
REMARK 927      BINDING AFFINITY PREDICTED BY RF-SCORE:    0.00 PKD
ROOT
HETATM    1  C   UNL     1     -10.427   8.827  66.516  1.00  0.00    -0.152 C  
HETATM    2  C   UNL     1      -8.992   8.634  67.021  1.00  0.00    -0.133 C  
ENDROOT
BRANCH   2   3
HETATM    3  C   UNL     1      -8.389  10.017  67.360  1.00  0.00    -0.118 C  
BRANCH   3   4
HETATM    4  C   UNL     1      -7.599  10.641  66.205  1.00  0.00    -0.138 C  
BRANCH   4   5
HETATM    5  C   UNL     1      -8.208  10.307  64.862  1.00  0.00    -0.157 A  
HETATM    6  C   UNL     1      -9.359  10.966  64.409  1.00  0.00    -0.256 A  
HETATM    7  C   UNL     1      -9.914  10.650  63.168  1.00  0.00    -0.286 A  
HETATM    8  C   UNL     1      -7.617   9.337  64.040  1.00  0.00    -0.113 A  
HETATM    9  C   UNL     1      -9.324   9.676  62.363  1.00  0.00    -0.142 A  
HETATM   10  C   UNL     1      -8.173   9.021  62.799  1.00  0.00    -0.184 A  
ENDBRANCH   4   5
ENDBRANCH   3   4
ENDBRANCH   2   3
BRANCH   2  11
HETATM   11  N   UNL     1      -8.924   7.759  68.197  1.00  0.00    -0.128 NA 
HETATM   12  H   UNL     1      -8.762   6.792  67.916  1.00  0.00     0.000 HD 
BRANCH  11  13
HETATM   13  C   UNL     1      -7.932   8.178  69.198  1.00  0.00    -0.113 C  
BRANCH  13  14
HETATM   14  C   UNL     1      -8.066   7.374  70.520  1.00  0.00    -0.104 C  
HETATM   15  H   UNL     1      -7.274   7.456  72.312  1.00  0.00     0.000 HD 
HETATM   16  O   UNL     1      -7.193   7.948  71.503  1.00  0.00    -0.061 OA 
BRANCH  14  17
HETATM   17  C   UNL     1      -9.505   7.328  71.020  1.00  0.00    -0.158 A  
HETATM   18  C   UNL     1     -11.629   8.424  71.582  1.00  0.00    -0.348 A  
HETATM   19  H   UNL     1     -13.651   6.242  73.024  1.00  0.00     0.000 HD 
HETATM   20  C   UNL     1     -12.111   7.206  72.074  1.00  0.00    -0.292 A  
HETATM   21  C   UNL     1     -11.333   6.056  72.011  1.00  0.00    -0.345 A  
HETATM   22  O   UNL     1     -13.324   7.070  72.691  1.00  0.00     0.491 OA 
HETATM   23  C   UNL     1     -10.031   6.120  71.505  1.00  0.00    -0.211 A  
HETATM   24  C   UNL     1     -10.324   8.471  71.060  1.00  0.00    -0.261 A  
BRANCH  18  25
HETATM   25  C   UNL     1     -12.403   9.701  71.607  1.00  0.00    -0.404 C  
HETATM   26  O   UNL     1     -11.901  10.769  71.282  1.00  0.00    -0.268 OA 
HETATM   27  H1  UNL     1     -14.245  10.525  72.009  1.00  0.00     0.000 HD 
HETATM   28  H2  UNL     1     -14.153   8.769  72.254  1.00  0.00     0.000 HD 
HETATM   29  N   UNL     1     -13.716   9.652  71.992  1.00  0.00    -0.357 N  
ENDBRANCH  18  25
ENDBRANCH  14  17
ENDBRANCH  13  14
ENDBRANCH  11  13
ENDBRANCH   2  11
TORSDOF 8
ENDMDL
MODEL      348
REMARK 921   NORMALIZED FREE ENERGY PREDICTED BY IDOCK:   -1.29 KCAL/MOL
REMARK 922        TOTAL FREE ENERGY PREDICTED BY IDOCK:   -3.45 KCAL/MOL
REMARK 923 INTER-LIGAND FREE ENERGY PREDICTED BY IDOCK:   -4.10 KCAL/MOL
REMARK 924 INTRA-LIGAND FREE ENERGY PREDICTED BY IDOCK:    0.65 KCAL/MOL
REMARK 927      BINDING AFFINITY PREDICTED BY RF-SCORE:    0.00 PKD
ROOT
HETATM    1  C   UNL     1     -10.269   9.328  66.359  1.00  0.00    -0.298 C  
HETATM    2  C   UNL     1      -9.439  10.266  67.243  1.00  0.00    -0.150 C  
ENDROOT
BRANCH   2   3
HETATM    3  C   UNL     1      -9.786  11.730  66.888  1.00  0.00    -0.212 C  
BRANCH   3   4
HETATM    4  C   UNL     1      -8.732  12.741  67.353  1.00  0.00    -0.196 C  
BRANCH   4   5
HETATM    5  C   UNL     1      -9.365  13.981  67.942  1.00  0.00    -0.206 A  
HETATM    6  C   UNL     1     -10.477  13.888  68.790  1.00  0.00    -0.229 A  
HETATM    7  C   UNL     1     -11.055  15.039  69.329  1.00  0.00    -0.280 A  
HETATM    8  C   UNL     1      -8.835  15.248  67.659  1.00  0.00    -0.180 A  
HETATM    9  C   UNL     1     -10.525  16.295  69.033  1.00  0.00    -0.276 A  
HETATM   10  C   UNL     1      -9.414  16.398  68.198  1.00  0.00    -0.213 A  
ENDBRANCH   4   5
ENDBRANCH   3   4
ENDBRANCH   2   3
BRANCH   2  11
HETATM   11  N   UNL     1      -9.664  10.034  68.675  1.00  0.00    -0.154 NA 
HETATM   12  H   UNL     1     -10.028  10.876  69.122  1.00  0.00     0.000 HD 
BRANCH  11  13
HETATM   13  C   UNL     1     -10.530   8.882  68.965  1.00  0.00    -0.214 C  
BRANCH  13  14
HETATM   14  C   UNL     1      -9.712   7.578  69.170  1.00  0.00    -0.166 C  
HETATM   15  H   UNL     1      -9.771   6.049  70.396  1.00  0.00     0.000 HD 
HETATM   16  O   UNL     1     -10.271   6.847  70.270  1.00  0.00    -0.189 OA 
BRANCH  14  17
HETATM   17  C   UNL     1      -9.666   6.725  67.908  1.00  0.00    -0.138 A  
HETATM   18  C   UNL     1      -8.775   6.224  65.674  1.00  0.00    -0.122 A  
HETATM   19  H   UNL     1     -10.516   3.761  64.319  1.00  0.00     0.000 HD 
HETATM   20  C   UNL     1      -9.714   5.194  65.548  1.00  0.00    -0.010 A  
HETATM   21  C   UNL     1     -10.591   4.898  66.586  1.00  0.00    -0.200 A  
HETATM   22  O   UNL     1      -9.878   4.461  64.405  1.00  0.00    -0.125 OA 
HETATM   23  C   UNL     1     -10.580   5.671  67.751  1.00  0.00    -0.274 A  
HETATM   24  C   UNL     1      -8.763   6.982  66.859  1.00  0.00    -0.122 A  
BRANCH  18  25
HETATM   25  C   UNL     1      -7.797   6.599  64.611  1.00  0.00    -0.116 C  
HETATM   26  O   UNL     1      -6.590   6.451  64.759  1.00  0.00    -0.037 OA 
HETATM   27  H1  UNL     1      -7.615   7.363  62.710  1.00  0.00     0.000 HD 
HETATM   28  H2  UNL     1      -9.286   7.225  63.292  1.00  0.00     0.000 HD 
HETATM   29  N   UNL     1      -8.284   7.106  63.437  1.00  0.00     0.012 N  
ENDBRANCH  18  25
ENDBRANCH  14  17
ENDBRANCH  13  14
ENDBRANCH  11  13
ENDBRANCH   2  11
TORSDOF 8
ENDMDL
MODEL      349
REMARK 921   NORMALIZED FREE ENERGY PREDICTED BY IDOCK:   -1.26 KCAL/MOL
REMARK 922        TOTAL FREE ENERGY PREDICTED BY IDOCK:   -3.40 KCAL/MOL
REMARK 923 INTER-LIGAND FREE ENERGY PREDICTED BY IDOCK:   -3.39 KCAL/MOL
REMARK 924 INTRA-LIGAND FREE ENERGY PREDICTED BY IDOCK:   -0.02 KCAL/MOL
REMARK 927      BINDING AFFINITY PREDICTED BY RF-SCORE:    0.00 PKD
ROOT
HETATM    1  C   UNL     1     -10.776   6.332  73.321  1.00  0.00    -0.284 C  
HETATM    2  C   UNL     1     -10.194   7.083  72.117  1.00  0.00    -0.186 C  
ENDROOT
BRANCH   2   3
HETATM    3  C   UNL     1      -9.002   6.278  71.551  1.00  0.00    -0.142 C  
BRANCH   3   4
HETATM    4  C   UNL     1      -8.521   5.158  72.481  1.00  0.00    -0.121 C  
BRANCH   4   5
HETATM    5  C   UNL     1      -8.121   3.920  71.709  1.00  0.00    -0.078 A  
HETATM    6  C   UNL     1      -8.309   3.844  70.323  1.00  0.00    -0.083 A  
HETATM    7  C   UNL     1      -7.936   2.698  69.619  1.00  0.00    -0.053 A  
HETATM    8  C   UNL     1      -7.538   2.831  72.373  1.00  0.00    -0.053 A  
HETATM    9  C   UNL     1      -7.366   1.617  70.291  1.00  0.00    -0.033 A  
HETATM   10  C   UNL     1      -7.165   1.686  71.668  1.00  0.00    -0.031 A  
ENDBRANCH   4   5
ENDBRANCH   3   4
ENDBRANCH   2   3
BRANCH   2  11
HETATM   11  N   UNL     1     -11.189   7.309  71.063  1.00  0.00    -0.259 NA 
HETATM   12  H   UNL     1     -11.956   7.883  71.411  1.00  0.00     0.000 HD 
BRANCH  11  13
HETATM   13  C   UNL     1     -10.633   7.885  69.830  1.00  0.00    -0.242 C  
BRANCH  13  14
HETATM   14  C   UNL     1     -10.249   9.379  70.008  1.00  0.00    -0.229 C  
HETATM   15  H   UNL     1      -9.470  10.479  71.432  1.00  0.00     0.000 HD 
HETATM   16  O   UNL     1      -9.704   9.565  71.323  1.00  0.00    -0.207 OA 
BRANCH  14  17
HETATM   17  C   UNL     1      -9.276   9.854  68.936  1.00  0.00    -0.160 A  
HETATM   18  C   UNL     1      -8.520   9.955  66.601  1.00  0.00    -0.126 A  
HETATM   19  H   UNL     1      -5.579  11.459  66.457  1.00  0.00     0.000 HD 
HETATM   20  C   UNL     1      -7.377  10.647  67.017  1.00  0.00    -0.102 A  
HETATM   21  C   UNL     1      -7.192  10.977  68.356  1.00  0.00    -0.085 A  
HETATM   22  O   UNL     1      -6.355  10.989  66.175  1.00  0.00    -0.132 OA 
HETATM   23  C   UNL     1      -8.126  10.566  69.312  1.00  0.00    -0.152 A  
HETATM   24  C   UNL     1      -9.460   9.563  67.572  1.00  0.00    -0.155 A  
BRANCH  18  25
HETATM   25  C   UNL     1      -8.795   9.570  65.186  1.00  0.00    -0.186 C  
HETATM   26  O   UNL     1      -8.907   8.400  64.843  1.00  0.00    -0.085 OA 
HETATM   27  H1  UNL     1      -9.129  10.306  63.294  1.00  0.00     0.000 HD 
HETATM   28  H2  UNL     1      -8.863  11.549  64.533  1.00  0.00     0.000 HD 
HETATM   29  N   UNL     1      -8.941  10.569  64.262  1.00  0.00    -0.205 N  
ENDBRANCH  18  25
ENDBRANCH  14  17
ENDBRANCH  13  14
ENDBRANCH  11  13
ENDBRANCH   2  11
TORSDOF 8
ENDMDL
MODEL      350
REMARK 921   NORMALIZED FREE ENERGY PREDICTED BY IDOCK:   -1.20 KCAL/MOL
REMARK 922        TOTAL FREE ENERGY PREDICTED BY IDOCK:   -3.31 KCAL/MOL
REMARK 923 INTER-LIGAND FREE ENERGY PREDICTED BY IDOCK:   -2.65 KCAL/MOL
REMARK 924 INTRA-LIGAND FREE ENERGY PREDICTED BY IDOCK:   -0.66 KCAL/MOL
REMARK 927      BINDING AFFINITY PREDICTED BY RF-SCORE:    0.00 PKD
ROOT
HETATM    1  C   UNL     1      -9.770   6.432  73.247  1.00  0.00    -0.174 C  
HETATM    2  C   UNL     1      -9.239   7.179  72.018  1.00  0.00    -0.134 C  
ENDROOT
BRANCH   2   3
HETATM    3  C   UNL     1      -8.182   6.299  71.312  1.00  0.00    -0.122 C  
BRANCH   3   4
HETATM    4  C   UNL     1      -7.723   5.100  72.151  1.00  0.00    -0.099 C  
BRANCH   4   5
HETATM    5  C   UNL     1      -7.618   3.841  71.321  1.00  0.00    -0.055 A  
HETATM    6  C   UNL     1      -6.910   3.833  70.112  1.00  0.00    -0.034 A  
HETATM    7  C   UNL     1      -6.819   2.666  69.352  1.00  0.00    -0.033 A  
HETATM    8  C   UNL     1      -8.219   2.653  71.760  1.00  0.00    -0.061 A  
HETATM    9  C   UNL     1      -7.429   1.492  69.794  1.00  0.00    -0.036 A  
HETATM   10  C   UNL     1      -8.128   1.486  70.999  1.00  0.00    -0.052 A  
ENDBRANCH   4   5
ENDBRANCH   3   4
ENDBRANCH   2   3
BRANCH   2  11
HETATM   11  N   UNL     1     -10.304   7.533  71.073  1.00  0.00    -0.199 NA 
HETATM   12  H   UNL     1     -11.192   7.647  71.560  1.00  0.00     0.000 HD 
BRANCH  11  13
HETATM   13  C   UNL     1     -10.009   8.718  70.255  1.00  0.00    -0.186 C  
BRANCH  13  14
HETATM   14  C   UNL     1     -11.299   9.354  69.668  1.00  0.00     0.008 C  
HETATM   15  H   UNL     1     -13.131   9.668  70.292  1.00  0.00     0.000 HD 
HETATM   16  O   UNL     1     -12.342   9.279  70.650  1.00  0.00    -0.158 OA 
BRANCH  14  17
HETATM   17  C   UNL     1     -11.073  10.791  69.213  1.00  0.00    -0.312 A  
HETATM   18  C   UNL     1      -9.594  12.679  68.680  1.00  0.00    -0.028 A  
HETATM   19  H   UNL     1     -11.413  15.380  68.110  1.00  0.00     0.000 HD 
HETATM   20  C   UNL     1     -10.720  13.488  68.493  1.00  0.00    -0.255 A  
HETATM   21  C   UNL     1     -12.002  12.965  68.621  1.00  0.00    -0.282 A  
HETATM   22  O   UNL     1     -10.648  14.830  68.238  1.00  0.00    -0.234 OA 
HETATM   23  C   UNL     1     -12.178  11.630  68.997  1.00  0.00    -0.162 A  
HETATM   24  C   UNL     1      -9.785  11.332  69.042  1.00  0.00    -0.072 A  
BRANCH  18  25
HETATM   25  C   UNL     1      -8.187  13.160  68.556  1.00  0.00    -0.076 C  
HETATM   26  O   UNL     1      -7.519  13.472  69.533  1.00  0.00     0.224 OA 
HETATM   27  H1  UNL     1      -6.677  13.562  67.218  1.00  0.00     0.000 HD 
HETATM   28  H2  UNL     1      -8.176  12.966  66.479  1.00  0.00     0.000 HD 
HETATM   29  N   UNL     1      -7.639  13.233  67.303  1.00  0.00    -0.117 N  
ENDBRANCH  18  25
ENDBRANCH  14  17
ENDBRANCH  13  14
ENDBRANCH  11  13
ENDBRANCH   2  11
TORSDOF 8
ENDMDL
MODEL      351
REMARK 921   NORMALIZED FREE ENERGY PREDICTED BY IDOCK:   -1.13 KCAL/MOL
REMARK 922        TOTAL FREE ENERGY PREDICTED BY IDOCK:   -3.21 KCAL/MOL
REMARK 923 INTER-LIGAND FREE ENERGY PREDICTED BY IDOCK:   -2.59 KCAL/MOL
REMARK 924 INTRA-LIGAND FREE ENERGY PREDICTED BY IDOCK:   -0.62 KCAL/MOL
REMARK 927      BINDING AFFINITY PREDICTED BY RF-SCORE:    0.00 PKD
ROOT
HETATM    1  C   UNL     1     -10.278   9.133  66.373  1.00  0.00    -0.300 C  
HETATM    2  C   UNL     1      -9.126   9.752  67.174  1.00  0.00    -0.135 C  
ENDROOT
BRANCH   2   3
HETATM    3  C   UNL     1      -8.899  11.202  66.689  1.00  0.00    -0.168 C  
BRANCH   3   4
HETATM    4  C   UNL     1      -7.453  11.684  66.852  1.00  0.00    -0.131 C  
BRANCH   4   5
HETATM    5  C   UNL     1      -7.389  13.084  67.421  1.00  0.00    -0.122 A  
HETATM    6  C   UNL     1      -8.185  13.454  68.513  1.00  0.00    -0.093 A  
HETATM    7  C   UNL     1      -8.119  14.748  69.032  1.00  0.00    -0.145 A  
HETATM    8  C   UNL     1      -6.514  14.031  66.871  1.00  0.00     1.419 A  
HETATM    9  C   UNL     1      -7.253  15.686  68.470  1.00  0.00    -0.120 A  
HETATM   10  C   UNL     1      -6.449  15.325  67.390  1.00  0.00    -0.080 A  
ENDBRANCH   4   5
ENDBRANCH   3   4
ENDBRANCH   2   3
BRANCH   2  11
HETATM   11  N   UNL     1      -9.380   9.744  68.619  1.00  0.00    -0.144 NA 
HETATM   12  H   UNL     1      -9.224  10.670  69.016  1.00  0.00     0.000 HD 
BRANCH  11  13
HETATM   13  C   UNL     1     -10.712   9.243  68.990  1.00  0.00    -0.167 C  
BRANCH  13  14
HETATM   14  C   UNL     1     -11.029   9.492  70.489  1.00  0.00    -0.288 C  
HETATM   15  H   UNL     1     -12.604  10.011  71.535  1.00  0.00     0.000 HD 
HETATM   16  O   UNL     1     -12.410   9.859  70.618  1.00  0.00    -0.273 OA 
BRANCH  14  17
HETATM   17  C   UNL     1     -10.699   8.281  71.354  1.00  0.00    -0.282 A  
HETATM   18  C   UNL     1      -9.088   6.831  72.511  1.00  0.00    -0.142 A  
HETATM   19  H   UNL     1     -10.652   4.174  73.703  1.00  0.00     0.000 HD 
HETATM   20  C   UNL     1     -10.132   5.961  72.842  1.00  0.00    -0.181 A  
HETATM   21  C   UNL     1     -11.443   6.251  72.478  1.00  0.00    -0.300 A  
HETATM   22  O   UNL     1      -9.943   4.764  73.477  1.00  0.00    -0.145 OA 
HETATM   23  C   UNL     1     -11.722   7.393  71.722  1.00  0.00    -0.319 A  
HETATM   24  C   UNL     1      -9.385   7.987  71.765  1.00  0.00    -0.218 A  
BRANCH  18  25
HETATM   25  C   UNL     1      -7.659   6.596  72.869  1.00  0.00    -0.095 C  
HETATM   26  O   UNL     1      -7.053   7.333  73.637  1.00  0.00    -0.075 OA 
HETATM   27  H1  UNL     1      -6.050   5.349  72.570  1.00  0.00     0.000 HD 
HETATM   28  H2  UNL     1      -7.520   4.879  71.693  1.00  0.00     0.000 HD 
HETATM   29  N   UNL     1      -7.027   5.510  72.325  1.00  0.00    -0.079 N  
ENDBRANCH  18  25
ENDBRANCH  14  17
ENDBRANCH  13  14
ENDBRANCH  11  13
ENDBRANCH   2  11
TORSDOF 8
ENDMDL
MODEL      352
REMARK 921   NORMALIZED FREE ENERGY PREDICTED BY IDOCK:   -0.90 KCAL/MOL
REMARK 922        TOTAL FREE ENERGY PREDICTED BY IDOCK:   -2.87 KCAL/MOL
REMARK 923 INTER-LIGAND FREE ENERGY PREDICTED BY IDOCK:   -1.94 KCAL/MOL
REMARK 924 INTRA-LIGAND FREE ENERGY PREDICTED BY IDOCK:   -0.94 KCAL/MOL
REMARK 927      BINDING AFFINITY PREDICTED BY RF-SCORE:    0.00 PKD
ROOT
HETATM    1  C   UNL     1     -12.635  16.956  68.602  1.00  0.00     3.009 C  
HETATM    2  C   UNL     1     -11.200  17.052  68.069  1.00  0.00    -0.016 C  
ENDROOT
BRANCH   2   3
HETATM    3  C   UNL     1     -10.994  15.970  66.985  1.00  0.00    -0.154 C  
BRANCH   3   4
HETATM    4  C   UNL     1     -11.461  14.575  67.413  1.00  0.00    -0.385 C  
BRANCH   4   5
HETATM    5  C   UNL     1     -11.071  13.517  66.405  1.00  0.00    -0.311 A  
HETATM    6  C   UNL     1      -9.801  12.927  66.436  1.00  0.00    -0.268 A  
HETATM    7  C   UNL     1      -9.450  11.952  65.501  1.00  0.00    -0.152 A  
HETATM    8  C   UNL     1     -11.987  13.100  65.429  1.00  0.00    -0.448 A  
HETATM    9  C   UNL     1     -10.365  11.551  64.528  1.00  0.00    -0.354 A  
HETATM   10  C   UNL     1     -11.635  12.125  64.494  1.00  0.00    -0.403 A  
ENDBRANCH   4   5
ENDBRANCH   3   4
ENDBRANCH   2   3
BRANCH   2  11
HETATM   11  N   UNL     1     -10.894  18.377  67.516  1.00  0.00    -0.357 NA 
HETATM   12  H   UNL     1     -10.987  19.095  68.234  1.00  0.00     0.000 HD 
BRANCH  11  13
HETATM   13  C   UNL     1      -9.578  18.465  66.867  1.00  0.00    -0.303 C  
BRANCH  13  14
HETATM   14  C   UNL     1      -8.441  18.722  67.893  1.00  0.00    -0.292 C  
HETATM   15  H   UNL     1      -8.310  19.464  69.703  1.00  0.00     0.000 HD 
HETATM   16  O   UNL     1      -9.005  19.306  69.076  1.00  0.00    -0.338 OA 
BRANCH  14  17
HETATM   17  C   UNL     1      -7.667  17.451  68.222  1.00  0.00    -0.241 A  
HETATM   18  C   UNL     1      -6.214  16.131  69.698  1.00  0.00    -0.191 A  
HETATM   19  H   UNL     1      -5.322  13.342  68.165  1.00  0.00     0.000 HD 
HETATM   20  C   UNL     1      -6.151  15.133  68.720  1.00  0.00    -0.087 A  
HETATM   21  C   UNL     1      -6.857  15.259  67.528  1.00  0.00    -0.218 A  
HETATM   22  O   UNL     1      -5.365  14.019  68.829  1.00  0.00    -0.078 OA 
HETATM   23  C   UNL     1      -7.595  16.419  67.273  1.00  0.00    -0.198 A  
HETATM   24  C   UNL     1      -6.975  17.285  69.436  1.00  0.00    -0.123 A  
BRANCH  18  25
HETATM   25  C   UNL     1      -5.493  16.069  71.003  1.00  0.00     0.044 C  
HETATM   26  O   UNL     1      -5.211  15.005  71.539  1.00  0.00    -0.145 OA 
HETATM   27  H1  UNL     1      -4.636  17.206  72.488  1.00  0.00     0.000 HD 
HETATM   28  H2  UNL     1      -5.345  18.144  71.158  1.00  0.00     0.000 HD 
HETATM   29  N   UNL     1      -5.129  17.248  71.596  1.00  0.00     0.068 N  
ENDBRANCH  18  25
ENDBRANCH  14  17
ENDBRANCH  13  14
ENDBRANCH  11  13
ENDBRANCH   2  11
TORSDOF 8
ENDMDL
MODEL      353
REMARK 921   NORMALIZED FREE ENERGY PREDICTED BY IDOCK:   -0.45 KCAL/MOL
REMARK 922        TOTAL FREE ENERGY PREDICTED BY IDOCK:   -2.21 KCAL/MOL
REMARK 923 INTER-LIGAND FREE ENERGY PREDICTED BY IDOCK:   -2.42 KCAL/MOL
REMARK 924 INTRA-LIGAND FREE ENERGY PREDICTED BY IDOCK:    0.21 KCAL/MOL
REMARK 927      BINDING AFFINITY PREDICTED BY RF-SCORE:    0.00 PKD
ROOT
HETATM    1  C   UNL     1      -9.965   7.219  68.751  1.00  0.00    -0.167 C  
HETATM    2  C   UNL     1      -8.584   6.566  68.880  1.00  0.00    -0.125 C  
ENDROOT
BRANCH   2   3
HETATM    3  C   UNL     1      -8.350   6.176  70.357  1.00  0.00    -0.125 C  
BRANCH   3   4
HETATM    4  C   UNL     1      -9.643   5.905  71.133  1.00  0.00    -0.198 C  
BRANCH   4   5
HETATM    5  C   UNL     1      -9.406   5.009  72.328  1.00  0.00    -0.161 A  
HETATM    6  C   UNL     1      -8.563   5.412  73.373  1.00  0.00    -0.116 A  
HETATM    7  C   UNL     1      -8.348   4.578  74.471  1.00  0.00    -0.097 A  
HETATM    8  C   UNL     1     -10.041   3.762  72.414  1.00  0.00    -0.237 A  
HETATM    9  C   UNL     1      -8.978   3.335  74.542  1.00  0.00    -0.098 A  
HETATM   10  C   UNL     1      -9.826   2.929  73.513  1.00  0.00    -0.155 A  
ENDBRANCH   4   5
ENDBRANCH   3   4
ENDBRANCH   2   3
BRANCH   2  11
HETATM   11  N   UNL     1      -8.440   5.384  68.023  1.00  0.00    -0.098 NA 
HETATM   12  H   UNL     1      -7.956   4.637  68.521  1.00  0.00     0.000 HD 
BRANCH  11  13
HETATM   13  C   UNL     1      -9.707   4.893  67.464  1.00  0.00    -0.164 C  
BRANCH  13  14
HETATM   14  C   UNL     1      -9.857   5.254  65.961  1.00  0.00    -0.132 C  
HETATM   15  H   UNL     1     -11.333   5.728  64.760  1.00  0.00     0.000 HD 
HETATM   16  O   UNL     1     -11.241   5.507  65.679  1.00  0.00     0.451 OA 
BRANCH  14  17
HETATM   17  C   UNL     1      -8.988   6.443  65.567  1.00  0.00     0.038 A  
HETATM   18  C   UNL     1      -8.620   8.860  65.328  1.00  0.00    -0.209 A  
HETATM   19  H   UNL     1      -5.768   9.391  63.743  1.00  0.00     0.000 HD 
HETATM   20  C   UNL     1      -7.396   8.596  64.705  1.00  0.00    -0.094 A  
HETATM   21  C   UNL     1      -6.945   7.291  64.544  1.00  0.00    -0.052 A  
HETATM   22  O   UNL     1      -6.599   9.570  64.166  1.00  0.00    -0.092 OA 
HETATM   23  C   UNL     1      -7.745   6.220  64.955  1.00  0.00    -0.101 A  
HETATM   24  C   UNL     1      -9.407   7.774  65.753  1.00  0.00     0.068 A  
BRANCH  18  25
HETATM   25  C   UNL     1      -9.171  10.230  65.543  1.00  0.00    -0.190 C  
HETATM   26  O   UNL     1      -9.215  11.060  64.644  1.00  0.00    -0.204 OA 
HETATM   27  H1  UNL     1     -10.029  11.481  66.933  1.00  0.00     0.000 HD 
HETATM   28  H2  UNL     1      -9.635   9.861  67.543  1.00  0.00     0.000 HD 
HETATM   29  N   UNL     1      -9.653  10.544  66.786  1.00  0.00    -0.166 N  
ENDBRANCH  18  25
ENDBRANCH  14  17
ENDBRANCH  13  14
ENDBRANCH  11  13
ENDBRANCH   2  11
TORSDOF 8
ENDMDL
MODEL      354
REMARK 921   NORMALIZED FREE ENERGY PREDICTED BY IDOCK:   -0.45 KCAL/MOL
REMARK 922        TOTAL FREE ENERGY PREDICTED BY IDOCK:   -2.21 KCAL/MOL
REMARK 923 INTER-LIGAND FREE ENERGY PREDICTED BY IDOCK:   -2.46 KCAL/MOL
REMARK 924 INTRA-LIGAND FREE ENERGY PREDICTED BY IDOCK:    0.25 KCAL/MOL
REMARK 927      BINDING AFFINITY PREDICTED BY RF-SCORE:    0.00 PKD
ROOT
HETATM    1  C   UNL     1      -9.221   7.883  69.435  1.00  0.00    -0.145 C  
HETATM    2  C   UNL     1      -7.821   7.334  69.133  1.00  0.00    -0.117 C  
ENDROOT
BRANCH   2   3
HETATM    3  C   UNL     1      -7.219   6.753  70.433  1.00  0.00    -0.076 C  
BRANCH   3   4
HETATM    4  C   UNL     1      -8.272   6.253  71.427  1.00  0.00    -0.122 C  
BRANCH   4   5
HETATM    5  C   UNL     1      -7.711   5.202  72.359  1.00  0.00    -0.097 A  
HETATM    6  C   UNL     1      -8.274   4.987  73.624  1.00  0.00    -0.106 A  
HETATM    7  C   UNL     1      -7.750   4.015  74.477  1.00  0.00    -0.079 A  
HETATM    8  C   UNL     1      -6.623   4.413  71.961  1.00  0.00    -0.023 A  
HETATM    9  C   UNL     1      -6.660   3.243  74.074  1.00  0.00    -0.034 A  
HETATM   10  C   UNL     1      -6.099   3.441  72.815  1.00  0.00    -0.009 A  
ENDBRANCH   4   5
ENDBRANCH   3   4
ENDBRANCH   2   3
BRANCH   2  11
HETATM   11  N   UNL     1      -7.836   6.305  68.087  1.00  0.00    -0.103 NA 
HETATM   12  H   UNL     1      -7.111   5.609  68.259  1.00  0.00     0.000 HD 
BRANCH  11  13
HETATM   13  C   UNL     1      -9.142   5.655  67.906  1.00  0.00    -0.107 C  
BRANCH  13  14
HETATM   14  C   UNL     1      -9.900   6.209  66.669  1.00  0.00    -0.159 C  
HETATM   15  H   UNL     1     -11.589   7.152  66.351  1.00  0.00     0.000 HD 
HETATM   16  O   UNL     1     -11.125   6.813  67.108  1.00  0.00    -0.384 OA 
BRANCH  14  17
HETATM   17  C   UNL     1      -9.054   7.195  65.873  1.00  0.00    -0.054 A  
HETATM   18  C   UNL     1      -7.045   7.758  64.576  1.00  0.00    -0.065 A  
HETATM   19  H   UNL     1      -7.016  11.002  63.938  1.00  0.00     0.000 HD 
HETATM   20  C   UNL     1      -7.471   9.089  64.522  1.00  0.00    -0.104 A  
HETATM   21  C   UNL     1      -8.680   9.473  65.093  1.00  0.00    -0.200 A  
HETATM   22  O   UNL     1      -6.726  10.097  63.974  1.00  0.00    -0.129 OA 
HETATM   23  C   UNL     1      -9.457   8.536  65.780  1.00  0.00    -0.134 A  
HETATM   24  C   UNL     1      -7.845   6.821  65.256  1.00  0.00    -0.121 A  
BRANCH  18  25
HETATM   25  C   UNL     1      -5.767   7.264  63.984  1.00  0.00    -0.033 C  
HETATM   26  O   UNL     1      -5.166   7.893  63.122  1.00  0.00    -0.048 OA 
HETATM   27  H1  UNL     1      -4.384   5.742  64.040  1.00  0.00     0.000 HD 
HETATM   28  H2  UNL     1      -5.739   5.549  65.170  1.00  0.00     0.000 HD 
HETATM   29  N   UNL     1      -5.258   6.080  64.444  1.00  0.00    -0.016 N  
ENDBRANCH  18  25
ENDBRANCH  14  17
ENDBRANCH  13  14
ENDBRANCH  11  13
ENDBRANCH   2  11
TORSDOF 8
ENDMDL
MODEL      355
REMARK 921   NORMALIZED FREE ENERGY PREDICTED BY IDOCK:    5.90 KCAL/MOL
REMARK 922        TOTAL FREE ENERGY PREDICTED BY IDOCK:    7.10 KCAL/MOL
REMARK 923 INTER-LIGAND FREE ENERGY PREDICTED BY IDOCK:    4.83 KCAL/MOL
REMARK 924 INTRA-LIGAND FREE ENERGY PREDICTED BY IDOCK:    2.27 KCAL/MOL
REMARK 927      BINDING AFFINITY PREDICTED BY RF-SCORE:    0.00 PKD
ROOT
HETATM    1  C   UNL     1     -12.870  17.125  68.607  1.00  0.00     4.784 C  
HETATM    2  C   UNL     1     -11.485  17.618  68.171  1.00  0.00     0.802 C  
ENDROOT
BRANCH   2   3
HETATM    3  C   UNL     1     -11.183  17.079  66.754  1.00  0.00     0.506 C  
BRANCH   3   4
HETATM    4  C   UNL     1     -11.440  15.575  66.601  1.00  0.00     0.068 C  
BRANCH   4   5
HETATM    5  C   UNL     1     -11.189  14.829  67.892  1.00  0.00    -0.318 A  
HETATM    6  C   UNL     1     -11.066  15.515  69.108  1.00  0.00    -0.272 A  
HETATM    7  C   UNL     1     -10.834  14.818  70.295  1.00  0.00    -0.073 A  
HETATM    8  C   UNL     1     -11.090  13.430  67.892  1.00  0.00    -0.289 A  
HETATM    9  C   UNL     1     -10.728  13.427  70.281  1.00  0.00     1.333 A  
HETATM   10  C   UNL     1     -10.857  12.734  69.079  1.00  0.00    -0.192 A  
ENDBRANCH   4   5
ENDBRANCH   3   4
ENDBRANCH   2   3
BRANCH   2  11
HETATM   11  N   UNL     1     -11.381  19.081  68.180  1.00  0.00     0.172 NA 
HETATM   12  H   UNL     1     -11.492  19.442  69.127  1.00  0.00     0.000 HD 
BRANCH  11  13
HETATM   13  C   UNL     1     -10.146  19.598  67.573  1.00  0.00    -0.409 C  
BRANCH  13  14
HETATM   14  C   UNL     1      -8.916  19.398  68.499  1.00  0.00    -0.370 C  
HETATM   15  H   UNL     1      -8.624  18.970  70.390  1.00  0.00     0.000 HD 
HETATM   16  O   UNL     1      -9.376  19.092  69.823  1.00  0.00     0.273 OA 
BRANCH  14  17
HETATM   17  C   UNL     1      -7.977  18.316  67.979  1.00  0.00    -0.273 A  
HETATM   18  C   UNL     1      -7.091  16.025  68.022  1.00  0.00    -0.143 A  
HETATM   19  H   UNL     1      -4.486  15.810  65.999  1.00  0.00     0.000 HD 
HETATM   20  C   UNL     1      -6.132  16.394  67.072  1.00  0.00    -0.094 A  
HETATM   21  C   UNL     1      -6.108  17.682  66.548  1.00  0.00    -0.236 A  
HETATM   22  O   UNL     1      -5.137  15.560  66.644  1.00  0.00     0.414 OA 
HETATM   23  C   UNL     1      -7.012  18.642  67.013  1.00  0.00    -0.211 A  
HETATM   24  C   UNL     1      -8.006  16.996  68.468  1.00  0.00    -0.249 A  
BRANCH  18  25
HETATM   25  C   UNL     1      -7.188  14.665  68.628  1.00  0.00    -0.122 C  
HETATM   26  O   UNL     1      -7.792  13.752  68.079  1.00  0.00    -0.124 OA 
HETATM   27  H1  UNL     1      -6.628  13.515  70.239  1.00  0.00     0.000 HD 
HETATM   28  H2  UNL     1      -6.043  15.190  70.290  1.00  0.00     0.000 HD 
HETATM   29  N   UNL     1      -6.561  14.445  69.825  1.00  0.00    -0.146 N  
ENDBRANCH  18  25
ENDBRANCH  14  17
ENDBRANCH  13  14
ENDBRANCH  11  13
ENDBRANCH   2  11
TORSDOF 8
ENDMDL
