MODEL        1
REMARK 921   NORMALIZED FREE ENERGY PREDICTED BY IDOCK:   -6.11 KCAL/MOL
REMARK 922        TOTAL FREE ENERGY PREDICTED BY IDOCK:  -12.05 KCAL/MOL
REMARK 923 INTER-LIGAND FREE ENERGY PREDICTED BY IDOCK:   -9.69 KCAL/MOL
REMARK 924 INTRA-LIGAND FREE ENERGY PREDICTED BY IDOCK:   -2.37 KCAL/MOL
REMARK 927      BINDING AFFINITY PREDICTED BY RF-SCORE:    0.00 PKD
ROOT
HETATM    1  C   UNL     1      -9.832  19.371  68.025  1.00  0.00    -0.465 C  
HETATM    2  C   UNL     1     -10.688  18.351  67.299  1.00  0.00    -0.353 C  
ENDROOT
BRANCH   2   3
HETATM    3  O   UNL     1     -10.237  17.027  67.634  1.00  0.00    -0.295 OA 
BRANCH   3   4
HETATM    4  C   UNL     1      -9.603  16.368  66.634  1.00  0.00    -0.256 C  
HETATM    5  O   UNL     1      -9.779  16.570  65.440  1.00  0.00    -0.496 OA 
BRANCH   4   6
HETATM    6  C   UNL     1      -8.661  15.350  67.158  1.00  0.00    -0.243 C  
HETATM    7  C   UNL     1      -7.373  15.707  67.382  1.00  0.00    -0.204 C  
HETATM    8  C   UNL     1      -6.803  17.107  67.344  1.00  0.00    -0.179 C  
HETATM    9  N   UNL     1      -6.434  14.733  67.674  1.00  0.00    -0.239 NA 
HETATM   10  C   UNL     1      -6.649  13.373  67.528  1.00  0.00    -0.131 C  
HETATM   11  C   UNL     1      -5.397  12.526  67.527  1.00  0.00    -0.111 C  
HETATM   12  C   UNL     1      -7.913  12.896  67.391  1.00  0.00    -0.178 C  
HETATM   13  C   UNL     1      -9.100  13.884  67.360  1.00  0.00    -0.217 C  
BRANCH  12  14
HETATM   14  C   UNL     1      -8.117  11.421  67.263  1.00  0.00    -0.148 C  
HETATM   15  O   UNL     1      -7.689  10.750  66.335  1.00  0.00    -0.134 OA 
BRANCH  14  16
HETATM   16  O   UNL     1      -8.816  10.908  68.305  1.00  0.00    -0.129 OA 
BRANCH  16  17
HETATM   17  C   UNL     1      -9.394   9.610  68.070  1.00  0.00    -0.132 C  
HETATM   18  C   UNL     1     -10.622   9.681  67.172  1.00  0.00    -0.298 C  
ENDBRANCH  16  17
ENDBRANCH  14  16
ENDBRANCH  12  14
BRANCH  13  19
HETATM   19  C   UNL     1     -10.262  13.443  66.457  1.00  0.00    -0.282 A  
HETATM   20  C   UNL     1     -11.609  13.370  66.865  1.00  0.00    -0.404 A  
HETATM   21  C   UNL     1     -12.584  13.012  65.912  1.00  0.00    -0.180 A  
HETATM   22  C   UNL     1      -9.941  13.140  65.109  1.00  0.00    -0.170 A  
HETATM   23  C   UNL     1     -10.920  12.789  64.185  1.00  0.00    -0.435 A  
HETATM   24  C   UNL     1     -12.246  12.734  64.585  1.00  0.00    -0.510 A  
BRANCH  20  25
HETATM   25  C   UNL     1     -12.026  13.597  68.259  1.00  0.00    -0.385 C  
HETATM   26  C   UNL     1     -11.908  12.668  69.221  1.00  0.00    -0.358 C  
BRANCH  26  27
HETATM   27  C   UNL     1     -12.220  12.900  70.645  1.00  0.00    -0.302 C  
HETATM   28  O   UNL     1     -12.787  12.050  71.315  1.00  0.00    -0.365 OA 
BRANCH  27  29
HETATM   29  O   UNL     1     -11.794  14.114  71.058  1.00  0.00    -0.301 OA 
HETATM   30  C   UNL     1     -12.677  14.987  71.809  1.00  0.00    -0.339 C  
HETATM   31  C   UNL     1     -13.952  15.322  71.028  1.00  0.00    -0.368 C  
HETATM   32  C   UNL     1     -12.993  14.387  73.184  1.00  0.00    -0.517 C  
HETATM   33  C   UNL     1     -11.871  16.281  72.007  1.00  0.00    -0.568 C  
ENDBRANCH  27  29
ENDBRANCH  26  27
ENDBRANCH  20  25
ENDBRANCH  13  19
ENDBRANCH   4   6
ENDBRANCH   3   4
ENDBRANCH   2   3
TORSDOF 10
ENDMDL
MODEL        2
REMARK 921   NORMALIZED FREE ENERGY PREDICTED BY IDOCK:   -5.64 KCAL/MOL
REMARK 922        TOTAL FREE ENERGY PREDICTED BY IDOCK:  -11.30 KCAL/MOL
REMARK 923 INTER-LIGAND FREE ENERGY PREDICTED BY IDOCK:   -9.04 KCAL/MOL
REMARK 924 INTRA-LIGAND FREE ENERGY PREDICTED BY IDOCK:   -2.25 KCAL/MOL
REMARK 927      BINDING AFFINITY PREDICTED BY RF-SCORE:    0.00 PKD
ROOT
HETATM    1  C   UNL     1      -9.531  18.873  68.620  1.00  0.00    -0.427 C  
HETATM    2  C   UNL     1     -10.530  18.050  67.830  1.00  0.00    -0.408 C  
ENDROOT
BRANCH   2   3
HETATM    3  O   UNL     1     -10.123  16.670  67.840  1.00  0.00    -0.254 OA 
BRANCH   3   4
HETATM    4  C   UNL     1      -9.247  16.325  66.865  1.00  0.00    -0.218 C  
HETATM    5  O   UNL     1      -9.200  16.833  65.753  1.00  0.00    -0.520 OA 
BRANCH   4   6
HETATM    6  C   UNL     1      -8.343  15.234  67.301  1.00  0.00    -0.225 C  
HETATM    7  C   UNL     1      -7.029  15.511  67.485  1.00  0.00    -0.194 C  
HETATM    8  C   UNL     1      -6.385  16.879  67.488  1.00  0.00    -0.179 C  
HETATM    9  N   UNL     1      -6.134  14.476  67.692  1.00  0.00    -0.321 NA 
HETATM   10  C   UNL     1      -6.428  13.138  67.494  1.00  0.00    -0.147 C  
HETATM   11  C   UNL     1      -5.226  12.227  67.400  1.00  0.00    -0.105 C  
HETATM   12  C   UNL     1      -7.721  12.735  67.389  1.00  0.00    -0.165 C  
HETATM   13  C   UNL     1      -8.852  13.785  67.454  1.00  0.00    -0.211 C  
BRANCH  12  14
HETATM   14  C   UNL     1      -8.011  11.282  67.203  1.00  0.00    -0.151 C  
HETATM   15  O   UNL     1      -8.257  10.510  68.119  1.00  0.00    -0.109 OA 
BRANCH  14  16
HETATM   16  O   UNL     1      -7.987  10.918  65.897  1.00  0.00    -0.157 OA 
BRANCH  16  17
HETATM   17  C   UNL     1      -8.733   9.727  65.584  1.00  0.00    -0.148 C  
HETATM   18  C   UNL     1     -10.156  10.038  65.138  1.00  0.00    -0.268 C  
ENDBRANCH  16  17
ENDBRANCH  14  16
ENDBRANCH  12  14
BRANCH  13  19
HETATM   19  C   UNL     1     -10.073  13.450  66.583  1.00  0.00    -0.275 A  
HETATM   20  C   UNL     1     -11.292  12.945  67.075  1.00  0.00    -0.355 A  
HETATM   21  C   UNL     1     -12.354  12.744  66.169  1.00  0.00    -0.190 A  
HETATM   22  C   UNL     1      -9.958  13.722  65.196  1.00  0.00    -0.240 A  
HETATM   23  C   UNL     1     -11.019  13.517  64.320  1.00  0.00    -0.355 A  
HETATM   24  C   UNL     1     -12.223  13.036  64.809  1.00  0.00    -0.487 A  
BRANCH  20  25
HETATM   25  C   UNL     1     -11.480  12.567  68.486  1.00  0.00    -0.346 C  
HETATM   26  C   UNL     1     -11.752  11.312  68.879  1.00  0.00    -0.409 C  
BRANCH  26  27
HETATM   27  C   UNL     1     -11.842  10.882  70.288  1.00  0.00    -0.361 C  
HETATM   28  O   UNL     1     -12.874  11.025  70.928  1.00  0.00    -0.338 OA 
BRANCH  27  29
HETATM   29  O   UNL     1     -10.685  10.332  70.718  1.00  0.00    -0.220 OA 
HETATM   30  C   UNL     1     -10.646   8.948  71.151  1.00  0.00    -0.265 C  
HETATM   31  C   UNL     1     -11.602   8.684  72.318  1.00  0.00    -0.424 C  
HETATM   32  C   UNL     1     -10.911   8.003  69.972  1.00  0.00    -0.235 C  
HETATM   33  C   UNL     1      -9.205   8.734  71.642  1.00  0.00    -0.333 C  
ENDBRANCH  27  29
ENDBRANCH  26  27
ENDBRANCH  20  25
ENDBRANCH  13  19
ENDBRANCH   4   6
ENDBRANCH   3   4
ENDBRANCH   2   3
TORSDOF 10
ENDMDL
MODEL        3
REMARK 921   NORMALIZED FREE ENERGY PREDICTED BY IDOCK:   -5.57 KCAL/MOL
REMARK 922        TOTAL FREE ENERGY PREDICTED BY IDOCK:  -11.19 KCAL/MOL
REMARK 923 INTER-LIGAND FREE ENERGY PREDICTED BY IDOCK:   -9.41 KCAL/MOL
REMARK 924 INTRA-LIGAND FREE ENERGY PREDICTED BY IDOCK:   -1.78 KCAL/MOL
REMARK 927      BINDING AFFINITY PREDICTED BY RF-SCORE:    0.00 PKD
ROOT
HETATM    1  C   UNL     1      -8.202   8.317  70.597  1.00  0.00    -0.112 C  
HETATM    2  C   UNL     1      -7.673   9.664  70.145  1.00  0.00    -0.170 C  
ENDROOT
BRANCH   2   3
HETATM    3  O   UNL     1      -8.723  10.388  69.479  1.00  0.00    -0.157 OA 
BRANCH   3   4
HETATM    4  C   UNL     1      -8.300  11.307  68.577  1.00  0.00    -0.155 C  
HETATM    5  O   UNL     1      -7.505  12.206  68.813  1.00  0.00    -0.114 OA 
BRANCH   4   6
HETATM    6  C   UNL     1      -8.929  11.103  67.250  1.00  0.00    -0.147 C  
HETATM    7  C   UNL     1      -8.223  10.465  66.285  1.00  0.00    -0.144 C  
HETATM    8  C   UNL     1      -6.905   9.744  66.456  1.00  0.00    -0.084 C  
HETATM    9  N   UNL     1      -8.705  10.442  64.988  1.00  0.00    -0.176 NA 
HETATM   10  C   UNL     1      -9.749  11.226  64.528  1.00  0.00    -0.253 C  
HETATM   11  C   UNL     1      -9.855  11.331  63.025  1.00  0.00    -0.370 C  
HETATM   12  C   UNL     1     -10.580  11.836  65.413  1.00  0.00    -0.325 C  
HETATM   13  C   UNL     1     -10.324  11.681  66.928  1.00  0.00    -0.253 C  
BRANCH  12  14
HETATM   14  C   UNL     1     -11.715  12.653  64.889  1.00  0.00    -0.353 C  
HETATM   15  O   UNL     1     -12.893  12.350  65.018  1.00  0.00    -0.673 OA 
BRANCH  14  16
HETATM   16  O   UNL     1     -11.292  13.781  64.269  1.00  0.00    -0.376 OA 
BRANCH  16  17
HETATM   17  C   UNL     1     -12.159  14.922  64.421  1.00  0.00    -0.401 C  
HETATM   18  C   UNL     1     -11.379  16.222  64.569  1.00  0.00    -0.209 C  
ENDBRANCH  16  17
ENDBRANCH  14  16
ENDBRANCH  12  14
BRANCH  13  19
HETATM   19  C   UNL     1     -10.701  12.917  67.760  1.00  0.00    -0.238 A  
HETATM   20  C   UNL     1     -11.481  12.884  68.933  1.00  0.00    -0.350 A  
HETATM   21  C   UNL     1     -11.696  14.088  69.635  1.00  0.00    -0.368 A  
HETATM   22  C   UNL     1     -10.177  14.161  67.325  1.00  0.00    -0.256 A  
HETATM   23  C   UNL     1     -10.401  15.337  68.033  1.00  0.00    -0.244 A  
HETATM   24  C   UNL     1     -11.154  15.299  69.196  1.00  0.00    -0.266 A  
BRANCH  20  25
HETATM   25  C   UNL     1     -12.125  11.652  69.420  1.00  0.00    -0.328 C  
HETATM   26  C   UNL     1     -11.815  11.078  70.594  1.00  0.00    -0.434 C  
BRANCH  26  27
HETATM   27  C   UNL     1     -12.514   9.905  71.156  1.00  0.00    -0.368 C  
HETATM   28  O   UNL     1     -13.337  10.028  72.052  1.00  0.00    -0.429 OA 
BRANCH  27  29
HETATM   29  O   UNL     1     -12.131   8.759  70.553  1.00  0.00    -0.084 OA 
HETATM   30  C   UNL     1     -12.211   7.493  71.259  1.00  0.00    -0.329 C  
HETATM   31  C   UNL     1     -11.374   7.499  72.542  1.00  0.00    -0.384 C  
HETATM   32  C   UNL     1     -13.672   7.118  71.534  1.00  0.00    -0.413 C  
HETATM   33  C   UNL     1     -11.610   6.465  70.287  1.00  0.00    -0.451 C  
ENDBRANCH  27  29
ENDBRANCH  26  27
ENDBRANCH  20  25
ENDBRANCH  13  19
ENDBRANCH   4   6
ENDBRANCH   3   4
ENDBRANCH   2   3
TORSDOF 10
ENDMDL
MODEL        4
REMARK 921   NORMALIZED FREE ENERGY PREDICTED BY IDOCK:   -5.55 KCAL/MOL
REMARK 922        TOTAL FREE ENERGY PREDICTED BY IDOCK:  -11.16 KCAL/MOL
REMARK 923 INTER-LIGAND FREE ENERGY PREDICTED BY IDOCK:   -8.88 KCAL/MOL
REMARK 924 INTRA-LIGAND FREE ENERGY PREDICTED BY IDOCK:   -2.28 KCAL/MOL
REMARK 927      BINDING AFFINITY PREDICTED BY RF-SCORE:    0.00 PKD
ROOT
HETATM    1  C   UNL     1      -8.431   9.545  70.416  1.00  0.00    -0.238 C  
HETATM    2  C   UNL     1      -7.285  10.254  69.721  1.00  0.00    -0.147 C  
ENDROOT
BRANCH   2   3
HETATM    3  O   UNL     1      -7.609  11.648  69.572  1.00  0.00     0.117 OA 
BRANCH   3   4
HETATM    4  C   UNL     1      -7.043  12.255  68.500  1.00  0.00    -0.099 C  
HETATM    5  O   UNL     1      -5.988  11.919  67.981  1.00  0.00    -0.050 OA 
BRANCH   4   6
HETATM    6  C   UNL     1      -7.857  13.399  68.024  1.00  0.00    -0.148 C  
HETATM    7  C   UNL     1      -7.682  14.610  68.607  1.00  0.00    -0.135 C  
HETATM    8  C   UNL     1      -6.592  14.996  69.580  1.00  0.00    -0.166 C  
HETATM    9  N   UNL     1      -8.565  15.639  68.324  1.00  0.00    -0.156 NA 
HETATM   10  C   UNL     1      -9.771  15.474  67.666  1.00  0.00    -0.212 C  
HETATM   11  C   UNL     1     -10.737  16.628  67.805  1.00  0.00    -0.327 C  
HETATM   12  C   UNL     1     -10.014  14.333  66.969  1.00  0.00    -0.258 C  
HETATM   13  C   UNL     1      -8.953  13.211  66.953  1.00  0.00    -0.213 C  
BRANCH  12  14
HETATM   14  C   UNL     1     -11.313  14.194  66.245  1.00  0.00    -0.338 C  
HETATM   15  O   UNL     1     -12.397  14.088  66.800  1.00  0.00    -0.439 OA 
BRANCH  14  16
HETATM   16  O   UNL     1     -11.155  14.219  64.899  1.00  0.00    -0.352 OA 
BRANCH  16  17
HETATM   17  C   UNL     1     -12.256  13.675  64.147  1.00  0.00    -0.399 C  
HETATM   18  C   UNL     1     -11.970  12.267  63.643  1.00  0.00    -0.633 C  
ENDBRANCH  16  17
ENDBRANCH  14  16
ENDBRANCH  12  14
BRANCH  13  19
HETATM   19  C   UNL     1      -9.539  11.792  66.892  1.00  0.00    -0.204 A  
HETATM   20  C   UNL     1     -10.457  11.265  67.821  1.00  0.00    -0.218 A  
HETATM   21  C   UNL     1     -10.965   9.968  67.606  1.00  0.00    -0.297 A  
HETATM   22  C   UNL     1      -9.152  10.991  65.787  1.00  0.00    -0.219 A  
HETATM   23  C   UNL     1      -9.666   9.713  65.594  1.00  0.00    -0.363 A  
HETATM   24  C   UNL     1     -10.582   9.204  66.501  1.00  0.00    -0.096 A  
BRANCH  20  25
HETATM   25  C   UNL     1     -10.861  11.995  69.035  1.00  0.00    -0.223 C  
HETATM   26  C   UNL     1     -12.096  11.923  69.557  1.00  0.00    -0.288 C  
BRANCH  26  27
HETATM   27  C   UNL     1     -12.501  12.558  70.826  1.00  0.00    -0.268 C  
HETATM   28  O   UNL     1     -13.234  11.982  71.616  1.00  0.00    -0.410 OA 
BRANCH  27  29
HETATM   29  O   UNL     1     -11.956  13.787  70.967  1.00  0.00    -0.293 OA 
HETATM   30  C   UNL     1     -12.666  14.828  71.686  1.00  0.00    -0.330 C  
HETATM   31  C   UNL     1     -14.031  15.130  71.059  1.00  0.00    -0.383 C  
HETATM   32  C   UNL     1     -12.789  14.473  73.172  1.00  0.00    -0.547 C  
HETATM   33  C   UNL     1     -11.777  16.074  71.547  1.00  0.00    -0.554 C  
ENDBRANCH  27  29
ENDBRANCH  26  27
ENDBRANCH  20  25
ENDBRANCH  13  19
ENDBRANCH   4   6
ENDBRANCH   3   4
ENDBRANCH   2   3
TORSDOF 10
ENDMDL
MODEL        5
REMARK 921   NORMALIZED FREE ENERGY PREDICTED BY IDOCK:   -5.52 KCAL/MOL
REMARK 922        TOTAL FREE ENERGY PREDICTED BY IDOCK:  -11.11 KCAL/MOL
REMARK 923 INTER-LIGAND FREE ENERGY PREDICTED BY IDOCK:   -9.27 KCAL/MOL
REMARK 924 INTRA-LIGAND FREE ENERGY PREDICTED BY IDOCK:   -1.84 KCAL/MOL
REMARK 927      BINDING AFFINITY PREDICTED BY RF-SCORE:    0.00 PKD
ROOT
HETATM    1  C   UNL     1      -5.419  17.241  66.647  1.00  0.00    -0.221 C  
HETATM    2  C   UNL     1      -5.694  16.185  67.699  1.00  0.00    -0.147 C  
ENDROOT
BRANCH   2   3
HETATM    3  O   UNL     1      -6.616  15.216  67.172  1.00  0.00    -0.285 OA 
BRANCH   3   4
HETATM    4  C   UNL     1      -7.893  15.344  67.608  1.00  0.00    -0.157 C  
HETATM    5  O   UNL     1      -8.222  15.487  68.778  1.00  0.00    -0.151 OA 
BRANCH   4   6
HETATM    6  C   UNL     1      -8.864  15.281  66.490  1.00  0.00    -0.335 C  
HETATM    7  C   UNL     1      -9.438  16.430  66.058  1.00  0.00    -0.310 C  
HETATM    8  C   UNL     1      -9.055  17.837  66.459  1.00  0.00    -0.281 C  
HETATM    9  N   UNL     1     -10.490  16.375  65.161  1.00  0.00    -0.657 NA 
HETATM   10  C   UNL     1     -11.178  15.218  64.835  1.00  0.00    -0.415 C  
HETATM   11  C   UNL     1     -12.509  15.438  64.155  1.00  0.00     0.110 C  
HETATM   12  C   UNL     1     -10.648  14.005  65.138  1.00  0.00    -0.400 C  
HETATM   13  C   UNL     1      -9.297  13.929  65.882  1.00  0.00     0.017 C  
BRANCH  12  14
HETATM   14  C   UNL     1     -11.399  12.774  64.749  1.00  0.00    -0.309 C  
HETATM   15  O   UNL     1     -12.308  12.290  65.408  1.00  0.00    -0.582 OA 
BRANCH  14  16
HETATM   16  O   UNL     1     -10.969  12.262  63.570  1.00  0.00    -0.425 OA 
BRANCH  16  17
HETATM   17  C   UNL     1     -10.390  10.946  63.652  1.00  0.00    -0.298 C  
HETATM   18  C   UNL     1      -9.064  10.852  62.908  1.00  0.00    -0.327 C  
ENDBRANCH  16  17
ENDBRANCH  14  16
ENDBRANCH  12  14
BRANCH  13  19
HETATM   19  C   UNL     1      -9.173  12.737  66.842  1.00  0.00    -0.229 A  
HETATM   20  C   UNL     1      -9.936  12.571  68.015  1.00  0.00    -0.219 A  
HETATM   21  C   UNL     1      -9.766  11.393  68.770  1.00  0.00    -0.155 A  
HETATM   22  C   UNL     1      -8.255  11.718  66.477  1.00  0.00    -0.066 A  
HETATM   23  C   UNL     1      -8.104  10.563  67.238  1.00  0.00    -0.115 A  
HETATM   24  C   UNL     1      -8.868  10.396  68.381  1.00  0.00    -0.136 A  
BRANCH  20  25
HETATM   25  C   UNL     1     -10.860  13.606  68.509  1.00  0.00    -0.275 C  
HETATM   26  C   UNL     1     -11.426  13.563  69.726  1.00  0.00    -0.246 C  
BRANCH  26  27
HETATM   27  C   UNL     1     -12.271  14.634  70.289  1.00  0.00    -0.331 C  
HETATM   28  O   UNL     1     -13.094  15.219  69.600  1.00  0.00     0.207 OA 
BRANCH  27  29
HETATM   29  O   UNL     1     -12.014  14.836  71.600  1.00  0.00    -0.338 OA 
HETATM   30  C   UNL     1     -13.075  14.720  72.584  1.00  0.00    -0.441 C  
HETATM   31  C   UNL     1     -14.224  15.694  72.308  1.00  0.00    -0.538 C  
HETATM   32  C   UNL     1     -13.568  13.271  72.680  1.00  0.00    -0.496 C  
HETATM   33  C   UNL     1     -12.415  15.107  73.917  1.00  0.00    -0.715 C  
ENDBRANCH  27  29
ENDBRANCH  26  27
ENDBRANCH  20  25
ENDBRANCH  13  19
ENDBRANCH   4   6
ENDBRANCH   3   4
ENDBRANCH   2   3
TORSDOF 10
ENDMDL
MODEL        6
REMARK 921   NORMALIZED FREE ENERGY PREDICTED BY IDOCK:   -5.51 KCAL/MOL
REMARK 922        TOTAL FREE ENERGY PREDICTED BY IDOCK:  -11.10 KCAL/MOL
REMARK 923 INTER-LIGAND FREE ENERGY PREDICTED BY IDOCK:   -8.95 KCAL/MOL
REMARK 924 INTRA-LIGAND FREE ENERGY PREDICTED BY IDOCK:   -2.16 KCAL/MOL
REMARK 927      BINDING AFFINITY PREDICTED BY RF-SCORE:    0.00 PKD
ROOT
HETATM    1  C   UNL     1     -10.920  16.587  64.925  1.00  0.00    -0.223 C  
HETATM    2  C   UNL     1     -11.312  15.194  64.471  1.00  0.00    -0.290 C  
ENDROOT
BRANCH   2   3
HETATM    3  O   UNL     1     -11.964  14.507  65.553  1.00  0.00    -0.354 OA 
BRANCH   3   4
HETATM    4  C   UNL     1     -12.020  13.159  65.423  1.00  0.00    -0.406 C  
HETATM    5  O   UNL     1     -13.046  12.513  65.257  1.00  0.00    -0.531 OA 
BRANCH   4   6
HETATM    6  C   UNL     1     -10.676  12.542  65.517  1.00  0.00    -0.303 C  
HETATM    7  C   UNL     1     -10.273  11.702  64.532  1.00  0.00    -0.291 C  
HETATM    8  C   UNL     1     -10.968  11.459  63.212  1.00  0.00    -0.250 C  
HETATM    9  N   UNL     1      -9.116  10.961  64.696  1.00  0.00    -0.194 NA 
HETATM   10  C   UNL     1      -8.441  10.822  65.897  1.00  0.00    -0.166 C  
HETATM   11  C   UNL     1      -7.450   9.681  65.943  1.00  0.00    -0.099 C  
HETATM   12  C   UNL     1      -8.699  11.672  66.923  1.00  0.00    -0.185 C  
HETATM   13  C   UNL     1      -9.777  12.765  66.753  1.00  0.00    -0.243 C  
BRANCH  12  14
HETATM   14  C   UNL     1      -7.937  11.516  68.198  1.00  0.00    -0.136 C  
HETATM   15  O   UNL     1      -8.324  10.853  69.150  1.00  0.00    -0.141 OA 
BRANCH  14  16
HETATM   16  O   UNL     1      -6.754  12.178  68.172  1.00  0.00    -0.061 OA 
BRANCH  16  17
HETATM   17  C   UNL     1      -6.793  13.514  68.709  1.00  0.00    -0.108 C  
HETATM   18  C   UNL     1      -6.205  14.538  67.748  1.00  0.00    -0.152 C  
ENDBRANCH  16  17
ENDBRANCH  14  16
ENDBRANCH  12  14
BRANCH  13  19
HETATM   19  C   UNL     1     -10.547  13.097  68.041  1.00  0.00    -0.246 A  
HETATM   20  C   UNL     1     -10.615  14.377  68.624  1.00  0.00    -0.253 A  
HETATM   21  C   UNL     1     -11.414  14.554  69.773  1.00  0.00    -0.327 A  
HETATM   22  C   UNL     1     -11.272  12.035  68.640  1.00  0.00    -0.309 A  
HETATM   23  C   UNL     1     -12.054  12.232  69.773  1.00  0.00    -0.298 A  
HETATM   24  C   UNL     1     -12.132  13.496  70.335  1.00  0.00    -0.415 A  
BRANCH  20  25
HETATM   25  C   UNL     1      -9.841  15.522  68.114  1.00  0.00    -0.216 C  
HETATM   26  C   UNL     1      -9.202  16.390  68.914  1.00  0.00    -0.259 C  
BRANCH  26  27
HETATM   27  C   UNL     1      -8.335  17.483  68.432  1.00  0.00    -0.278 C  
HETATM   28  O   UNL     1      -7.260  17.719  68.963  1.00  0.00    -0.255 OA 
BRANCH  27  29
HETATM   29  O   UNL     1      -8.880  18.124  67.375  1.00  0.00    -0.252 OA 
HETATM   30  C   UNL     1      -9.192  19.539  67.454  1.00  0.00    -0.315 C  
HETATM   31  C   UNL     1     -10.179  19.847  68.584  1.00  0.00    -0.494 C  
HETATM   32  C   UNL     1      -7.910  20.371  67.575  1.00  0.00    -0.332 C  
HETATM   33  C   UNL     1      -9.868  19.865  66.112  1.00  0.00    -0.562 C  
ENDBRANCH  27  29
ENDBRANCH  26  27
ENDBRANCH  20  25
ENDBRANCH  13  19
ENDBRANCH   4   6
ENDBRANCH   3   4
ENDBRANCH   2   3
TORSDOF 10
ENDMDL
MODEL        7
REMARK 921   NORMALIZED FREE ENERGY PREDICTED BY IDOCK:   -5.50 KCAL/MOL
REMARK 922        TOTAL FREE ENERGY PREDICTED BY IDOCK:  -11.08 KCAL/MOL
REMARK 923 INTER-LIGAND FREE ENERGY PREDICTED BY IDOCK:   -9.00 KCAL/MOL
REMARK 924 INTRA-LIGAND FREE ENERGY PREDICTED BY IDOCK:   -2.08 KCAL/MOL
REMARK 927      BINDING AFFINITY PREDICTED BY RF-SCORE:    0.00 PKD
ROOT
HETATM    1  C   UNL     1     -10.866  16.398  64.875  1.00  0.00    -0.268 C  
HETATM    2  C   UNL     1     -11.633  15.129  64.556  1.00  0.00    -0.329 C  
ENDROOT
BRANCH   2   3
HETATM    3  O   UNL     1     -11.952  14.445  65.780  1.00  0.00    -0.372 OA 
BRANCH   3   4
HETATM    4  C   UNL     1     -11.925  13.092  65.703  1.00  0.00    -0.429 C  
HETATM    5  O   UNL     1     -12.905  12.380  65.536  1.00  0.00    -0.402 OA 
BRANCH   4   6
HETATM    6  C   UNL     1     -10.549  12.561  65.857  1.00  0.00    -0.292 C  
HETATM    7  C   UNL     1     -10.012  11.837  64.845  1.00  0.00    -0.247 C  
HETATM    8  C   UNL     1     -10.585  11.660  63.457  1.00  0.00    -0.496 C  
HETATM    9  N   UNL     1      -8.818  11.165  65.043  1.00  0.00    -0.082 NA 
HETATM   10  C   UNL     1      -8.228  10.970  66.280  1.00  0.00    -0.164 C  
HETATM   11  C   UNL     1      -7.162   9.899  66.316  1.00  0.00    -0.102 C  
HETATM   12  C   UNL     1      -8.626  11.711  67.346  1.00  0.00    -0.149 C  
HETATM   13  C   UNL     1      -9.765  12.739  67.175  1.00  0.00    -0.216 C  
BRANCH  12  14
HETATM   14  C   UNL     1      -7.952  11.499  68.662  1.00  0.00    -0.135 C  
HETATM   15  O   UNL     1      -7.108  12.251  69.128  1.00  0.00    -0.086 OA 
BRANCH  14  16
HETATM   16  O   UNL     1      -8.397  10.384  69.292  1.00  0.00    -0.148 OA 
BRANCH  16  17
HETATM   17  C   UNL     1      -7.428   9.735  70.138  1.00  0.00    -0.164 C  
HETATM   18  C   UNL     1      -8.070   8.720  71.075  1.00  0.00    -0.186 C  
ENDBRANCH  16  17
ENDBRANCH  14  16
ENDBRANCH  12  14
BRANCH  13  19
HETATM   19  C   UNL     1     -10.652  12.908  68.419  1.00  0.00    -0.267 A  
HETATM   20  C   UNL     1     -10.910  14.137  69.057  1.00  0.00    -0.273 A  
HETATM   21  C   UNL     1     -11.798  14.156  70.152  1.00  0.00    -0.382 A  
HETATM   22  C   UNL     1     -11.286  11.738  68.912  1.00  0.00    -0.311 A  
HETATM   23  C   UNL     1     -12.159  11.780  69.994  1.00  0.00    -0.387 A  
HETATM   24  C   UNL     1     -12.423  12.993  70.609  1.00  0.00    -0.347 A  
BRANCH  20  25
HETATM   25  C   UNL     1     -10.244  15.389  68.660  1.00  0.00    -0.217 C  
HETATM   26  C   UNL     1     -10.894  16.556  68.527  1.00  0.00    -0.349 C  
BRANCH  26  27
HETATM   27  C   UNL     1     -10.239  17.846  68.233  1.00  0.00    -0.388 C  
HETATM   28  O   UNL     1     -10.802  18.706  67.572  1.00  0.00    -0.435 OA 
BRANCH  27  29
HETATM   29  O   UNL     1      -9.009  17.919  68.787  1.00  0.00    -0.275 OA 
HETATM   30  C   UNL     1      -7.859  18.285  67.980  1.00  0.00    -0.265 C  
HETATM   31  C   UNL     1      -7.649  17.319  66.810  1.00  0.00    -0.270 C  
HETATM   32  C   UNL     1      -7.971  19.738  67.505  1.00  0.00    -0.324 C  
HETATM   33  C   UNL     1      -6.659  18.166  68.933  1.00  0.00    -0.243 C  
ENDBRANCH  27  29
ENDBRANCH  26  27
ENDBRANCH  20  25
ENDBRANCH  13  19
ENDBRANCH   4   6
ENDBRANCH   3   4
ENDBRANCH   2   3
TORSDOF 10
ENDMDL
MODEL        8
REMARK 921   NORMALIZED FREE ENERGY PREDICTED BY IDOCK:   -5.46 KCAL/MOL
REMARK 922        TOTAL FREE ENERGY PREDICTED BY IDOCK:  -11.01 KCAL/MOL
REMARK 923 INTER-LIGAND FREE ENERGY PREDICTED BY IDOCK:   -8.93 KCAL/MOL
REMARK 924 INTRA-LIGAND FREE ENERGY PREDICTED BY IDOCK:   -2.08 KCAL/MOL
REMARK 927      BINDING AFFINITY PREDICTED BY RF-SCORE:    0.00 PKD
ROOT
HETATM    1  C   UNL     1     -10.078   9.470  69.837  1.00  0.00    -0.262 C  
HETATM    2  C   UNL     1     -10.117   9.606  68.327  1.00  0.00    -0.177 C  
ENDROOT
BRANCH   2   3
HETATM    3  O   UNL     1     -10.048  10.998  67.972  1.00  0.00    -0.172 OA 
BRANCH   3   4
HETATM    4  C   UNL     1      -9.079  11.313  67.079  1.00  0.00    -0.163 C  
HETATM    5  O   UNL     1      -8.723  10.600  66.151  1.00  0.00    -0.158 OA 
BRANCH   4   6
HETATM    6  C   UNL     1      -8.479  12.639  67.363  1.00  0.00    -0.186 C  
HETATM    7  C   UNL     1      -7.594  12.749  68.384  1.00  0.00    -0.133 C  
HETATM    8  C   UNL     1      -6.977  11.616  69.171  1.00  0.00    -0.105 C  
HETATM    9  N   UNL     1      -7.179  14.003  68.796  1.00  0.00    -0.110 NA 
HETATM   10  C   UNL     1      -7.775  15.191  68.406  1.00  0.00    -0.118 C  
HETATM   11  C   UNL     1      -7.426  16.389  69.258  1.00  0.00    -0.202 C  
HETATM   12  C   UNL     1      -8.608  15.212  67.334  1.00  0.00    -0.201 C  
HETATM   13  C   UNL     1      -8.915  13.897  66.583  1.00  0.00    -0.156 C  
BRANCH  12  14
HETATM   14  C   UNL     1      -9.215  16.512  66.919  1.00  0.00    -0.226 C  
HETATM   15  O   UNL     1     -10.203  17.004  67.444  1.00  0.00    -0.297 OA 
BRANCH  14  16
HETATM   16  O   UNL     1      -8.533  17.095  65.903  1.00  0.00    -0.529 OA 
BRANCH  16  17
HETATM   17  C   UNL     1      -8.131  18.457  66.142  1.00  0.00    -0.170 C  
HETATM   18  C   UNL     1      -6.710  18.731  65.666  1.00  0.00    -0.311 C  
ENDBRANCH  16  17
ENDBRANCH  14  16
ENDBRANCH  12  14
BRANCH  13  19
HETATM   19  C   UNL     1     -10.336  13.821  66.004  1.00  0.00    -0.311 A  
HETATM   20  C   UNL     1     -11.517  13.908  66.767  1.00  0.00    -0.369 A  
HETATM   21  C   UNL     1     -12.757  13.889  66.097  1.00  0.00    -0.336 A  
HETATM   22  C   UNL     1     -10.443  13.703  64.594  1.00  0.00    -0.442 A  
HETATM   23  C   UNL     1     -11.678  13.686  63.954  1.00  0.00    -0.363 A  
HETATM   24  C   UNL     1     -12.837  13.789  64.706  1.00  0.00    -0.160 A  
BRANCH  20  25
HETATM   25  C   UNL     1     -11.505  13.961  68.239  1.00  0.00    -0.346 C  
HETATM   26  C   UNL     1     -12.254  13.155  69.008  1.00  0.00    -0.114 C  
BRANCH  26  27
HETATM   27  C   UNL     1     -12.187  13.112  70.482  1.00  0.00    -0.328 C  
HETATM   28  O   UNL     1     -12.439  12.087  71.098  1.00  0.00    -0.348 OA 
BRANCH  27  29
HETATM   29  O   UNL     1     -11.815  14.303  71.000  1.00  0.00    -0.317 OA 
HETATM   30  C   UNL     1     -12.676  14.999  71.938  1.00  0.00    -0.337 C  
HETATM   31  C   UNL     1     -14.051  15.305  71.336  1.00  0.00    -0.595 C  
HETATM   32  C   UNL     1     -12.791  14.217  73.251  1.00  0.00    -0.291 C  
HETATM   33  C   UNL     1     -11.958  16.330  72.215  1.00  0.00    -0.605 C  
ENDBRANCH  27  29
ENDBRANCH  26  27
ENDBRANCH  20  25
ENDBRANCH  13  19
ENDBRANCH   4   6
ENDBRANCH   3   4
ENDBRANCH   2   3
TORSDOF 10
ENDMDL
MODEL        9
REMARK 921   NORMALIZED FREE ENERGY PREDICTED BY IDOCK:   -5.42 KCAL/MOL
REMARK 922        TOTAL FREE ENERGY PREDICTED BY IDOCK:  -10.95 KCAL/MOL
REMARK 923 INTER-LIGAND FREE ENERGY PREDICTED BY IDOCK:   -9.28 KCAL/MOL
REMARK 924 INTRA-LIGAND FREE ENERGY PREDICTED BY IDOCK:   -1.67 KCAL/MOL
REMARK 927      BINDING AFFINITY PREDICTED BY RF-SCORE:    0.00 PKD
ROOT
HETATM    1  C   UNL     1     -10.491  17.167  65.758  1.00  0.00    -0.242 C  
HETATM    2  C   UNL     1     -11.150  16.143  64.854  1.00  0.00    -0.325 C  
ENDROOT
BRANCH   2   3
HETATM    3  O   UNL     1     -10.556  14.854  65.083  1.00  0.00    -0.369 OA 
BRANCH   3   4
HETATM    4  C   UNL     1     -11.403  13.909  65.558  1.00  0.00    -0.308 C  
HETATM    5  O   UNL     1     -12.608  14.060  65.706  1.00  0.00    -0.491 OA 
BRANCH   4   6
HETATM    6  C   UNL     1     -10.692  12.653  65.896  1.00  0.00    -0.293 C  
HETATM    7  C   UNL     1     -10.717  11.630  65.007  1.00  0.00    -0.296 C  
HETATM    8  C   UNL     1     -11.235  11.679  63.588  1.00  0.00    -0.497 C  
HETATM    9  N   UNL     1     -10.238  10.387  65.382  1.00  0.00    -0.285 NA 
HETATM   10  C   UNL     1      -9.942  10.024  66.685  1.00  0.00    -0.216 C  
HETATM   11  C   UNL     1      -9.811   8.537  66.919  1.00  0.00    -0.310 C  
HETATM   12  C   UNL     1      -9.800  10.979  67.640  1.00  0.00    -0.192 C  
HETATM   13  C   UNL     1     -10.011  12.464  67.268  1.00  0.00    -0.209 C  
BRANCH  12  14
HETATM   14  C   UNL     1      -9.453  10.561  69.031  1.00  0.00    -0.201 C  
HETATM   15  O   UNL     1      -8.325  10.612  69.500  1.00  0.00    -0.115 OA 
BRANCH  14  16
HETATM   16  O   UNL     1     -10.537  10.134  69.723  1.00  0.00    -0.227 OA 
BRANCH  16  17
HETATM   17  C   UNL     1     -10.243   9.331  70.882  1.00  0.00    -0.301 C  
HETATM   18  C   UNL     1     -11.449   9.177  71.799  1.00  0.00    -0.452 C  
ENDBRANCH  16  17
ENDBRANCH  14  16
ENDBRANCH  12  14
BRANCH  13  19
HETATM   19  C   UNL     1     -10.616  13.314  68.396  1.00  0.00    -0.263 A  
HETATM   20  C   UNL     1     -10.071  14.526  68.864  1.00  0.00    -0.224 A  
HETATM   21  C   UNL     1     -10.767  15.239  69.862  1.00  0.00    -0.300 A  
HETATM   22  C   UNL     1     -11.835  12.854  68.956  1.00  0.00    -0.352 A  
HETATM   23  C   UNL     1     -12.506  13.574  69.940  1.00  0.00    -0.194 A  
HETATM   24  C   UNL     1     -11.976  14.773  70.387  1.00  0.00    -0.368 A  
BRANCH  20  25
HETATM   25  C   UNL     1      -8.776  15.045  68.393  1.00  0.00    -0.175 C  
HETATM   26  C   UNL     1      -8.377  16.312  68.592  1.00  0.00    -0.220 C  
BRANCH  26  27
HETATM   27  C   UNL     1      -7.045  16.833  68.224  1.00  0.00    -0.167 C  
HETATM   28  O   UNL     1      -6.433  16.385  67.266  1.00  0.00    -0.157 OA 
BRANCH  27  29
HETATM   29  O   UNL     1      -6.650  17.823  69.054  1.00  0.00    -0.225 OA 
HETATM   30  C   UNL     1      -6.946  19.208  68.739  1.00  0.00    -0.321 C  
HETATM   31  C   UNL     1      -6.347  19.631  67.394  1.00  0.00    -0.210 C  
HETATM   32  C   UNL     1      -8.456  19.466  68.796  1.00  0.00    -0.377 C  
HETATM   33  C   UNL     1      -6.263  20.017  69.853  1.00  0.00    -0.396 C  
ENDBRANCH  27  29
ENDBRANCH  26  27
ENDBRANCH  20  25
ENDBRANCH  13  19
ENDBRANCH   4   6
ENDBRANCH   3   4
ENDBRANCH   2   3
TORSDOF 10
ENDMDL
MODEL       10
REMARK 921   NORMALIZED FREE ENERGY PREDICTED BY IDOCK:   -5.39 KCAL/MOL
REMARK 922        TOTAL FREE ENERGY PREDICTED BY IDOCK:  -10.91 KCAL/MOL
REMARK 923 INTER-LIGAND FREE ENERGY PREDICTED BY IDOCK:   -8.97 KCAL/MOL
REMARK 924 INTRA-LIGAND FREE ENERGY PREDICTED BY IDOCK:   -1.94 KCAL/MOL
REMARK 927      BINDING AFFINITY PREDICTED BY RF-SCORE:    0.00 PKD
ROOT
HETATM    1  C   UNL     1     -10.825  16.202  65.135  1.00  0.00    -0.376 C  
HETATM    2  C   UNL     1     -11.600  14.913  64.938  1.00  0.00    -0.395 C  
ENDROOT
BRANCH   2   3
HETATM    3  O   UNL     1     -10.677  13.820  64.789  1.00  0.00    -0.371 OA 
BRANCH   3   4
HETATM    4  C   UNL     1     -11.099  12.641  65.306  1.00  0.00    -0.295 C  
HETATM    5  O   UNL     1     -12.269  12.323  65.464  1.00  0.00    -0.577 OA 
BRANCH   4   6
HETATM    6  C   UNL     1      -9.960  11.766  65.677  1.00  0.00    -0.271 C  
HETATM    7  C   UNL     1      -9.508  10.865  64.771  1.00  0.00    -0.238 C  
HETATM    8  C   UNL     1      -9.908  10.768  63.316  1.00  0.00    -0.394 C  
HETATM    9  N   UNL     1      -8.589   9.906  65.160  1.00  0.00    -0.143 NA 
HETATM   10  C   UNL     1      -8.256   9.632  66.475  1.00  0.00    -0.119 C  
HETATM   11  C   UNL     1      -7.546   8.316  66.693  1.00  0.00    -0.090 C  
HETATM   12  C   UNL     1      -8.578  10.516  67.456  1.00  0.00    -0.121 C  
HETATM   13  C   UNL     1      -9.352  11.803  67.095  1.00  0.00    -0.178 C  
BRANCH  12  14
HETATM   14  C   UNL     1      -8.182  10.207  68.862  1.00  0.00    -0.124 C  
HETATM   15  O   UNL     1      -7.343  10.837  69.491  1.00  0.00    -0.133 OA 
BRANCH  14  16
HETATM   16  O   UNL     1      -8.873   9.158  69.371  1.00  0.00    -0.137 OA 
BRANCH  16  17
HETATM   17  C   UNL     1      -8.964   9.128  70.808  1.00  0.00    -0.242 C  
HETATM   18  C   UNL     1     -10.362   8.762  71.289  1.00  0.00    -0.331 C  
ENDBRANCH  16  17
ENDBRANCH  14  16
ENDBRANCH  12  14
BRANCH  13  19
HETATM   19  C   UNL     1     -10.323  12.280  68.186  1.00  0.00    -0.221 A  
HETATM   20  C   UNL     1     -10.374  13.594  68.692  1.00  0.00    -0.223 A  
HETATM   21  C   UNL     1     -11.362  13.911  69.647  1.00  0.00    -0.259 A  
HETATM   22  C   UNL     1     -11.256  11.327  68.668  1.00  0.00    -0.310 A  
HETATM   23  C   UNL     1     -12.223  11.662  69.610  1.00  0.00    -0.271 A  
HETATM   24  C   UNL     1     -12.282  12.959  70.094  1.00  0.00    -0.336 A  
BRANCH  20  25
HETATM   25  C   UNL     1      -9.402  14.630  68.304  1.00  0.00    -0.199 C  
HETATM   26  C   UNL     1      -9.479  15.903  68.724  1.00  0.00    -0.221 C  
BRANCH  26  27
HETATM   27  C   UNL     1      -8.465  16.937  68.438  1.00  0.00    -0.239 C  
HETATM   28  O   UNL     1      -7.408  16.972  69.050  1.00  0.00    -0.237 OA 
BRANCH  27  29
HETATM   29  O   UNL     1      -8.865  17.768  67.451  1.00  0.00    -0.236 OA 
HETATM   30  C   UNL     1      -8.981  19.194  67.694  1.00  0.00    -0.298 C  
HETATM   31  C   UNL     1      -9.969  19.506  68.822  1.00  0.00    -0.547 C  
HETATM   32  C   UNL     1      -7.603  19.814  67.956  1.00  0.00    -0.334 C  
HETATM   33  C   UNL     1      -9.540  19.769  66.382  1.00  0.00    -0.508 C  
ENDBRANCH  27  29
ENDBRANCH  26  27
ENDBRANCH  20  25
ENDBRANCH  13  19
ENDBRANCH   4   6
ENDBRANCH   3   4
ENDBRANCH   2   3
TORSDOF 10
ENDMDL
MODEL       11
REMARK 921   NORMALIZED FREE ENERGY PREDICTED BY IDOCK:   -5.35 KCAL/MOL
REMARK 922        TOTAL FREE ENERGY PREDICTED BY IDOCK:  -10.84 KCAL/MOL
REMARK 923 INTER-LIGAND FREE ENERGY PREDICTED BY IDOCK:   -8.83 KCAL/MOL
REMARK 924 INTRA-LIGAND FREE ENERGY PREDICTED BY IDOCK:   -2.01 KCAL/MOL
REMARK 927      BINDING AFFINITY PREDICTED BY RF-SCORE:    0.00 PKD
ROOT
HETATM    1  C   UNL     1     -13.256  11.411  71.801  1.00  0.00    -0.472 C  
HETATM    2  C   UNL     1     -12.620  10.036  71.734  1.00  0.00    -0.409 C  
ENDROOT
BRANCH   2   3
HETATM    3  O   UNL     1     -11.297  10.150  71.181  1.00  0.00    -0.346 OA 
BRANCH   3   4
HETATM    4  C   UNL     1     -10.544   9.026  71.265  1.00  0.00    -0.308 C  
HETATM    5  O   UNL     1      -9.796   8.751  72.193  1.00  0.00    -0.314 OA 
BRANCH   4   6
HETATM    6  C   UNL     1     -10.724   8.155  70.078  1.00  0.00    -0.243 C  
HETATM    7  C   UNL     1     -11.267   6.925  70.249  1.00  0.00    -0.316 C  
HETATM    8  C   UNL     1     -11.907   6.386  71.507  1.00  0.00    -0.355 C  
HETATM    9  N   UNL     1     -11.258   6.023  69.199  1.00  0.00    -0.350 NA 
HETATM   10  C   UNL     1     -10.523   6.183  68.037  1.00  0.00    -0.228 C  
HETATM   11  C   UNL     1     -10.352   4.929  67.212  1.00  0.00    -0.154 C  
HETATM   12  C   UNL     1     -10.011   7.401  67.720  1.00  0.00    -0.208 C  
HETATM   13  C   UNL     1     -10.223   8.589  68.684  1.00  0.00    -0.217 C  
BRANCH  12  14
HETATM   14  C   UNL     1      -9.246   7.551  66.447  1.00  0.00    -0.167 C  
HETATM   15  O   UNL     1      -8.352   6.796  66.093  1.00  0.00    -0.118 OA 
BRANCH  14  16
HETATM   16  O   UNL     1      -9.669   8.612  65.717  1.00  0.00    -0.167 OA 
BRANCH  16  17
HETATM   17  C   UNL     1      -8.747   9.062  64.705  1.00  0.00    -0.153 C  
HETATM   18  C   UNL     1      -7.868  10.205  65.195  1.00  0.00    -0.140 C  
ENDBRANCH  16  17
ENDBRANCH  14  16
ENDBRANCH  12  14
BRANCH  13  19
HETATM   19  C   UNL     1      -9.056   9.589  68.716  1.00  0.00    -0.133 A  
HETATM   20  C   UNL     1      -9.164  10.954  68.388  1.00  0.00    -0.168 A  
HETATM   21  C   UNL     1      -8.025  11.773  68.525  1.00  0.00    -0.145 A  
HETATM   22  C   UNL     1      -7.803   9.090  69.157  1.00  0.00    -0.093 A  
HETATM   23  C   UNL     1      -6.692   9.917  69.286  1.00  0.00    -0.055 A  
HETATM   24  C   UNL     1      -6.805  11.263  68.978  1.00  0.00    -0.099 A  
BRANCH  20  25
HETATM   25  C   UNL     1     -10.404  11.544  67.854  1.00  0.00    -0.203 C  
HETATM   26  C   UNL     1     -10.547  12.857  67.614  1.00  0.00    -0.232 C  
BRANCH  26  27
HETATM   27  C   UNL     1     -11.736  13.463  66.983  1.00  0.00    -0.381 C  
HETATM   28  O   UNL     1     -12.220  14.501  67.412  1.00  0.00    -0.333 OA 
BRANCH  27  29
HETATM   29  O   UNL     1     -12.162  12.741  65.924  1.00  0.00    -0.493 OA 
HETATM   30  C   UNL     1     -11.797  13.131  64.574  1.00  0.00    -0.377 C  
HETATM   31  C   UNL     1     -12.276  14.547  64.237  1.00  0.00    -0.441 C  
HETATM   32  C   UNL     1     -10.288  12.973  64.353  1.00  0.00    -0.397 C  
HETATM   33  C   UNL     1     -12.538  12.136  63.667  1.00  0.00    -0.616 C  
ENDBRANCH  27  29
ENDBRANCH  26  27
ENDBRANCH  20  25
ENDBRANCH  13  19
ENDBRANCH   4   6
ENDBRANCH   3   4
ENDBRANCH   2   3
TORSDOF 10
ENDMDL
MODEL       12
REMARK 921   NORMALIZED FREE ENERGY PREDICTED BY IDOCK:   -5.35 KCAL/MOL
REMARK 922        TOTAL FREE ENERGY PREDICTED BY IDOCK:  -10.84 KCAL/MOL
REMARK 923 INTER-LIGAND FREE ENERGY PREDICTED BY IDOCK:   -9.02 KCAL/MOL
REMARK 924 INTRA-LIGAND FREE ENERGY PREDICTED BY IDOCK:   -1.81 KCAL/MOL
REMARK 927      BINDING AFFINITY PREDICTED BY RF-SCORE:    0.00 PKD
ROOT
HETATM    1  C   UNL     1     -10.682  11.560  63.441  1.00  0.00    -0.444 C  
HETATM    2  C   UNL     1      -9.982  10.454  64.207  1.00  0.00    -0.298 C  
ENDROOT
BRANCH   2   3
HETATM    3  O   UNL     1     -10.374  10.511  65.590  1.00  0.00    -0.256 OA 
BRANCH   3   4
HETATM    4  C   UNL     1      -9.406  10.928  66.441  1.00  0.00    -0.176 C  
HETATM    5  O   UNL     1      -8.224  11.055  66.152  1.00  0.00    -0.167 OA 
BRANCH   4   6
HETATM    6  C   UNL     1      -9.948  11.208  67.793  1.00  0.00    -0.193 C  
HETATM    7  C   UNL     1     -10.186  10.168  68.629  1.00  0.00    -0.176 C  
HETATM    8  C   UNL     1      -9.777   8.727  68.418  1.00  0.00    -0.175 C  
HETATM    9  N   UNL     1     -10.876  10.383  69.809  1.00  0.00    -0.274 NA 
HETATM   10  C   UNL     1     -11.562  11.547  70.112  1.00  0.00    -0.249 C  
HETATM   11  C   UNL     1     -12.548  11.428  71.251  1.00  0.00    -0.480 C  
HETATM   12  C   UNL     1     -11.329  12.678  69.396  1.00  0.00    -0.273 C  
HETATM   13  C   UNL     1     -10.326  12.642  68.222  1.00  0.00    -0.246 C  
BRANCH  12  14
HETATM   14  C   UNL     1     -12.062  13.926  69.763  1.00  0.00    -0.345 C  
HETATM   15  O   UNL     1     -13.280  14.036  69.738  1.00  0.00     0.450 OA 
BRANCH  14  16
HETATM   16  O   UNL     1     -11.224  14.920  70.145  1.00  0.00    -0.248 OA 
BRANCH  16  17
HETATM   17  C   UNL     1     -11.789  15.872  71.067  1.00  0.00    -0.428 C  
HETATM   18  C   UNL     1     -11.757  15.371  72.505  1.00  0.00    -0.564 C  
ENDBRANCH  16  17
ENDBRANCH  14  16
ENDBRANCH  12  14
BRANCH  13  19
HETATM   19  C   UNL     1     -10.689  13.574  67.056  1.00  0.00    -0.278 A  
HETATM   20  C   UNL     1      -9.832  14.554  66.518  1.00  0.00    -0.297 A  
HETATM   21  C   UNL     1     -10.271  15.296  65.403  1.00  0.00    -0.414 A  
HETATM   22  C   UNL     1     -11.963  13.383  66.462  1.00  0.00    -0.452 A  
HETATM   23  C   UNL     1     -12.376  14.127  65.361  1.00  0.00    -0.475 A  
HETATM   24  C   UNL     1     -11.524  15.079  64.824  1.00  0.00    -0.403 A  
BRANCH  20  25
HETATM   25  C   UNL     1      -8.522  14.871  67.113  1.00  0.00    -0.244 C  
HETATM   26  C   UNL     1      -7.885  16.035  66.905  1.00  0.00    -0.284 C  
BRANCH  26  27
HETATM   27  C   UNL     1      -6.624  16.423  67.568  1.00  0.00    -0.156 C  
HETATM   28  O   UNL     1      -5.561  15.907  67.256  1.00  0.00    -0.305 OA 
BRANCH  27  29
HETATM   29  O   UNL     1      -6.823  17.381  68.499  1.00  0.00    -0.186 OA 
HETATM   30  C   UNL     1      -6.788  18.784  68.129  1.00  0.00    -0.237 C  
HETATM   31  C   UNL     1      -5.443  19.182  67.514  1.00  0.00    -0.170 C  
HETATM   32  C   UNL     1      -7.962  19.131  67.205  1.00  0.00    -0.277 C  
HETATM   33  C   UNL     1      -6.962  19.542  69.455  1.00  0.00    -0.302 C  
ENDBRANCH  27  29
ENDBRANCH  26  27
ENDBRANCH  20  25
ENDBRANCH  13  19
ENDBRANCH   4   6
ENDBRANCH   3   4
ENDBRANCH   2   3
TORSDOF 10
ENDMDL
MODEL       13
REMARK 921   NORMALIZED FREE ENERGY PREDICTED BY IDOCK:   -5.33 KCAL/MOL
REMARK 922        TOTAL FREE ENERGY PREDICTED BY IDOCK:  -10.82 KCAL/MOL
REMARK 923 INTER-LIGAND FREE ENERGY PREDICTED BY IDOCK:   -8.51 KCAL/MOL
REMARK 924 INTRA-LIGAND FREE ENERGY PREDICTED BY IDOCK:   -2.30 KCAL/MOL
REMARK 927      BINDING AFFINITY PREDICTED BY RF-SCORE:    0.00 PKD
ROOT
HETATM    1  C   UNL     1     -12.775  14.121  65.459  1.00  0.00    -0.468 C  
HETATM    2  C   UNL     1     -12.070  14.015  64.120  1.00  0.00    -0.422 C  
ENDROOT
BRANCH   2   3
HETATM    3  O   UNL     1     -10.804  13.357  64.299  1.00  0.00    -0.392 OA 
BRANCH   3   4
HETATM    4  C   UNL     1     -10.879  12.024  64.530  1.00  0.00    -0.314 C  
HETATM    5  O   UNL     1     -11.894  11.349  64.419  1.00  0.00    -0.066 OA 
BRANCH   4   6
HETATM    6  C   UNL     1      -9.572  11.465  64.951  1.00  0.00    -0.244 C  
HETATM    7  C   UNL     1      -8.955  10.569  64.142  1.00  0.00    -0.218 C  
HETATM    8  C   UNL     1      -9.353  10.201  62.731  1.00  0.00    -0.323 C  
HETATM    9  N   UNL     1      -7.843   9.885  64.602  1.00  0.00    -0.136 NA 
HETATM   10  C   UNL     1      -7.432   9.861  65.924  1.00  0.00    -0.108 C  
HETATM   11  C   UNL     1      -6.451   8.764  66.267  1.00  0.00    -0.065 C  
HETATM   12  C   UNL     1      -7.917  10.776  66.802  1.00  0.00    -0.138 C  
HETATM   13  C   UNL     1      -8.957  11.813  66.323  1.00  0.00    -0.176 C  
BRANCH  12  14
HETATM   14  C   UNL     1      -7.436  10.744  68.215  1.00  0.00    -0.092 C  
HETATM   15  O   UNL     1      -7.986  10.121  69.112  1.00  0.00    -0.102 OA 
BRANCH  14  16
HETATM   16  O   UNL     1      -6.305  11.472  68.388  1.00  0.00    -0.049 OA 
BRANCH  16  17
HETATM   17  C   UNL     1      -6.512  12.815  68.864  1.00  0.00    -0.091 C  
HETATM   18  C   UNL     1      -5.926  13.857  67.921  1.00  0.00    -0.143 C  
ENDBRANCH  16  17
ENDBRANCH  14  16
ENDBRANCH  12  14
BRANCH  13  19
HETATM   19  C   UNL     1      -9.986  12.213  67.392  1.00  0.00    -0.206 A  
HETATM   20  C   UNL     1     -10.139  13.515  67.909  1.00  0.00    -0.248 A  
HETATM   21  C   UNL     1     -11.169  13.755  68.840  1.00  0.00    -0.309 A  
HETATM   22  C   UNL     1     -10.866  11.194  67.840  1.00  0.00    -0.285 A  
HETATM   23  C   UNL     1     -11.877  11.454  68.760  1.00  0.00    -0.388 A  
HETATM   24  C   UNL     1     -12.035  12.739  69.254  1.00  0.00    -0.300 A  
BRANCH  20  25
HETATM   25  C   UNL     1      -9.228  14.617  67.556  1.00  0.00    -0.192 C  
HETATM   26  C   UNL     1      -9.462  15.466  66.542  1.00  0.00    -0.298 C  
BRANCH  26  27
HETATM   27  C   UNL     1      -8.624  16.640  66.229  1.00  0.00    -0.324 C  
HETATM   28  O   UNL     1      -7.409  16.604  66.359  1.00  0.00    -0.259 OA 
BRANCH  27  29
HETATM   29  O   UNL     1      -9.366  17.682  65.795  1.00  0.00    -0.511 OA 
HETATM   30  C   UNL     1      -9.643  18.804  66.674  1.00  0.00    -0.336 C  
HETATM   31  C   UNL     1     -10.378  18.369  67.945  1.00  0.00    -0.425 C  
HETATM   32  C   UNL     1      -8.356  19.572  66.994  1.00  0.00    -0.315 C  
HETATM   33  C   UNL     1     -10.575  19.717  65.859  1.00  0.00    -0.566 C  
ENDBRANCH  27  29
ENDBRANCH  26  27
ENDBRANCH  20  25
ENDBRANCH  13  19
ENDBRANCH   4   6
ENDBRANCH   3   4
ENDBRANCH   2   3
TORSDOF 10
ENDMDL
MODEL       14
REMARK 921   NORMALIZED FREE ENERGY PREDICTED BY IDOCK:   -5.30 KCAL/MOL
REMARK 922        TOTAL FREE ENERGY PREDICTED BY IDOCK:  -10.76 KCAL/MOL
REMARK 923 INTER-LIGAND FREE ENERGY PREDICTED BY IDOCK:   -8.06 KCAL/MOL
REMARK 924 INTRA-LIGAND FREE ENERGY PREDICTED BY IDOCK:   -2.70 KCAL/MOL
REMARK 927      BINDING AFFINITY PREDICTED BY RF-SCORE:    0.00 PKD
ROOT
HETATM    1  C   UNL     1     -11.754  15.625  69.223  1.00  0.00    -0.388 C  
HETATM    2  C   UNL     1     -10.352  16.202  69.251  1.00  0.00    -0.265 C  
ENDROOT
BRANCH   2   3
HETATM    3  O   UNL     1      -9.395  15.128  69.222  1.00  0.00    -0.218 OA 
BRANCH   3   4
HETATM    4  C   UNL     1      -8.537  15.155  68.174  1.00  0.00    -0.158 C  
HETATM    5  O   UNL     1      -8.244  16.156  67.534  1.00  0.00    -0.143 OA 
BRANCH   4   6
HETATM    6  C   UNL     1      -7.990  13.810  67.877  1.00  0.00    -0.157 C  
HETATM    7  C   UNL     1      -6.657  13.604  68.008  1.00  0.00    -0.136 C  
HETATM    8  C   UNL     1      -5.652  14.552  68.621  1.00  0.00    -0.093 C  
HETATM    9  N   UNL     1      -6.098  12.425  67.545  1.00  0.00    -0.134 NA 
HETATM   10  C   UNL     1      -6.754  11.515  66.735  1.00  0.00    -0.121 C  
HETATM   11  C   UNL     1      -5.858  10.516  66.040  1.00  0.00    -0.106 C  
HETATM   12  C   UNL     1      -8.106  11.571  66.607  1.00  0.00    -0.139 C  
HETATM   13  C   UNL     1      -8.894  12.680  67.339  1.00  0.00    -0.189 C  
BRANCH  12  14
HETATM   14  C   UNL     1      -8.790  10.559  65.748  1.00  0.00    -0.175 C  
HETATM   15  O   UNL     1      -8.752  10.561  64.526  1.00  0.00    -0.183 OA 
BRANCH  14  16
HETATM   16  O   UNL     1      -9.446   9.625  66.479  1.00  0.00    -0.161 OA 
BRANCH  16  17
HETATM   17  C   UNL     1      -9.178   8.260  66.105  1.00  0.00    -0.192 C  
HETATM   18  C   UNL     1      -8.080   7.635  66.954  1.00  0.00    -0.116 C  
ENDBRANCH  16  17
ENDBRANCH  14  16
ENDBRANCH  12  14
BRANCH  13  19
HETATM   19  C   UNL     1     -10.136  13.173  66.582  1.00  0.00    -0.264 A  
HETATM   20  C   UNL     1     -11.460  12.799  66.887  1.00  0.00    -0.396 A  
HETATM   21  C   UNL     1     -12.512  13.380  66.151  1.00  0.00    -0.389 A  
HETATM   22  C   UNL     1      -9.916  14.107  65.537  1.00  0.00    -0.323 A  
HETATM   23  C   UNL     1     -10.970  14.668  64.824  1.00  0.00    -0.399 A  
HETATM   24  C   UNL     1     -12.272  14.311  65.138  1.00  0.00    -0.422 A  
BRANCH  20  25
HETATM   25  C   UNL     1     -11.780  11.784  67.906  1.00  0.00    -0.347 C  
HETATM   26  C   UNL     1     -11.585  11.977  69.220  1.00  0.00    -0.380 C  
BRANCH  26  27
HETATM   27  C   UNL     1     -11.991  11.023  70.271  1.00  0.00    -0.365 C  
HETATM   28  O   UNL     1     -12.473  11.410  71.325  1.00  0.00    -0.364 OA 
BRANCH  27  29
HETATM   29  O   UNL     1     -11.771   9.744  69.896  1.00  0.00    -0.154 OA 
HETATM   30  C   UNL     1     -10.646   9.003  70.435  1.00  0.00    -0.218 C  
HETATM   31  C   UNL     1      -9.309   9.683  70.125  1.00  0.00    -0.294 C  
HETATM   32  C   UNL     1     -10.826   8.761  71.938  1.00  0.00    -0.431 C  
HETATM   33  C   UNL     1     -10.685   7.649  69.708  1.00  0.00    -0.243 C  
ENDBRANCH  27  29
ENDBRANCH  26  27
ENDBRANCH  20  25
ENDBRANCH  13  19
ENDBRANCH   4   6
ENDBRANCH   3   4
ENDBRANCH   2   3
TORSDOF 10
ENDMDL
MODEL       15
REMARK 921   NORMALIZED FREE ENERGY PREDICTED BY IDOCK:   -5.27 KCAL/MOL
REMARK 922        TOTAL FREE ENERGY PREDICTED BY IDOCK:  -10.72 KCAL/MOL
REMARK 923 INTER-LIGAND FREE ENERGY PREDICTED BY IDOCK:   -8.41 KCAL/MOL
REMARK 924 INTRA-LIGAND FREE ENERGY PREDICTED BY IDOCK:   -2.31 KCAL/MOL
REMARK 927      BINDING AFFINITY PREDICTED BY RF-SCORE:    0.00 PKD
ROOT
HETATM    1  C   UNL     1      -6.932   7.098  66.810  1.00  0.00    -0.073 C  
HETATM    2  C   UNL     1      -7.092   7.541  65.368  1.00  0.00    -0.063 C  
ENDROOT
BRANCH   2   3
HETATM    3  O   UNL     1      -8.338   8.246  65.223  1.00  0.00    -0.153 OA 
BRANCH   3   4
HETATM    4  C   UNL     1      -8.222   9.592  65.109  1.00  0.00    -0.133 C  
HETATM    5  O   UNL     1      -7.178  10.190  64.888  1.00  0.00    -0.133 OA 
BRANCH   4   6
HETATM    6  C   UNL     1      -9.527  10.272  65.295  1.00  0.00    -0.296 C  
HETATM    7  C   UNL     1     -10.157  10.783  64.209  1.00  0.00    -0.361 C  
HETATM    8  C   UNL     1      -9.777  10.572  62.761  1.00  0.00    -0.265 C  
HETATM    9  N   UNL     1     -11.265  11.594  64.381  1.00  0.00    -0.316 NA 
HETATM   10  C   UNL     1     -11.661  12.130  65.594  1.00  0.00    -0.351 C  
HETATM   11  C   UNL     1     -12.642  13.275  65.496  1.00  0.00    -0.505 C  
HETATM   12  C   UNL     1     -11.162  11.628  66.753  1.00  0.00    -0.371 C  
HETATM   13  C   UNL     1     -10.124  10.485  66.703  1.00  0.00    -0.275 C  
BRANCH  12  14
HETATM   14  C   UNL     1     -11.627  12.208  68.049  1.00  0.00    -0.348 C  
HETATM   15  O   UNL     1     -11.311  13.318  68.454  1.00  0.00    -0.254 OA 
BRANCH  14  16
HETATM   16  O   UNL     1     -12.456  11.370  68.718  1.00  0.00    -0.396 OA 
BRANCH  16  17
HETATM   17  C   UNL     1     -11.997  10.974  70.025  1.00  0.00    -0.351 C  
HETATM   18  C   UNL     1     -12.834  11.588  71.139  1.00  0.00    -0.414 C  
ENDBRANCH  16  17
ENDBRANCH  14  16
ENDBRANCH  12  14
BRANCH  13  19
HETATM   19  C   UNL     1      -9.081  10.532  67.830  1.00  0.00    -0.140 A  
HETATM   20  C   UNL     1      -8.940   9.550  68.830  1.00  0.00    -0.141 A  
HETATM   21  C   UNL     1      -7.895   9.686  69.767  1.00  0.00    -0.144 A  
HETATM   22  C   UNL     1      -8.175  11.624  67.814  1.00  0.00    -0.141 A  
HETATM   23  C   UNL     1      -7.151  11.738  68.748  1.00  0.00    -0.111 A  
HETATM   24  C   UNL     1      -7.005  10.762  69.721  1.00  0.00    -0.141 A  
BRANCH  20  25
HETATM   25  C   UNL     1      -9.875   8.421  68.968  1.00  0.00    -0.184 C  
HETATM   26  C   UNL     1      -9.642   7.369  69.769  1.00  0.00    -0.163 C  
BRANCH  26  27
HETATM   27  C   UNL     1     -10.605   6.275  70.007  1.00  0.00    -0.248 C  
HETATM   28  O   UNL     1     -10.278   5.105  69.875  1.00  0.00    -0.255 OA 
BRANCH  27  29
HETATM   29  O   UNL     1     -11.814   6.747  70.382  1.00  0.00    -0.376 OA 
HETATM   30  C   UNL     1     -12.109   6.983  71.783  1.00  0.00    -0.336 C  
HETATM   31  C   UNL     1     -11.964   5.710  72.623  1.00  0.00    -0.120 C  
HETATM   32  C   UNL     1     -11.249   8.128  72.332  1.00  0.00    -0.452 C  
HETATM   33  C   UNL     1     -13.583   7.418  71.804  1.00  0.00    -0.396 C  
ENDBRANCH  27  29
ENDBRANCH  26  27
ENDBRANCH  20  25
ENDBRANCH  13  19
ENDBRANCH   4   6
ENDBRANCH   3   4
ENDBRANCH   2   3
TORSDOF 10
ENDMDL
MODEL       16
REMARK 921   NORMALIZED FREE ENERGY PREDICTED BY IDOCK:   -5.27 KCAL/MOL
REMARK 922        TOTAL FREE ENERGY PREDICTED BY IDOCK:  -10.72 KCAL/MOL
REMARK 923 INTER-LIGAND FREE ENERGY PREDICTED BY IDOCK:   -8.28 KCAL/MOL
REMARK 924 INTRA-LIGAND FREE ENERGY PREDICTED BY IDOCK:   -2.43 KCAL/MOL
REMARK 927      BINDING AFFINITY PREDICTED BY RF-SCORE:    0.00 PKD
ROOT
HETATM    1  C   UNL     1      -5.770   9.190  66.488  1.00  0.00    -0.054 C  
HETATM    2  C   UNL     1      -6.174   9.482  65.056  1.00  0.00    -0.078 C  
ENDROOT
BRANCH   2   3
HETATM    3  O   UNL     1      -7.417  10.206  65.051  1.00  0.00    -0.136 OA 
BRANCH   3   4
HETATM    4  C   UNL     1      -8.529   9.433  65.080  1.00  0.00    -0.154 C  
HETATM    5  O   UNL     1      -8.543   8.219  64.928  1.00  0.00    -0.145 OA 
BRANCH   4   6
HETATM    6  C   UNL     1      -9.752  10.239  65.312  1.00  0.00    -0.354 C  
HETATM    7  C   UNL     1     -10.292  10.919  64.271  1.00  0.00    -0.368 C  
HETATM    8  C   UNL     1      -9.900  10.803  62.815  1.00  0.00    -0.239 C  
HETATM    9  N   UNL     1     -11.305  11.833  64.503  1.00  0.00    -0.307 NA 
HETATM   10  C   UNL     1     -11.669  12.295  65.756  1.00  0.00    -0.385 C  
HETATM   11  C   UNL     1     -12.511  13.549  65.754  1.00  0.00    -0.514 C  
HETATM   12  C   UNL     1     -11.260  11.631  66.869  1.00  0.00    -0.376 C  
HETATM   13  C   UNL     1     -10.358  10.386  66.724  1.00  0.00    -0.294 C  
BRANCH  12  14
HETATM   14  C   UNL     1     -11.690  12.136  68.207  1.00  0.00    -0.342 C  
HETATM   15  O   UNL     1     -11.444  13.258  68.626  1.00  0.00    -0.260 OA 
BRANCH  14  16
HETATM   16  O   UNL     1     -12.402  11.213  68.899  1.00  0.00    -0.512 OA 
BRANCH  16  17
HETATM   17  C   UNL     1     -12.372  11.369  70.331  1.00  0.00    -0.319 C  
HETATM   18  C   UNL     1     -11.855  10.121  71.035  1.00  0.00    -0.475 C  
ENDBRANCH  16  17
ENDBRANCH  14  16
ENDBRANCH  12  14
BRANCH  13  19
HETATM   19  C   UNL     1      -9.347  10.205  67.866  1.00  0.00    -0.151 A  
HETATM   20  C   UNL     1      -8.364  11.150  68.222  1.00  0.00    -0.143 A  
HETATM   21  C   UNL     1      -7.543  10.884  69.336  1.00  0.00    -0.097 A  
HETATM   22  C   UNL     1      -9.460   9.018  68.635  1.00  0.00    -0.149 A  
HETATM   23  C   UNL     1      -8.639   8.776  69.732  1.00  0.00    -0.131 A  
HETATM   24  C   UNL     1      -7.685   9.715  70.088  1.00  0.00    -0.179 A  
BRANCH  20  25
HETATM   25  C   UNL     1      -8.126  12.376  67.440  1.00  0.00    -0.177 C  
HETATM   26  C   UNL     1      -7.934  13.579  68.003  1.00  0.00    -0.151 C  
BRANCH  26  27
HETATM   27  C   UNL     1      -7.591  14.804  67.253  1.00  0.00    -0.165 C  
HETATM   28  O   UNL     1      -6.504  15.345  67.390  1.00  0.00    -0.234 OA 
BRANCH  27  29
HETATM   29  O   UNL     1      -8.599  15.191  66.440  1.00  0.00    -0.251 OA 
HETATM   30  C   UNL     1      -9.328  16.417  66.707  1.00  0.00    -0.245 C  
HETATM   31  C   UNL     1      -9.992  16.401  68.087  1.00  0.00    -0.242 C  
HETATM   32  C   UNL     1      -8.420  17.639  66.525  1.00  0.00    -0.294 C  
HETATM   33  C   UNL     1     -10.430  16.456  65.636  1.00  0.00    -0.364 C  
ENDBRANCH  27  29
ENDBRANCH  26  27
ENDBRANCH  20  25
ENDBRANCH  13  19
ENDBRANCH   4   6
ENDBRANCH   3   4
ENDBRANCH   2   3
TORSDOF 10
ENDMDL
MODEL       17
REMARK 921   NORMALIZED FREE ENERGY PREDICTED BY IDOCK:   -5.25 KCAL/MOL
REMARK 922        TOTAL FREE ENERGY PREDICTED BY IDOCK:  -10.69 KCAL/MOL
REMARK 923 INTER-LIGAND FREE ENERGY PREDICTED BY IDOCK:   -8.67 KCAL/MOL
REMARK 924 INTRA-LIGAND FREE ENERGY PREDICTED BY IDOCK:   -2.02 KCAL/MOL
REMARK 927      BINDING AFFINITY PREDICTED BY RF-SCORE:    0.00 PKD
ROOT
HETATM    1  C   UNL     1     -11.459  10.301  70.591  1.00  0.00    -0.435 C  
HETATM    2  C   UNL     1     -11.598  11.152  69.343  1.00  0.00    -0.318 C  
ENDROOT
BRANCH   2   3
HETATM    3  O   UNL     1     -10.956  12.421  69.559  1.00  0.00    -0.089 OA 
BRANCH   3   4
HETATM    4  C   UNL     1     -11.794  13.485  69.601  1.00  0.00    -0.336 C  
HETATM    5  O   UNL     1     -12.979  13.433  69.901  1.00  0.00     0.203 OA 
BRANCH   4   6
HETATM    6  C   UNL     1     -11.104  14.742  69.224  1.00  0.00    -0.283 C  
HETATM    7  C   UNL     1     -11.155  15.795  70.076  1.00  0.00    -0.344 C  
HETATM    8  C   UNL     1     -11.683  15.786  71.493  1.00  0.00    -0.523 C  
HETATM    9  N   UNL     1     -10.696  17.033  69.662  1.00  0.00    -0.190 NA 
HETATM   10  C   UNL     1     -10.397  17.356  68.350  1.00  0.00    -0.379 C  
HETATM   11  C   UNL     1     -10.292  18.836  68.065  1.00  0.00    -0.442 C  
HETATM   12  C   UNL     1     -10.229  16.371  67.430  1.00  0.00    -0.281 C  
HETATM   13  C   UNL     1     -10.415  14.897  67.851  1.00  0.00    -0.250 C  
BRANCH  12  14
HETATM   14  C   UNL     1      -9.879  16.747  66.027  1.00  0.00    -0.287 C  
HETATM   15  O   UNL     1     -10.644  17.314  65.260  1.00  0.00    -0.667 OA 
BRANCH  14  16
HETATM   16  O   UNL     1      -8.608  16.404  65.706  1.00  0.00    -0.398 OA 
BRANCH  16  17
HETATM   17  C   UNL     1      -7.601  17.351  66.112  1.00  0.00    -0.286 C  
HETATM   18  C   UNL     1      -6.591  16.741  67.075  1.00  0.00    -0.239 C  
ENDBRANCH  16  17
ENDBRANCH  14  16
ENDBRANCH  12  14
BRANCH  13  19
HETATM   19  C   UNL     1     -10.995  13.996  66.750  1.00  0.00    -0.298 A  
HETATM   20  C   UNL     1     -10.370  12.834  66.255  1.00  0.00    -0.271 A  
HETATM   21  C   UNL     1     -11.047  12.063  65.288  1.00  0.00    -0.367 A  
HETATM   22  C   UNL     1     -12.273  14.350  66.245  1.00  0.00    -0.366 A  
HETATM   23  C   UNL     1     -12.923  13.574  65.291  1.00  0.00    -0.290 A  
HETATM   24  C   UNL     1     -12.313  12.423  64.818  1.00  0.00    -0.497 A  
BRANCH  20  25
HETATM   25  C   UNL     1      -9.016  12.428  66.668  1.00  0.00    -0.184 C  
HETATM   26  C   UNL     1      -8.562  11.169  66.558  1.00  0.00    -0.169 C  
BRANCH  26  27
HETATM   27  C   UNL     1      -7.180  10.753  66.864  1.00  0.00    -0.115 C  
HETATM   28  O   UNL     1      -6.610   9.906  66.191  1.00  0.00    -0.076 OA 
BRANCH  27  29
HETATM   29  O   UNL     1      -6.680  11.423  67.925  1.00  0.00    -0.061 OA 
HETATM   30  C   UNL     1      -6.473  10.745  69.192  1.00  0.00    -0.059 C  
HETATM   31  C   UNL     1      -7.773  10.153  69.745  1.00  0.00    -0.176 C  
HETATM   32  C   UNL     1      -5.373   9.685  69.066  1.00  0.00    -0.036 C  
HETATM   33  C   UNL     1      -5.991  11.847  70.150  1.00  0.00    -0.159 C  
ENDBRANCH  27  29
ENDBRANCH  26  27
ENDBRANCH  20  25
ENDBRANCH  13  19
ENDBRANCH   4   6
ENDBRANCH   3   4
ENDBRANCH   2   3
TORSDOF 10
ENDMDL
MODEL       18
REMARK 921   NORMALIZED FREE ENERGY PREDICTED BY IDOCK:   -5.21 KCAL/MOL
REMARK 922        TOTAL FREE ENERGY PREDICTED BY IDOCK:  -10.62 KCAL/MOL
REMARK 923 INTER-LIGAND FREE ENERGY PREDICTED BY IDOCK:   -8.86 KCAL/MOL
REMARK 924 INTRA-LIGAND FREE ENERGY PREDICTED BY IDOCK:   -1.76 KCAL/MOL
REMARK 927      BINDING AFFINITY PREDICTED BY RF-SCORE:    0.00 PKD
ROOT
HETATM    1  C   UNL     1     -11.698  13.494  67.860  1.00  0.00    -0.392 C  
HETATM    2  C   UNL     1     -11.411  12.090  67.364  1.00  0.00    -0.336 C  
ENDROOT
BRANCH   2   3
HETATM    3  O   UNL     1     -11.327  11.196  68.488  1.00  0.00    -0.233 OA 
BRANCH   3   4
HETATM    4  C   UNL     1     -10.607  10.069  68.269  1.00  0.00    -0.226 C  
HETATM    5  O   UNL     1     -10.872   9.219  67.429  1.00  0.00    -0.255 OA 
BRANCH   4   6
HETATM    6  C   UNL     1      -9.445   9.973  69.185  1.00  0.00    -0.214 C  
HETATM    7  C   UNL     1      -8.207  10.231  68.698  1.00  0.00    -0.116 C  
HETATM    8  C   UNL     1      -7.872  10.808  67.342  1.00  0.00    -0.111 C  
HETATM    9  N   UNL     1      -7.095   9.953  69.474  1.00  0.00    -0.071 NA 
HETATM   10  C   UNL     1      -7.123   9.203  70.638  1.00  0.00    -0.099 C  
HETATM   11  C   UNL     1      -5.776   8.701  71.105  1.00  0.00    -0.036 C  
HETATM   12  C   UNL     1      -8.305   8.964  71.263  1.00  0.00    -0.223 C  
HETATM   13  C   UNL     1      -9.615   9.499  70.645  1.00  0.00    -0.292 C  
BRANCH  12  14
HETATM   14  C   UNL     1      -8.301   8.176  72.532  1.00  0.00    -0.172 C  
HETATM   15  O   UNL     1      -8.421   8.669  73.645  1.00  0.00    -0.353 OA 
BRANCH  14  16
HETATM   16  O   UNL     1      -8.168   6.846  72.309  1.00  0.00    -0.104 OA 
BRANCH  16  17
HETATM   17  C   UNL     1      -8.547   6.002  73.414  1.00  0.00    -0.120 C  
HETATM   18  C   UNL     1      -9.462   4.864  72.982  1.00  0.00    -0.151 C  
ENDBRANCH  16  17
ENDBRANCH  14  16
ENDBRANCH  12  14
BRANCH  13  19
HETATM   19  C   UNL     1     -10.835   8.594  70.877  1.00  0.00    -0.288 A  
HETATM   20  C   UNL     1     -12.061   9.028  71.418  1.00  0.00    -0.392 A  
HETATM   21  C   UNL     1     -13.121   8.104  71.515  1.00  0.00    -0.309 A  
HETATM   22  C   UNL     1     -10.713   7.243  70.464  1.00  0.00    -0.249 A  
HETATM   23  C   UNL     1     -11.773   6.348  70.568  1.00  0.00    -0.385 A  
HETATM   24  C   UNL     1     -12.982   6.782  71.085  1.00  0.00    -0.152 A  
BRANCH  20  25
HETATM   25  C   UNL     1     -12.257  10.392  71.938  1.00  0.00    -0.049 C  
HETATM   26  C   UNL     1     -12.896  11.354  71.253  1.00  0.00    -0.481 C  
BRANCH  26  27
HETATM   27  C   UNL     1     -13.199  12.696  71.788  1.00  0.00    -0.359 C  
HETATM   28  O   UNL     1     -14.117  12.871  72.576  1.00  0.00    -0.556 OA 
BRANCH  27  29
HETATM   29  O   UNL     1     -12.348  13.629  71.307  1.00  0.00    -0.345 OA 
HETATM   30  C   UNL     1     -12.480  15.019  71.705  1.00  0.00    -0.339 C  
HETATM   31  C   UNL     1     -13.854  15.591  71.341  1.00  0.00    -0.501 C  
HETATM   32  C   UNL     1     -12.170  15.188  73.196  1.00  0.00    -0.521 C  
HETATM   33  C   UNL     1     -11.410  15.761  70.889  1.00  0.00    -0.426 C  
ENDBRANCH  27  29
ENDBRANCH  26  27
ENDBRANCH  20  25
ENDBRANCH  13  19
ENDBRANCH   4   6
ENDBRANCH   3   4
ENDBRANCH   2   3
TORSDOF 10
ENDMDL
MODEL       19
REMARK 921   NORMALIZED FREE ENERGY PREDICTED BY IDOCK:   -5.19 KCAL/MOL
REMARK 922        TOTAL FREE ENERGY PREDICTED BY IDOCK:  -10.59 KCAL/MOL
REMARK 923 INTER-LIGAND FREE ENERGY PREDICTED BY IDOCK:   -8.42 KCAL/MOL
REMARK 924 INTRA-LIGAND FREE ENERGY PREDICTED BY IDOCK:   -2.17 KCAL/MOL
REMARK 927      BINDING AFFINITY PREDICTED BY RF-SCORE:    0.00 PKD
ROOT
HETATM    1  C   UNL     1      -8.702   7.634  67.295  1.00  0.00    -0.124 C  
HETATM    2  C   UNL     1      -9.002   7.940  65.841  1.00  0.00    -0.123 C  
ENDROOT
BRANCH   2   3
HETATM    3  O   UNL     1      -9.747   9.168  65.757  1.00  0.00    -0.274 OA 
BRANCH   3   4
HETATM    4  C   UNL     1      -9.040  10.237  65.317  1.00  0.00    -0.191 C  
HETATM    5  O   UNL     1      -7.951  10.177  64.762  1.00  0.00    -0.141 OA 
BRANCH   4   6
HETATM    6  C   UNL     1      -9.742  11.512  65.598  1.00  0.00    -0.261 C  
HETATM    7  C   UNL     1     -10.295  12.194  64.565  1.00  0.00    -0.304 C  
HETATM    8  C   UNL     1     -10.456  11.705  63.143  1.00  0.00    -0.368 C  
HETATM    9  N   UNL     1     -10.773  13.476  64.770  1.00  0.00    -0.377 NA 
HETATM   10  C   UNL     1     -10.525  14.231  65.903  1.00  0.00    -0.307 C  
HETATM   11  C   UNL     1     -10.803  15.709  65.759  1.00  0.00    -0.312 C  
HETATM   12  C   UNL     1     -10.058  13.631  67.029  1.00  0.00    -0.248 C  
HETATM   13  C   UNL     1      -9.770  12.114  67.019  1.00  0.00    -0.208 C  
BRANCH  12  14
HETATM   14  C   UNL     1      -9.824  14.466  68.246  1.00  0.00    -0.229 C  
HETATM   15  O   UNL     1      -8.825  15.148  68.426  1.00  0.00    -0.163 OA 
BRANCH  14  16
HETATM   16  O   UNL     1     -10.857  14.396  69.121  1.00  0.00    -0.252 OA 
BRANCH  16  17
HETATM   17  C   UNL     1     -11.551  15.638  69.344  1.00  0.00    -0.370 C  
HETATM   18  C   UNL     1     -12.475  15.573  70.552  1.00  0.00    -0.472 C  
ENDBRANCH  16  17
ENDBRANCH  14  16
ENDBRANCH  12  14
BRANCH  13  19
HETATM   19  C   UNL     1      -8.589  11.692  67.906  1.00  0.00    -0.150 A  
HETATM   20  C   UNL     1      -8.684  10.806  68.998  1.00  0.00    -0.136 A  
HETATM   21  C   UNL     1      -7.506  10.453  69.686  1.00  0.00    -0.160 A  
HETATM   22  C   UNL     1      -7.313  12.203  67.553  1.00  0.00    -0.135 A  
HETATM   23  C   UNL     1      -6.163  11.841  68.247  1.00  0.00    -0.050 A  
HETATM   24  C   UNL     1      -6.258  10.957  69.309  1.00  0.00    -0.055 A  
BRANCH  20  25
HETATM   25  C   UNL     1      -9.973  10.282  69.480  1.00  0.00    -0.252 C  
HETATM   26  C   UNL     1     -10.122   9.686  70.674  1.00  0.00    -0.324 C  
BRANCH  26  27
HETATM   27  C   UNL     1     -11.417   9.245  71.229  1.00  0.00    -0.347 C  
HETATM   28  O   UNL     1     -12.429   9.915  71.082  1.00  0.00    -0.320 OA 
BRANCH  27  29
HETATM   29  O   UNL     1     -11.310   8.059  71.867  1.00  0.00    -0.256 OA 
HETATM   30  C   UNL     1     -12.044   6.900  71.393  1.00  0.00    -0.364 C  
HETATM   31  C   UNL     1     -13.556   7.145  71.382  1.00  0.00    -0.368 C  
HETATM   32  C   UNL     1     -11.529   6.456  70.019  1.00  0.00    -0.496 C  
HETATM   33  C   UNL     1     -11.735   5.797  72.418  1.00  0.00    -0.281 C  
ENDBRANCH  27  29
ENDBRANCH  26  27
ENDBRANCH  20  25
ENDBRANCH  13  19
ENDBRANCH   4   6
ENDBRANCH   3   4
ENDBRANCH   2   3
TORSDOF 10
ENDMDL
MODEL       20
REMARK 921   NORMALIZED FREE ENERGY PREDICTED BY IDOCK:   -5.18 KCAL/MOL
REMARK 922        TOTAL FREE ENERGY PREDICTED BY IDOCK:  -10.57 KCAL/MOL
REMARK 923 INTER-LIGAND FREE ENERGY PREDICTED BY IDOCK:   -8.25 KCAL/MOL
REMARK 924 INTRA-LIGAND FREE ENERGY PREDICTED BY IDOCK:   -2.32 KCAL/MOL
REMARK 927      BINDING AFFINITY PREDICTED BY RF-SCORE:    0.00 PKD
ROOT
HETATM    1  C   UNL     1     -12.434  11.889  63.348  1.00  0.00    -0.582 C  
HETATM    2  C   UNL     1     -12.160  13.379  63.406  1.00  0.00    -0.372 C  
ENDROOT
BRANCH   2   3
HETATM    3  O   UNL     1     -10.953  13.612  64.154  1.00  0.00    -0.345 OA 
BRANCH   3   4
HETATM    4  C   UNL     1     -11.060  13.412  65.490  1.00  0.00    -0.282 C  
HETATM    5  O   UNL     1     -12.105  13.460  66.124  1.00  0.00    -0.399 OA 
BRANCH   4   6
HETATM    6  C   UNL     1      -9.743  13.133  66.111  1.00  0.00    -0.254 C  
HETATM    7  C   UNL     1      -9.378  11.844  66.317  1.00  0.00    -0.227 C  
HETATM    8  C   UNL     1     -10.086  10.611  65.802  1.00  0.00    -0.327 C  
HETATM    9  N   UNL     1      -8.254  11.564  67.073  1.00  0.00    -0.160 NA 
HETATM   10  C   UNL     1      -7.583  12.494  67.849  1.00  0.00    -0.133 C  
HETATM   11  C   UNL     1      -6.642  11.908  68.876  1.00  0.00    -0.087 C  
HETATM   12  C   UNL     1      -7.803  13.821  67.660  1.00  0.00    -0.185 C  
HETATM   13  C   UNL     1      -8.833  14.278  66.605  1.00  0.00    -0.167 C  
BRANCH  12  14
HETATM   14  C   UNL     1      -7.045  14.802  68.493  1.00  0.00    -0.110 C  
HETATM   15  O   UNL     1      -7.306  15.055  69.661  1.00  0.00    -0.192 OA 
BRANCH  14  16
HETATM   16  O   UNL     1      -6.019  15.369  67.811  1.00  0.00    -0.141 OA 
BRANCH  16  17
HETATM   17  C   UNL     1      -6.079  16.804  67.703  1.00  0.00    -0.146 C  
HETATM   18  C   UNL     1      -5.856  17.284  66.275  1.00  0.00    -0.170 C  
ENDBRANCH  16  17
ENDBRANCH  14  16
ENDBRANCH  12  14
BRANCH  13  19
HETATM   19  C   UNL     1      -9.585  15.566  66.976  1.00  0.00    -0.233 A  
HETATM   20  C   UNL     1     -10.390  15.720  68.122  1.00  0.00    -0.242 A  
HETATM   21  C   UNL     1     -10.969  16.980  68.375  1.00  0.00    -0.263 A  
HETATM   22  C   UNL     1      -9.402  16.680  66.117  1.00  0.00    -0.318 A  
HETATM   23  C   UNL     1      -9.984  17.914  66.387  1.00  0.00    -0.358 A  
HETATM   24  C   UNL     1     -10.761  18.068  67.523  1.00  0.00    -0.352 A  
BRANCH  20  25
HETATM   25  C   UNL     1     -10.693  14.602  69.032  1.00  0.00    -0.253 C  
HETATM   26  C   UNL     1     -11.853  14.494  69.700  1.00  0.00    -0.367 C  
BRANCH  26  27
HETATM   27  C   UNL     1     -12.228  13.337  70.535  1.00  0.00    -0.340 C  
HETATM   28  O   UNL     1     -13.227  13.361  71.239  1.00  0.00    -0.274 OA 
BRANCH  27  29
HETATM   29  O   UNL     1     -11.355  12.315  70.394  1.00  0.00     0.142 OA 
HETATM   30  C   UNL     1     -11.809  11.020  69.923  1.00  0.00    -0.353 C  
HETATM   31  C   UNL     1     -12.886  10.423  70.834  1.00  0.00    -0.482 C  
HETATM   32  C   UNL     1     -12.280  11.107  68.467  1.00  0.00     0.064 C  
HETATM   33  C   UNL     1     -10.562  10.122  69.987  1.00  0.00    -0.338 C  
ENDBRANCH  27  29
ENDBRANCH  26  27
ENDBRANCH  20  25
ENDBRANCH  13  19
ENDBRANCH   4   6
ENDBRANCH   3   4
ENDBRANCH   2   3
TORSDOF 10
ENDMDL
MODEL       21
REMARK 921   NORMALIZED FREE ENERGY PREDICTED BY IDOCK:   -5.16 KCAL/MOL
REMARK 922        TOTAL FREE ENERGY PREDICTED BY IDOCK:  -10.55 KCAL/MOL
REMARK 923 INTER-LIGAND FREE ENERGY PREDICTED BY IDOCK:   -9.54 KCAL/MOL
REMARK 924 INTRA-LIGAND FREE ENERGY PREDICTED BY IDOCK:   -1.00 KCAL/MOL
REMARK 927      BINDING AFFINITY PREDICTED BY RF-SCORE:    0.00 PKD
ROOT
HETATM    1  C   UNL     1     -12.312  12.896  63.858  1.00  0.00    -0.476 C  
HETATM    2  C   UNL     1     -11.820  14.304  63.584  1.00  0.00     0.232 C  
ENDROOT
BRANCH   2   3
HETATM    3  O   UNL     1     -11.768  15.038  64.820  1.00  0.00    -0.396 OA 
BRANCH   3   4
HETATM    4  C   UNL     1     -11.649  14.276  65.933  1.00  0.00    -0.358 C  
HETATM    5  O   UNL     1     -12.585  13.851  66.596  1.00  0.00    -0.351 OA 
BRANCH   4   6
HETATM    6  C   UNL     1     -10.229  14.017  66.272  1.00  0.00    -0.300 C  
HETATM    7  C   UNL     1      -9.848  12.749  66.562  1.00  0.00    -0.258 C  
HETATM    8  C   UNL     1     -10.675  11.495  66.392  1.00  0.00    -0.320 C  
HETATM    9  N   UNL     1      -8.584  12.515  67.075  1.00  0.00    -0.197 NA 
HETATM   10  C   UNL     1      -7.737  13.503  67.547  1.00  0.00    -0.175 C  
HETATM   11  C   UNL     1      -6.594  13.009  68.403  1.00  0.00    -0.090 C  
HETATM   12  C   UNL     1      -7.972  14.804  67.235  1.00  0.00    -0.232 C  
HETATM   13  C   UNL     1      -9.211  15.172  66.388  1.00  0.00    -0.334 C  
BRANCH  12  14
HETATM   14  C   UNL     1      -7.027  15.847  67.735  1.00  0.00    -0.149 C  
HETATM   15  O   UNL     1      -7.014  16.266  68.883  1.00  0.00    -0.147 OA 
BRANCH  14  16
HETATM   16  O   UNL     1      -6.169  16.265  66.772  1.00  0.00    -0.309 OA 
BRANCH  16  17
HETATM   17  C   UNL     1      -5.998  17.693  66.687  1.00  0.00    -0.182 C  
HETATM   18  C   UNL     1      -6.235  18.219  65.277  1.00  0.00    -0.198 C  
ENDBRANCH  16  17
ENDBRANCH  14  16
ENDBRANCH  12  14
BRANCH  13  19
HETATM   19  C   UNL     1      -9.835  16.530  66.743  1.00  0.00    -0.274 A  
HETATM   20  C   UNL     1     -10.373  16.858  68.003  1.00  0.00    -0.334 A  
HETATM   21  C   UNL     1     -10.855  18.167  68.211  1.00  0.00    -0.042 A  
HETATM   22  C   UNL     1      -9.814  17.524  65.731  1.00  0.00     0.003 A  
HETATM   23  C   UNL     1     -10.295  18.809  65.959  1.00  0.00    -0.467 A  
HETATM   24  C   UNL     1     -10.808  19.134  67.204  1.00  0.00    -0.507 A  
BRANCH  20  25
HETATM   25  C   UNL     1     -10.502  15.872  69.089  1.00  0.00    -0.235 C  
HETATM   26  C   UNL     1     -11.669  15.298  69.424  1.00  0.00    -0.361 C  
BRANCH  26  27
HETATM   27  C   UNL     1     -11.812  14.233  70.436  1.00  0.00    -0.305 C  
HETATM   28  O   UNL     1     -11.808  13.053  70.117  1.00  0.00    -0.313 OA 
BRANCH  27  29
HETATM   29  O   UNL     1     -11.926  14.740  71.683  1.00  0.00    -0.338 OA 
HETATM   30  C   UNL     1     -13.199  14.701  72.379  1.00  0.00    -0.406 C  
HETATM   31  C   UNL     1     -14.297  15.441  71.609  1.00  0.00    -0.615 C  
HETATM   32  C   UNL     1     -13.600  13.255  72.694  1.00  0.00    -0.496 C  
HETATM   33  C   UNL     1     -12.944  15.443  73.701  1.00  0.00    -0.611 C  
ENDBRANCH  27  29
ENDBRANCH  26  27
ENDBRANCH  20  25
ENDBRANCH  13  19
ENDBRANCH   4   6
ENDBRANCH   3   4
ENDBRANCH   2   3
TORSDOF 10
ENDMDL
MODEL       22
REMARK 921   NORMALIZED FREE ENERGY PREDICTED BY IDOCK:   -5.12 KCAL/MOL
REMARK 922        TOTAL FREE ENERGY PREDICTED BY IDOCK:  -10.47 KCAL/MOL
REMARK 923 INTER-LIGAND FREE ENERGY PREDICTED BY IDOCK:   -8.18 KCAL/MOL
REMARK 924 INTRA-LIGAND FREE ENERGY PREDICTED BY IDOCK:   -2.29 KCAL/MOL
REMARK 927      BINDING AFFINITY PREDICTED BY RF-SCORE:    0.00 PKD
ROOT
HETATM    1  C   UNL     1     -12.525  12.255  63.404  1.00  0.00    -0.592 C  
HETATM    2  C   UNL     1     -11.108  11.721  63.486  1.00  0.00    -0.422 C  
ENDROOT
BRANCH   2   3
HETATM    3  O   UNL     1     -10.947  10.987  64.713  1.00  0.00    -0.224 OA 
BRANCH   3   4
HETATM    4  C   UNL     1     -10.223  11.620  65.667  1.00  0.00    -0.243 C  
HETATM    5  O   UNL     1      -9.038  11.906  65.574  1.00  0.00    -0.084 OA 
BRANCH   4   6
HETATM    6  C   UNL     1     -11.042  11.925  66.865  1.00  0.00    -0.356 C  
HETATM    7  C   UNL     1     -11.425  13.206  67.085  1.00  0.00    -0.334 C  
HETATM    8  C   UNL     1     -11.279  14.370  66.130  1.00  0.00    -0.336 C  
HETATM    9  N   UNL     1     -12.012  13.548  68.291  1.00  0.00    -0.362 NA 
HETATM   10  C   UNL     1     -12.034  12.730  69.408  1.00  0.00    -0.263 C  
HETATM   11  C   UNL     1     -12.368  13.430  70.705  1.00  0.00    -0.423 C  
HETATM   12  C   UNL     1     -11.758  11.406  69.285  1.00  0.00    -0.404 C  
HETATM   13  C   UNL     1     -11.382  10.832  67.901  1.00  0.00    -0.372 C  
BRANCH  12  14
HETATM   14  C   UNL     1     -11.816  10.542  70.503  1.00  0.00    -0.347 C  
HETATM   15  O   UNL     1     -10.834  10.204  71.149  1.00  0.00    -0.173 OA 
BRANCH  14  16
HETATM   16  O   UNL     1     -13.085  10.190  70.822  1.00  0.00    -0.369 OA 
BRANCH  16  17
HETATM   17  C   UNL     1     -13.201   9.227  71.887  1.00  0.00    -0.423 C  
HETATM   18  C   UNL     1     -13.537   7.835  71.370  1.00  0.00    -0.334 C  
ENDBRANCH  16  17
ENDBRANCH  14  16
ENDBRANCH  12  14
BRANCH  13  19
HETATM   19  C   UNL     1     -10.371   9.676  67.953  1.00  0.00    -0.271 A  
HETATM   20  C   UNL     1      -9.047   9.791  68.419  1.00  0.00    -0.123 A  
HETATM   21  C   UNL     1      -8.247   8.632  68.473  1.00  0.00    -0.122 A  
HETATM   22  C   UNL     1     -10.841   8.401  67.544  1.00  0.00    -0.083 A  
HETATM   23  C   UNL     1     -10.034   7.270  67.606  1.00  0.00    -0.207 A  
HETATM   24  C   UNL     1      -8.737   7.384  68.081  1.00  0.00    -0.122 A  
BRANCH  20  25
HETATM   25  C   UNL     1      -8.451  11.084  68.797  1.00  0.00    -0.144 C  
HETATM   26  C   UNL     1      -7.215  11.458  68.430  1.00  0.00    -0.087 C  
BRANCH  26  27
HETATM   27  C   UNL     1      -6.631  12.785  68.704  1.00  0.00    -0.084 C  
HETATM   28  O   UNL     1      -5.887  12.965  69.657  1.00  0.00    -0.095 OA 
BRANCH  27  29
HETATM   29  O   UNL     1      -7.015  13.699  67.786  1.00  0.00    -0.130 OA 
HETATM   30  C   UNL     1      -7.498  15.002  68.203  1.00  0.00    -0.112 C  
HETATM   31  C   UNL     1      -8.728  14.894  69.111  1.00  0.00    -0.149 C  
HETATM   32  C   UNL     1      -6.375  15.812  68.860  1.00  0.00    -0.116 C  
HETATM   33  C   UNL     1      -7.914  15.701  66.899  1.00  0.00    -0.278 C  
ENDBRANCH  27  29
ENDBRANCH  26  27
ENDBRANCH  20  25
ENDBRANCH  13  19
ENDBRANCH   4   6
ENDBRANCH   3   4
ENDBRANCH   2   3
TORSDOF 10
ENDMDL
MODEL       23
REMARK 921   NORMALIZED FREE ENERGY PREDICTED BY IDOCK:   -5.11 KCAL/MOL
REMARK 922        TOTAL FREE ENERGY PREDICTED BY IDOCK:  -10.46 KCAL/MOL
REMARK 923 INTER-LIGAND FREE ENERGY PREDICTED BY IDOCK:   -8.99 KCAL/MOL
REMARK 924 INTRA-LIGAND FREE ENERGY PREDICTED BY IDOCK:   -1.48 KCAL/MOL
REMARK 927      BINDING AFFINITY PREDICTED BY RF-SCORE:    0.00 PKD
ROOT
HETATM    1  C   UNL     1      -6.434  10.117  63.518  1.00  0.00    -0.134 C  
HETATM    2  C   UNL     1      -5.788  10.065  64.889  1.00  0.00    -0.104 C  
ENDROOT
BRANCH   2   3
HETATM    3  O   UNL     1      -6.811  10.090  65.899  1.00  0.00    -0.095 OA 
BRANCH   3   4
HETATM    4  C   UNL     1      -6.767  11.159  66.731  1.00  0.00    -0.135 C  
HETATM    5  O   UNL     1      -6.073  12.152  66.561  1.00  0.00    -0.128 OA 
BRANCH   4   6
HETATM    6  C   UNL     1      -7.664  10.983  67.899  1.00  0.00    -0.104 C  
HETATM    7  C   UNL     1      -7.299  10.120  68.877  1.00  0.00    -0.083 C  
HETATM    8  C   UNL     1      -5.958   9.436  69.025  1.00  0.00    -0.042 C  
HETATM    9  N   UNL     1      -8.205   9.787  69.869  1.00  0.00    -0.169 NA 
HETATM   10  C   UNL     1      -9.556  10.083  69.824  1.00  0.00    -0.216 C  
HETATM   11  C   UNL     1     -10.413   9.305  70.796  1.00  0.00    -0.343 C  
HETATM   12  C   UNL     1     -10.020  11.006  68.942  1.00  0.00    -0.201 C  
HETATM   13  C   UNL     1      -9.035  11.690  67.968  1.00  0.00    -0.176 C  
BRANCH  12  14
HETATM   14  C   UNL     1     -11.479  11.325  68.933  1.00  0.00    -0.297 C  
HETATM   15  O   UNL     1     -12.262  10.925  68.083  1.00  0.00    -0.503 OA 
BRANCH  14  16
HETATM   16  O   UNL     1     -11.842  12.095  69.988  1.00  0.00    -0.328 OA 
BRANCH  16  17
HETATM   17  C   UNL     1     -11.925  13.506  69.712  1.00  0.00    -0.340 C  
HETATM   18  C   UNL     1     -12.505  14.289  70.882  1.00  0.00    -0.424 C  
ENDBRANCH  16  17
ENDBRANCH  14  16
ENDBRANCH  12  14
BRANCH  13  19
HETATM   19  C   UNL     1      -9.639  12.031  66.598  1.00  0.00    -0.225 A  
HETATM   20  C   UNL     1      -9.903  13.338  66.142  1.00  0.00    -0.286 A  
HETATM   21  C   UNL     1     -10.398  13.509  64.833  1.00  0.00    -0.395 A  
HETATM   22  C   UNL     1      -9.897  10.941  65.727  1.00  0.00    -0.286 A  
HETATM   23  C   UNL     1     -10.386  11.134  64.439  1.00  0.00    -0.407 A  
HETATM   24  C   UNL     1     -10.628  12.421  63.988  1.00  0.00    -0.444 A  
BRANCH  20  25
HETATM   25  C   UNL     1      -9.734  14.523  67.000  1.00  0.00    -0.247 C  
HETATM   26  C   UNL     1     -10.171  15.745  66.656  1.00  0.00    -0.290 C  
BRANCH  26  27
HETATM   27  C   UNL     1     -10.110  16.929  67.536  1.00  0.00    -0.282 C  
HETATM   28  O   UNL     1     -10.829  17.024  68.520  1.00  0.00    -0.354 OA 
BRANCH  27  29
HETATM   29  O   UNL     1      -9.186  17.819  67.112  1.00  0.00    -0.245 OA 
HETATM   30  C   UNL     1      -9.536  19.218  66.944  1.00  0.00    -0.325 C  
HETATM   31  C   UNL     1     -10.676  19.407  65.939  1.00  0.00    -0.501 C  
HETATM   32  C   UNL     1      -9.856  19.863  68.297  1.00  0.00    -0.514 C  
HETATM   33  C   UNL     1      -8.267  19.871  66.372  1.00  0.00    -0.365 C  
ENDBRANCH  27  29
ENDBRANCH  26  27
ENDBRANCH  20  25
ENDBRANCH  13  19
ENDBRANCH   4   6
ENDBRANCH   3   4
ENDBRANCH   2   3
TORSDOF 10
ENDMDL
MODEL       24
REMARK 921   NORMALIZED FREE ENERGY PREDICTED BY IDOCK:   -5.11 KCAL/MOL
REMARK 922        TOTAL FREE ENERGY PREDICTED BY IDOCK:  -10.46 KCAL/MOL
REMARK 923 INTER-LIGAND FREE ENERGY PREDICTED BY IDOCK:   -8.18 KCAL/MOL
REMARK 924 INTRA-LIGAND FREE ENERGY PREDICTED BY IDOCK:   -2.28 KCAL/MOL
REMARK 927      BINDING AFFINITY PREDICTED BY RF-SCORE:    0.00 PKD
ROOT
HETATM    1  C   UNL     1      -6.796   8.802  67.386  1.00  0.00    -0.071 C  
HETATM    2  C   UNL     1      -5.904   8.777  68.612  1.00  0.00    -0.044 C  
ENDROOT
BRANCH   2   3
HETATM    3  O   UNL     1      -6.679   8.376  69.756  1.00  0.00    -0.039 OA 
BRANCH   3   4
HETATM    4  C   UNL     1      -7.218   9.396  70.467  1.00  0.00    -0.123 C  
HETATM    5  O   UNL     1      -6.954  10.580  70.305  1.00  0.00    -0.211 OA 
BRANCH   4   6
HETATM    6  C   UNL     1      -8.173   8.907  71.490  1.00  0.00    -0.143 C  
HETATM    7  C   UNL     1      -7.685   8.413  72.655  1.00  0.00    -0.080 C  
HETATM    8  C   UNL     1      -6.253   8.477  73.134  1.00  0.00    -0.107 C  
HETATM    9  N   UNL     1      -8.538   7.769  73.534  1.00  0.00    -0.199 NA 
HETATM   10  C   UNL     1      -9.826   7.370  73.223  1.00  0.00    -0.272 C  
HETATM   11  C   UNL     1     -10.429   6.360  74.172  1.00  0.00    -0.258 C  
HETATM   12  C   UNL     1     -10.447   7.877  72.126  1.00  0.00    -0.308 C  
HETATM   13  C   UNL     1      -9.691   8.868  71.214  1.00  0.00    -0.359 C  
BRANCH  12  14
HETATM   14  C   UNL     1     -11.848   7.450  71.829  1.00  0.00    -0.294 C  
HETATM   15  O   UNL     1     -12.136   6.495  71.122  1.00  0.00    -0.350 OA 
BRANCH  14  16
HETATM   16  O   UNL     1     -12.764   8.232  72.450  1.00  0.00    -0.312 OA 
BRANCH  16  17
HETATM   17  C   UNL     1     -13.386   9.224  71.611  1.00  0.00    -0.394 C  
HETATM   18  C   UNL     1     -13.082  10.643  72.072  1.00  0.00    -0.501 C  
ENDBRANCH  16  17
ENDBRANCH  14  16
ENDBRANCH  12  14
BRANCH  13  19
HETATM   19  C   UNL     1     -10.059   8.758  69.726  1.00  0.00    -0.198 A  
HETATM   20  C   UNL     1     -10.455   9.842  68.918  1.00  0.00    -0.229 A  
HETATM   21  C   UNL     1     -10.700   9.610  67.549  1.00  0.00    -0.321 A  
HETATM   22  C   UNL     1      -9.935   7.476  69.133  1.00  0.00    -0.179 A  
HETATM   23  C   UNL     1     -10.181   7.269  67.779  1.00  0.00    -0.247 A  
HETATM   24  C   UNL     1     -10.555   8.340  66.984  1.00  0.00    -0.328 A  
BRANCH  20  25
HETATM   25  C   UNL     1     -10.678  11.193  69.461  1.00  0.00    -0.193 C  
HETATM   26  C   UNL     1     -11.598  12.038  68.969  1.00  0.00    -0.370 C  
BRANCH  26  27
HETATM   27  C   UNL     1     -11.916  13.355  69.555  1.00  0.00    -0.319 C  
HETATM   28  O   UNL     1     -12.272  13.460  70.720  1.00  0.00    -0.358 OA 
BRANCH  27  29
HETATM   29  O   UNL     1     -11.748  14.354  68.661  1.00  0.00    -0.299 OA 
HETATM   30  C   UNL     1     -10.721  15.358  68.866  1.00  0.00    -0.244 C  
HETATM   31  C   UNL     1     -10.909  16.111  70.186  1.00  0.00    -0.328 C  
HETATM   32  C   UNL     1      -9.324  14.734  68.760  1.00  0.00    -0.198 C  
HETATM   33  C   UNL     1     -10.908  16.350  67.706  1.00  0.00    -0.306 C  
ENDBRANCH  27  29
ENDBRANCH  26  27
ENDBRANCH  20  25
ENDBRANCH  13  19
ENDBRANCH   4   6
ENDBRANCH   3   4
ENDBRANCH   2   3
TORSDOF 10
ENDMDL
MODEL       25
REMARK 921   NORMALIZED FREE ENERGY PREDICTED BY IDOCK:   -5.01 KCAL/MOL
REMARK 922        TOTAL FREE ENERGY PREDICTED BY IDOCK:  -10.31 KCAL/MOL
REMARK 923 INTER-LIGAND FREE ENERGY PREDICTED BY IDOCK:   -8.46 KCAL/MOL
REMARK 924 INTRA-LIGAND FREE ENERGY PREDICTED BY IDOCK:   -1.85 KCAL/MOL
REMARK 927      BINDING AFFINITY PREDICTED BY RF-SCORE:    0.00 PKD
ROOT
HETATM    1  C   UNL     1     -10.688  11.544  66.240  1.00  0.00    -0.321 C  
HETATM    2  C   UNL     1     -10.022  10.292  66.777  1.00  0.00    -0.209 C  
ENDROOT
BRANCH   2   3
HETATM    3  O   UNL     1     -11.009   9.469  67.424  1.00  0.00    -0.232 OA 
BRANCH   3   4
HETATM    4  C   UNL     1     -10.623   8.190  67.656  1.00  0.00    -0.188 C  
HETATM    5  O   UNL     1     -11.165   7.199  67.187  1.00  0.00    -0.276 OA 
BRANCH   4   6
HETATM    6  C   UNL     1      -9.455   8.126  68.567  1.00  0.00    -0.144 C  
HETATM    7  C   UNL     1      -8.280   7.650  68.088  1.00  0.00    -0.124 C  
HETATM    8  C   UNL     1      -7.949   7.346  66.644  1.00  0.00    -0.121 C  
HETATM    9  N   UNL     1      -7.240   7.391  68.963  1.00  0.00    -0.083 NA 
HETATM   10  C   UNL     1      -7.369   7.354  70.341  1.00  0.00    -0.077 C  
HETATM   11  C   UNL     1      -6.228   6.683  71.071  1.00  0.00    -0.040 C  
HETATM   12  C   UNL     1      -8.467   7.889  70.934  1.00  0.00    -0.126 C  
HETATM   13  C   UNL     1      -9.583   8.501  70.059  1.00  0.00    -0.170 C  
BRANCH  12  14
HETATM   14  C   UNL     1      -8.567   7.860  72.424  1.00  0.00    -0.146 C  
HETATM   15  O   UNL     1      -8.425   8.841  73.139  1.00  0.00    -0.386 OA 
BRANCH  14  16
HETATM   16  O   UNL     1      -8.853   6.621  72.894  1.00  0.00    -0.126 OA 
BRANCH  16  17
HETATM   17  C   UNL     1      -9.758   6.588  74.015  1.00  0.00    -0.248 C  
HETATM   18  C   UNL     1     -10.502   5.263  74.116  1.00  0.00    -0.319 C  
ENDBRANCH  16  17
ENDBRANCH  14  16
ENDBRANCH  12  14
BRANCH  13  19
HETATM   19  C   UNL     1     -10.998   8.331  70.633  1.00  0.00    -0.257 A  
HETATM   20  C   UNL     1     -11.915   9.383  70.825  1.00  0.00    -0.298 A  
HETATM   21  C   UNL     1     -13.206   9.075  71.299  1.00  0.00    -0.262 A  
HETATM   22  C   UNL     1     -11.405   7.007  70.939  1.00  0.00    -0.334 A  
HETATM   23  C   UNL     1     -12.685   6.726  71.407  1.00  0.00    -0.317 A  
HETATM   24  C   UNL     1     -13.590   7.761  71.578  1.00  0.00    -0.391 A  
BRANCH  20  25
HETATM   25  C   UNL     1     -11.558  10.795  70.602  1.00  0.00    -0.388 C  
HETATM   26  C   UNL     1     -12.319  11.640  69.889  1.00  0.00    -0.226 C  
BRANCH  26  27
HETATM   27  C   UNL     1     -12.042  13.082  69.736  1.00  0.00    -0.258 C  
HETATM   28  O   UNL     1     -12.142  13.634  68.649  1.00  0.00    -0.360 OA 
BRANCH  27  29
HETATM   29  O   UNL     1     -11.697  13.652  70.911  1.00  0.00    -0.128 OA 
HETATM   30  C   UNL     1     -12.699  14.303  71.734  1.00  0.00    -0.347 C  
HETATM   31  C   UNL     1     -13.397  15.447  70.992  1.00  0.00    -0.545 C  
HETATM   32  C   UNL     1     -13.705  13.280  72.275  1.00  0.00    -0.686 C  
HETATM   33  C   UNL     1     -11.912  14.894  72.914  1.00  0.00    -0.328 C  
ENDBRANCH  27  29
ENDBRANCH  26  27
ENDBRANCH  20  25
ENDBRANCH  13  19
ENDBRANCH   4   6
ENDBRANCH   3   4
ENDBRANCH   2   3
TORSDOF 10
ENDMDL
MODEL       26
REMARK 921   NORMALIZED FREE ENERGY PREDICTED BY IDOCK:   -5.01 KCAL/MOL
REMARK 922        TOTAL FREE ENERGY PREDICTED BY IDOCK:  -10.31 KCAL/MOL
REMARK 923 INTER-LIGAND FREE ENERGY PREDICTED BY IDOCK:   -9.74 KCAL/MOL
REMARK 924 INTRA-LIGAND FREE ENERGY PREDICTED BY IDOCK:   -0.58 KCAL/MOL
REMARK 927      BINDING AFFINITY PREDICTED BY RF-SCORE:    0.00 PKD
ROOT
HETATM    1  C   UNL     1     -10.841  19.613  67.576  1.00  0.00    -0.463 C  
HETATM    2  C   UNL     1     -10.463  18.821  66.339  1.00  0.00    -0.429 C  
ENDROOT
BRANCH   2   3
HETATM    3  O   UNL     1     -10.752  17.429  66.558  1.00  0.00    -0.229 OA 
BRANCH   3   4
HETATM    4  C   UNL     1     -10.763  16.665  65.439  1.00  0.00    -0.215 C  
HETATM    5  O   UNL     1     -11.097  17.053  64.328  1.00  0.00    -1.092 OA 
BRANCH   4   6
HETATM    6  C   UNL     1     -10.326  15.276  65.720  1.00  0.00    -0.364 C  
HETATM    7  C   UNL     1     -11.221  14.268  65.572  1.00  0.00    -0.320 C  
HETATM    8  C   UNL     1     -12.597  14.365  64.954  1.00  0.00    -0.298 C  
HETATM    9  N   UNL     1     -10.900  12.998  66.019  1.00  0.00    -0.270 NA 
HETATM   10  C   UNL     1      -9.817  12.706  66.830  1.00  0.00    -0.234 C  
HETATM   11  C   UNL     1      -9.873  11.356  67.507  1.00  0.00    -0.194 C  
HETATM   12  C   UNL     1      -8.814  13.610  66.974  1.00  0.00    -0.233 C  
HETATM   13  C   UNL     1      -8.912  14.976  66.260  1.00  0.00    -0.233 C  
BRANCH  12  14
HETATM   14  C   UNL     1      -7.644  13.256  67.834  1.00  0.00    -0.152 C  
HETATM   15  O   UNL     1      -7.722  13.016  69.030  1.00  0.00     0.027 OA 
BRANCH  14  16
HETATM   16  O   UNL     1      -6.486  13.214  67.131  1.00  0.00    -0.227 OA 
BRANCH  16  17
HETATM   17  C   UNL     1      -5.778  11.961  67.199  1.00  0.00    -0.139 C  
HETATM   18  C   UNL     1      -6.057  11.075  65.992  1.00  0.00    -0.094 C  
ENDBRANCH  16  17
ENDBRANCH  14  16
ENDBRANCH  12  14
BRANCH  13  19
HETATM   19  C   UNL     1      -8.273  16.138  67.035  1.00  0.00    -0.250 A  
HETATM   20  C   UNL     1      -8.552  16.453  68.380  1.00  0.00    -0.209 A  
HETATM   21  C   UNL     1      -7.842  17.508  68.988  1.00  0.00    -0.118 A  
HETATM   22  C   UNL     1      -7.299  16.905  66.344  1.00  0.00    -0.302 A  
HETATM   23  C   UNL     1      -6.611  17.942  66.964  1.00  0.00    -0.202 A  
HETATM   24  C   UNL     1      -6.876  18.238  68.292  1.00  0.00    -0.233 A  
BRANCH  20  25
HETATM   25  C   UNL     1      -9.596  15.759  69.154  1.00  0.00    -0.255 C  
HETATM   26  C   UNL     1     -10.573  16.404  69.811  1.00  0.00    -0.288 C  
BRANCH  26  27
HETATM   27  C   UNL     1     -11.690  15.736  70.507  1.00  0.00    -0.377 C  
HETATM   28  O   UNL     1     -12.456  14.995  69.908  1.00  0.00    -0.297 OA 
BRANCH  27  29
HETATM   29  O   UNL     1     -11.715  16.044  71.822  1.00  0.00    -0.450 OA 
HETATM   30  C   UNL     1     -12.738  15.488  72.688  1.00  0.00    -0.411 C  
HETATM   31  C   UNL     1     -14.149  15.862  72.223  1.00  0.00    -0.278 C  
HETATM   32  C   UNL     1     -12.568  13.970  72.823  1.00  0.00    -0.197 C  
HETATM   33  C   UNL     1     -12.486  16.138  74.058  1.00  0.00    -0.711 C  
ENDBRANCH  27  29
ENDBRANCH  26  27
ENDBRANCH  20  25
ENDBRANCH  13  19
ENDBRANCH   4   6
ENDBRANCH   3   4
ENDBRANCH   2   3
TORSDOF 10
ENDMDL
MODEL       27
REMARK 921   NORMALIZED FREE ENERGY PREDICTED BY IDOCK:   -4.99 KCAL/MOL
REMARK 922        TOTAL FREE ENERGY PREDICTED BY IDOCK:  -10.27 KCAL/MOL
REMARK 923 INTER-LIGAND FREE ENERGY PREDICTED BY IDOCK:   -7.80 KCAL/MOL
REMARK 924 INTRA-LIGAND FREE ENERGY PREDICTED BY IDOCK:   -2.47 KCAL/MOL
REMARK 927      BINDING AFFINITY PREDICTED BY RF-SCORE:    0.00 PKD
ROOT
HETATM    1  C   UNL     1      -7.419  10.492  66.505  1.00  0.00    -0.128 C  
HETATM    2  C   UNL     1      -6.283  10.244  67.478  1.00  0.00    -0.057 C  
ENDROOT
BRANCH   2   3
HETATM    3  O   UNL     1      -6.817  10.098  68.806  1.00  0.00    -0.059 OA 
BRANCH   3   4
HETATM    4  C   UNL     1      -6.749   8.843  69.315  1.00  0.00    -0.050 C  
HETATM    5  O   UNL     1      -6.198   7.896  68.772  1.00  0.00    -0.038 OA 
BRANCH   4   6
HETATM    6  C   UNL     1      -7.440   8.744  70.623  1.00  0.00    -0.079 C  
HETATM    7  C   UNL     1      -6.693   8.692  71.753  1.00  0.00    -0.082 C  
HETATM    8  C   UNL     1      -5.203   8.923  71.862  1.00  0.00    -0.046 C  
HETATM    9  N   UNL     1      -7.300   8.396  72.961  1.00  0.00    -0.268 NA 
HETATM   10  C   UNL     1      -8.589   7.910  73.089  1.00  0.00    -0.201 C  
HETATM   11  C   UNL     1      -8.910   7.298  74.432  1.00  0.00    -0.234 C  
HETATM   12  C   UNL     1      -9.455   7.998  72.045  1.00  0.00    -0.257 C  
HETATM   13  C   UNL     1      -8.975   8.606  70.709  1.00  0.00    -0.209 C  
BRANCH  12  14
HETATM   14  C   UNL     1     -10.848   7.491  72.220  1.00  0.00    -0.258 C  
HETATM   15  O   UNL     1     -11.169   6.317  72.101  1.00  0.00    -0.253 OA 
BRANCH  14  16
HETATM   16  O   UNL     1     -11.717   8.479  72.547  1.00  0.00    -0.380 OA 
BRANCH  16  17
HETATM   17  C   UNL     1     -12.632   8.856  71.500  1.00  0.00    -0.331 C  
HETATM   18  C   UNL     1     -12.773  10.367  71.374  1.00  0.00    -0.551 C  
ENDBRANCH  16  17
ENDBRANCH  14  16
ENDBRANCH  12  14
BRANCH  13  19
HETATM   19  C   UNL     1      -9.623   7.979  69.464  1.00  0.00    -0.164 A  
HETATM   20  C   UNL     1     -10.272   8.707  68.448  1.00  0.00    -0.232 A  
HETATM   21  C   UNL     1     -10.764   8.008  67.327  1.00  0.00    -0.280 A  
HETATM   22  C   UNL     1      -9.504   6.572  69.325  1.00  0.00    -0.141 A  
HETATM   23  C   UNL     1      -9.997   5.903  68.210  1.00  0.00    -0.177 A  
HETATM   24  C   UNL     1     -10.620   6.624  67.204  1.00  0.00    -0.401 A  
BRANCH  20  25
HETATM   25  C   UNL     1     -10.505  10.158  68.540  1.00  0.00    -0.221 C  
HETATM   26  C   UNL     1     -11.404  10.807  67.782  1.00  0.00    -0.354 C  
BRANCH  26  27
HETATM   27  C   UNL     1     -11.733  12.239  67.923  1.00  0.00    -0.347 C  
HETATM   28  O   UNL     1     -11.461  12.853  68.943  1.00  0.00    -0.263 OA 
BRANCH  27  29
HETATM   29  O   UNL     1     -12.329  12.726  66.812  1.00  0.00    -0.431 OA 
HETATM   30  C   UNL     1     -11.572  13.511  65.856  1.00  0.00    -0.335 C  
HETATM   31  C   UNL     1     -10.966  14.765  66.495  1.00  0.00    -0.325 C  
HETATM   32  C   UNL     1     -10.505  12.650  65.170  1.00  0.00    -0.319 C  
HETATM   33  C   UNL     1     -12.605  13.949  64.805  1.00  0.00    -0.329 C  
ENDBRANCH  27  29
ENDBRANCH  26  27
ENDBRANCH  20  25
ENDBRANCH  13  19
ENDBRANCH   4   6
ENDBRANCH   3   4
ENDBRANCH   2   3
TORSDOF 10
ENDMDL
MODEL       28
REMARK 921   NORMALIZED FREE ENERGY PREDICTED BY IDOCK:   -4.98 KCAL/MOL
REMARK 922        TOTAL FREE ENERGY PREDICTED BY IDOCK:  -10.25 KCAL/MOL
REMARK 923 INTER-LIGAND FREE ENERGY PREDICTED BY IDOCK:   -8.30 KCAL/MOL
REMARK 924 INTRA-LIGAND FREE ENERGY PREDICTED BY IDOCK:   -1.95 KCAL/MOL
REMARK 927      BINDING AFFINITY PREDICTED BY RF-SCORE:    0.00 PKD
ROOT
HETATM    1  C   UNL     1      -9.498  15.323  67.896  1.00  0.00    -0.197 C  
HETATM    2  C   UNL     1      -8.283  14.514  67.485  1.00  0.00    -0.187 C  
ENDROOT
BRANCH   2   3
HETATM    3  O   UNL     1      -7.855  13.701  68.592  1.00  0.00    -0.136 OA 
BRANCH   3   4
HETATM    4  C   UNL     1      -7.264  12.532  68.248  1.00  0.00    -0.111 C  
HETATM    5  O   UNL     1      -6.537  12.373  67.276  1.00  0.00    -0.150 OA 
BRANCH   4   6
HETATM    6  C   UNL     1      -7.610  11.443  69.193  1.00  0.00    -0.038 C  
HETATM    7  C   UNL     1      -6.628  10.906  69.957  1.00  0.00    -0.151 C  
HETATM    8  C   UNL     1      -5.216  11.425  70.111  1.00  0.00    -0.082 C  
HETATM    9  N   UNL     1      -6.882   9.761  70.692  1.00  0.00    -0.205 NA 
HETATM   10  C   UNL     1      -8.003   8.965  70.535  1.00  0.00    -0.126 C  
HETATM   11  C   UNL     1      -7.897   7.586  71.144  1.00  0.00    -0.091 C  
HETATM   12  C   UNL     1      -9.085   9.440  69.864  1.00  0.00    -0.221 C  
HETATM   13  C   UNL     1      -9.036  10.856  69.249  1.00  0.00     0.003 C  
BRANCH  12  14
HETATM   14  C   UNL     1     -10.291   8.569  69.733  1.00  0.00    -0.212 C  
HETATM   15  O   UNL     1     -11.301   8.692  70.411  1.00  0.00    -0.257 OA 
BRANCH  14  16
HETATM   16  O   UNL     1     -10.146   7.636  68.761  1.00  0.00    -0.183 OA 
BRANCH  16  17
HETATM   17  C   UNL     1     -11.022   6.498  68.873  1.00  0.00    -0.314 C  
HETATM   18  C   UNL     1     -10.407   5.376  69.699  1.00  0.00    -0.361 C  
ENDBRANCH  16  17
ENDBRANCH  14  16
ENDBRANCH  12  14
BRANCH  13  19
HETATM   19  C   UNL     1      -9.830  11.001  67.941  1.00  0.00    -0.186 A  
HETATM   20  C   UNL     1     -10.941  11.850  67.769  1.00  0.00    -0.278 A  
HETATM   21  C   UNL     1     -11.535  11.934  66.494  1.00  0.00    -0.381 A  
HETATM   22  C   UNL     1      -9.364  10.255  66.828  1.00  0.00    -0.187 A  
HETATM   23  C   UNL     1      -9.966  10.354  65.578  1.00  0.00    -0.348 A  
HETATM   24  C   UNL     1     -11.048  11.203  65.408  1.00  0.00    -0.074 A  
BRANCH  20  25
HETATM   25  C   UNL     1     -11.538  12.607  68.883  1.00  0.00    -0.363 C  
HETATM   26  C   UNL     1     -12.088  12.019  69.958  1.00  0.00    -0.355 C  
BRANCH  26  27
HETATM   27  C   UNL     1     -12.599  12.748  71.135  1.00  0.00    -0.271 C  
HETATM   28  O   UNL     1     -13.396  12.231  71.903  1.00  0.00    -0.463 OA 
BRANCH  27  29
HETATM   29  O   UNL     1     -12.067  13.987  71.225  1.00  0.00    -0.336 OA 
HETATM   30  C   UNL     1     -12.770  15.039  71.935  1.00  0.00    -0.337 C  
HETATM   31  C   UNL     1     -14.157  15.305  71.341  1.00  0.00    -0.595 C  
HETATM   32  C   UNL     1     -12.844  14.725  73.434  1.00  0.00    -0.597 C  
HETATM   33  C   UNL     1     -11.903  16.293  71.735  1.00  0.00    -0.510 C  
ENDBRANCH  27  29
ENDBRANCH  26  27
ENDBRANCH  20  25
ENDBRANCH  13  19
ENDBRANCH   4   6
ENDBRANCH   3   4
ENDBRANCH   2   3
TORSDOF 10
ENDMDL
MODEL       29
REMARK 921   NORMALIZED FREE ENERGY PREDICTED BY IDOCK:   -4.92 KCAL/MOL
REMARK 922        TOTAL FREE ENERGY PREDICTED BY IDOCK:  -10.17 KCAL/MOL
REMARK 923 INTER-LIGAND FREE ENERGY PREDICTED BY IDOCK:   -7.54 KCAL/MOL
REMARK 924 INTRA-LIGAND FREE ENERGY PREDICTED BY IDOCK:   -2.63 KCAL/MOL
REMARK 927      BINDING AFFINITY PREDICTED BY RF-SCORE:    0.00 PKD
ROOT
HETATM    1  C   UNL     1     -11.797  13.799  68.635  1.00  0.00    -0.409 C  
HETATM    2  C   UNL     1     -11.761  12.462  67.921  1.00  0.00    -0.360 C  
ENDROOT
BRANCH   2   3
HETATM    3  O   UNL     1     -11.574  11.412  68.887  1.00  0.00    -0.264 OA 
BRANCH   3   4
HETATM    4  C   UNL     1     -10.842  10.359  68.451  1.00  0.00    -0.245 C  
HETATM    5  O   UNL     1     -11.112   9.673  67.475  1.00  0.00    -0.206 OA 
BRANCH   4   6
HETATM    6  C   UNL     1      -9.659  10.118  69.312  1.00  0.00    -0.239 C  
HETATM    7  C   UNL     1      -8.422  10.261  68.776  1.00  0.00    -0.130 C  
HETATM    8  C   UNL     1      -8.086  10.838  67.420  1.00  0.00    -0.112 C  
HETATM    9  N   UNL     1      -7.314   9.849  69.496  1.00  0.00    -0.088 NA 
HETATM   10  C   UNL     1      -7.370   9.074  70.642  1.00  0.00    -0.098 C  
HETATM   11  C   UNL     1      -6.065   8.423  71.037  1.00  0.00    -0.035 C  
HETATM   12  C   UNL     1      -8.543   8.941  71.314  1.00  0.00    -0.259 C  
HETATM   13  C   UNL     1      -9.815   9.624  70.766  1.00  0.00    -0.224 C  
BRANCH  12  14
HETATM   14  C   UNL     1      -8.568   8.122  72.563  1.00  0.00    -0.194 C  
HETATM   15  O   UNL     1      -8.540   8.593  73.690  1.00  0.00    -0.319 OA 
BRANCH  14  16
HETATM   16  O   UNL     1      -8.646   6.794  72.303  1.00  0.00    -0.121 OA 
BRANCH  16  17
HETATM   17  C   UNL     1      -8.952   5.967  73.443  1.00  0.00    -0.129 C  
HETATM   18  C   UNL     1     -10.447   5.721  73.591  1.00  0.00    -0.286 C  
ENDBRANCH  16  17
ENDBRANCH  14  16
ENDBRANCH  12  14
BRANCH  13  19
HETATM   19  C   UNL     1     -11.112   8.844  71.032  1.00  0.00    -0.340 A  
HETATM   20  C   UNL     1     -11.410   7.579  70.489  1.00  0.00    -0.279 A  
HETATM   21  C   UNL     1     -12.611   6.946  70.870  1.00  0.00    -0.257 A  
HETATM   22  C   UNL     1     -12.039   9.436  71.928  1.00  0.00    -0.427 A  
HETATM   23  C   UNL     1     -13.218   8.794  72.290  1.00  0.00    -0.456 A  
HETATM   24  C   UNL     1     -13.501   7.542  71.767  1.00  0.00    -0.381 A  
BRANCH  20  25
HETATM   25  C   UNL     1     -10.543   6.920  69.497  1.00  0.00    -0.261 C  
HETATM   26  C   UNL     1     -11.019   6.265  68.426  1.00  0.00    -0.409 C  
BRANCH  26  27
HETATM   27  C   UNL     1     -10.176   5.685  67.362  1.00  0.00    -0.205 C  
HETATM   28  O   UNL     1      -9.910   4.492  67.345  1.00  0.00    -0.182 OA 
BRANCH  27  29
HETATM   29  O   UNL     1      -9.787   6.620  66.468  1.00  0.00    -0.166 OA 
HETATM   30  C   UNL     1      -8.388   6.752  66.105  1.00  0.00    -0.130 C  
HETATM   31  C   UNL     1      -7.505   7.054  67.320  1.00  0.00    -0.099 C  
HETATM   32  C   UNL     1      -7.906   5.511  65.345  1.00  0.00    -0.100 C  
HETATM   33  C   UNL     1      -8.343   7.961  65.156  1.00  0.00    -0.128 C  
ENDBRANCH  27  29
ENDBRANCH  26  27
ENDBRANCH  20  25
ENDBRANCH  13  19
ENDBRANCH   4   6
ENDBRANCH   3   4
ENDBRANCH   2   3
TORSDOF 10
ENDMDL
MODEL       30
REMARK 921   NORMALIZED FREE ENERGY PREDICTED BY IDOCK:   -4.92 KCAL/MOL
REMARK 922        TOTAL FREE ENERGY PREDICTED BY IDOCK:  -10.17 KCAL/MOL
REMARK 923 INTER-LIGAND FREE ENERGY PREDICTED BY IDOCK:   -8.00 KCAL/MOL
REMARK 924 INTRA-LIGAND FREE ENERGY PREDICTED BY IDOCK:   -2.17 KCAL/MOL
REMARK 927      BINDING AFFINITY PREDICTED BY RF-SCORE:    0.00 PKD
ROOT
HETATM    1  C   UNL     1     -12.726  14.541  65.732  1.00  0.00    -0.145 C  
HETATM    2  C   UNL     1     -12.138  14.172  64.384  1.00  0.00    -0.463 C  
ENDROOT
BRANCH   2   3
HETATM    3  O   UNL     1     -10.862  13.538  64.579  1.00  0.00    -0.378 OA 
BRANCH   3   4
HETATM    4  C   UNL     1     -10.919  12.275  65.067  1.00  0.00    -0.302 C  
HETATM    5  O   UNL     1     -11.940  11.609  65.170  1.00  0.00    -0.150 OA 
BRANCH   4   6
HETATM    6  C   UNL     1      -9.582  11.785  65.480  1.00  0.00    -0.222 C  
HETATM    7  C   UNL     1      -9.007  10.783  64.772  1.00  0.00    -0.178 C  
HETATM    8  C   UNL     1      -9.489  10.214  63.456  1.00  0.00    -0.310 C  
HETATM    9  N   UNL     1      -7.862  10.174  65.254  1.00  0.00    -0.139 NA 
HETATM   10  C   UNL     1      -7.368  10.342  66.536  1.00  0.00    -0.119 C  
HETATM   11  C   UNL     1      -6.356   9.308  66.971  1.00  0.00    -0.066 C  
HETATM   12  C   UNL     1      -7.807  11.374  67.302  1.00  0.00    -0.149 C  
HETATM   13  C   UNL     1      -8.886  12.329  66.746  1.00  0.00    -0.195 C  
BRANCH  12  14
HETATM   14  C   UNL     1      -7.238  11.548  68.672  1.00  0.00    -0.102 C  
HETATM   15  O   UNL     1      -7.570  10.880  69.641  1.00  0.00    -0.100 OA 
BRANCH  14  16
HETATM   16  O   UNL     1      -6.295  12.520  68.716  1.00  0.00    -0.068 OA 
BRANCH  16  17
HETATM   17  C   UNL     1      -5.857  12.886  70.039  1.00  0.00    -0.142 C  
HETATM   18  C   UNL     1      -6.140  14.348  70.356  1.00  0.00    -0.179 C  
ENDBRANCH  16  17
ENDBRANCH  14  16
ENDBRANCH  12  14
BRANCH  13  19
HETATM   19  C   UNL     1      -9.850  12.878  67.810  1.00  0.00    -0.221 A  
HETATM   20  C   UNL     1      -9.875  14.214  68.254  1.00  0.00    -0.235 A  
HETATM   21  C   UNL     1     -10.858  14.597  69.189  1.00  0.00    -0.269 A  
HETATM   22  C   UNL     1     -10.806  11.968  68.331  1.00  0.00    -0.266 A  
HETATM   23  C   UNL     1     -11.768  12.368  69.253  1.00  0.00    -0.386 A  
HETATM   24  C   UNL     1     -11.800  13.687  69.676  1.00  0.00    -0.396 A  
BRANCH  20  25
HETATM   25  C   UNL     1      -8.879  15.210  67.823  1.00  0.00    -0.171 C  
HETATM   26  C   UNL     1      -9.197  16.308  67.119  1.00  0.00    -0.226 C  
BRANCH  26  27
HETATM   27  C   UNL     1      -8.240  17.374  66.762  1.00  0.00    -0.249 C  
HETATM   28  O   UNL     1      -8.000  17.645  65.595  1.00  0.00    -0.529 OA 
BRANCH  27  29
HETATM   29  O   UNL     1      -7.720  17.967  67.860  1.00  0.00    -0.215 OA 
HETATM   30  C   UNL     1      -8.067  19.337  68.189  1.00  0.00    -0.314 C  
HETATM   31  C   UNL     1      -7.691  20.309  67.067  1.00  0.00    -0.360 C  
HETATM   32  C   UNL     1      -9.550  19.446  68.563  1.00  0.00    -0.472 C  
HETATM   33  C   UNL     1      -7.218  19.668  69.427  1.00  0.00    -0.280 C  
ENDBRANCH  27  29
ENDBRANCH  26  27
ENDBRANCH  20  25
ENDBRANCH  13  19
ENDBRANCH   4   6
ENDBRANCH   3   4
ENDBRANCH   2   3
TORSDOF 10
ENDMDL
MODEL       31
REMARK 921   NORMALIZED FREE ENERGY PREDICTED BY IDOCK:   -4.86 KCAL/MOL
REMARK 922        TOTAL FREE ENERGY PREDICTED BY IDOCK:  -10.07 KCAL/MOL
REMARK 923 INTER-LIGAND FREE ENERGY PREDICTED BY IDOCK:   -7.33 KCAL/MOL
REMARK 924 INTRA-LIGAND FREE ENERGY PREDICTED BY IDOCK:   -2.74 KCAL/MOL
REMARK 927      BINDING AFFINITY PREDICTED BY RF-SCORE:    0.00 PKD
ROOT
HETATM    1  C   UNL     1     -11.150   4.797  73.344  1.00  0.00    -0.422 C  
HETATM    2  C   UNL     1      -9.742   4.947  73.885  1.00  0.00    -0.138 C  
ENDROOT
BRANCH   2   3
HETATM    3  O   UNL     1      -8.955   5.717  72.959  1.00  0.00    -0.124 OA 
BRANCH   3   4
HETATM    4  C   UNL     1      -8.864   7.038  73.248  1.00  0.00    -0.130 C  
HETATM    5  O   UNL     1      -9.188   7.547  74.312  1.00  0.00    -0.216 OA 
BRANCH   4   6
HETATM    6  C   UNL     1      -8.326   7.814  72.104  1.00  0.00    -0.148 C  
HETATM    7  C   UNL     1      -7.110   8.400  72.228  1.00  0.00    -0.095 C  
HETATM    8  C   UNL     1      -6.118   8.196  73.351  1.00  0.00    -0.087 C  
HETATM    9  N   UNL     1      -6.678   9.290  71.260  1.00  0.00    -0.219 NA 
HETATM   10  C   UNL     1      -7.489   9.826  70.274  1.00  0.00    -0.164 C  
HETATM   11  C   UNL     1      -6.929  11.046  69.581  1.00  0.00    -0.110 C  
HETATM   12  C   UNL     1      -8.692   9.257  70.002  1.00  0.00    -0.208 C  
HETATM   13  C   UNL     1      -9.162   8.038  70.826  1.00  0.00    -0.165 C  
BRANCH  12  14
HETATM   14  C   UNL     1      -9.535   9.839  68.914  1.00  0.00    -0.161 C  
HETATM   15  O   UNL     1      -9.609   9.377  67.785  1.00  0.00    -0.132 OA 
BRANCH  14  16
HETATM   16  O   UNL     1     -10.223  10.931  69.328  1.00  0.00    -0.217 OA 
BRANCH  16  17
HETATM   17  C   UNL     1     -11.545  11.064  68.772  1.00  0.00    -0.318 C  
HETATM   18  C   UNL     1     -11.699  12.338  67.951  1.00  0.00    -0.410 C  
ENDBRANCH  16  17
ENDBRANCH  14  16
ENDBRANCH  12  14
BRANCH  13  19
HETATM   19  C   UNL     1     -10.681   7.975  71.047  1.00  0.00    -0.245 A  
HETATM   20  C   UNL     1     -11.528   6.991  70.500  1.00  0.00    -0.363 A  
HETATM   21  C   UNL     1     -12.897   7.015  70.839  1.00  0.00    -0.172 A  
HETATM   22  C   UNL     1     -11.241   8.957  71.904  1.00  0.00    -0.447 A  
HETATM   23  C   UNL     1     -12.594   8.961  72.225  1.00  0.00    -0.455 A  
HETATM   24  C   UNL     1     -13.422   7.982  71.699  1.00  0.00    -0.375 A  
BRANCH  20  25
HETATM   25  C   UNL     1     -11.050   5.976  69.546  1.00  0.00    -0.468 C  
HETATM   26  C   UNL     1     -10.991   6.186  68.221  1.00  0.00    -0.397 C  
BRANCH  26  27
HETATM   27  C   UNL     1     -10.421   5.230  67.251  1.00  0.00    -0.173 C  
HETATM   28  O   UNL     1     -10.905   5.092  66.138  1.00  0.00    -0.294 OA 
BRANCH  27  29
HETATM   29  O   UNL     1      -9.344   4.589  67.757  1.00  0.00    -0.130 OA 
HETATM   30  C   UNL     1      -8.005   4.952  67.331  1.00  0.00    -0.095 C  
HETATM   31  C   UNL     1      -7.820   4.789  65.819  1.00  0.00    -0.095 C  
HETATM   32  C   UNL     1      -7.654   6.370  67.798  1.00  0.00    -0.102 C  
HETATM   33  C   UNL     1      -7.082   3.953  68.047  1.00  0.00    -0.055 C  
ENDBRANCH  27  29
ENDBRANCH  26  27
ENDBRANCH  20  25
ENDBRANCH  13  19
ENDBRANCH   4   6
ENDBRANCH   3   4
ENDBRANCH   2   3
TORSDOF 10
ENDMDL
MODEL       32
REMARK 921   NORMALIZED FREE ENERGY PREDICTED BY IDOCK:   -4.86 KCAL/MOL
REMARK 922        TOTAL FREE ENERGY PREDICTED BY IDOCK:  -10.07 KCAL/MOL
REMARK 923 INTER-LIGAND FREE ENERGY PREDICTED BY IDOCK:   -7.80 KCAL/MOL
REMARK 924 INTRA-LIGAND FREE ENERGY PREDICTED BY IDOCK:   -2.27 KCAL/MOL
REMARK 927      BINDING AFFINITY PREDICTED BY RF-SCORE:    0.00 PKD
ROOT
HETATM    1  C   UNL     1      -8.939   7.622  66.791  1.00  0.00    -0.166 C  
HETATM    2  C   UNL     1      -9.917   8.726  66.440  1.00  0.00    -0.275 C  
ENDROOT
BRANCH   2   3
HETATM    3  O   UNL     1      -9.471   9.962  67.027  1.00  0.00    -0.153 OA 
BRANCH   3   4
HETATM    4  C   UNL     1      -8.731  10.749  66.208  1.00  0.00    -0.169 C  
HETATM    5  O   UNL     1      -8.620  10.594  64.999  1.00  0.00    -0.184 OA 
BRANCH   4   6
HETATM    6  C   UNL     1      -8.050  11.833  66.956  1.00  0.00    -0.169 C  
HETATM    7  C   UNL     1      -7.046  11.507  67.806  1.00  0.00    -0.079 C  
HETATM    8  C   UNL     1      -6.384  10.155  67.947  1.00  0.00    -0.061 C  
HETATM    9  N   UNL     1      -6.535  12.468  68.661  1.00  0.00    -0.072 NA 
HETATM   10  C   UNL     1      -7.125  13.698  68.896  1.00  0.00    -0.102 C  
HETATM   11  C   UNL     1      -6.630  14.418  70.129  1.00  0.00    -0.104 C  
HETATM   12  C   UNL     1      -8.080  14.165  68.050  1.00  0.00    -0.149 C  
HETATM   13  C   UNL     1      -8.526  13.298  66.853  1.00  0.00    -0.074 C  
BRANCH  12  14
HETATM   14  C   UNL     1      -8.680  15.508  68.312  1.00  0.00    -0.170 C  
HETATM   15  O   UNL     1      -8.482  16.494  67.617  1.00  0.00    -0.171 OA 
BRANCH  14  16
HETATM   16  O   UNL     1      -9.487  15.504  69.402  1.00  0.00    -0.250 OA 
BRANCH  16  17
HETATM   17  C   UNL     1     -10.688  16.288  69.272  1.00  0.00    -0.307 C  
HETATM   18  C   UNL     1     -11.880  15.633  69.957  1.00  0.00    -0.381 C  
ENDBRANCH  16  17
ENDBRANCH  14  16
ENDBRANCH  12  14
BRANCH  13  19
HETATM   19  C   UNL     1     -10.008  13.455  66.480  1.00  0.00    -0.286 A  
HETATM   20  C   UNL     1     -11.086  13.115  67.322  1.00  0.00    -0.305 A  
HETATM   21  C   UNL     1     -12.398  13.374  66.877  1.00  0.00    -0.262 A  
HETATM   22  C   UNL     1     -10.288  14.030  65.213  1.00  0.00    -0.403 A  
HETATM   23  C   UNL     1     -11.591  14.277  64.795  1.00  0.00    -0.404 A  
HETATM   24  C   UNL     1     -12.648  13.957  65.632  1.00  0.00    -0.553 A  
BRANCH  20  25
HETATM   25  C   UNL     1     -10.894  12.450  68.622  1.00  0.00    -0.273 C  
HETATM   26  C   UNL     1     -11.719  11.499  69.088  1.00  0.00    -0.395 C  
BRANCH  26  27
HETATM   27  C   UNL     1     -11.497  10.742  70.335  1.00  0.00    -0.307 C  
HETATM   28  O   UNL     1     -12.335  10.726  71.224  1.00  0.00    -0.361 OA 
BRANCH  27  29
HETATM   29  O   UNL     1     -10.306  10.104  70.326  1.00  0.00    -0.267 OA 
HETATM   30  C   UNL     1     -10.200   8.738  70.805  1.00  0.00    -0.211 C  
HETATM   31  C   UNL     1     -10.646   8.605  72.265  1.00  0.00    -0.375 C  
HETATM   32  C   UNL     1     -10.967   7.780  69.886  1.00  0.00    -0.194 C  
HETATM   33  C   UNL     1      -8.700   8.410  70.721  1.00  0.00    -0.167 C  
ENDBRANCH  27  29
ENDBRANCH  26  27
ENDBRANCH  20  25
ENDBRANCH  13  19
ENDBRANCH   4   6
ENDBRANCH   3   4
ENDBRANCH   2   3
TORSDOF 10
ENDMDL
MODEL       33
REMARK 921   NORMALIZED FREE ENERGY PREDICTED BY IDOCK:   -4.83 KCAL/MOL
REMARK 922        TOTAL FREE ENERGY PREDICTED BY IDOCK:  -10.01 KCAL/MOL
REMARK 923 INTER-LIGAND FREE ENERGY PREDICTED BY IDOCK:   -7.84 KCAL/MOL
REMARK 924 INTRA-LIGAND FREE ENERGY PREDICTED BY IDOCK:   -2.17 KCAL/MOL
REMARK 927      BINDING AFFINITY PREDICTED BY RF-SCORE:    0.00 PKD
ROOT
HETATM    1  C   UNL     1     -12.611  10.979  71.202  1.00  0.00    -0.522 C  
HETATM    2  C   UNL     1     -12.365  12.366  70.640  1.00  0.00    -0.279 C  
ENDROOT
BRANCH   2   3
HETATM    3  O   UNL     1     -12.170  12.276  69.218  1.00  0.00    -0.198 OA 
BRANCH   3   4
HETATM    4  C   UNL     1     -11.821  13.438  68.614  1.00  0.00    -0.362 C  
HETATM    5  O   UNL     1     -12.524  14.058  67.828  1.00  0.00    -0.130 OA 
BRANCH   4   6
HETATM    6  C   UNL     1     -10.462  13.876  69.012  1.00  0.00    -0.147 C  
HETATM    7  C   UNL     1     -10.326  15.036  69.700  1.00  0.00    -0.187 C  
HETATM    8  C   UNL     1     -11.438  15.867  70.299  1.00  0.00    -0.376 C  
HETATM    9  N   UNL     1      -9.064  15.566  69.905  1.00  0.00    -0.075 NA 
HETATM   10  C   UNL     1      -7.921  15.133  69.257  1.00  0.00    -0.213 C  
HETATM   11  C   UNL     1      -6.747  16.082  69.329  1.00  0.00    -0.185 C  
HETATM   12  C   UNL     1      -7.917  13.937  68.613  1.00  0.00    -0.109 C  
HETATM   13  C   UNL     1      -9.208  13.088  68.577  1.00  0.00    -0.062 C  
BRANCH  12  14
HETATM   14  C   UNL     1      -6.661  13.481  67.946  1.00  0.00    -0.152 C  
HETATM   15  O   UNL     1      -6.172  14.023  66.964  1.00  0.00    -0.020 OA 
BRANCH  14  16
HETATM   16  O   UNL     1      -6.112  12.407  68.564  1.00  0.00    -0.053 OA 
BRANCH  16  17
HETATM   17  C   UNL     1      -5.473  11.460  67.687  1.00  0.00    -0.050 C  
HETATM   18  C   UNL     1      -5.842  10.022  68.025  1.00  0.00    -0.038 C  
ENDBRANCH  16  17
ENDBRANCH  14  16
ENDBRANCH  12  14
BRANCH  13  19
HETATM   19  C   UNL     1      -9.390  12.275  67.287  1.00  0.00    -0.185 A  
HETATM   20  C   UNL     1      -9.521  12.833  66.000  1.00  0.00    -0.127 A  
HETATM   21  C   UNL     1      -9.615  11.965  64.893  1.00  0.00    -0.087 A  
HETATM   22  C   UNL     1      -9.372  10.862  67.417  1.00  0.00    -0.166 A  
HETATM   23  C   UNL     1      -9.467  10.024  66.311  1.00  0.00    -0.241 A  
HETATM   24  C   UNL     1      -9.579  10.577  65.046  1.00  0.00    -0.331 A  
BRANCH  20  25
HETATM   25  C   UNL     1      -9.620  14.286  65.775  1.00  0.00    -0.188 C  
HETATM   26  C   UNL     1     -10.782  14.913  65.533  1.00  0.00    -0.369 C  
BRANCH  26  27
HETATM   27  C   UNL     1     -10.928  16.376  65.407  1.00  0.00    -0.160 C  
HETATM   28  O   UNL     1     -11.114  16.902  64.320  1.00  0.00    -1.135 OA 
BRANCH  27  29
HETATM   29  O   UNL     1     -10.841  16.992  66.607  1.00  0.00    -0.143 OA 
HETATM   30  C   UNL     1     -10.050  18.199  66.757  1.00  0.00    -0.362 C  
HETATM   31  C   UNL     1      -8.581  17.974  66.383  1.00  0.00    -0.253 C  
HETATM   32  C   UNL     1     -10.669  19.356  65.963  1.00  0.00    -0.512 C  
HETATM   33  C   UNL     1     -10.126  18.532  68.256  1.00  0.00    -0.424 C  
ENDBRANCH  27  29
ENDBRANCH  26  27
ENDBRANCH  20  25
ENDBRANCH  13  19
ENDBRANCH   4   6
ENDBRANCH   3   4
ENDBRANCH   2   3
TORSDOF 10
ENDMDL
MODEL       34
REMARK 921   NORMALIZED FREE ENERGY PREDICTED BY IDOCK:   -4.79 KCAL/MOL
REMARK 922        TOTAL FREE ENERGY PREDICTED BY IDOCK:   -9.96 KCAL/MOL
REMARK 923 INTER-LIGAND FREE ENERGY PREDICTED BY IDOCK:   -8.08 KCAL/MOL
REMARK 924 INTRA-LIGAND FREE ENERGY PREDICTED BY IDOCK:   -1.89 KCAL/MOL
REMARK 927      BINDING AFFINITY PREDICTED BY RF-SCORE:    0.00 PKD
ROOT
HETATM    1  C   UNL     1     -10.241  10.264  65.679  1.00  0.00    -0.301 C  
HETATM    2  C   UNL     1      -9.961   9.632  67.029  1.00  0.00    -0.206 C  
ENDROOT
BRANCH   2   3
HETATM    3  O   UNL     1     -11.034   8.736  67.367  1.00  0.00    -0.119 OA 
BRANCH   3   4
HETATM    4  C   UNL     1     -10.646   7.484  67.710  1.00  0.00    -0.206 C  
HETATM    5  O   UNL     1     -11.201   6.455  67.350  1.00  0.00    -0.352 OA 
BRANCH   4   6
HETATM    6  C   UNL     1      -9.458   7.501  68.597  1.00  0.00    -0.146 C  
HETATM    7  C   UNL     1      -8.316   6.911  68.168  1.00  0.00    -0.118 C  
HETATM    8  C   UNL     1      -8.035   6.388  66.777  1.00  0.00    -0.109 C  
HETATM    9  N   UNL     1      -7.263   6.735  69.050  1.00  0.00    -0.088 NA 
HETATM   10  C   UNL     1      -7.358   6.902  70.421  1.00  0.00    -0.081 C  
HETATM   11  C   UNL     1      -6.226   6.294  71.217  1.00  0.00    -0.044 C  
HETATM   12  C   UNL     1      -8.418   7.564  70.953  1.00  0.00    -0.125 C  
HETATM   13  C   UNL     1      -9.531   8.091  70.021  1.00  0.00    -0.160 C  
BRANCH  12  14
HETATM   14  C   UNL     1      -8.479   7.753  72.434  1.00  0.00    -0.127 C  
HETATM   15  O   UNL     1      -8.420   8.841  72.988  1.00  0.00    -0.402 OA 
BRANCH  14  16
HETATM   16  O   UNL     1      -8.627   6.579  73.094  1.00  0.00    -0.122 OA 
BRANCH  16  17
HETATM   17  C   UNL     1      -9.687   6.559  74.071  1.00  0.00    -0.248 C  
HETATM   18  C   UNL     1     -10.413   5.221  74.105  1.00  0.00    -0.319 C  
ENDBRANCH  16  17
ENDBRANCH  14  16
ENDBRANCH  12  14
BRANCH  13  19
HETATM   19  C   UNL     1     -10.936   8.067  70.643  1.00  0.00    -0.250 A  
HETATM   20  C   UNL     1     -11.750   9.202  70.825  1.00  0.00    -0.308 A  
HETATM   21  C   UNL     1     -13.047   9.025  71.348  1.00  0.00    -0.337 A  
HETATM   22  C   UNL     1     -11.448   6.795  71.008  1.00  0.00    -0.372 A  
HETATM   23  C   UNL     1     -12.731   6.644  71.523  1.00  0.00    -0.248 A  
HETATM   24  C   UNL     1     -13.536   7.761  71.685  1.00  0.00    -0.416 A  
BRANCH  20  25
HETATM   25  C   UNL     1     -11.277  10.568  70.542  1.00  0.00    -0.348 C  
HETATM   26  C   UNL     1     -11.991  11.460  69.836  1.00  0.00    -0.434 C  
BRANCH  26  27
HETATM   27  C   UNL     1     -11.592  12.865  69.624  1.00  0.00    -0.248 C  
HETATM   28  O   UNL     1     -12.119  13.773  70.249  1.00  0.00    -0.318 OA 
BRANCH  27  29
HETATM   29  O   UNL     1     -10.609  12.972  68.703  1.00  0.00    -0.249 OA 
HETATM   30  C   UNL     1     -10.790  13.804  67.528  1.00  0.00    -0.265 C  
HETATM   31  C   UNL     1     -11.994  13.361  66.691  1.00  0.00    -0.452 C  
HETATM   32  C   UNL     1     -10.883  15.283  67.921  1.00  0.00    -0.288 C  
HETATM   33  C   UNL     1      -9.514  13.592  66.699  1.00  0.00    -0.271 C  
ENDBRANCH  27  29
ENDBRANCH  26  27
ENDBRANCH  20  25
ENDBRANCH  13  19
ENDBRANCH   4   6
ENDBRANCH   3   4
ENDBRANCH   2   3
TORSDOF 10
ENDMDL
MODEL       35
REMARK 921   NORMALIZED FREE ENERGY PREDICTED BY IDOCK:   -4.76 KCAL/MOL
REMARK 922        TOTAL FREE ENERGY PREDICTED BY IDOCK:   -9.90 KCAL/MOL
REMARK 923 INTER-LIGAND FREE ENERGY PREDICTED BY IDOCK:  -10.28 KCAL/MOL
REMARK 924 INTRA-LIGAND FREE ENERGY PREDICTED BY IDOCK:    0.38 KCAL/MOL
REMARK 927      BINDING AFFINITY PREDICTED BY RF-SCORE:    0.00 PKD
ROOT
HETATM    1  C   UNL     1     -11.355  10.142  68.229  1.00  0.00    -0.183 C  
HETATM    2  C   UNL     1      -9.997  10.284  67.570  1.00  0.00    -0.189 C  
ENDROOT
BRANCH   2   3
HETATM    3  O   UNL     1      -9.445  11.573  67.889  1.00  0.00    -0.167 OA 
BRANCH   3   4
HETATM    4  C   UNL     1      -8.485  12.010  67.039  1.00  0.00    -0.183 C  
HETATM    5  O   UNL     1      -7.824  11.294  66.300  1.00  0.00    -0.147 OA 
BRANCH   4   6
HETATM    6  C   UNL     1      -8.313  13.481  67.114  1.00  0.00    -0.151 C  
HETATM    7  C   UNL     1      -7.544  13.999  68.103  1.00  0.00    -0.141 C  
HETATM    8  C   UNL     1      -6.655  13.229  69.053  1.00  0.00    -0.104 C  
HETATM    9  N   UNL     1      -7.533  15.366  68.316  1.00  0.00    -0.109 NA 
HETATM   10  C   UNL     1      -8.433  16.252  67.750  1.00  0.00    -0.163 C  
HETATM   11  C   UNL     1      -8.488  17.612  68.406  1.00  0.00    -0.287 C  
HETATM   12  C   UNL     1      -9.190  15.867  66.690  1.00  0.00    -0.280 C  
HETATM   13  C   UNL     1      -9.066  14.424  66.151  1.00  0.00    -0.043 C  
BRANCH  12  14
HETATM   14  C   UNL     1     -10.134  16.852  66.082  1.00  0.00    -0.333 C  
HETATM   15  O   UNL     1     -10.584  16.759  64.949  1.00  0.00    -0.702 OA 
BRANCH  14  16
HETATM   16  O   UNL     1     -10.451  17.853  66.939  1.00  0.00    -0.356 OA 
BRANCH  16  17
HETATM   17  C   UNL     1     -10.570  19.156  66.335  1.00  0.00    -0.435 C  
HETATM   18  C   UNL     1     -10.157  20.271  67.287  1.00  0.00    -0.545 C  
ENDBRANCH  16  17
ENDBRANCH  14  16
ENDBRANCH  12  14
BRANCH  13  19
HETATM   19  C   UNL     1     -10.376  13.845  65.596  1.00  0.00    -0.337 A  
HETATM   20  C   UNL     1     -11.625  13.929  66.242  1.00  0.00    -0.378 A  
HETATM   21  C   UNL     1     -12.760  13.410  65.587  1.00  0.00    -0.432 A  
HETATM   22  C   UNL     1     -10.309  13.230  64.319  1.00  0.00    -0.315 A  
HETATM   23  C   UNL     1     -11.443  12.725  63.691  1.00  0.00    -0.544 A  
HETATM   24  C   UNL     1     -12.673  12.824  64.322  1.00  0.00    -0.338 A  
BRANCH  20  25
HETATM   25  C   UNL     1     -11.779  14.485  67.598  1.00  0.00    -0.410 C  
HETATM   26  C   UNL     1     -11.458  13.805  68.710  1.00  0.00    -0.338 C  
BRANCH  26  27
HETATM   27  C   UNL     1     -11.502  14.370  70.073  1.00  0.00    -0.238 C  
HETATM   28  O   UNL     1     -10.884  15.386  70.357  1.00  0.00    -0.297 OA 
BRANCH  27  29
HETATM   29  O   UNL     1     -12.292  13.640  70.891  1.00  0.00    -0.351 OA 
HETATM   30  C   UNL     1     -13.121  14.293  71.887  1.00  0.00    -0.365 C  
HETATM   31  C   UNL     1     -12.291  15.126  72.869  1.00  0.00    -0.495 C  
HETATM   32  C   UNL     1     -14.217  15.130  71.216  1.00  0.00    -0.527 C  
HETATM   33  C   UNL     1     -13.782  13.141  72.661  1.00  0.00    -0.394 C  
ENDBRANCH  27  29
ENDBRANCH  26  27
ENDBRANCH  20  25
ENDBRANCH  13  19
ENDBRANCH   4   6
ENDBRANCH   3   4
ENDBRANCH   2   3
TORSDOF 10
ENDMDL
MODEL       36
REMARK 921   NORMALIZED FREE ENERGY PREDICTED BY IDOCK:   -4.75 KCAL/MOL
REMARK 922        TOTAL FREE ENERGY PREDICTED BY IDOCK:   -9.89 KCAL/MOL
REMARK 923 INTER-LIGAND FREE ENERGY PREDICTED BY IDOCK:   -7.86 KCAL/MOL
REMARK 924 INTRA-LIGAND FREE ENERGY PREDICTED BY IDOCK:   -2.03 KCAL/MOL
REMARK 927      BINDING AFFINITY PREDICTED BY RF-SCORE:    0.00 PKD
ROOT
HETATM    1  C   UNL     1     -12.531  11.967  63.467  1.00  0.00    -0.654 C  
HETATM    2  C   UNL     1     -11.056  11.619  63.415  1.00  0.00    -0.337 C  
ENDROOT
BRANCH   2   3
HETATM    3  O   UNL     1     -10.682  10.948  64.631  1.00  0.00    -0.308 OA 
BRANCH   3   4
HETATM    4  C   UNL     1     -10.246  11.762  65.623  1.00  0.00    -0.246 C  
HETATM    5  O   UNL     1      -9.366  12.604  65.503  1.00  0.00    -0.002 OA 
BRANCH   4   6
HETATM    6  C   UNL     1     -10.961  11.507  66.897  1.00  0.00    -0.350 C  
HETATM    7  C   UNL     1     -11.770  12.473  67.396  1.00  0.00    -0.366 C  
HETATM    8  C   UNL     1     -12.197  13.744  66.697  1.00  0.00    -0.454 C  
HETATM    9  N   UNL     1     -12.284  12.342  68.674  1.00  0.00    -0.162 NA 
HETATM   10  C   UNL     1     -11.853  11.405  69.597  1.00  0.00    -0.362 C  
HETATM   11  C   UNL     1     -12.260  11.681  71.026  1.00  0.00    -0.336 C  
HETATM   12  C   UNL     1     -11.113  10.341  69.189  1.00  0.00    -0.283 C  
HETATM   13  C   UNL     1     -10.726  10.210  67.700  1.00  0.00    -0.339 C  
BRANCH  12  14
HETATM   14  C   UNL     1     -10.684   9.331  70.203  1.00  0.00    -0.235 C  
HETATM   15  O   UNL     1      -9.701   9.455  70.919  1.00  0.00    -0.272 OA 
BRANCH  14  16
HETATM   16  O   UNL     1     -11.522   8.266  70.251  1.00  0.00    -0.201 OA 
BRANCH  16  17
HETATM   17  C   UNL     1     -10.940   7.013  69.844  1.00  0.00    -0.263 C  
HETATM   18  C   UNL     1     -11.056   5.946  70.924  1.00  0.00    -0.312 C  
ENDBRANCH  16  17
ENDBRANCH  14  16
ENDBRANCH  12  14
BRANCH  13  19
HETATM   19  C   UNL     1      -9.355   9.559  67.461  1.00  0.00    -0.146 A  
HETATM   20  C   UNL     1      -8.131  10.079  67.925  1.00  0.00    -0.109 A  
HETATM   21  C   UNL     1      -6.952   9.343  67.690  1.00  0.00    -0.081 A  
HETATM   22  C   UNL     1      -9.350   8.323  66.764  1.00  0.00    -0.232 A  
HETATM   23  C   UNL     1      -8.174   7.613  66.544  1.00  0.00    -0.125 A  
HETATM   24  C   UNL     1      -6.974   8.119  67.016  1.00  0.00    -0.074 A  
BRANCH  20  25
HETATM   25  C   UNL     1      -8.031  11.387  68.595  1.00  0.00    -0.141 C  
HETATM   26  C   UNL     1      -7.435  12.453  68.036  1.00  0.00    -0.114 C  
BRANCH  26  27
HETATM   27  C   UNL     1      -7.410  13.802  68.636  1.00  0.00    -0.117 C  
HETATM   28  O   UNL     1      -6.378  14.274  69.090  1.00  0.00    -0.093 OA 
BRANCH  27  29
HETATM   29  O   UNL     1      -8.625  14.391  68.591  1.00  0.00    -0.171 OA 
HETATM   30  C   UNL     1      -8.778  15.718  68.024  1.00  0.00    -0.171 C  
HETATM   31  C   UNL     1      -7.923  16.757  68.755  1.00  0.00    -0.250 C  
HETATM   32  C   UNL     1      -8.489  15.701  66.518  1.00  0.00    -0.311 C  
HETATM   33  C   UNL     1     -10.260  16.066  68.239  1.00  0.00    -0.237 C  
ENDBRANCH  27  29
ENDBRANCH  26  27
ENDBRANCH  20  25
ENDBRANCH  13  19
ENDBRANCH   4   6
ENDBRANCH   3   4
ENDBRANCH   2   3
TORSDOF 10
ENDMDL
MODEL       37
REMARK 921   NORMALIZED FREE ENERGY PREDICTED BY IDOCK:   -4.69 KCAL/MOL
REMARK 922        TOTAL FREE ENERGY PREDICTED BY IDOCK:   -9.80 KCAL/MOL
REMARK 923 INTER-LIGAND FREE ENERGY PREDICTED BY IDOCK:   -8.63 KCAL/MOL
REMARK 924 INTRA-LIGAND FREE ENERGY PREDICTED BY IDOCK:   -1.17 KCAL/MOL
REMARK 927      BINDING AFFINITY PREDICTED BY RF-SCORE:    0.00 PKD
ROOT
HETATM    1  C   UNL     1      -9.864   8.083  71.115  1.00  0.00    -0.198 C  
HETATM    2  C   UNL     1      -9.159   8.741  69.945  1.00  0.00    -0.157 C  
ENDROOT
BRANCH   2   3
HETATM    3  O   UNL     1      -9.890   9.914  69.548  1.00  0.00    -0.196 OA 
BRANCH   3   4
HETATM    4  C   UNL     1      -9.186  10.802  68.805  1.00  0.00    -0.189 C  
HETATM    5  O   UNL     1      -8.132  11.321  69.145  1.00  0.00    -0.093 OA 
BRANCH   4   6
HETATM    6  C   UNL     1      -9.855  11.088  67.512  1.00  0.00    -0.190 C  
HETATM    7  C   UNL     1      -9.318  10.583  66.375  1.00  0.00    -0.168 C  
HETATM    8  C   UNL     1      -8.196   9.575  66.275  1.00  0.00    -0.115 C  
HETATM    9  N   UNL     1      -9.801  11.000  65.147  1.00  0.00    -0.249 NA 
HETATM   10  C   UNL     1     -10.645  12.082  64.966  1.00  0.00    -0.289 C  
HETATM   11  C   UNL     1     -10.735  12.591  63.546  1.00  0.00    -0.417 C  
HETATM   12  C   UNL     1     -11.310  12.609  66.027  1.00  0.00    -0.369 C  
HETATM   13  C   UNL     1     -11.085  12.017  67.436  1.00  0.00    -0.337 C  
BRANCH  12  14
HETATM   14  C   UNL     1     -12.235  13.759  65.799  1.00  0.00    -0.462 C  
HETATM   15  O   UNL     1     -13.354  13.652  65.316  1.00  0.00    -0.669 OA 
BRANCH  14  16
HETATM   16  O   UNL     1     -11.700  14.936  66.206  1.00  0.00    -0.297 OA 
BRANCH  16  17
HETATM   17  C   UNL     1     -11.009  15.677  65.182  1.00  0.00    -0.398 C  
HETATM   18  C   UNL     1     -10.421  16.979  65.710  1.00  0.00    -0.261 C  
ENDBRANCH  16  17
ENDBRANCH  14  16
ENDBRANCH  12  14
BRANCH  13  19
HETATM   19  C   UNL     1     -11.167  13.049  68.572  1.00  0.00    -0.309 A  
HETATM   20  C   UNL     1     -10.275  14.125  68.742  1.00  0.00    -0.216 A  
HETATM   21  C   UNL     1     -10.508  15.036  69.792  1.00  0.00    -0.204 A  
HETATM   22  C   UNL     1     -12.256  12.917  69.473  1.00  0.00    -0.177 A  
HETATM   23  C   UNL     1     -12.467  13.828  70.502  1.00  0.00    -0.409 A  
HETATM   24  C   UNL     1     -11.596  14.895  70.657  1.00  0.00    -0.341 A  
BRANCH  20  25
HETATM   25  C   UNL     1      -9.078  14.301  67.901  1.00  0.00    -0.190 C  
HETATM   26  C   UNL     1      -8.263  15.363  67.998  1.00  0.00    -0.146 C  
BRANCH  26  27
HETATM   27  C   UNL     1      -7.004  15.517  67.244  1.00  0.00    -0.171 C  
HETATM   28  O   UNL     1      -6.081  14.728  67.384  1.00  0.00    -0.338 OA 
BRANCH  27  29
HETATM   29  O   UNL     1      -7.041  16.589  66.422  1.00  0.00    -0.184 OA 
HETATM   30  C   UNL     1      -6.782  17.921  66.938  1.00  0.00    -0.178 C  
HETATM   31  C   UNL     1      -7.766  18.307  68.047  1.00  0.00    -0.267 C  
HETATM   32  C   UNL     1      -5.326  18.050  67.399  1.00  0.00    -0.144 C  
HETATM   33  C   UNL     1      -7.006  18.855  65.738  1.00  0.00    -0.296 C  
ENDBRANCH  27  29
ENDBRANCH  26  27
ENDBRANCH  20  25
ENDBRANCH  13  19
ENDBRANCH   4   6
ENDBRANCH   3   4
ENDBRANCH   2   3
TORSDOF 10
ENDMDL
MODEL       38
REMARK 921   NORMALIZED FREE ENERGY PREDICTED BY IDOCK:   -4.69 KCAL/MOL
REMARK 922        TOTAL FREE ENERGY PREDICTED BY IDOCK:   -9.80 KCAL/MOL
REMARK 923 INTER-LIGAND FREE ENERGY PREDICTED BY IDOCK:   -8.08 KCAL/MOL
REMARK 924 INTRA-LIGAND FREE ENERGY PREDICTED BY IDOCK:   -1.72 KCAL/MOL
REMARK 927      BINDING AFFINITY PREDICTED BY RF-SCORE:    0.00 PKD
ROOT
HETATM    1  C   UNL     1     -12.872  15.592  71.536  1.00  0.00    -0.538 C  
HETATM    2  C   UNL     1     -11.377  15.614  71.281  1.00  0.00    -0.390 C  
ENDROOT
BRANCH   2   3
HETATM    3  O   UNL     1     -11.125  16.168  69.977  1.00  0.00    -0.324 OA 
BRANCH   3   4
HETATM    4  C   UNL     1     -10.014  15.696  69.361  1.00  0.00    -0.279 C  
HETATM    5  O   UNL     1      -8.961  15.429  69.923  1.00  0.00    -0.166 OA 
BRANCH   4   6
HETATM    6  C   UNL     1     -10.219  15.547  67.900  1.00  0.00    -0.238 C  
HETATM    7  C   UNL     1     -10.496  16.651  67.164  1.00  0.00    -0.300 C  
HETATM    8  C   UNL     1     -10.432  18.087  67.630  1.00  0.00    -0.422 C  
HETATM    9  N   UNL     1     -10.888  16.512  65.844  1.00  0.00    -0.167 NA 
HETATM   10  C   UNL     1     -11.255  15.311  65.260  1.00  0.00    -0.336 C  
HETATM   11  C   UNL     1     -12.007  15.439  63.956  1.00  0.00     0.007 C  
HETATM   12  C   UNL     1     -10.942  14.137  65.868  1.00  0.00    -0.297 C  
HETATM   13  C   UNL     1     -10.212  14.156  67.229  1.00  0.00    -0.256 C  
BRANCH  12  14
HETATM   14  C   UNL     1     -11.326  12.856  65.202  1.00  0.00    -0.298 C  
HETATM   15  O   UNL     1     -12.425  12.332  65.310  1.00  0.00    -0.585 OA 
BRANCH  14  16
HETATM   16  O   UNL     1     -10.320  12.350  64.448  1.00  0.00    -0.313 OA 
BRANCH  16  17
HETATM   17  C   UNL     1     -10.531  11.004  63.977  1.00  0.00    -0.366 C  
HETATM   18  C   UNL     1      -9.592  10.640  62.835  1.00  0.00    -0.358 C  
ENDBRANCH  16  17
ENDBRANCH  14  16
ENDBRANCH  12  14
BRANCH  13  19
HETATM   19  C   UNL     1     -10.598  13.002  68.166  1.00  0.00    -0.257 A  
HETATM   20  C   UNL     1      -9.808  11.858  68.394  1.00  0.00    -0.201 A  
HETATM   21  C   UNL     1     -10.255  10.905  69.333  1.00  0.00    -0.151 A  
HETATM   22  C   UNL     1     -11.816  13.142  68.880  1.00  0.00    -0.361 A  
HETATM   23  C   UNL     1     -12.237  12.189  69.802  1.00  0.00    -0.212 A  
HETATM   24  C   UNL     1     -11.450  11.073  70.036  1.00  0.00    -0.398 A  
BRANCH  20  25
HETATM   25  C   UNL     1      -8.566  11.593  67.649  1.00  0.00    -0.142 C  
HETATM   26  C   UNL     1      -8.388  10.505  66.882  1.00  0.00    -0.126 C  
BRANCH  26  27
HETATM   27  C   UNL     1      -7.198  10.264  66.043  1.00  0.00    -0.128 C  
HETATM   28  O   UNL     1      -6.152  10.864  66.241  1.00  0.00    -0.112 OA 
BRANCH  27  29
HETATM   29  O   UNL     1      -7.435   9.329  65.097  1.00  0.00    -0.101 OA 
HETATM   30  C   UNL     1      -6.898   7.988  65.238  1.00  0.00    -0.058 C  
HETATM   31  C   UNL     1      -5.369   7.990  65.339  1.00  0.00    -0.029 C  
HETATM   32  C   UNL     1      -7.546   7.266  66.425  1.00  0.00    -0.092 C  
HETATM   33  C   UNL     1      -7.301   7.267  63.941  1.00  0.00    -0.089 C  
ENDBRANCH  27  29
ENDBRANCH  26  27
ENDBRANCH  20  25
ENDBRANCH  13  19
ENDBRANCH   4   6
ENDBRANCH   3   4
ENDBRANCH   2   3
TORSDOF 10
ENDMDL
MODEL       39
REMARK 921   NORMALIZED FREE ENERGY PREDICTED BY IDOCK:   -4.66 KCAL/MOL
REMARK 922        TOTAL FREE ENERGY PREDICTED BY IDOCK:   -9.75 KCAL/MOL
REMARK 923 INTER-LIGAND FREE ENERGY PREDICTED BY IDOCK:   -7.58 KCAL/MOL
REMARK 924 INTRA-LIGAND FREE ENERGY PREDICTED BY IDOCK:   -2.17 KCAL/MOL
REMARK 927      BINDING AFFINITY PREDICTED BY RF-SCORE:    0.00 PKD
ROOT
HETATM    1  C   UNL     1      -9.858  16.937  66.101  1.00  0.00    -0.318 C  
HETATM    2  C   UNL     1      -8.978  15.859  66.703  1.00  0.00    -0.268 C  
ENDROOT
BRANCH   2   3
HETATM    3  O   UNL     1      -9.802  14.770  67.157  1.00  0.00    -0.228 OA 
BRANCH   3   4
HETATM    4  C   UNL     1      -9.494  14.295  68.388  1.00  0.00    -0.213 C  
HETATM    5  O   UNL     1      -8.562  14.686  69.078  1.00  0.00    -0.164 OA 
BRANCH   4   6
HETATM    6  C   UNL     1     -10.425  13.221  68.810  1.00  0.00    -0.187 C  
HETATM    7  C   UNL     1     -11.503  13.550  69.562  1.00  0.00    -0.255 C  
HETATM    8  C   UNL     1     -11.996  14.945  69.874  1.00  0.00    -0.376 C  
HETATM    9  N   UNL     1     -12.269  12.550  70.135  1.00  0.00    -0.276 NA 
HETATM   10  C   UNL     1     -11.892  11.219  70.203  1.00  0.00    -0.364 C  
HETATM   11  C   UNL     1     -12.672  10.385  71.191  1.00  0.00    -0.514 C  
HETATM   12  C   UNL     1     -10.882  10.760  69.420  1.00  0.00    -0.289 C  
HETATM   13  C   UNL     1     -10.135  11.739  68.487  1.00  0.00    -0.212 C  
BRANCH  12  14
HETATM   14  C   UNL     1     -10.514   9.314  69.493  1.00  0.00    -0.220 C  
HETATM   15  O   UNL     1      -9.996   8.788  70.468  1.00  0.00    -0.175 OA 
BRANCH  14  16
HETATM   16  O   UNL     1     -10.838   8.644  68.361  1.00  0.00    -0.094 OA 
BRANCH  16  17
HETATM   17  C   UNL     1     -10.071   7.449  68.119  1.00  0.00    -0.179 C  
HETATM   18  C   UNL     1      -8.673   7.757  67.599  1.00  0.00    -0.126 C  
ENDBRANCH  16  17
ENDBRANCH  14  16
ENDBRANCH  12  14
BRANCH  13  19
HETATM   19  C   UNL     1      -8.646  11.415  68.296  1.00  0.00    -0.156 A  
HETATM   20  C   UNL     1      -7.944  11.562  67.084  1.00  0.00    -0.160 A  
HETATM   21  C   UNL     1      -6.561  11.289  67.067  1.00  0.00    -0.116 A  
HETATM   22  C   UNL     1      -7.935  10.985  69.447  1.00  0.00     0.036 A  
HETATM   23  C   UNL     1      -6.570  10.723  69.407  1.00  0.00    -0.085 A  
HETATM   24  C   UNL     1      -5.879  10.884  68.217  1.00  0.00    -0.042 A  
BRANCH  20  25
HETATM   25  C   UNL     1      -8.611  11.933  65.824  1.00  0.00     0.301 C  
HETATM   26  C   UNL     1      -9.159  11.033  64.991  1.00  0.00    -0.182 C  
BRANCH  26  27
HETATM   27  C   UNL     1      -9.923  11.380  63.777  1.00  0.00    -0.341 C  
HETATM   28  O   UNL     1     -10.030  10.592  62.849  1.00  0.00    -0.300 OA 
BRANCH  27  29
HETATM   29  O   UNL     1     -10.458  12.618  63.860  1.00  0.00    -0.410 OA 
HETATM   30  C   UNL     1     -11.858  12.793  64.204  1.00  0.00    -0.413 C  
HETATM   31  C   UNL     1     -12.785  12.087  63.209  1.00  0.00    -0.437 C  
HETATM   32  C   UNL     1     -12.122  12.343  65.646  1.00  0.00    -0.396 C  
HETATM   33  C   UNL     1     -12.098  14.308  64.106  1.00  0.00    -0.423 C  
ENDBRANCH  27  29
ENDBRANCH  26  27
ENDBRANCH  20  25
ENDBRANCH  13  19
ENDBRANCH   4   6
ENDBRANCH   3   4
ENDBRANCH   2   3
TORSDOF 10
ENDMDL
MODEL       40
REMARK 921   NORMALIZED FREE ENERGY PREDICTED BY IDOCK:   -4.65 KCAL/MOL
REMARK 922        TOTAL FREE ENERGY PREDICTED BY IDOCK:   -9.74 KCAL/MOL
REMARK 923 INTER-LIGAND FREE ENERGY PREDICTED BY IDOCK:   -8.49 KCAL/MOL
REMARK 924 INTRA-LIGAND FREE ENERGY PREDICTED BY IDOCK:   -1.25 KCAL/MOL
REMARK 927      BINDING AFFINITY PREDICTED BY RF-SCORE:    0.00 PKD
ROOT
HETATM    1  C   UNL     1     -10.345  16.361  67.724  1.00  0.00    -0.287 C  
HETATM    2  C   UNL     1      -9.505  16.027  68.941  1.00  0.00    -0.235 C  
ENDROOT
BRANCH   2   3
HETATM    3  O   UNL     1      -8.954  14.707  68.792  1.00  0.00    -0.185 OA 
BRANCH   3   4
HETATM    4  C   UNL     1      -8.094  14.560  67.755  1.00  0.00    -0.158 C  
HETATM    5  O   UNL     1      -7.575  15.481  67.139  1.00  0.00    -0.200 OA 
BRANCH   4   6
HETATM    6  C   UNL     1      -7.856  13.131  67.437  1.00  0.00    -0.169 C  
HETATM    7  C   UNL     1      -6.582  12.669  67.423  1.00  0.00    -0.144 C  
HETATM    8  C   UNL     1      -5.349  13.406  67.894  1.00  0.00    -0.102 C  
HETATM    9  N   UNL     1      -6.320  11.401  66.935  1.00  0.00    -0.123 NA 
HETATM   10  C   UNL     1      -7.229  10.633  66.229  1.00  0.00    -0.137 C  
HETATM   11  C   UNL     1      -6.630   9.474  65.467  1.00  0.00    -0.073 C  
HETATM   12  C   UNL     1      -8.550  10.952  66.251  1.00  0.00    -0.164 C  
HETATM   13  C   UNL     1      -9.018  12.198  67.035  1.00  0.00    -0.201 C  
BRANCH  12  14
HETATM   14  C   UNL     1      -9.512  10.088  65.503  1.00  0.00    -0.237 C  
HETATM   15  O   UNL     1      -9.506   9.952  64.288  1.00  0.00    -0.284 OA 
BRANCH  14  16
HETATM   16  O   UNL     1     -10.383   9.458  66.328  1.00  0.00    -0.240 OA 
BRANCH  16  17
HETATM   17  C   UNL     1      -9.826   8.363  67.080  1.00  0.00    -0.215 C  
HETATM   18  C   UNL     1     -10.725   7.134  67.062  1.00  0.00    -0.420 C  
ENDBRANCH  16  17
ENDBRANCH  14  16
ENDBRANCH  12  14
BRANCH  13  19
HETATM   19  C   UNL     1     -10.220  12.920  66.408  1.00  0.00    -0.273 A  
HETATM   20  C   UNL     1     -11.463  13.106  67.044  1.00  0.00    -0.379 A  
HETATM   21  C   UNL     1     -12.459  13.847  66.377  1.00  0.00    -0.414 A  
HETATM   22  C   UNL     1     -10.027  13.473  65.116  1.00  0.00    -0.201 A  
HETATM   23  C   UNL     1     -11.024  14.201  64.475  1.00  0.00    -0.340 A  
HETATM   24  C   UNL     1     -12.240  14.397  65.111  1.00  0.00    -0.393 A  
BRANCH  20  25
HETATM   25  C   UNL     1     -11.778  12.509  68.353  1.00  0.00    -0.375 C  
HETATM   26  C   UNL     1     -12.012  13.239  69.456  1.00  0.00    -0.366 C  
BRANCH  26  27
HETATM   27  C   UNL     1     -12.432  12.675  70.754  1.00  0.00    -0.270 C  
HETATM   28  O   UNL     1     -11.992  11.606  71.151  1.00  0.00    -0.132 OA 
BRANCH  27  29
HETATM   29  O   UNL     1     -13.308  13.484  71.390  1.00  0.00    -0.307 OA 
HETATM   30  C   UNL     1     -12.915  14.821  71.793  1.00  0.00    -0.332 C  
HETATM   31  C   UNL     1     -11.715  14.805  72.744  1.00  0.00    -0.115 C  
HETATM   32  C   UNL     1     -12.656  15.703  70.565  1.00  0.00    -0.423 C  
HETATM   33  C   UNL     1     -14.132  15.374  72.551  1.00  0.00    -0.593 C  
ENDBRANCH  27  29
ENDBRANCH  26  27
ENDBRANCH  20  25
ENDBRANCH  13  19
ENDBRANCH   4   6
ENDBRANCH   3   4
ENDBRANCH   2   3
TORSDOF 10
ENDMDL
MODEL       41
REMARK 921   NORMALIZED FREE ENERGY PREDICTED BY IDOCK:   -4.62 KCAL/MOL
REMARK 922        TOTAL FREE ENERGY PREDICTED BY IDOCK:   -9.69 KCAL/MOL
REMARK 923 INTER-LIGAND FREE ENERGY PREDICTED BY IDOCK:   -7.84 KCAL/MOL
REMARK 924 INTRA-LIGAND FREE ENERGY PREDICTED BY IDOCK:   -1.85 KCAL/MOL
REMARK 927      BINDING AFFINITY PREDICTED BY RF-SCORE:    0.00 PKD
ROOT
HETATM    1  C   UNL     1      -7.818  14.865  68.264  1.00  0.00    -0.122 C  
HETATM    2  C   UNL     1      -7.074  13.831  69.086  1.00  0.00    -0.053 C  
ENDROOT
BRANCH   2   3
HETATM    3  O   UNL     1      -7.813  12.596  69.078  1.00  0.00     0.067 OA 
BRANCH   3   4
HETATM    4  C   UNL     1      -7.082  11.491  69.363  1.00  0.00    -0.037 C  
HETATM    5  O   UNL     1      -6.378  11.353  70.354  1.00  0.00    -0.257 OA 
BRANCH   4   6
HETATM    6  C   UNL     1      -7.225  10.453  68.314  1.00  0.00    -0.083 C  
HETATM    7  C   UNL     1      -6.597  10.635  67.127  1.00  0.00    -0.076 C  
HETATM    8  C   UNL     1      -5.583  11.706  66.795  1.00  0.00    -0.134 C  
HETATM    9  N   UNL     1      -6.878   9.788  66.068  1.00  0.00    -0.091 NA 
HETATM   10  C   UNL     1      -7.935   8.895  66.042  1.00  0.00    -0.106 C  
HETATM   11  C   UNL     1      -8.285   8.362  64.672  1.00  0.00    -0.157 C  
HETATM   12  C   UNL     1      -8.576   8.568  67.194  1.00  0.00    -0.123 C  
HETATM   13  C   UNL     1      -8.142   9.229  68.520  1.00  0.00    -0.106 C  
BRANCH  12  14
HETATM   14  C   UNL     1      -9.695   7.580  67.139  1.00  0.00    -0.173 C  
HETATM   15  O   UNL     1     -10.810   7.833  66.706  1.00  0.00    -0.254 OA 
BRANCH  14  16
HETATM   16  O   UNL     1      -9.328   6.363  67.608  1.00  0.00    -0.119 OA 
BRANCH  16  17
HETATM   17  C   UNL     1     -10.365   5.637  68.295  1.00  0.00    -0.194 C  
HETATM   18  C   UNL     1      -9.942   5.215  69.696  1.00  0.00    -0.313 C  
ENDBRANCH  16  17
ENDBRANCH  14  16
ENDBRANCH  12  14
BRANCH  13  19
HETATM   19  C   UNL     1      -9.292   9.462  69.512  1.00  0.00    -0.187 A  
HETATM   20  C   UNL     1     -10.405  10.290  69.267  1.00  0.00    -0.250 A  
HETATM   21  C   UNL     1     -11.422  10.361  70.241  1.00  0.00    -0.406 A  
HETATM   22  C   UNL     1      -9.232   8.746  70.735  1.00  0.00    -0.242 A  
HETATM   23  C   UNL     1     -10.247   8.830  71.682  1.00  0.00    -0.394 A  
HETATM   24  C   UNL     1     -11.349   9.632  71.431  1.00  0.00    -0.444 A  
BRANCH  20  25
HETATM   25  C   UNL     1     -10.519  11.125  68.059  1.00  0.00    -0.217 C  
HETATM   26  C   UNL     1     -11.556  11.946  67.829  1.00  0.00    -0.393 C  
BRANCH  26  27
HETATM   27  C   UNL     1     -11.648  12.871  66.682  1.00  0.00    -0.372 C  
HETATM   28  O   UNL     1     -11.239  14.020  66.761  1.00  0.00    -0.301 OA 
BRANCH  27  29
HETATM   29  O   UNL     1     -12.205  12.276  65.605  1.00  0.00    -0.605 OA 
HETATM   30  C   UNL     1     -11.817  12.671  64.264  1.00  0.00    -0.393 C  
HETATM   31  C   UNL     1     -12.078  14.158  64.005  1.00  0.00    -0.382 C  
HETATM   32  C   UNL     1     -10.356  12.294  63.989  1.00  0.00    -0.423 C  
HETATM   33  C   UNL     1     -12.723  11.847  63.335  1.00  0.00    -0.496 C  
ENDBRANCH  27  29
ENDBRANCH  26  27
ENDBRANCH  20  25
ENDBRANCH  13  19
ENDBRANCH   4   6
ENDBRANCH   3   4
ENDBRANCH   2   3
TORSDOF 10
ENDMDL
MODEL       42
REMARK 921   NORMALIZED FREE ENERGY PREDICTED BY IDOCK:   -4.62 KCAL/MOL
REMARK 922        TOTAL FREE ENERGY PREDICTED BY IDOCK:   -9.69 KCAL/MOL
REMARK 923 INTER-LIGAND FREE ENERGY PREDICTED BY IDOCK:   -8.11 KCAL/MOL
REMARK 924 INTRA-LIGAND FREE ENERGY PREDICTED BY IDOCK:   -1.57 KCAL/MOL
REMARK 927      BINDING AFFINITY PREDICTED BY RF-SCORE:    0.00 PKD
ROOT
HETATM    1  C   UNL     1      -9.602   4.493  68.488  1.00  0.00    -0.212 C  
HETATM    2  C   UNL     1      -8.801   5.548  69.226  1.00  0.00    -0.106 C  
ENDROOT
BRANCH   2   3
HETATM    3  O   UNL     1      -9.472   6.816  69.120  1.00  0.00    -0.142 OA 
BRANCH   3   4
HETATM    4  C   UNL     1      -8.793   7.867  69.639  1.00  0.00    -0.138 C  
HETATM    5  O   UNL     1      -7.576   7.982  69.643  1.00  0.00    -0.092 OA 
BRANCH   4   6
HETATM    6  C   UNL     1      -9.709   8.878  70.222  1.00  0.00    -0.212 C  
HETATM    7  C   UNL     1     -10.468   8.531  71.290  1.00  0.00    -0.225 C  
HETATM    8  C   UNL     1     -10.355   7.262  72.105  1.00  0.00    -0.220 C  
HETATM    9  N   UNL     1     -11.470   9.382  71.722  1.00  0.00    -0.386 NA 
HETATM   10  C   UNL     1     -11.930  10.474  71.006  1.00  0.00    -0.364 C  
HETATM   11  C   UNL     1     -13.261  11.023  71.465  1.00  0.00    -0.400 C  
HETATM   12  C   UNL     1     -11.198  10.965  69.972  1.00  0.00    -0.340 C  
HETATM   13  C   UNL     1      -9.875  10.272  69.580  1.00  0.00    -0.230 C  
BRANCH  12  14
HETATM   14  C   UNL     1     -11.706  12.161  69.235  1.00  0.00    -0.328 C  
HETATM   15  O   UNL     1     -11.717  13.294  69.694  1.00  0.00    -0.293 OA 
BRANCH  14  16
HETATM   16  O   UNL     1     -12.136  11.849  67.988  1.00  0.00    -0.541 OA 
BRANCH  16  17
HETATM   17  C   UNL     1     -11.952  12.884  67.003  1.00  0.00    -0.325 C  
HETATM   18  C   UNL     1     -11.969  12.338  65.582  1.00  0.00    -0.373 C  
ENDBRANCH  16  17
ENDBRANCH  14  16
ENDBRANCH  12  14
BRANCH  13  19
HETATM   19  C   UNL     1      -9.564  10.315  68.076  1.00  0.00    -0.159 A  
HETATM   20  C   UNL     1      -8.680  11.228  67.468  1.00  0.00    -0.138 A  
HETATM   21  C   UNL     1      -8.437  11.112  66.084  1.00  0.00    -0.156 A  
HETATM   22  C   UNL     1     -10.182   9.325  67.270  1.00  0.00    -0.315 A  
HETATM   23  C   UNL     1      -9.927   9.229  65.906  1.00  0.00    -0.289 A  
HETATM   24  C   UNL     1      -9.045  10.118  65.313  1.00  0.00    -0.234 A  
BRANCH  20  25
HETATM   25  C   UNL     1      -8.049  12.332  68.211  1.00  0.00    -0.166 C  
HETATM   26  C   UNL     1      -8.468  13.605  68.131  1.00  0.00    -0.175 C  
BRANCH  26  27
HETATM   27  C   UNL     1      -7.924  14.713  68.940  1.00  0.00    -0.149 C  
HETATM   28  O   UNL     1      -6.891  14.582  69.579  1.00  0.00    -0.141 OA 
BRANCH  27  29
HETATM   29  O   UNL     1      -8.694  15.820  68.854  1.00  0.00    -0.185 OA 
HETATM   30  C   UNL     1      -8.198  17.010  68.189  1.00  0.00    -0.217 C  
HETATM   31  C   UNL     1      -6.915  17.538  68.839  1.00  0.00    -0.252 C  
HETATM   32  C   UNL     1      -8.012  16.756  66.688  1.00  0.00    -0.306 C  
HETATM   33  C   UNL     1      -9.308  18.056  68.380  1.00  0.00    -0.306 C  
ENDBRANCH  27  29
ENDBRANCH  26  27
ENDBRANCH  20  25
ENDBRANCH  13  19
ENDBRANCH   4   6
ENDBRANCH   3   4
ENDBRANCH   2   3
TORSDOF 10
ENDMDL
MODEL       43
REMARK 921   NORMALIZED FREE ENERGY PREDICTED BY IDOCK:   -4.59 KCAL/MOL
REMARK 922        TOTAL FREE ENERGY PREDICTED BY IDOCK:   -9.65 KCAL/MOL
REMARK 923 INTER-LIGAND FREE ENERGY PREDICTED BY IDOCK:   -7.70 KCAL/MOL
REMARK 924 INTRA-LIGAND FREE ENERGY PREDICTED BY IDOCK:   -1.95 KCAL/MOL
REMARK 927      BINDING AFFINITY PREDICTED BY RF-SCORE:    0.00 PKD
ROOT
HETATM    1  C   UNL     1      -9.768   9.486  65.698  1.00  0.00    -0.361 C  
HETATM    2  C   UNL     1      -9.563   8.197  66.470  1.00  0.00    -0.234 C  
ENDROOT
BRANCH   2   3
HETATM    3  O   UNL     1     -10.438   8.183  67.612  1.00  0.00    -0.234 OA 
BRANCH   3   4
HETATM    4  C   UNL     1     -10.586   6.972  68.203  1.00  0.00    -0.204 C  
HETATM    5  O   UNL     1     -11.412   6.130  67.878  1.00  0.00    -0.041 OA 
BRANCH   4   6
HETATM    6  C   UNL     1      -9.625   6.783  69.316  1.00  0.00    -0.144 C  
HETATM    7  C   UNL     1      -8.661   5.840  69.192  1.00  0.00    -0.110 C  
HETATM    8  C   UNL     1      -8.312   5.062  67.943  1.00  0.00    -0.100 C  
HETATM    9  N   UNL     1      -7.885   5.506  70.289  1.00  0.00    -0.091 NA 
HETATM   10  C   UNL     1      -8.164   5.891  71.589  1.00  0.00    -0.119 C  
HETATM   11  C   UNL     1      -7.430   5.113  72.656  1.00  0.00    -0.096 C  
HETATM   12  C   UNL     1      -9.048   6.895  71.825  1.00  0.00    -0.138 C  
HETATM   13  C   UNL     1      -9.765   7.572  70.636  1.00  0.00    -0.175 C  
BRANCH  12  14
HETATM   14  C   UNL     1      -9.309   7.308  73.236  1.00  0.00    -0.182 C  
HETATM   15  O   UNL     1      -9.983   6.661  74.025  1.00  0.00    -0.253 OA 
BRANCH  14  16
HETATM   16  O   UNL     1      -8.697   8.476  73.550  1.00  0.00    -0.314 OA 
BRANCH  16  17
HETATM   17  C   UNL     1      -7.648   8.369  74.532  1.00  0.00    -0.221 C  
HETATM   18  C   UNL     1      -6.263   8.369  73.898  1.00  0.00    -0.134 C  
ENDBRANCH  16  17
ENDBRANCH  14  16
ENDBRANCH  12  14
BRANCH  13  19
HETATM   19  C   UNL     1     -11.197   8.035  70.946  1.00  0.00    -0.282 A  
HETATM   20  C   UNL     1     -11.670   9.350  70.762  1.00  0.00    -0.349 A  
HETATM   21  C   UNL     1     -13.028   9.621  71.025  1.00  0.00    -0.325 A  
HETATM   22  C   UNL     1     -12.102   7.043  71.402  1.00  0.00    -0.396 A  
HETATM   23  C   UNL     1     -13.438   7.333  71.655  1.00  0.00    -0.428 A  
HETATM   24  C   UNL     1     -13.905   8.623  71.457  1.00  0.00    -0.384 A  
BRANCH  20  25
HETATM   25  C   UNL     1     -10.788  10.459  70.360  1.00  0.00    -0.257 C  
HETATM   26  C   UNL     1     -10.673  10.883  69.091  1.00  0.00    -0.265 C  
BRANCH  26  27
HETATM   27  C   UNL     1      -9.880  12.055  68.674  1.00  0.00    -0.117 C  
HETATM   28  O   UNL     1      -8.675  11.970  68.485  1.00  0.00    -0.163 OA 
BRANCH  27  29
HETATM   29  O   UNL     1     -10.651  13.155  68.532  1.00  0.00    -0.250 OA 
HETATM   30  C   UNL     1     -10.886  13.724  67.217  1.00  0.00    -0.285 C  
HETATM   31  C   UNL     1      -9.581  14.132  66.527  1.00  0.00    -0.310 C  
HETATM   32  C   UNL     1     -11.712  12.765  66.352  1.00  0.00    -0.464 C  
HETATM   33  C   UNL     1     -11.715  14.991  67.482  1.00  0.00    -0.270 C  
ENDBRANCH  27  29
ENDBRANCH  26  27
ENDBRANCH  20  25
ENDBRANCH  13  19
ENDBRANCH   4   6
ENDBRANCH   3   4
ENDBRANCH   2   3
TORSDOF 10
ENDMDL
MODEL       44
REMARK 921   NORMALIZED FREE ENERGY PREDICTED BY IDOCK:   -4.59 KCAL/MOL
REMARK 922        TOTAL FREE ENERGY PREDICTED BY IDOCK:   -9.64 KCAL/MOL
REMARK 923 INTER-LIGAND FREE ENERGY PREDICTED BY IDOCK:   -8.99 KCAL/MOL
REMARK 924 INTRA-LIGAND FREE ENERGY PREDICTED BY IDOCK:   -0.65 KCAL/MOL
REMARK 927      BINDING AFFINITY PREDICTED BY RF-SCORE:    0.00 PKD
ROOT
HETATM    1  C   UNL     1     -11.843  10.386  70.187  1.00  0.00    -0.379 C  
HETATM    2  C   UNL     1     -11.569  10.773  68.747  1.00  0.00    -0.280 C  
ENDROOT
BRANCH   2   3
HETATM    3  O   UNL     1     -10.327  10.182  68.324  1.00  0.00    -0.168 OA 
BRANCH   3   4
HETATM    4  C   UNL     1      -9.789  10.723  67.203  1.00  0.00    -0.185 C  
HETATM    5  O   UNL     1     -10.096  10.416  66.060  1.00  0.00    -0.230 OA 
BRANCH   4   6
HETATM    6  C   UNL     1      -8.760  11.740  67.525  1.00  0.00    -0.159 C  
HETATM    7  C   UNL     1      -7.920  11.513  68.564  1.00  0.00    -0.143 C  
HETATM    8  C   UNL     1      -7.772  10.225  69.341  1.00  0.00    -0.146 C  
HETATM    9  N   UNL     1      -7.091  12.528  69.008  1.00  0.00    -0.076 NA 
HETATM   10  C   UNL     1      -7.209  13.855  68.630  1.00  0.00    -0.108 C  
HETATM   11  C   UNL     1      -6.474  14.837  69.511  1.00  0.00    -0.142 C  
HETATM   12  C   UNL     1      -7.952  14.187  67.543  1.00  0.00    -0.202 C  
HETATM   13  C   UNL     1      -8.693  13.080  66.761  1.00  0.00    -0.105 C  
BRANCH  12  14
HETATM   14  C   UNL     1      -8.040  15.623  67.141  1.00  0.00    -0.215 C  
HETATM   15  O   UNL     1      -7.524  16.084  66.133  1.00  0.00     0.101 OA 
BRANCH  14  16
HETATM   16  O   UNL     1      -8.773  16.356  68.015  1.00  0.00    -0.179 OA 
BRANCH  16  17
HETATM   17  C   UNL     1      -8.747  17.778  67.789  1.00  0.00    -0.241 C  
HETATM   18  C   UNL     1     -10.025  18.460  68.259  1.00  0.00    -0.394 C  
ENDBRANCH  16  17
ENDBRANCH  14  16
ENDBRANCH  12  14
BRANCH  13  19
HETATM   19  C   UNL     1     -10.032  13.527  66.153  1.00  0.00    -0.310 A  
HETATM   20  C   UNL     1     -11.085  14.113  66.883  1.00  0.00    -0.312 A  
HETATM   21  C   UNL     1     -12.235  14.538  66.186  1.00  0.00    -0.268 A  
HETATM   22  C   UNL     1     -10.177  13.375  64.750  1.00  0.00    -0.339 A  
HETATM   23  C   UNL     1     -11.320  13.802  64.083  1.00  0.00    -0.277 A  
HETATM   24  C   UNL     1     -12.347  14.393  64.801  1.00  0.00    -0.427 A  
BRANCH  20  25
HETATM   25  C   UNL     1     -11.053  14.247  68.349  1.00  0.00    -0.274 C  
HETATM   26  C   UNL     1     -11.562  15.305  69.001  1.00  0.00    -0.360 C  
BRANCH  26  27
HETATM   27  C   UNL     1     -11.639  15.419  70.471  1.00  0.00    -0.326 C  
HETATM   28  O   UNL     1     -11.238  16.418  71.050  1.00  0.00    -0.310 OA 
BRANCH  27  29
HETATM   29  O   UNL     1     -12.197  14.322  71.029  1.00  0.00    -0.321 OA 
HETATM   30  C   UNL     1     -13.110  14.451  72.149  1.00  0.00    -0.366 C  
HETATM   31  C   UNL     1     -12.454  15.146  73.347  1.00  0.00    -0.632 C  
HETATM   32  C   UNL     1     -14.401  15.157  71.719  1.00  0.00    -0.696 C  
HETATM   33  C   UNL     1     -13.446  13.005  72.547  1.00  0.00    -0.522 C  
ENDBRANCH  27  29
ENDBRANCH  26  27
ENDBRANCH  20  25
ENDBRANCH  13  19
ENDBRANCH   4   6
ENDBRANCH   3   4
ENDBRANCH   2   3
TORSDOF 10
ENDMDL
MODEL       45
REMARK 921   NORMALIZED FREE ENERGY PREDICTED BY IDOCK:   -4.56 KCAL/MOL
REMARK 922        TOTAL FREE ENERGY PREDICTED BY IDOCK:   -9.59 KCAL/MOL
REMARK 923 INTER-LIGAND FREE ENERGY PREDICTED BY IDOCK:   -7.77 KCAL/MOL
REMARK 924 INTRA-LIGAND FREE ENERGY PREDICTED BY IDOCK:   -1.82 KCAL/MOL
REMARK 927      BINDING AFFINITY PREDICTED BY RF-SCORE:    0.00 PKD
ROOT
HETATM    1  C   UNL     1     -13.700   7.324  71.554  1.00  0.00    -0.451 C  
HETATM    2  C   UNL     1     -12.464   6.571  72.007  1.00  0.00    -0.213 C  
ENDROOT
BRANCH   2   3
HETATM    3  O   UNL     1     -11.317   7.065  71.293  1.00  0.00    -0.255 OA 
BRANCH   3   4
HETATM    4  C   UNL     1     -10.176   6.361  71.487  1.00  0.00    -0.194 C  
HETATM    5  O   UNL     1     -10.124   5.210  71.899  1.00  0.00    -0.183 OA 
BRANCH   4   6
HETATM    6  C   UNL     1      -8.974   7.160  71.148  1.00  0.00    -0.145 C  
HETATM    7  C   UNL     1      -8.541   8.094  72.031  1.00  0.00    -0.162 C  
HETATM    8  C   UNL     1      -9.033   8.297  73.445  1.00  0.00    -0.260 C  
HETATM    9  N   UNL     1      -7.552   8.985  71.653  1.00  0.00    -0.333 NA 
HETATM   10  C   UNL     1      -7.117   9.163  70.351  1.00  0.00    -0.079 C  
HETATM   11  C   UNL     1      -6.330  10.430  70.109  1.00  0.00    -0.123 C  
HETATM   12  C   UNL     1      -7.414   8.237  69.403  1.00  0.00    -0.090 C  
HETATM   13  C   UNL     1      -8.272   7.010  69.781  1.00  0.00    -0.131 C  
BRANCH  12  14
HETATM   14  C   UNL     1      -6.909   8.441  68.012  1.00  0.00    -0.070 C  
HETATM   15  O   UNL     1      -5.998   7.795  67.513  1.00  0.00    -0.042 OA 
BRANCH  14  16
HETATM   16  O   UNL     1      -7.588   9.415  67.358  1.00  0.00    -0.094 OA 
BRANCH  16  17
HETATM   17  C   UNL     1      -7.370   9.458  65.935  1.00  0.00    -0.095 C  
HETATM   18  C   UNL     1      -8.478   8.755  65.161  1.00  0.00    -0.192 C  
ENDBRANCH  16  17
ENDBRANCH  14  16
ENDBRANCH  12  14
BRANCH  13  19
HETATM   19  C   UNL     1      -9.189   6.511  68.653  1.00  0.00    -0.127 A  
HETATM   20  C   UNL     1     -10.209   7.276  68.054  1.00  0.00    -0.225 A  
HETATM   21  C   UNL     1     -10.932   6.715  66.982  1.00  0.00    -0.463 A  
HETATM   22  C   UNL     1      -8.941   5.203  68.163  1.00  0.00    -0.118 A  
HETATM   23  C   UNL     1      -9.667   4.670  67.103  1.00  0.00    -0.219 A  
HETATM   24  C   UNL     1     -10.658   5.431  66.505  1.00  0.00    -0.353 A  
BRANCH  20  25
HETATM   25  C   UNL     1     -10.585   8.614  68.542  1.00  0.00    -0.162 C  
HETATM   26  C   UNL     1     -10.891   9.634  67.725  1.00  0.00    -0.278 C  
BRANCH  26  27
HETATM   27  C   UNL     1     -11.371  10.953  68.183  1.00  0.00    -0.315 C  
HETATM   28  O   UNL     1     -11.205  11.321  69.336  1.00  0.00    -0.244 OA 
BRANCH  27  29
HETATM   29  O   UNL     1     -11.967  11.641  67.185  1.00  0.00    -0.614 OA 
HETATM   30  C   UNL     1     -11.629  13.032  66.947  1.00  0.00    -0.366 C  
HETATM   31  C   UNL     1     -11.902  13.907  68.175  1.00  0.00    -0.407 C  
HETATM   32  C   UNL     1     -10.179  13.163  66.465  1.00  0.00    -0.277 C  
HETATM   33  C   UNL     1     -12.569  13.475  65.814  1.00  0.00    -0.490 C  
ENDBRANCH  27  29
ENDBRANCH  26  27
ENDBRANCH  20  25
ENDBRANCH  13  19
ENDBRANCH   4   6
ENDBRANCH   3   4
ENDBRANCH   2   3
TORSDOF 10
ENDMDL
MODEL       46
REMARK 921   NORMALIZED FREE ENERGY PREDICTED BY IDOCK:   -4.56 KCAL/MOL
REMARK 922        TOTAL FREE ENERGY PREDICTED BY IDOCK:   -9.59 KCAL/MOL
REMARK 923 INTER-LIGAND FREE ENERGY PREDICTED BY IDOCK:   -7.11 KCAL/MOL
REMARK 924 INTRA-LIGAND FREE ENERGY PREDICTED BY IDOCK:   -2.48 KCAL/MOL
REMARK 927      BINDING AFFINITY PREDICTED BY RF-SCORE:    0.00 PKD
ROOT
HETATM    1  C   UNL     1     -10.103   9.473  65.947  1.00  0.00    -0.284 C  
HETATM    2  C   UNL     1     -10.706  10.378  67.003  1.00  0.00    -0.235 C  
ENDROOT
BRANCH   2   3
HETATM    3  O   UNL     1     -10.781   9.667  68.252  1.00  0.00    -0.231 OA 
BRANCH   3   4
HETATM    4  C   UNL     1     -10.594  10.431  69.356  1.00  0.00    -0.239 C  
HETATM    5  O   UNL     1     -11.158  11.494  69.576  1.00  0.00    -0.244 OA 
BRANCH   4   6
HETATM    6  C   UNL     1      -9.605   9.827  70.280  1.00  0.00    -0.264 C  
HETATM    7  C   UNL     1      -8.292   9.866  69.946  1.00  0.00    -0.183 C  
HETATM    8  C   UNL     1      -7.672  10.641  68.805  1.00  0.00    -0.117 C  
HETATM    9  N   UNL     1      -7.376   9.137  70.685  1.00  0.00    -0.098 NA 
HETATM   10  C   UNL     1      -7.716   8.167  71.613  1.00  0.00    -0.092 C  
HETATM   11  C   UNL     1      -6.589   7.241  72.009  1.00  0.00    -0.054 C  
HETATM   12  C   UNL     1      -8.986   8.099  72.089  1.00  0.00    -0.246 C  
HETATM   13  C   UNL     1     -10.052   9.082  71.556  1.00  0.00    -0.409 C  
BRANCH  12  14
HETATM   14  C   UNL     1      -9.318   7.060  73.110  1.00  0.00    -0.149 C  
HETATM   15  O   UNL     1      -9.526   7.303  74.290  1.00  0.00    -0.240 OA 
BRANCH  14  16
HETATM   16  O   UNL     1      -9.380   5.817  72.574  1.00  0.00    -0.143 OA 
BRANCH  16  17
HETATM   17  C   UNL     1      -9.912   4.803  73.448  1.00  0.00    -0.155 C  
HETATM   18  C   UNL     1     -11.385   4.525  73.179  1.00  0.00    -0.318 C  
ENDBRANCH  16  17
ENDBRANCH  14  16
ENDBRANCH  12  14
BRANCH  13  19
HETATM   19  C   UNL     1     -11.469   8.493  71.479  1.00  0.00    -0.350 A  
HETATM   20  C   UNL     1     -11.821   7.353  70.730  1.00  0.00    -0.288 A  
HETATM   21  C   UNL     1     -13.148   6.881  70.801  1.00  0.00     0.138 A  
HETATM   22  C   UNL     1     -12.466   9.127  72.264  1.00  0.00    -0.403 A  
HETATM   23  C   UNL     1     -13.769   8.644  72.320  1.00  0.00    -0.445 A  
HETATM   24  C   UNL     1     -14.109   7.514  71.595  1.00  0.00    -0.562 A  
BRANCH  20  25
HETATM   25  C   UNL     1     -10.872   6.672  69.832  1.00  0.00    -0.329 C  
HETATM   26  C   UNL     1     -11.220   6.183  68.631  1.00  0.00    -0.275 C  
BRANCH  26  27
HETATM   27  C   UNL     1     -10.273   5.590  67.667  1.00  0.00    -0.193 C  
HETATM   28  O   UNL     1     -10.528   5.547  66.473  1.00  0.00    -0.245 OA 
BRANCH  27  29
HETATM   29  O   UNL     1      -9.151   5.148  68.277  1.00  0.00    -0.108 OA 
HETATM   30  C   UNL     1      -7.843   5.487  67.748  1.00  0.00    -0.097 C  
HETATM   31  C   UNL     1      -7.663   4.998  66.307  1.00  0.00    -0.092 C  
HETATM   32  C   UNL     1      -7.581   6.992  67.875  1.00  0.00    -0.111 C  
HETATM   33  C   UNL     1      -6.850   4.734  68.648  1.00  0.00    -0.051 C  
ENDBRANCH  27  29
ENDBRANCH  26  27
ENDBRANCH  20  25
ENDBRANCH  13  19
ENDBRANCH   4   6
ENDBRANCH   3   4
ENDBRANCH   2   3
TORSDOF 10
ENDMDL
MODEL       47
REMARK 921   NORMALIZED FREE ENERGY PREDICTED BY IDOCK:   -4.56 KCAL/MOL
REMARK 922        TOTAL FREE ENERGY PREDICTED BY IDOCK:   -9.59 KCAL/MOL
REMARK 923 INTER-LIGAND FREE ENERGY PREDICTED BY IDOCK:   -8.06 KCAL/MOL
REMARK 924 INTRA-LIGAND FREE ENERGY PREDICTED BY IDOCK:   -1.52 KCAL/MOL
REMARK 927      BINDING AFFINITY PREDICTED BY RF-SCORE:    0.00 PKD
ROOT
HETATM    1  C   UNL     1      -9.786   9.600  65.423  1.00  0.00    -0.365 C  
HETATM    2  C   UNL     1      -9.529   8.304  66.167  1.00  0.00    -0.171 C  
ENDROOT
BRANCH   2   3
HETATM    3  O   UNL     1     -10.727   7.903  66.853  1.00  0.00    -0.333 OA 
BRANCH   3   4
HETATM    4  C   UNL     1     -10.537   7.034  67.875  1.00  0.00    -0.218 C  
HETATM    5  O   UNL     1     -11.364   6.221  68.267  1.00  0.00    -0.289 OA 
BRANCH   4   6
HETATM    6  C   UNL     1      -9.194   7.187  68.484  1.00  0.00    -0.134 C  
HETATM    7  C   UNL     1      -8.275   6.209  68.292  1.00  0.00    -0.114 C  
HETATM    8  C   UNL     1      -8.390   5.035  67.347  1.00  0.00    -0.106 C  
HETATM    9  N   UNL     1      -7.093   6.231  69.011  1.00  0.00    -0.079 NA 
HETATM   10  C   UNL     1      -6.857   7.051  70.102  1.00  0.00    -0.060 C  
HETATM   11  C   UNL     1      -5.681   6.648  70.961  1.00  0.00    -0.027 C  
HETATM   12  C   UNL     1      -7.663   8.120  70.334  1.00  0.00    -0.085 C  
HETATM   13  C   UNL     1      -8.863   8.386  69.399  1.00  0.00    -0.142 C  
BRANCH  12  14
HETATM   14  C   UNL     1      -7.368   9.003  71.502  1.00  0.00     0.001 C  
HETATM   15  O   UNL     1      -7.902   8.892  72.596  1.00  0.00    -0.372 OA 
BRANCH  14  16
HETATM   16  O   UNL     1      -6.424   9.933  71.216  1.00  0.00    -0.299 OA 
BRANCH  16  17
HETATM   17  C   UNL     1      -6.697  10.740  70.054  1.00  0.00    -0.149 C  
HETATM   18  C   UNL     1      -6.050  12.116  70.143  1.00  0.00    -0.121 C  
ENDBRANCH  16  17
ENDBRANCH  14  16
ENDBRANCH  12  14
BRANCH  13  19
HETATM   19  C   UNL     1     -10.083   9.000  70.101  1.00  0.00    -0.220 A  
HETATM   20  C   UNL     1     -10.657  10.243  69.766  1.00  0.00    -0.312 A  
HETATM   21  C   UNL     1     -11.819  10.656  70.450  1.00  0.00    -0.441 A  
HETATM   22  C   UNL     1     -10.689   8.223  71.121  1.00  0.00    -0.270 A  
HETATM   23  C   UNL     1     -11.835   8.650  71.783  1.00  0.00    -0.404 A  
HETATM   24  C   UNL     1     -12.407   9.865  71.440  1.00  0.00    -0.498 A  
BRANCH  20  25
HETATM   25  C   UNL     1     -10.058  11.149  68.771  1.00  0.00    -0.211 C  
HETATM   26  C   UNL     1     -10.623  12.309  68.400  1.00  0.00    -0.250 C  
BRANCH  26  27
HETATM   27  C   UNL     1      -9.998  13.285  67.486  1.00  0.00    -0.223 C  
HETATM   28  O   UNL     1      -9.468  14.300  67.912  1.00  0.00    -0.202 OA 
BRANCH  27  29
HETATM   29  O   UNL     1     -10.090  12.892  66.197  1.00  0.00    -0.265 OA 
HETATM   30  C   UNL     1     -10.956  13.600  65.273  1.00  0.00    -0.310 C  
HETATM   31  C   UNL     1     -12.416  13.594  65.735  1.00  0.00    -0.524 C  
HETATM   32  C   UNL     1     -10.441  15.024  65.030  1.00  0.00    -0.415 C  
HETATM   33  C   UNL     1     -10.856  12.807  63.959  1.00  0.00    -0.458 C  
ENDBRANCH  27  29
ENDBRANCH  26  27
ENDBRANCH  20  25
ENDBRANCH  13  19
ENDBRANCH   4   6
ENDBRANCH   3   4
ENDBRANCH   2   3
TORSDOF 10
ENDMDL
MODEL       48
REMARK 921   NORMALIZED FREE ENERGY PREDICTED BY IDOCK:   -4.55 KCAL/MOL
REMARK 922        TOTAL FREE ENERGY PREDICTED BY IDOCK:   -9.58 KCAL/MOL
REMARK 923 INTER-LIGAND FREE ENERGY PREDICTED BY IDOCK:   -8.14 KCAL/MOL
REMARK 924 INTRA-LIGAND FREE ENERGY PREDICTED BY IDOCK:   -1.44 KCAL/MOL
REMARK 927      BINDING AFFINITY PREDICTED BY RF-SCORE:    0.00 PKD
ROOT
HETATM    1  C   UNL     1     -12.346   9.863  71.720  1.00  0.00    -0.456 C  
HETATM    2  C   UNL     1     -12.155   8.977  70.504  1.00  0.00     0.062 C  
ENDROOT
BRANCH   2   3
HETATM    3  O   UNL     1     -11.369   9.677  69.523  1.00  0.00    -0.167 OA 
BRANCH   3   4
HETATM    4  C   UNL     1     -10.402   8.936  68.930  1.00  0.00    -0.212 C  
HETATM    5  O   UNL     1     -10.586   7.870  68.360  1.00  0.00    -0.188 OA 
BRANCH   4   6
HETATM    6  C   UNL     1      -9.067   9.568  69.062  1.00  0.00    -0.144 C  
HETATM    7  C   UNL     1      -8.454   9.552  70.271  1.00  0.00    -0.207 C  
HETATM    8  C   UNL     1      -8.890   8.779  71.495  1.00  0.00    -0.295 C  
HETATM    9  N   UNL     1      -7.311  10.307  70.468  1.00  0.00    -0.233 NA 
HETATM   10  C   UNL     1      -6.856  11.278  69.593  1.00  0.00    -0.095 C  
HETATM   11  C   UNL     1      -5.835  12.231  70.172  1.00  0.00    -0.161 C  
HETATM   12  C   UNL     1      -7.335  11.327  68.323  1.00  0.00    -0.095 C  
HETATM   13  C   UNL     1      -8.416  10.317  67.879  1.00  0.00    -0.118 C  
BRANCH  12  14
HETATM   14  C   UNL     1      -6.806  12.369  67.393  1.00  0.00    -0.147 C  
HETATM   15  O   UNL     1      -5.911  12.172  66.583  1.00  0.00    -0.226 OA 
BRANCH  14  16
HETATM   16  O   UNL     1      -7.445  13.555  67.536  1.00  0.00    -0.163 OA 
BRANCH  16  17
HETATM   17  C   UNL     1      -6.582  14.707  67.603  1.00  0.00    -0.155 C  
HETATM   18  C   UNL     1      -7.203  15.847  68.400  1.00  0.00    -0.121 C  
ENDBRANCH  16  17
ENDBRANCH  14  16
ENDBRANCH  12  14
BRANCH  13  19
HETATM   19  C   UNL     1      -9.419  10.877  66.859  1.00  0.00    -0.198 A  
HETATM   20  C   UNL     1     -10.270  11.975  67.093  1.00  0.00    -0.221 A  
HETATM   21  C   UNL     1     -11.095  12.426  66.043  1.00  0.00    -0.344 A  
HETATM   22  C   UNL     1      -9.437  10.262  65.581  1.00  0.00    -0.274 A  
HETATM   23  C   UNL     1     -10.259  10.724  64.558  1.00  0.00    -0.428 A  
HETATM   24  C   UNL     1     -11.083  11.814  64.787  1.00  0.00    -0.356 A  
BRANCH  20  25
HETATM   25  C   UNL     1     -10.371  12.631  68.408  1.00  0.00    -0.241 C  
HETATM   26  C   UNL     1     -10.985  13.810  68.594  1.00  0.00    -0.287 C  
BRANCH  26  27
HETATM   27  C   UNL     1     -11.193  14.441  69.913  1.00  0.00    -0.177 C  
HETATM   28  O   UNL     1     -10.659  15.503  70.198  1.00  0.00    -0.299 OA 
BRANCH  27  29
HETATM   29  O   UNL     1     -12.023  13.712  70.690  1.00  0.00    -0.319 OA 
HETATM   30  C   UNL     1     -12.796  14.348  71.740  1.00  0.00    -0.347 C  
HETATM   31  C   UNL     1     -11.901  15.053  72.765  1.00  0.00    -0.391 C  
HETATM   32  C   UNL     1     -13.839  15.301  71.144  1.00  0.00    -0.498 C  
HETATM   33  C   UNL     1     -13.527  13.193  72.443  1.00  0.00    -0.643 C  
ENDBRANCH  27  29
ENDBRANCH  26  27
ENDBRANCH  20  25
ENDBRANCH  13  19
ENDBRANCH   4   6
ENDBRANCH   3   4
ENDBRANCH   2   3
TORSDOF 10
ENDMDL
MODEL       49
REMARK 921   NORMALIZED FREE ENERGY PREDICTED BY IDOCK:   -4.55 KCAL/MOL
REMARK 922        TOTAL FREE ENERGY PREDICTED BY IDOCK:   -9.58 KCAL/MOL
REMARK 923 INTER-LIGAND FREE ENERGY PREDICTED BY IDOCK:   -8.48 KCAL/MOL
REMARK 924 INTRA-LIGAND FREE ENERGY PREDICTED BY IDOCK:   -1.10 KCAL/MOL
REMARK 927      BINDING AFFINITY PREDICTED BY RF-SCORE:    0.00 PKD
ROOT
HETATM    1  C   UNL     1     -10.915  16.431  64.715  1.00  0.00    -0.246 C  
HETATM    2  C   UNL     1     -11.714  15.246  64.208  1.00  0.00    -0.215 C  
ENDROOT
BRANCH   2   3
HETATM    3  O   UNL     1     -12.322  14.570  65.323  1.00  0.00    -0.370 OA 
BRANCH   3   4
HETATM    4  C   UNL     1     -12.165  13.224  65.330  1.00  0.00    -0.448 C  
HETATM    5  O   UNL     1     -13.071  12.413  65.202  1.00  0.00    -0.558 OA 
BRANCH   4   6
HETATM    6  C   UNL     1     -10.747  12.837  65.524  1.00  0.00    -0.303 C  
HETATM    7  C   UNL     1     -10.222  11.866  64.738  1.00  0.00    -0.276 C  
HETATM    8  C   UNL     1     -10.867  11.242  63.521  1.00  0.00    -0.373 C  
HETATM    9  N   UNL     1      -8.973  11.349  65.032  1.00  0.00    -0.017 NA 
HETATM   10  C   UNL     1      -8.293  11.574  66.217  1.00  0.00    -0.076 C  
HETATM   11  C   UNL     1      -7.151  10.623  66.488  1.00  0.00    -0.133 C  
HETATM   12  C   UNL     1      -8.677  12.586  67.037  1.00  0.00    -0.205 C  
HETATM   13  C   UNL     1      -9.898  13.452  66.657  1.00  0.00    -0.278 C  
BRANCH  12  14
HETATM   14  C   UNL     1      -7.909  12.824  68.296  1.00  0.00    -0.141 C  
HETATM   15  O   UNL     1      -7.883  12.046  69.239  1.00  0.00     0.160 OA 
BRANCH  14  16
HETATM   16  O   UNL     1      -7.226  13.994  68.266  1.00  0.00    -0.092 OA 
BRANCH  16  17
HETATM   17  C   UNL     1      -7.355  14.805  69.450  1.00  0.00    -0.162 C  
HETATM   18  C   UNL     1      -6.245  15.841  69.562  1.00  0.00    -0.154 C  
ENDBRANCH  16  17
ENDBRANCH  14  16
ENDBRANCH  12  14
BRANCH  13  19
HETATM   19  C   UNL     1     -10.716  13.949  67.859  1.00  0.00    -0.248 A  
HETATM   20  C   UNL     1     -11.311  13.112  68.823  1.00  0.00    -0.333 A  
HETATM   21  C   UNL     1     -11.979  13.706  69.914  1.00  0.00    -0.415 A  
HETATM   22  C   UNL     1     -10.824  15.355  68.018  1.00  0.00    -0.292 A  
HETATM   23  C   UNL     1     -11.488  15.920  69.102  1.00  0.00    -0.377 A  
HETATM   24  C   UNL     1     -12.058  15.093  70.057  1.00  0.00    -0.384 A  
BRANCH  20  25
HETATM   25  C   UNL     1     -11.311  11.644  68.704  1.00  0.00    -0.326 C  
HETATM   26  C   UNL     1     -10.741  10.834  69.611  1.00  0.00    -0.261 C  
BRANCH  26  27
HETATM   27  C   UNL     1     -10.814   9.360  69.573  1.00  0.00    -0.213 C  
HETATM   28  O   UNL     1     -10.976   8.762  68.520  1.00  0.00    -0.032 OA 
BRANCH  27  29
HETATM   29  O   UNL     1     -10.670   8.821  70.803  1.00  0.00    -0.209 OA 
HETATM   30  C   UNL     1     -11.714   7.985  71.367  1.00  0.00    -0.287 C  
HETATM   31  C   UNL     1     -13.049   8.729  71.475  1.00  0.00    -0.358 C  
HETATM   32  C   UNL     1     -11.852   6.681  70.572  1.00  0.00    -0.430 C  
HETATM   33  C   UNL     1     -11.224   7.651  72.785  1.00  0.00    -0.431 C  
ENDBRANCH  27  29
ENDBRANCH  26  27
ENDBRANCH  20  25
ENDBRANCH  13  19
ENDBRANCH   4   6
ENDBRANCH   3   4
ENDBRANCH   2   3
TORSDOF 10
ENDMDL
MODEL       50
REMARK 921   NORMALIZED FREE ENERGY PREDICTED BY IDOCK:   -4.53 KCAL/MOL
REMARK 922        TOTAL FREE ENERGY PREDICTED BY IDOCK:   -9.55 KCAL/MOL
REMARK 923 INTER-LIGAND FREE ENERGY PREDICTED BY IDOCK:   -7.34 KCAL/MOL
REMARK 924 INTRA-LIGAND FREE ENERGY PREDICTED BY IDOCK:   -2.20 KCAL/MOL
REMARK 927      BINDING AFFINITY PREDICTED BY RF-SCORE:    0.00 PKD
ROOT
HETATM    1  C   UNL     1     -12.752  14.193  64.926  1.00  0.00    -0.284 C  
HETATM    2  C   UNL     1     -12.626  12.683  64.866  1.00  0.00    -0.450 C  
ENDROOT
BRANCH   2   3
HETATM    3  O   UNL     1     -11.618  12.252  65.797  1.00  0.00    -0.363 OA 
BRANCH   3   4
HETATM    4  C   UNL     1     -10.342  12.500  65.414  1.00  0.00    -0.282 C  
HETATM    5  O   UNL     1      -9.935  12.451  64.261  1.00  0.00    -0.280 OA 
BRANCH   4   6
HETATM    6  C   UNL     1      -9.476  12.831  66.570  1.00  0.00    -0.253 C  
HETATM    7  C   UNL     1      -9.018  14.101  66.700  1.00  0.00    -0.169 C  
HETATM    8  C   UNL     1      -9.451  15.304  65.892  1.00  0.00    -0.351 C  
HETATM    9  N   UNL     1      -8.052  14.386  67.648  1.00  0.00    -0.163 NA 
HETATM   10  C   UNL     1      -7.325  13.429  68.336  1.00  0.00    -0.112 C  
HETATM   11  C   UNL     1      -6.079  13.943  69.019  1.00  0.00    -0.089 C  
HETATM   12  C   UNL     1      -7.748  12.138  68.351  1.00  0.00    -0.134 C  
HETATM   13  C   UNL     1      -9.017  11.743  67.564  1.00  0.00    -0.168 C  
BRANCH  12  14
HETATM   14  C   UNL     1      -6.959  11.131  69.123  1.00  0.00    -0.108 C  
HETATM   15  O   UNL     1      -7.241  10.764  70.255  1.00  0.00    -0.166 OA 
BRANCH  14  16
HETATM   16  O   UNL     1      -5.904  10.656  68.418  1.00  0.00    -0.044 OA 
BRANCH  16  17
HETATM   17  C   UNL     1      -5.354   9.417  68.905  1.00  0.00    -0.037 C  
HETATM   18  C   UNL     1      -6.033   8.203  68.286  1.00  0.00    -0.041 C  
ENDBRANCH  16  17
ENDBRANCH  14  16
ENDBRANCH  12  14
BRANCH  13  19
HETATM   19  C   UNL     1      -8.976  10.326  66.973  1.00  0.00    -0.147 A  
HETATM   20  C   UNL     1      -9.769   9.250  67.418  1.00  0.00    -0.208 A  
HETATM   21  C   UNL     1      -9.676   8.017  66.740  1.00  0.00    -0.305 A  
HETATM   22  C   UNL     1      -8.106  10.121  65.871  1.00  0.00    -0.136 A  
HETATM   23  C   UNL     1      -8.032   8.896  65.216  1.00  0.00    -0.116 A  
HETATM   24  C   UNL     1      -8.825   7.845  65.646  1.00  0.00    -0.121 A  
BRANCH  20  25
HETATM   25  C   UNL     1     -10.646   9.349  68.598  1.00  0.00    -0.230 C  
HETATM   26  C   UNL     1     -10.264   8.975  69.829  1.00  0.00    -0.214 C  
BRANCH  26  27
HETATM   27  C   UNL     1     -11.080   9.158  71.045  1.00  0.00    -0.305 C  
HETATM   28  O   UNL     1     -11.687  10.199  71.249  1.00  0.00    -0.366 OA 
BRANCH  27  29
HETATM   29  O   UNL     1     -11.058   8.060  71.832  1.00  0.00    -0.250 OA 
HETATM   30  C   UNL     1     -11.928   6.934  71.547  1.00  0.00    -0.344 C  
HETATM   31  C   UNL     1     -13.407   7.333  71.561  1.00  0.00    -0.435 C  
HETATM   32  C   UNL     1     -11.532   6.264  70.226  1.00  0.00    -0.428 C  
HETATM   33  C   UNL     1     -11.678   5.945  72.697  1.00  0.00    -0.247 C  
ENDBRANCH  27  29
ENDBRANCH  26  27
ENDBRANCH  20  25
ENDBRANCH  13  19
ENDBRANCH   4   6
ENDBRANCH   3   4
ENDBRANCH   2   3
TORSDOF 10
ENDMDL
MODEL       51
REMARK 921   NORMALIZED FREE ENERGY PREDICTED BY IDOCK:   -4.52 KCAL/MOL
REMARK 922        TOTAL FREE ENERGY PREDICTED BY IDOCK:   -9.53 KCAL/MOL
REMARK 923 INTER-LIGAND FREE ENERGY PREDICTED BY IDOCK:   -7.15 KCAL/MOL
REMARK 924 INTRA-LIGAND FREE ENERGY PREDICTED BY IDOCK:   -2.38 KCAL/MOL
REMARK 927      BINDING AFFINITY PREDICTED BY RF-SCORE:    0.00 PKD
ROOT
HETATM    1  C   UNL     1      -5.693  10.757  70.268  1.00  0.00    -0.092 C  
HETATM    2  C   UNL     1      -6.130  12.170  69.934  1.00  0.00    -0.146 C  
ENDROOT
BRANCH   2   3
HETATM    3  O   UNL     1      -7.284  12.122  69.077  1.00  0.00    -0.103 OA 
BRANCH   3   4
HETATM    4  C   UNL     1      -7.080  12.576  67.817  1.00  0.00    -0.126 C  
HETATM    5  O   UNL     1      -6.391  13.544  67.523  1.00  0.00    -0.225 OA 
BRANCH   4   6
HETATM    6  C   UNL     1      -7.806  11.759  66.815  1.00  0.00    -0.103 C  
HETATM    7  C   UNL     1      -7.136  10.778  66.163  1.00  0.00    -0.122 C  
HETATM    8  C   UNL     1      -5.747  10.271  66.477  1.00  0.00    -0.058 C  
HETATM    9  N   UNL     1      -7.730  10.142  65.087  1.00  0.00    -0.138 NA 
HETATM   10  C   UNL     1      -8.881  10.584  64.457  1.00  0.00    -0.200 C  
HETATM   11  C   UNL     1      -9.133   9.982  63.094  1.00  0.00    -0.296 C  
HETATM   12  C   UNL     1      -9.679  11.499  65.065  1.00  0.00    -0.268 C  
HETATM   13  C   UNL     1      -9.272  12.069  66.442  1.00  0.00    -0.216 C  
BRANCH  12  14
HETATM   14  C   UNL     1     -10.929  11.938  64.374  1.00  0.00    -0.337 C  
HETATM   15  O   UNL     1     -10.974  12.300  63.207  1.00  0.00    -0.432 OA 
BRANCH  14  16
HETATM   16  O   UNL     1     -12.013  11.870  65.183  1.00  0.00    -0.279 OA 
BRANCH  16  17
HETATM   17  C   UNL     1     -13.109  12.725  64.807  1.00  0.00     0.066 C  
HETATM   18  C   UNL     1     -13.016  14.100  65.455  1.00  0.00    -0.300 C  
ENDBRANCH  16  17
ENDBRANCH  14  16
ENDBRANCH  12  14
BRANCH  13  19
HETATM   19  C   UNL     1      -9.684  13.532  66.664  1.00  0.00    -0.281 A  
HETATM   20  C   UNL     1     -10.287  14.024  67.839  1.00  0.00    -0.239 A  
HETATM   21  C   UNL     1     -10.553  15.405  67.934  1.00  0.00    -0.267 A  
HETATM   22  C   UNL     1      -9.383  14.444  65.620  1.00  0.00     0.120 A  
HETATM   23  C   UNL     1      -9.654  15.803  65.736  1.00  0.00    -0.355 A  
HETATM   24  C   UNL     1     -10.231  16.286  66.899  1.00  0.00    -0.288 A  
BRANCH  20  25
HETATM   25  C   UNL     1     -10.700  13.142  68.944  1.00  0.00    -0.202 C  
HETATM   26  C   UNL     1     -11.667  12.219  68.824  1.00  0.00    -0.390 C  
BRANCH  26  27
HETATM   27  C   UNL     1     -12.031  11.253  69.879  1.00  0.00    -0.365 C  
HETATM   28  O   UNL     1     -12.463  11.628  70.959  1.00  0.00    -0.379 OA 
BRANCH  27  29
HETATM   29  O   UNL     1     -11.835   9.977  69.478  1.00  0.00    -0.076 OA 
HETATM   30  C   UNL     1     -10.841   9.146  70.130  1.00  0.00    -0.240 C  
HETATM   31  C   UNL     1      -9.437   9.751  70.037  1.00  0.00    -0.278 C  
HETATM   32  C   UNL     1     -11.242   8.858  71.581  1.00  0.00    -0.415 C  
HETATM   33  C   UNL     1     -10.857   7.826  69.341  1.00  0.00    -0.121 C  
ENDBRANCH  27  29
ENDBRANCH  26  27
ENDBRANCH  20  25
ENDBRANCH  13  19
ENDBRANCH   4   6
ENDBRANCH   3   4
ENDBRANCH   2   3
TORSDOF 10
ENDMDL
MODEL       52
REMARK 921   NORMALIZED FREE ENERGY PREDICTED BY IDOCK:   -4.52 KCAL/MOL
REMARK 922        TOTAL FREE ENERGY PREDICTED BY IDOCK:   -9.52 KCAL/MOL
REMARK 923 INTER-LIGAND FREE ENERGY PREDICTED BY IDOCK:   -7.78 KCAL/MOL
REMARK 924 INTRA-LIGAND FREE ENERGY PREDICTED BY IDOCK:   -1.74 KCAL/MOL
REMARK 927      BINDING AFFINITY PREDICTED BY RF-SCORE:    0.00 PKD
ROOT
HETATM    1  C   UNL     1      -9.249   7.938  70.704  1.00  0.00    -0.157 C  
HETATM    2  C   UNL     1      -8.864   9.405  70.689  1.00  0.00    -0.220 C  
ENDROOT
BRANCH   2   3
HETATM    3  O   UNL     1      -9.251   9.986  69.432  1.00  0.00    -0.191 OA 
BRANCH   3   4
HETATM    4  C   UNL     1     -10.512  10.480  69.394  1.00  0.00    -0.240 C  
HETATM    5  O   UNL     1     -11.202  10.715  70.377  1.00  0.00    -0.304 OA 
BRANCH   4   6
HETATM    6  C   UNL     1     -10.975  10.699  68.003  1.00  0.00    -0.336 C  
HETATM    7  C   UNL     1     -10.735   9.739  67.077  1.00  0.00    -0.166 C  
HETATM    8  C   UNL     1     -10.206   8.346  67.335  1.00  0.00    -0.328 C  
HETATM    9  N   UNL     1     -10.973  10.004  65.740  1.00  0.00     0.479 NA 
HETATM   10  C   UNL     1     -11.221  11.265  65.225  1.00  0.00     0.003 C  
HETATM   11  C   UNL     1     -11.068  11.384  63.726  1.00  0.00    -0.417 C  
HETATM   12  C   UNL     1     -11.565  12.282  66.057  1.00  0.00    -0.451 C  
HETATM   13  C   UNL     1     -11.636  12.028  67.579  1.00  0.00    -0.401 C  
BRANCH  12  14
HETATM   14  C   UNL     1     -11.854  13.625  65.472  1.00  0.00    -0.362 C  
HETATM   15  O   UNL     1     -12.980  14.067  65.297  1.00  0.00    -0.743 OA 
BRANCH  14  16
HETATM   16  O   UNL     1     -10.722  14.308  65.173  1.00  0.00    -0.344 OA 
BRANCH  16  17
HETATM   17  C   UNL     1     -10.902  15.722  64.962  1.00  0.00    -0.443 C  
HETATM   18  C   UNL     1     -10.072  16.559  65.926  1.00  0.00    -0.359 C  
ENDBRANCH  16  17
ENDBRANCH  14  16
ENDBRANCH  12  14
BRANCH  13  19
HETATM   19  C   UNL     1     -11.230  13.236  68.438  1.00  0.00    -0.314 A  
HETATM   20  C   UNL     1      -9.962  13.848  68.409  1.00  0.00    -0.233 A  
HETATM   21  C   UNL     1      -9.747  14.993  69.203  1.00  0.00    -0.212 A  
HETATM   22  C   UNL     1     -12.234  13.788  69.275  1.00  0.00    -0.307 A  
HETATM   23  C   UNL     1     -12.000  14.919  70.050  1.00  0.00    -0.377 A  
HETATM   24  C   UNL     1     -10.756  15.528  70.007  1.00  0.00    -0.331 A  
BRANCH  20  25
HETATM   25  C   UNL     1      -8.839  13.304  67.627  1.00  0.00    -0.200 C  
HETATM   26  C   UNL     1      -7.780  12.698  68.187  1.00  0.00    -0.142 C  
BRANCH  26  27
HETATM   27  C   UNL     1      -6.692  12.052  67.427  1.00  0.00    -0.131 C  
HETATM   28  O   UNL     1      -5.747  12.700  67.000  1.00  0.00    -0.330 OA 
BRANCH  27  29
HETATM   29  O   UNL     1      -6.892  10.722  67.301  1.00  0.00    -0.075 OA 
HETATM   30  C   UNL     1      -6.671  10.063  66.027  1.00  0.00    -0.100 C  
HETATM   31  C   UNL     1      -7.554  10.646  64.919  1.00  0.00     0.087 C  
HETATM   32  C   UNL     1      -5.186  10.097  65.648  1.00  0.00    -0.057 C  
HETATM   33  C   UNL     1      -7.088   8.603  66.265  1.00  0.00    -0.078 C  
ENDBRANCH  27  29
ENDBRANCH  26  27
ENDBRANCH  20  25
ENDBRANCH  13  19
ENDBRANCH   4   6
ENDBRANCH   3   4
ENDBRANCH   2   3
TORSDOF 10
ENDMDL
MODEL       53
REMARK 921   NORMALIZED FREE ENERGY PREDICTED BY IDOCK:   -4.51 KCAL/MOL
REMARK 922        TOTAL FREE ENERGY PREDICTED BY IDOCK:   -9.52 KCAL/MOL
REMARK 923 INTER-LIGAND FREE ENERGY PREDICTED BY IDOCK:   -7.09 KCAL/MOL
REMARK 924 INTRA-LIGAND FREE ENERGY PREDICTED BY IDOCK:   -2.43 KCAL/MOL
REMARK 927      BINDING AFFINITY PREDICTED BY RF-SCORE:    0.00 PKD
ROOT
HETATM    1  C   UNL     1     -10.944  14.857  69.379  1.00  0.00    -0.284 C  
HETATM    2  C   UNL     1     -11.987  13.849  68.935  1.00  0.00    -0.358 C  
ENDROOT
BRANCH   2   3
HETATM    3  O   UNL     1     -11.870  12.659  69.735  1.00  0.00    -0.315 OA 
BRANCH   3   4
HETATM    4  C   UNL     1     -11.795  11.503  69.033  1.00  0.00    -0.343 C  
HETATM    5  O   UNL     1     -12.157  11.363  67.873  1.00  0.00    -0.646 OA 
BRANCH   4   6
HETATM    6  C   UNL     1     -11.226  10.402  69.847  1.00  0.00    -0.371 C  
HETATM    7  C   UNL     1     -11.818  10.088  71.025  1.00  0.00    -0.386 C  
HETATM    8  C   UNL     1     -13.141  10.609  71.539  1.00  0.00    -0.527 C  
HETATM    9  N   UNL     1     -11.192   9.209  71.892  1.00  0.00    -0.370 NA 
HETATM   10  C   UNL     1      -9.878   8.791  71.767  1.00  0.00    -0.321 C  
HETATM   11  C   UNL     1      -9.289   8.159  73.006  1.00  0.00    -0.335 C  
HETATM   12  C   UNL     1      -9.217   8.971  70.593  1.00  0.00    -0.279 C  
HETATM   13  C   UNL     1      -9.930   9.680  69.420  1.00  0.00    -0.207 C  
BRANCH  12  14
HETATM   14  C   UNL     1      -7.810   8.485  70.477  1.00  0.00    -0.086 C  
HETATM   15  O   UNL     1      -7.492   7.426  69.956  1.00  0.00    -0.081 OA 
BRANCH  14  16
HETATM   16  O   UNL     1      -6.920   9.363  71.001  1.00  0.00    -0.166 OA 
BRANCH  16  17
HETATM   17  C   UNL     1      -5.566   9.209  70.534  1.00  0.00    -0.031 C  
HETATM   18  C   UNL     1      -5.279  10.061  69.305  1.00  0.00    -0.035 C  
ENDBRANCH  16  17
ENDBRANCH  14  16
ENDBRANCH  12  14
BRANCH  13  19
HETATM   19  C   UNL     1      -8.999  10.524  68.537  1.00  0.00    -0.147 A  
HETATM   20  C   UNL     1      -8.545  10.142  67.258  1.00  0.00    -0.125 A  
HETATM   21  C   UNL     1      -7.746  11.045  66.528  1.00  0.00    -0.154 A  
HETATM   22  C   UNL     1      -8.621  11.794  69.042  1.00  0.00     0.228 A  
HETATM   23  C   UNL     1      -7.832  12.670  68.304  1.00  0.00    -0.144 A  
HETATM   24  C   UNL     1      -7.401  12.299  67.040  1.00  0.00    -0.052 A  
BRANCH  20  25
HETATM   25  C   UNL     1      -8.828   8.816  66.683  1.00  0.00    -0.153 C  
HETATM   26  C   UNL     1      -7.867   7.924  66.390  1.00  0.00    -0.097 C  
BRANCH  26  27
HETATM   27  C   UNL     1      -8.124   6.552  65.911  1.00  0.00    -0.125 C  
HETATM   28  O   UNL     1      -8.137   6.290  64.718  1.00  0.00    -0.130 OA 
BRANCH  27  29
HETATM   29  O   UNL     1      -8.316   5.693  66.936  1.00  0.00    -0.108 OA 
HETATM   30  C   UNL     1      -9.602   5.047  67.125  1.00  0.00    -0.152 C  
HETATM   31  C   UNL     1     -10.731   6.064  67.318  1.00  0.00    -0.400 C  
HETATM   32  C   UNL     1      -9.897   4.081  65.972  1.00  0.00    -0.177 C  
HETATM   33  C   UNL     1      -9.446   4.237  68.422  1.00  0.00    -0.215 C  
ENDBRANCH  27  29
ENDBRANCH  26  27
ENDBRANCH  20  25
ENDBRANCH  13  19
ENDBRANCH   4   6
ENDBRANCH   3   4
ENDBRANCH   2   3
TORSDOF 10
ENDMDL
MODEL       54
REMARK 921   NORMALIZED FREE ENERGY PREDICTED BY IDOCK:   -4.51 KCAL/MOL
REMARK 922        TOTAL FREE ENERGY PREDICTED BY IDOCK:   -9.51 KCAL/MOL
REMARK 923 INTER-LIGAND FREE ENERGY PREDICTED BY IDOCK:   -6.90 KCAL/MOL
REMARK 924 INTRA-LIGAND FREE ENERGY PREDICTED BY IDOCK:   -2.60 KCAL/MOL
REMARK 927      BINDING AFFINITY PREDICTED BY RF-SCORE:    0.00 PKD
ROOT
HETATM    1  C   UNL     1      -8.804  13.701  68.028  1.00  0.00    -0.187 C  
HETATM    2  C   UNL     1      -7.479  13.116  68.479  1.00  0.00    -0.117 C  
ENDROOT
BRANCH   2   3
HETATM    3  O   UNL     1      -7.387  11.750  68.035  1.00  0.00    -0.080 OA 
BRANCH   3   4
HETATM    4  C   UNL     1      -7.292  10.832  69.027  1.00  0.00    -0.109 C  
HETATM    5  O   UNL     1      -7.066  11.089  70.201  1.00  0.00    -0.125 OA 
BRANCH   4   6
HETATM    6  C   UNL     1      -7.485   9.453  68.518  1.00  0.00    -0.080 C  
HETATM    7  C   UNL     1      -6.570   8.940  67.660  1.00  0.00    -0.061 C  
HETATM    8  C   UNL     1      -5.234   9.546  67.294  1.00  0.00    -0.036 C  
HETATM    9  N   UNL     1      -6.832   7.742  67.017  1.00  0.00    -0.067 NA 
HETATM   10  C   UNL     1      -8.069   7.122  66.993  1.00  0.00    -0.117 C  
HETATM   11  C   UNL     1      -8.228   6.056  65.935  1.00  0.00    -0.129 C  
HETATM   12  C   UNL     1      -9.032   7.495  67.876  1.00  0.00    -0.131 C  
HETATM   13  C   UNL     1      -8.748   8.638  68.874  1.00  0.00    -0.131 C  
BRANCH  12  14
HETATM   14  C   UNL     1     -10.349   6.790  67.846  1.00  0.00    -0.194 C  
HETATM   15  O   UNL     1     -11.257   7.070  67.076  1.00  0.00    -0.328 OA 
BRANCH  14  16
HETATM   16  O   UNL     1     -10.416   5.790  68.758  1.00  0.00    -0.205 OA 
BRANCH  16  17
HETATM   17  C   UNL     1     -11.302   6.036  69.867  1.00  0.00    -0.285 C  
HETATM   18  C   UNL     1     -10.607   5.859  71.210  1.00  0.00    -0.311 C  
ENDBRANCH  16  17
ENDBRANCH  14  16
ENDBRANCH  12  14
BRANCH  13  19
HETATM   19  C   UNL     1      -9.976   9.496  69.216  1.00  0.00    -0.191 A  
HETATM   20  C   UNL     1     -10.729  10.225  68.275  1.00  0.00    -0.276 A  
HETATM   21  C   UNL     1     -11.874  10.918  68.717  1.00  0.00    -0.305 A  
HETATM   22  C   UNL     1     -10.393   9.499  70.572  1.00  0.00    -0.350 A  
HETATM   23  C   UNL     1     -11.527  10.189  70.986  1.00  0.00    -0.436 A  
HETATM   24  C   UNL     1     -12.275  10.892  70.056  1.00  0.00    -0.422 A  
BRANCH  20  25
HETATM   25  C   UNL     1     -10.332  10.338  66.860  1.00  0.00    -0.298 C  
HETATM   26  C   UNL     1     -10.805  11.290  66.040  1.00  0.00    -0.273 C  
BRANCH  26  27
HETATM   27  C   UNL     1     -10.349  11.492  64.650  1.00  0.00    -0.297 C  
HETATM   28  O   UNL     1     -10.295  12.609  64.158  1.00  0.00    -0.373 OA 
BRANCH  27  29
HETATM   29  O   UNL     1     -10.014  10.324  64.060  1.00  0.00    -0.299 OA 
HETATM   30  C   UNL     1      -8.711  10.160  63.443  1.00  0.00    -0.213 C  
HETATM   31  C   UNL     1      -8.469  11.185  62.330  1.00  0.00    -0.282 C  
HETATM   32  C   UNL     1      -7.601  10.196  64.500  1.00  0.00    -0.130 C  
HETATM   33  C   UNL     1      -8.750   8.757  62.814  1.00  0.00    -0.065 C  
ENDBRANCH  27  29
ENDBRANCH  26  27
ENDBRANCH  20  25
ENDBRANCH  13  19
ENDBRANCH   4   6
ENDBRANCH   3   4
ENDBRANCH   2   3
TORSDOF 10
ENDMDL
MODEL       55
REMARK 921   NORMALIZED FREE ENERGY PREDICTED BY IDOCK:   -4.50 KCAL/MOL
REMARK 922        TOTAL FREE ENERGY PREDICTED BY IDOCK:   -9.50 KCAL/MOL
REMARK 923 INTER-LIGAND FREE ENERGY PREDICTED BY IDOCK:   -7.63 KCAL/MOL
REMARK 924 INTRA-LIGAND FREE ENERGY PREDICTED BY IDOCK:   -1.87 KCAL/MOL
REMARK 927      BINDING AFFINITY PREDICTED BY RF-SCORE:    0.00 PKD
ROOT
HETATM    1  C   UNL     1      -9.376  15.774  65.942  1.00  0.00    -0.356 C  
HETATM    2  C   UNL     1     -10.566  15.388  66.799  1.00  0.00    -0.309 C  
ENDROOT
BRANCH   2   3
HETATM    3  O   UNL     1     -10.370  14.058  67.312  1.00  0.00    -0.260 OA 
BRANCH   3   4
HETATM    4  C   UNL     1     -11.340  13.170  66.983  1.00  0.00    -0.312 C  
HETATM    5  O   UNL     1     -12.074  13.264  66.009  1.00  0.00    -0.403 OA 
BRANCH   4   6
HETATM    6  C   UNL     1     -11.419  12.057  67.959  1.00  0.00    -0.392 C  
HETATM    7  C   UNL     1     -11.846  12.323  69.218  1.00  0.00    -0.306 C  
HETATM    8  C   UNL     1     -12.451  13.617  69.713  1.00  0.00    -0.193 C  
HETATM    9  N   UNL     1     -11.736  11.350  70.197  1.00  0.00    -0.331 NA 
HETATM   10  C   UNL     1     -11.003  10.184  70.061  1.00  0.00    -0.307 C  
HETATM   11  C   UNL     1     -10.702   9.465  71.355  1.00  0.00    -0.407 C  
HETATM   12  C   UNL     1     -10.604   9.773  68.829  1.00  0.00    -0.244 C  
HETATM   13  C   UNL     1     -10.940  10.636  67.593  1.00  0.00    -0.370 C  
BRANCH  12  14
HETATM   14  C   UNL     1      -9.837   8.497  68.709  1.00  0.00    -0.173 C  
HETATM   15  O   UNL     1      -8.683   8.354  69.088  1.00  0.00    -0.139 OA 
BRANCH  14  16
HETATM   16  O   UNL     1     -10.573   7.507  68.148  1.00  0.00    -0.198 OA 
BRANCH  16  17
HETATM   17  C   UNL     1     -11.141   6.567  69.080  1.00  0.00    -0.310 C  
HETATM   18  C   UNL     1     -10.177   5.439  69.420  1.00  0.00    -0.334 C  
ENDBRANCH  16  17
ENDBRANCH  14  16
ENDBRANCH  12  14
BRANCH  13  19
HETATM   19  C   UNL     1      -9.874  10.595  66.488  1.00  0.00    -0.250 A  
HETATM   20  C   UNL     1      -8.559  11.082  66.626  1.00  0.00    -0.157 A  
HETATM   21  C   UNL     1      -7.662  10.919  65.550  1.00  0.00     0.057 A  
HETATM   22  C   UNL     1     -10.246   9.975  65.267  1.00  0.00    -0.196 A  
HETATM   23  C   UNL     1      -9.344   9.825  64.219  1.00  0.00    -0.253 A  
HETATM   24  C   UNL     1      -8.047  10.290  64.364  1.00  0.00    -0.149 A  
BRANCH  20  25
HETATM   25  C   UNL     1      -8.105  11.802  67.828  1.00  0.00    -0.143 C  
HETATM   26  C   UNL     1      -7.326  12.895  67.777  1.00  0.00    -0.134 C  
BRANCH  26  27
HETATM   27  C   UNL     1      -6.941  13.698  68.955  1.00  0.00    -0.110 C  
HETATM   28  O   UNL     1      -6.218  13.237  69.825  1.00  0.00    -0.123 OA 
BRANCH  27  29
HETATM   29  O   UNL     1      -7.471  14.940  68.908  1.00  0.00    -0.119 OA 
HETATM   30  C   UNL     1      -6.610  16.104  68.814  1.00  0.00    -0.129 C  
HETATM   31  C   UNL     1      -5.637  16.193  69.994  1.00  0.00    -0.171 C  
HETATM   32  C   UNL     1      -5.877  16.129  67.468  1.00  0.00    -0.180 C  
HETATM   33  C   UNL     1      -7.567  17.304  68.879  1.00  0.00    -0.235 C  
ENDBRANCH  27  29
ENDBRANCH  26  27
ENDBRANCH  20  25
ENDBRANCH  13  19
ENDBRANCH   4   6
ENDBRANCH   3   4
ENDBRANCH   2   3
TORSDOF 10
ENDMDL
MODEL       56
REMARK 921   NORMALIZED FREE ENERGY PREDICTED BY IDOCK:   -4.50 KCAL/MOL
REMARK 922        TOTAL FREE ENERGY PREDICTED BY IDOCK:   -9.49 KCAL/MOL
REMARK 923 INTER-LIGAND FREE ENERGY PREDICTED BY IDOCK:   -7.39 KCAL/MOL
REMARK 924 INTRA-LIGAND FREE ENERGY PREDICTED BY IDOCK:   -2.10 KCAL/MOL
REMARK 927      BINDING AFFINITY PREDICTED BY RF-SCORE:    0.00 PKD
ROOT
HETATM    1  C   UNL     1     -12.472  11.221  70.628  1.00  0.00    -0.439 C  
HETATM    2  C   UNL     1     -12.146  12.227  69.541  1.00  0.00    -0.198 C  
ENDROOT
BRANCH   2   3
HETATM    3  O   UNL     1     -12.228  11.583  68.257  1.00  0.00    -0.561 OA 
BRANCH   3   4
HETATM    4  C   UNL     1     -11.704  12.291  67.228  1.00  0.00    -0.324 C  
HETATM    5  O   UNL     1     -12.211  12.395  66.119  1.00  0.00    -0.635 OA 
BRANCH   4   6
HETATM    6  C   UNL     1     -10.419  12.930  67.599  1.00  0.00    -0.228 C  
HETATM    7  C   UNL     1     -10.343  14.283  67.615  1.00  0.00    -0.248 C  
HETATM    8  C   UNL     1     -11.495  15.254  67.483  1.00  0.00    -0.271 C  
HETATM    9  N   UNL     1      -9.112  14.898  67.758  1.00  0.00    -0.182 NA 
HETATM   10  C   UNL     1      -7.896  14.245  67.652  1.00  0.00    -0.179 C  
HETATM   11  C   UNL     1      -6.701  15.148  67.456  1.00  0.00    -0.189 C  
HETATM   12  C   UNL     1      -7.846  12.889  67.719  1.00  0.00    -0.158 C  
HETATM   13  C   UNL     1      -9.156  12.086  67.873  1.00  0.00    -0.183 C  
BRANCH  12  14
HETATM   14  C   UNL     1      -6.517  12.212  67.630  1.00  0.00    -0.110 C  
HETATM   15  O   UNL     1      -5.909  12.033  66.584  1.00  0.00    -0.253 OA 
BRANCH  14  16
HETATM   16  O   UNL     1      -6.051  11.834  68.846  1.00  0.00    -0.049 OA 
BRANCH  16  17
HETATM   17  C   UNL     1      -5.207  10.667  68.839  1.00  0.00    -0.041 C  
HETATM   18  C   UNL     1      -5.966   9.404  69.223  1.00  0.00    -0.037 C  
ENDBRANCH  16  17
ENDBRANCH  14  16
ENDBRANCH  12  14
BRANCH  13  19
HETATM   19  C   UNL     1      -9.144  10.721  67.168  1.00  0.00    -0.153 A  
HETATM   20  C   UNL     1      -9.406   9.490  67.801  1.00  0.00    -0.143 A  
HETATM   21  C   UNL     1      -9.427   8.318  67.018  1.00  0.00    -0.226 A  
HETATM   22  C   UNL     1      -8.898  10.729  65.770  1.00  0.00    -0.201 A  
HETATM   23  C   UNL     1      -8.924   9.560  65.017  1.00  0.00    -0.258 A  
HETATM   24  C   UNL     1      -9.198   8.353  65.640  1.00  0.00    -0.118 A  
BRANCH  20  25
HETATM   25  C   UNL     1      -9.601   9.376  69.257  1.00  0.00    -0.171 C  
HETATM   26  C   UNL     1     -10.198   8.322  69.836  1.00  0.00    -0.201 C  
BRANCH  26  27
HETATM   27  C   UNL     1     -10.315   8.130  71.295  1.00  0.00    -0.199 C  
HETATM   28  O   UNL     1     -10.099   9.048  72.073  1.00  0.00    -0.327 OA 
BRANCH  27  29
HETATM   29  O   UNL     1     -10.688   6.869  71.605  1.00  0.00    -0.220 OA 
HETATM   30  C   UNL     1      -9.918   6.088  72.555  1.00  0.00    -0.176 C  
HETATM   31  C   UNL     1      -8.463   5.913  72.109  1.00  0.00    -0.125 C  
HETATM   32  C   UNL     1     -10.014   6.694  73.960  1.00  0.00    -0.346 C  
HETATM   33  C   UNL     1     -10.595   4.708  72.565  1.00  0.00    -0.243 C  
ENDBRANCH  27  29
ENDBRANCH  26  27
ENDBRANCH  20  25
ENDBRANCH  13  19
ENDBRANCH   4   6
ENDBRANCH   3   4
ENDBRANCH   2   3
TORSDOF 10
ENDMDL
MODEL       57
REMARK 921   NORMALIZED FREE ENERGY PREDICTED BY IDOCK:   -4.48 KCAL/MOL
REMARK 922        TOTAL FREE ENERGY PREDICTED BY IDOCK:   -9.47 KCAL/MOL
REMARK 923 INTER-LIGAND FREE ENERGY PREDICTED BY IDOCK:   -7.38 KCAL/MOL
REMARK 924 INTRA-LIGAND FREE ENERGY PREDICTED BY IDOCK:   -2.08 KCAL/MOL
REMARK 927      BINDING AFFINITY PREDICTED BY RF-SCORE:    0.00 PKD
ROOT
HETATM    1  C   UNL     1     -13.135   9.142  72.296  1.00  0.00    -0.509 C  
HETATM    2  C   UNL     1     -13.030  10.430  71.504  1.00  0.00    -0.458 C  
ENDROOT
BRANCH   2   3
HETATM    3  O   UNL     1     -11.735  10.503  70.882  1.00  0.00    -0.338 OA 
BRANCH   3   4
HETATM    4  C   UNL     1     -11.742  10.919  69.592  1.00  0.00    -0.331 C  
HETATM    5  O   UNL     1     -12.616  10.660  68.777  1.00  0.00    -0.167 OA 
BRANCH   4   6
HETATM    6  C   UNL     1     -10.544  11.731  69.271  1.00  0.00    -0.052 C  
HETATM    7  C   UNL     1     -10.693  13.063  69.069  1.00  0.00    -0.100 C  
HETATM    8  C   UNL     1     -11.938  13.882  69.326  1.00  0.00    -0.402 C  
HETATM    9  N   UNL     1      -9.634  13.803  68.572  1.00  0.00    -0.206 NA 
HETATM   10  C   UNL     1      -8.484  13.254  68.032  1.00  0.00    -0.170 C  
HETATM   11  C   UNL     1      -7.647  14.206  67.210  1.00  0.00    -0.104 C  
HETATM   12  C   UNL     1      -8.187  11.947  68.253  1.00  0.00    -0.157 C  
HETATM   13  C   UNL     1      -9.161  11.074  69.074  1.00  0.00    -0.077 C  
BRANCH  12  14
HETATM   14  C   UNL     1      -6.925  11.388  67.682  1.00  0.00    -0.081 C  
HETATM   15  O   UNL     1      -5.923  11.147  68.341  1.00  0.00    -0.046 OA 
BRANCH  14  16
HETATM   16  O   UNL     1      -7.022  11.161  66.349  1.00  0.00    -0.135 OA 
BRANCH  16  17
HETATM   17  C   UNL     1      -5.876  10.522  65.755  1.00  0.00    -0.126 C  
HETATM   18  C   UNL     1      -6.174   9.094  65.317  1.00  0.00    -0.064 C  
ENDBRANCH  16  17
ENDBRANCH  14  16
ENDBRANCH  12  14
BRANCH  13  19
HETATM   19  C   UNL     1      -9.219   9.605  68.627  1.00  0.00    -0.136 A  
HETATM   20  C   UNL     1      -9.706   9.167  67.380  1.00  0.00    -0.211 A  
HETATM   21  C   UNL     1      -9.639   7.792  67.074  1.00  0.00    -0.238 A  
HETATM   22  C   UNL     1      -8.695   8.644  69.529  1.00  0.00    -0.139 A  
HETATM   23  C   UNL     1      -8.638   7.292  69.206  1.00  0.00    -0.137 A  
HETATM   24  C   UNL     1      -9.103   6.866  67.972  1.00  0.00    -0.120 A  
BRANCH  20  25
HETATM   25  C   UNL     1     -10.333  10.081  66.410  1.00  0.00    -0.249 C  
HETATM   26  C   UNL     1      -9.692  10.557  65.330  1.00  0.00    -0.328 C  
BRANCH  26  27
HETATM   27  C   UNL     1     -10.323  11.389  64.287  1.00  0.00    -0.328 C  
HETATM   28  O   UNL     1     -10.842  10.884  63.302  1.00  0.00    -0.113 OA 
BRANCH  27  29
HETATM   29  O   UNL     1     -10.250  12.705  64.586  1.00  0.00    -0.313 OA 
HETATM   30  C   UNL     1     -11.457  13.505  64.683  1.00  0.00    -0.358 C  
HETATM   31  C   UNL     1     -12.257  13.496  63.377  1.00  0.00    -0.338 C  
HETATM   32  C   UNL     1     -12.309  13.057  65.876  1.00  0.00    -0.432 C  
HETATM   33  C   UNL     1     -10.957  14.935  64.940  1.00  0.00    -0.422 C  
ENDBRANCH  27  29
ENDBRANCH  26  27
ENDBRANCH  20  25
ENDBRANCH  13  19
ENDBRANCH   4   6
ENDBRANCH   3   4
ENDBRANCH   2   3
TORSDOF 10
ENDMDL
MODEL       58
REMARK 921   NORMALIZED FREE ENERGY PREDICTED BY IDOCK:   -4.47 KCAL/MOL
REMARK 922        TOTAL FREE ENERGY PREDICTED BY IDOCK:   -9.45 KCAL/MOL
REMARK 923 INTER-LIGAND FREE ENERGY PREDICTED BY IDOCK:   -7.44 KCAL/MOL
REMARK 924 INTRA-LIGAND FREE ENERGY PREDICTED BY IDOCK:   -2.01 KCAL/MOL
REMARK 927      BINDING AFFINITY PREDICTED BY RF-SCORE:    0.00 PKD
ROOT
HETATM    1  C   UNL     1     -12.845   9.663  71.764  1.00  0.00    -0.514 C  
HETATM    2  C   UNL     1     -12.410  10.844  70.919  1.00  0.00    -0.400 C  
ENDROOT
BRANCH   2   3
HETATM    3  O   UNL     1     -11.179  10.522  70.247  1.00  0.00    -0.295 OA 
BRANCH   3   4
HETATM    4  C   UNL     1     -11.094  10.961  68.968  1.00  0.00    -0.246 C  
HETATM    5  O   UNL     1     -11.736  10.511  68.029  1.00  0.00    -0.450 OA 
BRANCH   4   6
HETATM    6  C   UNL     1     -10.109  12.060  68.830  1.00  0.00    -0.113 C  
HETATM    7  C   UNL     1     -10.563  13.318  68.607  1.00  0.00    -0.246 C  
HETATM    8  C   UNL     1     -11.999  13.786  68.674  1.00  0.00    -0.401 C  
HETATM    9  N   UNL     1      -9.667  14.319  68.274  1.00  0.00    -0.215 NA 
HETATM   10  C   UNL     1      -8.349  14.099  67.913  1.00  0.00    -0.162 C  
HETATM   11  C   UNL     1      -7.673  15.263  67.226  1.00  0.00    -0.243 C  
HETATM   12  C   UNL     1      -7.764  12.902  68.177  1.00  0.00    -0.138 C  
HETATM   13  C   UNL     1      -8.591  11.781  68.843  1.00  0.00     0.110 C  
BRANCH  12  14
HETATM   14  C   UNL     1      -6.332  12.703  67.802  1.00  0.00    -0.130 C  
HETATM   15  O   UNL     1      -5.964  12.203  66.748  1.00  0.00    -0.241 OA 
BRANCH  14  16
HETATM   16  O   UNL     1      -5.484  13.156  68.757  1.00  0.00    -0.070 OA 
BRANCH  16  17
HETATM   17  C   UNL     1      -5.567  12.470  70.021  1.00  0.00    -0.128 C  
HETATM   18  C   UNL     1      -5.584  13.434  71.200  1.00  0.00    -0.192 C  
ENDBRANCH  16  17
ENDBRANCH  14  16
ENDBRANCH  12  14
BRANCH  13  19
HETATM   19  C   UNL     1      -8.207  10.363  68.393  1.00  0.00    -0.114 A  
HETATM   20  C   UNL     1      -8.334   9.880  67.076  1.00  0.00    -0.121 A  
HETATM   21  C   UNL     1      -7.880   8.576  66.789  1.00  0.00    -0.091 A  
HETATM   22  C   UNL     1      -7.639   9.515  69.379  1.00  0.00    -0.091 A  
HETATM   23  C   UNL     1      -7.197   8.232  69.072  1.00  0.00    -0.073 A  
HETATM   24  C   UNL     1      -7.309   7.765  67.772  1.00  0.00    -0.095 A  
BRANCH  20  25
HETATM   25  C   UNL     1      -8.975  10.662  66.005  1.00  0.00    -0.189 C  
HETATM   26  C   UNL     1     -10.045  10.227  65.320  1.00  0.00    -0.359 C  
BRANCH  26  27
HETATM   27  C   UNL     1     -10.772  11.029  64.316  1.00  0.00    -0.278 C  
HETATM   28  O   UNL     1     -10.535  10.914  63.122  1.00  0.00    -0.253 OA 
BRANCH  27  29
HETATM   29  O   UNL     1     -11.685  11.843  64.891  1.00  0.00    -0.290 OA 
HETATM   30  C   UNL     1     -11.721  13.256  64.562  1.00  0.00    -0.378 C  
HETATM   31  C   UNL     1     -10.394  13.953  64.881  1.00  0.00    -0.430 C  
HETATM   32  C   UNL     1     -12.135  13.462  63.100  1.00  0.00    -0.138 C  
HETATM   33  C   UNL     1     -12.812  13.841  65.473  1.00  0.00    -0.464 C  
ENDBRANCH  27  29
ENDBRANCH  26  27
ENDBRANCH  20  25
ENDBRANCH  13  19
ENDBRANCH   4   6
ENDBRANCH   3   4
ENDBRANCH   2   3
TORSDOF 10
ENDMDL
MODEL       59
REMARK 921   NORMALIZED FREE ENERGY PREDICTED BY IDOCK:   -4.46 KCAL/MOL
REMARK 922        TOTAL FREE ENERGY PREDICTED BY IDOCK:   -9.44 KCAL/MOL
REMARK 923 INTER-LIGAND FREE ENERGY PREDICTED BY IDOCK:   -7.61 KCAL/MOL
REMARK 924 INTRA-LIGAND FREE ENERGY PREDICTED BY IDOCK:   -1.82 KCAL/MOL
REMARK 927      BINDING AFFINITY PREDICTED BY RF-SCORE:    0.00 PKD
ROOT
HETATM    1  C   UNL     1     -12.762  11.838  71.205  1.00  0.00    -0.420 C  
HETATM    2  C   UNL     1     -11.737  10.846  70.691  1.00  0.00    -0.316 C  
ENDROOT
BRANCH   2   3
HETATM    3  O   UNL     1     -11.688   9.711  71.574  1.00  0.00    -0.371 OA 
BRANCH   3   4
HETATM    4  C   UNL     1     -10.549   8.980  71.501  1.00  0.00    -0.345 C  
HETATM    5  O   UNL     1      -9.612   9.062  72.283  1.00  0.00    -0.287 OA 
BRANCH   4   6
HETATM    6  C   UNL     1     -10.562   8.058  70.340  1.00  0.00    -0.224 C  
HETATM    7  C   UNL     1     -11.124   6.833  70.485  1.00  0.00    -0.298 C  
HETATM    8  C   UNL     1     -11.935   6.345  71.664  1.00  0.00    -0.347 C  
HETATM    9  N   UNL     1     -10.969   5.887  69.487  1.00  0.00    -0.372 NA 
HETATM   10  C   UNL     1     -10.079   6.002  68.433  1.00  0.00    -0.164 C  
HETATM   11  C   UNL     1      -9.795   4.714  67.695  1.00  0.00    -0.194 C  
HETATM   12  C   UNL     1      -9.527   7.208  68.139  1.00  0.00    -0.132 C  
HETATM   13  C   UNL     1      -9.871   8.435  69.012  1.00  0.00    -0.184 C  
BRANCH  12  14
HETATM   14  C   UNL     1      -8.591   7.308  66.979  1.00  0.00    -0.122 C  
HETATM   15  O   UNL     1      -8.916   7.706  65.870  1.00  0.00    -0.166 OA 
BRANCH  14  16
HETATM   16  O   UNL     1      -7.332   6.923  67.303  1.00  0.00    -0.086 OA 
BRANCH  16  17
HETATM   17  C   UNL     1      -6.300   7.424  66.432  1.00  0.00    -0.041 C  
HETATM   18  C   UNL     1      -5.849   8.826  66.819  1.00  0.00    -0.052 C  
ENDBRANCH  16  17
ENDBRANCH  14  16
ENDBRANCH  12  14
BRANCH  13  19
HETATM   19  C   UNL     1      -8.719   9.441  69.164  1.00  0.00    -0.142 A  
HETATM   20  C   UNL     1      -8.647  10.680  68.498  1.00  0.00    -0.137 A  
HETATM   21  C   UNL     1      -7.564  11.537  68.781  1.00  0.00    -0.129 A  
HETATM   22  C   UNL     1      -7.692   9.099  70.081  1.00  0.00    -0.105 A  
HETATM   23  C   UNL     1      -6.632   9.960  70.345  1.00  0.00    -0.125 A  
HETATM   24  C   UNL     1      -6.573  11.186  69.701  1.00  0.00    -0.139 A  
BRANCH  20  25
HETATM   25  C   UNL     1      -9.628  11.088  67.477  1.00  0.00    -0.178 C  
HETATM   26  C   UNL     1      -9.281  11.658  66.312  1.00  0.00    -0.225 C  
BRANCH  26  27
HETATM   27  C   UNL     1     -10.230  11.982  65.229  1.00  0.00    -0.271 C  
HETATM   28  O   UNL     1     -10.932  11.119  64.724  1.00  0.00    -0.260 OA 
BRANCH  27  29
HETATM   29  O   UNL     1     -10.204  13.297  64.919  1.00  0.00    -0.325 OA 
HETATM   30  C   UNL     1     -11.245  14.186  65.401  1.00  0.00    -0.325 C  
HETATM   31  C   UNL     1     -12.636  13.751  64.927  1.00  0.00    -0.380 C  
HETATM   32  C   UNL     1     -11.180  14.320  66.927  1.00  0.00    -0.333 C  
HETATM   33  C   UNL     1     -10.918  15.549  64.770  1.00  0.00    -0.416 C  
ENDBRANCH  27  29
ENDBRANCH  26  27
ENDBRANCH  20  25
ENDBRANCH  13  19
ENDBRANCH   4   6
ENDBRANCH   3   4
ENDBRANCH   2   3
TORSDOF 10
ENDMDL
MODEL       60
REMARK 921   NORMALIZED FREE ENERGY PREDICTED BY IDOCK:   -4.46 KCAL/MOL
REMARK 922        TOTAL FREE ENERGY PREDICTED BY IDOCK:   -9.43 KCAL/MOL
REMARK 923 INTER-LIGAND FREE ENERGY PREDICTED BY IDOCK:   -7.40 KCAL/MOL
REMARK 924 INTRA-LIGAND FREE ENERGY PREDICTED BY IDOCK:   -2.03 KCAL/MOL
REMARK 927      BINDING AFFINITY PREDICTED BY RF-SCORE:    0.00 PKD
ROOT
HETATM    1  C   UNL     1     -12.074  14.888  69.885  1.00  0.00    -0.379 C  
HETATM    2  C   UNL     1     -12.029  13.756  68.877  1.00  0.00    -0.359 C  
ENDROOT
BRANCH   2   3
HETATM    3  O   UNL     1     -11.340  12.632  69.454  1.00  0.00    -0.254 OA 
BRANCH   3   4
HETATM    4  C   UNL     1     -11.685  11.426  68.941  1.00  0.00    -0.343 C  
HETATM    5  O   UNL     1     -12.259  11.256  67.875  1.00  0.00    -0.570 OA 
BRANCH   4   6
HETATM    6  C   UNL     1     -11.289  10.315  69.840  1.00  0.00    -0.354 C  
HETATM    7  C   UNL     1     -11.868  10.227  71.062  1.00  0.00    -0.377 C  
HETATM    8  C   UNL     1     -13.043  11.034  71.566  1.00  0.00    -0.500 C  
HETATM    9  N   UNL     1     -11.373   9.327  71.990  1.00  0.00    -0.284 NA 
HETATM   10  C   UNL     1     -10.169   8.657  71.862  1.00  0.00    -0.334 C  
HETATM   11  C   UNL     1      -9.645   8.038  73.138  1.00  0.00    -0.344 C  
HETATM   12  C   UNL     1      -9.547   8.601  70.656  1.00  0.00    -0.222 C  
HETATM   13  C   UNL     1     -10.174   9.324  69.443  1.00  0.00    -0.214 C  
BRANCH  12  14
HETATM   14  C   UNL     1      -8.262   7.848  70.542  1.00  0.00    -0.118 C  
HETATM   15  O   UNL     1      -7.207   8.215  71.039  1.00  0.00    -0.051 OA 
BRANCH  14  16
HETATM   16  O   UNL     1      -8.403   6.698  69.838  1.00  0.00    -0.128 OA 
BRANCH  16  17
HETATM   17  C   UNL     1      -8.990   5.605  70.569  1.00  0.00    -0.138 C  
HETATM   18  C   UNL     1     -10.182   4.999  69.841  1.00  0.00    -0.340 C  
ENDBRANCH  16  17
ENDBRANCH  14  16
ENDBRANCH  12  14
BRANCH  13  19
HETATM   19  C   UNL     1      -9.148   9.893  68.451  1.00  0.00    -0.123 A  
HETATM   20  C   UNL     1      -8.921   9.386  67.156  1.00  0.00    -0.144 A  
HETATM   21  C   UNL     1      -7.994  10.047  66.325  1.00  0.00    -0.111 A  
HETATM   22  C   UNL     1      -8.425  11.039  68.870  1.00  0.00    -0.124 A  
HETATM   23  C   UNL     1      -7.515  11.676  68.032  1.00  0.00    -0.100 A  
HETATM   24  C   UNL     1      -7.306  11.185  66.754  1.00  0.00    -0.146 A  
BRANCH  20  25
HETATM   25  C   UNL     1      -9.572   8.160  66.662  1.00  0.00    -0.295 C  
HETATM   26  C   UNL     1      -8.936   6.982  66.560  1.00  0.00    -0.165 C  
BRANCH  26  27
HETATM   27  C   UNL     1      -9.586   5.716  66.168  1.00  0.00    -0.120 C  
HETATM   28  O   UNL     1     -10.769   5.514  66.401  1.00  0.00    -0.281 OA 
BRANCH  27  29
HETATM   29  O   UNL     1      -8.725   4.885  65.542  1.00  0.00    -0.129 OA 
HETATM   30  C   UNL     1      -8.141   3.761  66.251  1.00  0.00    -0.100 C  
HETATM   31  C   UNL     1      -7.348   4.210  67.482  1.00  0.00    -0.068 C  
HETATM   32  C   UNL     1      -9.217   2.730  66.611  1.00  0.00    -0.114 C  
HETATM   33  C   UNL     1      -7.166   3.128  65.245  1.00  0.00    -0.067 C  
ENDBRANCH  27  29
ENDBRANCH  26  27
ENDBRANCH  20  25
ENDBRANCH  13  19
ENDBRANCH   4   6
ENDBRANCH   3   4
ENDBRANCH   2   3
TORSDOF 10
ENDMDL
MODEL       61
REMARK 921   NORMALIZED FREE ENERGY PREDICTED BY IDOCK:   -4.46 KCAL/MOL
REMARK 922        TOTAL FREE ENERGY PREDICTED BY IDOCK:   -9.43 KCAL/MOL
REMARK 923 INTER-LIGAND FREE ENERGY PREDICTED BY IDOCK:   -7.21 KCAL/MOL
REMARK 924 INTRA-LIGAND FREE ENERGY PREDICTED BY IDOCK:   -2.21 KCAL/MOL
REMARK 927      BINDING AFFINITY PREDICTED BY RF-SCORE:    0.00 PKD
ROOT
HETATM    1  C   UNL     1      -9.911  16.658  66.725  1.00  0.00    -0.280 C  
HETATM    2  C   UNL     1      -9.287  15.518  65.943  1.00  0.00    -0.319 C  
ENDROOT
BRANCH   2   3
HETATM    3  O   UNL     1      -9.551  14.276  66.621  1.00  0.00    -0.266 OA 
BRANCH   3   4
HETATM    4  C   UNL     1     -10.656  13.617  66.197  1.00  0.00    -0.291 C  
HETATM    5  O   UNL     1     -11.265  13.861  65.165  1.00  0.00    -0.307 OA 
BRANCH   4   6
HETATM    6  C   UNL     1     -11.058  12.553  67.148  1.00  0.00    -0.321 C  
HETATM    7  C   UNL     1     -11.536  12.912  68.365  1.00  0.00    -0.333 C  
HETATM    8  C   UNL     1     -11.902  14.308  68.816  1.00  0.00    -0.377 C  
HETATM    9  N   UNL     1     -11.726  11.945  69.337  1.00  0.00    -0.316 NA 
HETATM   10  C   UNL     1     -11.243  10.651  69.256  1.00  0.00    -0.273 C  
HETATM   11  C   UNL     1     -11.222   9.894  70.564  1.00  0.00    -0.399 C  
HETATM   12  C   UNL     1     -10.825  10.155  68.062  1.00  0.00    -0.320 C  
HETATM   13  C   UNL     1     -10.856  11.060  66.811  1.00  0.00    -0.307 C  
BRANCH  12  14
HETATM   14  C   UNL     1     -10.334   8.746  67.999  1.00  0.00    -0.220 C  
HETATM   15  O   UNL     1     -10.935   7.837  67.445  1.00  0.00    -0.189 OA 
BRANCH  14  16
HETATM   16  O   UNL     1      -9.135   8.593  68.612  1.00  0.00    -0.138 OA 
BRANCH  16  17
HETATM   17  C   UNL     1      -8.307   7.543  68.076  1.00  0.00    -0.124 C  
HETATM   18  C   UNL     1      -6.868   7.993  67.867  1.00  0.00    -0.073 C  
ENDBRANCH  16  17
ENDBRANCH  14  16
ENDBRANCH  12  14
BRANCH  13  19
HETATM   19  C   UNL     1      -9.722  10.788  65.810  1.00  0.00    -0.278 A  
HETATM   20  C   UNL     1      -8.350  10.919  66.100  1.00  0.00    -0.168 A  
HETATM   21  C   UNL     1      -7.413  10.572  65.105  1.00  0.00    -0.036 A  
HETATM   22  C   UNL     1     -10.106  10.326  64.525  1.00  0.00    -0.286 A  
HETATM   23  C   UNL     1      -9.164   9.989  63.558  1.00  0.00    -0.315 A  
HETATM   24  C   UNL     1      -7.815  10.103  63.852  1.00  0.00    -0.149 A  
BRANCH  20  25
HETATM   25  C   UNL     1      -7.860  11.458  67.381  1.00  0.00    -0.135 C  
HETATM   26  C   UNL     1      -6.705  12.133  67.499  1.00  0.00    -0.129 C  
BRANCH  26  27
HETATM   27  C   UNL     1      -6.240  12.773  68.745  1.00  0.00    -0.075 C  
HETATM   28  O   UNL     1      -6.225  12.162  69.803  1.00  0.00    -0.129 OA 
BRANCH  27  29
HETATM   29  O   UNL     1      -5.848  14.049  68.534  1.00  0.00    -0.081 OA 
HETATM   30  C   UNL     1      -6.331  15.117  69.390  1.00  0.00    -0.129 C  
HETATM   31  C   UNL     1      -7.859  15.222  69.370  1.00  0.00    -0.227 C  
HETATM   32  C   UNL     1      -5.790  14.955  70.816  1.00  0.00    -0.098 C  
HETATM   33  C   UNL     1      -5.744  16.401  68.782  1.00  0.00    -0.121 C  
ENDBRANCH  27  29
ENDBRANCH  26  27
ENDBRANCH  20  25
ENDBRANCH  13  19
ENDBRANCH   4   6
ENDBRANCH   3   4
ENDBRANCH   2   3
TORSDOF 10
ENDMDL
MODEL       62
REMARK 921   NORMALIZED FREE ENERGY PREDICTED BY IDOCK:   -4.44 KCAL/MOL
REMARK 922        TOTAL FREE ENERGY PREDICTED BY IDOCK:   -9.41 KCAL/MOL
REMARK 923 INTER-LIGAND FREE ENERGY PREDICTED BY IDOCK:   -6.61 KCAL/MOL
REMARK 924 INTRA-LIGAND FREE ENERGY PREDICTED BY IDOCK:   -2.79 KCAL/MOL
REMARK 927      BINDING AFFINITY PREDICTED BY RF-SCORE:    0.00 PKD
ROOT
HETATM    1  C   UNL     1      -6.664   8.915  67.451  1.00  0.00    -0.066 C  
HETATM    2  C   UNL     1      -5.836   8.839  68.719  1.00  0.00    -0.041 C  
ENDROOT
BRANCH   2   3
HETATM    3  O   UNL     1      -6.640   8.297  69.782  1.00  0.00    -0.039 OA 
BRANCH   3   4
HETATM    4  C   UNL     1      -7.082   9.206  70.685  1.00  0.00    -0.099 C  
HETATM    5  O   UNL     1      -6.690  10.362  70.765  1.00  0.00    -0.340 OA 
BRANCH   4   6
HETATM    6  C   UNL     1      -8.105   8.628  71.589  1.00  0.00    -0.183 C  
HETATM    7  C   UNL     1      -7.705   7.787  72.574  1.00  0.00    -0.106 C  
HETATM    8  C   UNL     1      -6.282   7.507  73.000  1.00  0.00    -0.059 C  
HETATM    9  N   UNL     1      -8.651   7.081  73.297  1.00  0.00    -0.123 NA 
HETATM   10  C   UNL     1      -9.985   6.977  72.944  1.00  0.00    -0.187 C  
HETATM   11  C   UNL     1     -10.743   5.866  73.634  1.00  0.00    -0.260 C  
HETATM   12  C   UNL     1     -10.516   7.834  72.033  1.00  0.00    -0.277 C  
HETATM   13  C   UNL     1      -9.610   8.893  71.368  1.00  0.00    -0.359 C  
BRANCH  12  14
HETATM   14  C   UNL     1     -11.965   7.715  71.691  1.00  0.00    -0.299 C  
HETATM   15  O   UNL     1     -12.421   6.883  70.920  1.00  0.00    -0.378 OA 
BRANCH  14  16
HETATM   16  O   UNL     1     -12.722   8.626  72.350  1.00  0.00    -0.383 OA 
BRANCH  16  17
HETATM   17  C   UNL     1     -13.466   9.525  71.505  1.00  0.00    -0.368 C  
HETATM   18  C   UNL     1     -13.207  10.986  71.848  1.00  0.00    -0.503 C  
ENDBRANCH  16  17
ENDBRANCH  14  16
ENDBRANCH  12  14
BRANCH  13  19
HETATM   19  C   UNL     1      -9.986   9.220  69.914  1.00  0.00    -0.226 A  
HETATM   20  C   UNL     1     -10.048   8.274  68.872  1.00  0.00    -0.208 A  
HETATM   21  C   UNL     1     -10.472   8.701  67.597  1.00  0.00    -0.311 A  
HETATM   22  C   UNL     1     -10.340  10.565  69.636  1.00  0.00    -0.231 A  
HETATM   23  C   UNL     1     -10.757  10.964  68.370  1.00  0.00    -0.240 A  
HETATM   24  C   UNL     1     -10.832  10.028  67.351  1.00  0.00    -0.313 A  
BRANCH  20  25
HETATM   25  C   UNL     1      -9.631   6.872  69.050  1.00  0.00    -0.136 C  
HETATM   26  C   UNL     1      -9.491   6.013  68.028  1.00  0.00    -0.113 C  
BRANCH  26  27
HETATM   27  C   UNL     1      -8.977   4.636  68.163  1.00  0.00    -0.114 C  
HETATM   28  O   UNL     1      -8.208   4.164  67.339  1.00  0.00    -0.098 OA 
BRANCH  27  29
HETATM   29  O   UNL     1      -9.452   4.032  69.274  1.00  0.00    -0.165 OA 
HETATM   30  C   UNL     1      -8.542   3.415  70.221  1.00  0.00    -0.059 C  
HETATM   31  C   UNL     1      -7.696   2.315  69.571  1.00  0.00    -0.046 C  
HETATM   32  C   UNL     1      -7.669   4.474  70.905  1.00  0.00    -0.064 C  
HETATM   33  C   UNL     1      -9.454   2.769  71.277  1.00  0.00    -0.219 C  
ENDBRANCH  27  29
ENDBRANCH  26  27
ENDBRANCH  20  25
ENDBRANCH  13  19
ENDBRANCH   4   6
ENDBRANCH   3   4
ENDBRANCH   2   3
TORSDOF 10
ENDMDL
MODEL       63
REMARK 921   NORMALIZED FREE ENERGY PREDICTED BY IDOCK:   -4.44 KCAL/MOL
REMARK 922        TOTAL FREE ENERGY PREDICTED BY IDOCK:   -9.41 KCAL/MOL
REMARK 923 INTER-LIGAND FREE ENERGY PREDICTED BY IDOCK:   -7.26 KCAL/MOL
REMARK 924 INTRA-LIGAND FREE ENERGY PREDICTED BY IDOCK:   -2.15 KCAL/MOL
REMARK 927      BINDING AFFINITY PREDICTED BY RF-SCORE:    0.00 PKD
ROOT
HETATM    1  C   UNL     1     -11.879  10.180  70.089  1.00  0.00    -0.299 C  
HETATM    2  C   UNL     1     -12.210  11.453  69.335  1.00  0.00    -0.221 C  
ENDROOT
BRANCH   2   3
HETATM    3  O   UNL     1     -11.889  11.278  67.943  1.00  0.00    -0.597 OA 
BRANCH   3   4
HETATM    4  C   UNL     1     -11.324  12.356  67.347  1.00  0.00    -0.321 C  
HETATM    5  O   UNL     1     -11.362  13.498  67.782  1.00  0.00    -0.269 OA 
BRANCH   4   6
HETATM    6  C   UNL     1     -10.651  11.990  66.077  1.00  0.00    -0.303 C  
HETATM    7  C   UNL     1     -11.360  12.043  64.924  1.00  0.00    -0.310 C  
HETATM    8  C   UNL     1     -12.741  12.630  64.738  1.00  0.00    -0.460 C  
HETATM    9  N   UNL     1     -10.820  11.516  63.764  1.00  0.00    -0.392 NA 
HETATM   10  C   UNL     1      -9.692  10.715  63.721  1.00  0.00    -0.327 C  
HETATM   11  C   UNL     1      -9.505   9.944  62.435  1.00  0.00    -0.174 C  
HETATM   12  C   UNL     1      -8.857  10.662  64.791  1.00  0.00    -0.196 C  
HETATM   13  C   UNL     1      -9.198  11.467  66.064  1.00  0.00    -0.229 C  
BRANCH  12  14
HETATM   14  C   UNL     1      -7.632   9.810  64.707  1.00  0.00    -0.129 C  
HETATM   15  O   UNL     1      -6.507  10.247  64.508  1.00  0.00    -0.129 OA 
BRANCH  14  16
HETATM   16  O   UNL     1      -7.907   8.497  64.896  1.00  0.00    -0.104 OA 
BRANCH  16  17
HETATM   17  C   UNL     1      -6.816   7.715  65.421  1.00  0.00    -0.045 C  
HETATM   18  C   UNL     1      -7.289   6.650  66.401  1.00  0.00    -0.073 C  
ENDBRANCH  16  17
ENDBRANCH  14  16
ENDBRANCH  12  14
BRANCH  13  19
HETATM   19  C   UNL     1      -8.759  10.792  67.373  1.00  0.00    -0.126 A  
HETATM   20  C   UNL     1      -8.007  11.422  68.384  1.00  0.00    -0.142 A  
HETATM   21  C   UNL     1      -7.729  10.704  69.565  1.00  0.00    -0.113 A  
HETATM   22  C   UNL     1      -9.193   9.458  67.578  1.00  0.00    -0.139 A  
HETATM   23  C   UNL     1      -8.908   8.768  68.751  1.00  0.00    -0.134 A  
HETATM   24  C   UNL     1      -8.182   9.395  69.751  1.00  0.00    -0.146 A  
BRANCH  20  25
HETATM   25  C   UNL     1      -7.453  12.778  68.230  1.00  0.00    -0.124 C  
HETATM   26  C   UNL     1      -8.138  13.890  68.542  1.00  0.00    -0.133 C  
BRANCH  26  27
HETATM   27  C   UNL     1      -7.576  15.254  68.497  1.00  0.00    -0.119 C  
HETATM   28  O   UNL     1      -6.382  15.452  68.664  1.00  0.00    -0.092 OA 
BRANCH  27  29
HETATM   29  O   UNL     1      -8.528  16.179  68.246  1.00  0.00    -0.171 OA 
HETATM   30  C   UNL     1      -8.733  16.676  66.898  1.00  0.00    -0.214 C  
HETATM   31  C   UNL     1      -7.468  17.326  66.328  1.00  0.00    -0.354 C  
HETATM   32  C   UNL     1      -9.263  15.564  65.985  1.00  0.00    -0.361 C  
HETATM   33  C   UNL     1      -9.816  17.757  67.040  1.00  0.00    -0.309 C  
ENDBRANCH  27  29
ENDBRANCH  26  27
ENDBRANCH  20  25
ENDBRANCH  13  19
ENDBRANCH   4   6
ENDBRANCH   3   4
ENDBRANCH   2   3
TORSDOF 10
ENDMDL
MODEL       64
REMARK 921   NORMALIZED FREE ENERGY PREDICTED BY IDOCK:   -4.41 KCAL/MOL
REMARK 922        TOTAL FREE ENERGY PREDICTED BY IDOCK:   -9.35 KCAL/MOL
REMARK 923 INTER-LIGAND FREE ENERGY PREDICTED BY IDOCK:   -7.23 KCAL/MOL
REMARK 924 INTRA-LIGAND FREE ENERGY PREDICTED BY IDOCK:   -2.12 KCAL/MOL
REMARK 927      BINDING AFFINITY PREDICTED BY RF-SCORE:    0.00 PKD
ROOT
HETATM    1  C   UNL     1      -5.203   7.961  67.136  1.00  0.00    -0.031 C  
HETATM    2  C   UNL     1      -6.151   7.002  66.441  1.00  0.00    -0.035 C  
ENDROOT
BRANCH   2   3
HETATM    3  O   UNL     1      -7.166   6.581  67.369  1.00  0.00    -0.081 OA 
BRANCH   3   4
HETATM    4  C   UNL     1      -8.345   7.240  67.265  1.00  0.00    -0.119 C  
HETATM    5  O   UNL     1      -8.632   8.027  66.374  1.00  0.00    -0.130 OA 
BRANCH   4   6
HETATM    6  C   UNL     1      -9.264   6.901  68.379  1.00  0.00    -0.124 C  
HETATM    7  C   UNL     1     -10.455   6.323  68.089  1.00  0.00    -0.226 C  
HETATM    8  C   UNL     1     -10.897   5.788  66.746  1.00  0.00    -0.327 C  
HETATM    9  N   UNL     1     -11.407   6.184  69.083  1.00  0.00    -0.355 NA 
HETATM   10  C   UNL     1     -11.343   6.804  70.319  1.00  0.00    -0.352 C  
HETATM   11  C   UNL     1     -12.644   6.833  71.087  1.00  0.00    -0.305 C  
HETATM   12  C   UNL     1     -10.170   7.336  70.751  1.00  0.00    -0.204 C  
HETATM   13  C   UNL     1      -8.926   7.278  69.837  1.00  0.00    -0.142 C  
BRANCH  12  14
HETATM   14  C   UNL     1     -10.122   7.975  72.100  1.00  0.00    -0.234 C  
HETATM   15  O   UNL     1     -10.604   9.069  72.356  1.00  0.00    -0.182 OA 
BRANCH  14  16
HETATM   16  O   UNL     1      -9.498   7.194  73.016  1.00  0.00    -0.143 OA 
BRANCH  16  17
HETATM   17  C   UNL     1     -10.351   6.674  74.054  1.00  0.00    -0.351 C  
HETATM   18  C   UNL     1     -10.721   5.215  73.819  1.00  0.00    -0.352 C  
ENDBRANCH  16  17
ENDBRANCH  14  16
ENDBRANCH  12  14
BRANCH  13  19
HETATM   19  C   UNL     1      -7.987   8.486  69.975  1.00  0.00    -0.109 A  
HETATM   20  C   UNL     1      -8.342   9.815  69.669  1.00  0.00    -0.180 A  
HETATM   21  C   UNL     1      -7.401  10.837  69.906  1.00  0.00    -0.006 A  
HETATM   22  C   UNL     1      -6.692   8.230  70.495  1.00  0.00    -0.037 A  
HETATM   23  C   UNL     1      -5.779   9.254  70.721  1.00  0.00    -0.042 A  
HETATM   24  C   UNL     1      -6.137  10.562  70.435  1.00  0.00    -0.125 A  
BRANCH  20  25
HETATM   25  C   UNL     1      -9.636  10.167  69.059  1.00  0.00    -0.202 C  
HETATM   26  C   UNL     1      -9.743  10.817  67.889  1.00  0.00    -0.181 C  
BRANCH  26  27
HETATM   27  C   UNL     1     -11.021  11.091  67.203  1.00  0.00    -0.283 C  
HETATM   28  O   UNL     1     -12.082  11.070  67.809  1.00  0.00    -0.534 OA 
BRANCH  27  29
HETATM   29  O   UNL     1     -10.836  11.364  65.892  1.00  0.00    -0.272 OA 
HETATM   30  C   UNL     1     -11.076  12.699  65.378  1.00  0.00    -0.292 C  
HETATM   31  C   UNL     1     -12.517  13.157  65.621  1.00  0.00    -0.485 C  
HETATM   32  C   UNL     1     -10.059  13.692  65.953  1.00  0.00    -0.320 C  
HETATM   33  C   UNL     1     -10.849  12.580  63.862  1.00  0.00    -0.472 C  
ENDBRANCH  27  29
ENDBRANCH  26  27
ENDBRANCH  20  25
ENDBRANCH  13  19
ENDBRANCH   4   6
ENDBRANCH   3   4
ENDBRANCH   2   3
TORSDOF 10
ENDMDL
MODEL       65
REMARK 921   NORMALIZED FREE ENERGY PREDICTED BY IDOCK:   -4.40 KCAL/MOL
REMARK 922        TOTAL FREE ENERGY PREDICTED BY IDOCK:   -9.34 KCAL/MOL
REMARK 923 INTER-LIGAND FREE ENERGY PREDICTED BY IDOCK:   -7.04 KCAL/MOL
REMARK 924 INTRA-LIGAND FREE ENERGY PREDICTED BY IDOCK:   -2.30 KCAL/MOL
REMARK 927      BINDING AFFINITY PREDICTED BY RF-SCORE:    0.00 PKD
ROOT
HETATM    1  C   UNL     1      -6.507   7.934  72.279  1.00  0.00    -0.061 C  
HETATM    2  C   UNL     1      -7.893   8.506  72.507  1.00  0.00    -0.034 C  
ENDROOT
BRANCH   2   3
HETATM    3  O   UNL     1      -8.859   7.710  71.796  1.00  0.00    -0.113 OA 
BRANCH   3   4
HETATM    4  C   UNL     1      -9.885   8.408  71.252  1.00  0.00    -0.198 C  
HETATM    5  O   UNL     1     -10.417   9.384  71.762  1.00  0.00    -0.282 OA 
BRANCH   4   6
HETATM    6  C   UNL     1     -10.308   7.837  69.951  1.00  0.00    -0.223 C  
HETATM    7  C   UNL     1     -10.962   6.650  69.940  1.00  0.00    -0.319 C  
HETATM    8  C   UNL     1     -11.501   5.905  71.140  1.00  0.00    -0.152 C  
HETATM    9  N   UNL     1     -11.185   6.003  68.737  1.00  0.00    -0.266 NA 
HETATM   10  C   UNL     1     -10.584   6.351  67.540  1.00  0.00    -0.283 C  
HETATM   11  C   UNL     1     -10.660   5.298  66.458  1.00  0.00    -0.348 C  
HETATM   12  C   UNL     1      -9.980   7.560  67.410  1.00  0.00    -0.246 C  
HETATM   13  C   UNL     1      -9.934   8.522  68.618  1.00  0.00    -0.197 C  
BRANCH  12  14
HETATM   14  C   UNL     1      -9.364   7.921  66.098  1.00  0.00    -0.125 C  
HETATM   15  O   UNL     1      -8.499   7.258  65.543  1.00  0.00    -0.141 OA 
BRANCH  14  16
HETATM   16  O   UNL     1      -9.887   9.059  65.582  1.00  0.00    -0.227 OA 
BRANCH  16  17
HETATM   17  C   UNL     1      -9.060   9.721  64.605  1.00  0.00    -0.245 C  
HETATM   18  C   UNL     1      -7.870  10.428  65.241  1.00  0.00    -0.137 C  
ENDBRANCH  16  17
ENDBRANCH  14  16
ENDBRANCH  12  14
BRANCH  13  19
HETATM   19  C   UNL     1      -8.666   9.386  68.687  1.00  0.00    -0.131 A  
HETATM   20  C   UNL     1      -8.661  10.793  68.766  1.00  0.00    -0.156 A  
HETATM   21  C   UNL     1      -7.423  11.457  68.890  1.00  0.00    -0.113 A  
HETATM   22  C   UNL     1      -7.427   8.697  68.722  1.00  0.00    -0.091 A  
HETATM   23  C   UNL     1      -6.218   9.373  68.846  1.00  0.00    -0.043 A  
HETATM   24  C   UNL     1      -6.216  10.755  68.940  1.00  0.00    -0.041 A  
BRANCH  20  25
HETATM   25  C   UNL     1      -9.892  11.596  68.666  1.00  0.00    -0.173 C  
HETATM   26  C   UNL     1      -9.909  12.858  68.208  1.00  0.00    -0.228 C  
BRANCH  26  27
HETATM   27  C   UNL     1     -11.136  13.650  67.999  1.00  0.00    -0.262 C  
HETATM   28  O   UNL     1     -12.158  13.413  68.626  1.00  0.00    -0.346 OA 
BRANCH  27  29
HETATM   29  O   UNL     1     -10.954  14.620  67.076  1.00  0.00    -0.302 OA 
HETATM   30  C   UNL     1     -11.240  14.366  65.676  1.00  0.00    -0.323 C  
HETATM   31  C   UNL     1     -10.407  13.206  65.121  1.00  0.00    -0.326 C  
HETATM   32  C   UNL     1     -12.742  14.142  65.462  1.00  0.00    -0.468 C  
HETATM   33  C   UNL     1     -10.825  15.657  64.952  1.00  0.00    -0.438 C  
ENDBRANCH  27  29
ENDBRANCH  26  27
ENDBRANCH  20  25
ENDBRANCH  13  19
ENDBRANCH   4   6
ENDBRANCH   3   4
ENDBRANCH   2   3
TORSDOF 10
ENDMDL
MODEL       66
REMARK 921   NORMALIZED FREE ENERGY PREDICTED BY IDOCK:   -4.40 KCAL/MOL
REMARK 922        TOTAL FREE ENERGY PREDICTED BY IDOCK:   -9.33 KCAL/MOL
REMARK 923 INTER-LIGAND FREE ENERGY PREDICTED BY IDOCK:   -7.88 KCAL/MOL
REMARK 924 INTRA-LIGAND FREE ENERGY PREDICTED BY IDOCK:   -1.45 KCAL/MOL
REMARK 927      BINDING AFFINITY PREDICTED BY RF-SCORE:    0.00 PKD
ROOT
HETATM    1  C   UNL     1      -9.778  10.220  64.815  1.00  0.00    -0.397 C  
HETATM    2  C   UNL     1      -9.428   9.088  65.762  1.00  0.00    -0.236 C  
ENDROOT
BRANCH   2   3
HETATM    3  O   UNL     1     -10.596   8.723  66.518  1.00  0.00    -0.196 OA 
BRANCH   3   4
HETATM    4  C   UNL     1     -10.499   7.549  67.188  1.00  0.00    -0.336 C  
HETATM    5  O   UNL     1     -11.358   6.677  67.203  1.00  0.00    -0.343 OA 
BRANCH   4   6
HETATM    6  C   UNL     1      -9.216   7.440  67.923  1.00  0.00    -0.132 C  
HETATM    7  C   UNL     1      -8.360   6.441  67.596  1.00  0.00    -0.117 C  
HETATM    8  C   UNL     1      -8.467   5.511  66.409  1.00  0.00    -0.119 C  
HETATM    9  N   UNL     1      -7.257   6.197  68.396  1.00  0.00    -0.082 NA 
HETATM   10  C   UNL     1      -7.070   6.740  69.655  1.00  0.00    -0.068 C  
HETATM   11  C   UNL     1      -6.020   6.052  70.497  1.00  0.00    -0.029 C  
HETATM   12  C   UNL     1      -7.812   7.807  70.051  1.00  0.00    -0.103 C  
HETATM   13  C   UNL     1      -8.888   8.379  69.103  1.00  0.00    -0.142 C  
BRANCH  12  14
HETATM   14  C   UNL     1      -7.569   8.389  71.405  1.00  0.00    -0.097 C  
HETATM   15  O   UNL     1      -7.199   9.538  71.599  1.00  0.00    -0.307 OA 
BRANCH  14  16
HETATM   16  O   UNL     1      -7.826   7.503  72.398  1.00  0.00    -0.092 OA 
BRANCH  16  17
HETATM   17  C   UNL     1      -8.593   8.027  73.499  1.00  0.00    -0.256 C  
HETATM   18  C   UNL     1      -9.298   6.929  74.284  1.00  0.00    -0.269 C  
ENDBRANCH  16  17
ENDBRANCH  14  16
ENDBRANCH  12  14
BRANCH  13  19
HETATM   19  C   UNL     1     -10.123   8.945  69.821  1.00  0.00    -0.205 A  
HETATM   20  C   UNL     1     -10.624  10.249  69.643  1.00  0.00    -0.288 A  
HETATM   21  C   UNL     1     -11.807  10.615  70.317  1.00  0.00    -0.430 A  
HETATM   22  C   UNL     1     -10.820   8.058  70.682  1.00  0.00    -0.240 A  
HETATM   23  C   UNL     1     -11.986   8.441  71.337  1.00  0.00    -0.337 A  
HETATM   24  C   UNL     1     -12.486   9.719  71.147  1.00  0.00    -0.443 A  
BRANCH  20  25
HETATM   25  C   UNL     1      -9.929  11.259  68.827  1.00  0.00    -0.203 C  
HETATM   26  C   UNL     1     -10.409  12.497  68.626  1.00  0.00    -0.193 C  
BRANCH  26  27
HETATM   27  C   UNL     1      -9.688  13.562  67.902  1.00  0.00    -0.225 C  
HETATM   28  O   UNL     1      -9.109  14.455  68.502  1.00  0.00    -0.188 OA 
BRANCH  27  29
HETATM   29  O   UNL     1      -9.758  13.390  66.563  1.00  0.00    -0.269 OA 
HETATM   30  C   UNL     1     -10.791  14.053  65.790  1.00  0.00    -0.291 C  
HETATM   31  C   UNL     1     -12.197  13.663  66.256  1.00  0.00    -0.484 C  
HETATM   32  C   UNL     1     -10.588  15.573  65.804  1.00  0.00    -0.370 C  
HETATM   33  C   UNL     1     -10.593  13.542  64.354  1.00  0.00    -0.394 C  
ENDBRANCH  27  29
ENDBRANCH  26  27
ENDBRANCH  20  25
ENDBRANCH  13  19
ENDBRANCH   4   6
ENDBRANCH   3   4
ENDBRANCH   2   3
TORSDOF 10
ENDMDL
MODEL       67
REMARK 921   NORMALIZED FREE ENERGY PREDICTED BY IDOCK:   -4.34 KCAL/MOL
REMARK 922        TOTAL FREE ENERGY PREDICTED BY IDOCK:   -9.24 KCAL/MOL
REMARK 923 INTER-LIGAND FREE ENERGY PREDICTED BY IDOCK:   -7.26 KCAL/MOL
REMARK 924 INTRA-LIGAND FREE ENERGY PREDICTED BY IDOCK:   -1.97 KCAL/MOL
REMARK 927      BINDING AFFINITY PREDICTED BY RF-SCORE:    0.00 PKD
ROOT
HETATM    1  C   UNL     1      -8.334  14.303  67.998  1.00  0.00    -0.157 C  
HETATM    2  C   UNL     1      -7.252  13.383  68.528  1.00  0.00    -0.110 C  
ENDROOT
BRANCH   2   3
HETATM    3  O   UNL     1      -7.564  12.025  68.169  1.00  0.00    -0.103 OA 
BRANCH   3   4
HETATM    4  C   UNL     1      -7.204  11.094  69.085  1.00  0.00    -0.123 C  
HETATM    5  O   UNL     1      -6.898  11.334  70.245  1.00  0.00    -0.145 OA 
BRANCH   4   6
HETATM    6  C   UNL     1      -7.212   9.727  68.511  1.00  0.00    -0.070 C  
HETATM    7  C   UNL     1      -6.380   9.449  67.478  1.00  0.00    -0.062 C  
HETATM    8  C   UNL     1      -5.274  10.331  66.945  1.00  0.00    -0.041 C  
HETATM    9  N   UNL     1      -6.512   8.251  66.797  1.00  0.00    -0.055 NA 
HETATM   10  C   UNL     1      -7.590   7.392  66.929  1.00  0.00    -0.102 C  
HETATM   11  C   UNL     1      -7.722   6.361  65.833  1.00  0.00    -0.094 C  
HETATM   12  C   UNL     1      -8.436   7.522  67.984  1.00  0.00    -0.123 C  
HETATM   13  C   UNL     1      -8.208   8.657  69.007  1.00  0.00    -0.122 C  
BRANCH  12  14
HETATM   14  C   UNL     1      -9.574   6.564  68.117  1.00  0.00    -0.123 C  
HETATM   15  O   UNL     1     -10.639   6.682  67.528  1.00  0.00    -0.207 OA 
BRANCH  14  16
HETATM   16  O   UNL     1      -9.285   5.536  68.951  1.00  0.00    -0.116 OA 
BRANCH  16  17
HETATM   17  C   UNL     1     -10.401   5.036  69.712  1.00  0.00    -0.216 C  
HETATM   18  C   UNL     1     -10.324   5.434  71.180  1.00  0.00    -0.304 C  
ENDBRANCH  16  17
ENDBRANCH  14  16
ENDBRANCH  12  14
BRANCH  13  19
HETATM   19  C   UNL     1      -9.500   9.229  69.610  1.00  0.00    -0.188 A  
HETATM   20  C   UNL     1     -10.513   9.869  68.870  1.00  0.00    -0.229 A  
HETATM   21  C   UNL     1     -11.679  10.288  69.543  1.00  0.00    -0.193 A  
HETATM   22  C   UNL     1      -9.687   9.045  71.004  1.00  0.00    -0.348 A  
HETATM   23  C   UNL     1     -10.846   9.466  71.648  1.00  0.00    -0.348 A  
HETATM   24  C   UNL     1     -11.848  10.081  70.914  1.00  0.00    -0.459 A  
BRANCH  20  25
HETATM   25  C   UNL     1     -10.375  10.167  67.434  1.00  0.00    -0.289 C  
HETATM   26  C   UNL     1     -10.703  11.353  66.896  1.00  0.00    -0.308 C  
BRANCH  26  27
HETATM   27  C   UNL     1     -10.480  11.717  65.483  1.00  0.00    -0.273 C  
HETATM   28  O   UNL     1     -10.405  10.861  64.614  1.00  0.00    -0.319 OA 
BRANCH  27  29
HETATM   29  O   UNL     1     -10.391  13.055  65.319  1.00  0.00    -0.294 OA 
HETATM   30  C   UNL     1     -11.544  13.820  64.882  1.00  0.00    -0.351 C  
HETATM   31  C   UNL     1     -12.067  13.344  63.522  1.00  0.00    -0.497 C  
HETATM   32  C   UNL     1     -12.643  13.803  65.951  1.00  0.00    -0.494 C  
HETATM   33  C   UNL     1     -11.024  15.258  64.729  1.00  0.00    -0.403 C  
ENDBRANCH  27  29
ENDBRANCH  26  27
ENDBRANCH  20  25
ENDBRANCH  13  19
ENDBRANCH   4   6
ENDBRANCH   3   4
ENDBRANCH   2   3
TORSDOF 10
ENDMDL
MODEL       68
REMARK 921   NORMALIZED FREE ENERGY PREDICTED BY IDOCK:   -4.33 KCAL/MOL
REMARK 922        TOTAL FREE ENERGY PREDICTED BY IDOCK:   -9.22 KCAL/MOL
REMARK 923 INTER-LIGAND FREE ENERGY PREDICTED BY IDOCK:   -7.70 KCAL/MOL
REMARK 924 INTRA-LIGAND FREE ENERGY PREDICTED BY IDOCK:   -1.52 KCAL/MOL
REMARK 927      BINDING AFFINITY PREDICTED BY RF-SCORE:    0.00 PKD
ROOT
HETATM    1  C   UNL     1     -13.012  10.514  71.556  1.00  0.00    -0.565 C  
HETATM    2  C   UNL     1     -11.610   9.947  71.454  1.00  0.00    -0.352 C  
ENDROOT
BRANCH   2   3
HETATM    3  O   UNL     1     -11.528   8.739  72.230  1.00  0.00    -0.362 OA 
BRANCH   3   4
HETATM    4  C   UNL     1     -10.297   8.174  72.280  1.00  0.00    -0.292 C  
HETATM    5  O   UNL     1      -9.396   8.521  73.032  1.00  0.00    -0.215 OA 
BRANCH   4   6
HETATM    6  C   UNL     1     -10.157   7.075  71.294  1.00  0.00    -0.199 C  
HETATM    7  C   UNL     1     -10.591   5.836  71.633  1.00  0.00    -0.245 C  
HETATM    8  C   UNL     1     -11.399   5.464  72.855  1.00  0.00    -0.365 C  
HETATM    9  N   UNL     1     -10.289   4.760  70.817  1.00  0.00    -0.168 NA 
HETATM   10  C   UNL     1      -9.368   4.796  69.784  1.00  0.00    -0.141 C  
HETATM   11  C   UNL     1      -8.914   3.443  69.287  1.00  0.00    -0.178 C  
HETATM   12  C   UNL     1      -8.935   5.990  69.302  1.00  0.00    -0.122 C  
HETATM   13  C   UNL     1      -9.448   7.299  69.941  1.00  0.00    -0.157 C  
BRANCH  12  14
HETATM   14  C   UNL     1      -7.962   5.999  68.169  1.00  0.00    -0.110 C  
HETATM   15  O   UNL     1      -6.795   5.650  68.267  1.00  0.00    -0.059 OA 
BRANCH  14  16
HETATM   16  O   UNL     1      -8.527   6.422  67.012  1.00  0.00    -0.112 OA 
BRANCH  16  17
HETATM   17  C   UNL     1      -8.057   5.755  65.825  1.00  0.00    -0.116 C  
HETATM   18  C   UNL     1      -8.932   4.568  65.447  1.00  0.00    -0.141 C  
ENDBRANCH  16  17
ENDBRANCH  14  16
ENDBRANCH  12  14
BRANCH  13  19
HETATM   19  C   UNL     1      -8.420   8.440  69.949  1.00  0.00    -0.126 A  
HETATM   20  C   UNL     1      -8.605   9.689  69.324  1.00  0.00    -0.153 A  
HETATM   21  C   UNL     1      -7.604  10.671  69.467  1.00  0.00    -0.128 A  
HETATM   22  C   UNL     1      -7.227   8.217  70.685  1.00  0.00    -0.049 A  
HETATM   23  C   UNL     1      -6.253   9.201  70.813  1.00  0.00    -0.053 A  
HETATM   24  C   UNL     1      -6.446  10.434  70.211  1.00  0.00    -0.141 A  
BRANCH  20  25
HETATM   25  C   UNL     1      -9.777   9.986  68.482  1.00  0.00    -0.164 C  
HETATM   26  C   UNL     1     -10.058  11.216  68.022  1.00  0.00    -0.191 C  
BRANCH  26  27
HETATM   27  C   UNL     1     -11.162  11.525  67.093  1.00  0.00    -0.301 C  
HETATM   28  O   UNL     1     -12.260  11.867  67.507  1.00  0.00    -0.510 OA 
BRANCH  27  29
HETATM   29  O   UNL     1     -10.783  11.391  65.804  1.00  0.00    -0.267 OA 
HETATM   30  C   UNL     1     -11.102  12.421  64.833  1.00  0.00    -0.303 C  
HETATM   31  C   UNL     1     -12.612  12.656  64.721  1.00  0.00    -0.530 C  
HETATM   32  C   UNL     1     -10.346  13.717  65.149  1.00  0.00    -0.381 C  
HETATM   33  C   UNL     1     -10.593  11.866  63.492  1.00  0.00    -0.507 C  
ENDBRANCH  27  29
ENDBRANCH  26  27
ENDBRANCH  20  25
ENDBRANCH  13  19
ENDBRANCH   4   6
ENDBRANCH   3   4
ENDBRANCH   2   3
TORSDOF 10
ENDMDL
MODEL       69
REMARK 921   NORMALIZED FREE ENERGY PREDICTED BY IDOCK:   -4.31 KCAL/MOL
REMARK 922        TOTAL FREE ENERGY PREDICTED BY IDOCK:   -9.20 KCAL/MOL
REMARK 923 INTER-LIGAND FREE ENERGY PREDICTED BY IDOCK:   -7.49 KCAL/MOL
REMARK 924 INTRA-LIGAND FREE ENERGY PREDICTED BY IDOCK:   -1.71 KCAL/MOL
REMARK 927      BINDING AFFINITY PREDICTED BY RF-SCORE:    0.00 PKD
ROOT
HETATM    1  C   UNL     1      -5.488  10.329  64.815  1.00  0.00    -0.124 C  
HETATM    2  C   UNL     1      -6.798   9.761  65.327  1.00  0.00    -0.103 C  
ENDROOT
BRANCH   2   3
HETATM    3  O   UNL     1      -7.893  10.446  64.695  1.00  0.00    -0.145 OA 
BRANCH   3   4
HETATM    4  C   UNL     1      -9.087  10.315  65.321  1.00  0.00    -0.191 C  
HETATM    5  O   UNL     1      -9.589   9.252  65.659  1.00  0.00    -0.265 OA 
BRANCH   4   6
HETATM    6  C   UNL     1      -9.735  11.630  65.547  1.00  0.00    -0.259 C  
HETATM    7  C   UNL     1     -10.345  12.244  64.504  1.00  0.00    -0.311 C  
HETATM    8  C   UNL     1     -10.622  11.650  63.142  1.00  0.00    -0.341 C  
HETATM    9  N   UNL     1     -10.776  13.552  64.638  1.00  0.00    -0.396 NA 
HETATM   10  C   UNL     1     -10.427  14.386  65.686  1.00  0.00    -0.334 C  
HETATM   11  C   UNL     1     -10.679  15.856  65.443  1.00  0.00    -0.415 C  
HETATM   12  C   UNL     1      -9.894  13.864  66.821  1.00  0.00    -0.274 C  
HETATM   13  C   UNL     1      -9.645  12.342  66.914  1.00  0.00    -0.219 C  
BRANCH  12  14
HETATM   14  C   UNL     1      -9.553  14.784  67.947  1.00  0.00    -0.210 C  
HETATM   15  O   UNL     1     -10.171  14.835  69.000  1.00  0.00    -0.232 OA 
BRANCH  14  16
HETATM   16  O   UNL     1      -8.465  15.546  67.674  1.00  0.00    -0.157 OA 
BRANCH  16  17
HETATM   17  C   UNL     1      -8.186  16.578  68.639  1.00  0.00    -0.234 C  
HETATM   18  C   UNL     1      -6.781  16.464  69.215  1.00  0.00    -0.215 C  
ENDBRANCH  16  17
ENDBRANCH  14  16
ENDBRANCH  12  14
BRANCH  13  19
HETATM   19  C   UNL     1      -8.413  11.956  67.746  1.00  0.00    -0.154 A  
HETATM   20  C   UNL     1      -8.370  10.887  68.664  1.00  0.00    -0.148 A  
HETATM   21  C   UNL     1      -7.152  10.603  69.312  1.00  0.00    -0.107 A  
HETATM   22  C   UNL     1      -7.233  12.711  67.524  1.00  0.00    -0.155 A  
HETATM   23  C   UNL     1      -6.040  12.412  68.175  1.00  0.00    -0.065 A  
HETATM   24  C   UNL     1      -5.997  11.350  69.064  1.00  0.00    -0.051 A  
BRANCH  20  25
HETATM   25  C   UNL     1      -9.563  10.095  69.011  1.00  0.00    -0.202 C  
HETATM   26  C   UNL     1      -9.902   9.797  70.275  1.00  0.00    -0.296 C  
BRANCH  26  27
HETATM   27  C   UNL     1     -11.143   9.096  70.661  1.00  0.00    -0.265 C  
HETATM   28  O   UNL     1     -11.995   9.647  71.342  1.00  0.00    -0.343 OA 
BRANCH  27  29
HETATM   29  O   UNL     1     -11.184   7.842  70.160  1.00  0.00    -0.243 OA 
HETATM   30  C   UNL     1     -10.727   6.717  70.956  1.00  0.00    -0.231 C  
HETATM   31  C   UNL     1      -9.262   6.869  71.376  1.00  0.00    -0.156 C  
HETATM   32  C   UNL     1     -11.646   6.500  72.165  1.00  0.00    -0.349 C  
HETATM   33  C   UNL     1     -10.845   5.503  70.021  1.00  0.00    -0.301 C  
ENDBRANCH  27  29
ENDBRANCH  26  27
ENDBRANCH  20  25
ENDBRANCH  13  19
ENDBRANCH   4   6
ENDBRANCH   3   4
ENDBRANCH   2   3
TORSDOF 10
ENDMDL
MODEL       70
REMARK 921   NORMALIZED FREE ENERGY PREDICTED BY IDOCK:   -4.30 KCAL/MOL
REMARK 922        TOTAL FREE ENERGY PREDICTED BY IDOCK:   -9.17 KCAL/MOL
REMARK 923 INTER-LIGAND FREE ENERGY PREDICTED BY IDOCK:   -9.23 KCAL/MOL
REMARK 924 INTRA-LIGAND FREE ENERGY PREDICTED BY IDOCK:    0.05 KCAL/MOL
REMARK 927      BINDING AFFINITY PREDICTED BY RF-SCORE:    0.00 PKD
ROOT
HETATM    1  C   UNL     1     -14.099  13.606  72.206  1.00  0.00    -0.602 C  
HETATM    2  C   UNL     1     -12.970  12.976  71.413  1.00  0.00    -0.283 C  
ENDROOT
BRANCH   2   3
HETATM    3  O   UNL     1     -12.768  13.720  70.199  1.00  0.00    -0.243 OA 
BRANCH   3   4
HETATM    4  C   UNL     1     -11.549  13.563  69.628  1.00  0.00    -0.275 C  
HETATM    5  O   UNL     1     -10.968  12.494  69.500  1.00  0.00    -0.077 OA 
BRANCH   4   6
HETATM    6  C   UNL     1     -10.984  14.857  69.176  1.00  0.00    -0.266 C  
HETATM    7  C   UNL     1     -11.086  15.934  69.993  1.00  0.00    -0.354 C  
HETATM    8  C   UNL     1     -11.549  15.936  71.432  1.00  0.00    -0.529 C  
HETATM    9  N   UNL     1     -10.751  17.189  69.514  1.00  0.00    -0.167 NA 
HETATM   10  C   UNL     1     -10.536  17.484  68.179  1.00  0.00    -0.366 C  
HETATM   11  C   UNL     1     -10.568  18.956  67.838  1.00  0.00    -0.425 C  
HETATM   12  C   UNL     1     -10.327  16.481  67.287  1.00  0.00    -0.296 C  
HETATM   13  C   UNL     1     -10.371  15.014  67.768  1.00  0.00    -0.245 C  
BRANCH  12  14
HETATM   14  C   UNL     1     -10.071  16.830  65.857  1.00  0.00    -0.304 C  
HETATM   15  O   UNL     1     -10.795  16.495  64.931  1.00  0.00    -0.684 OA 
BRANCH  14  16
HETATM   16  O   UNL     1      -8.952  17.579  65.705  1.00  0.00    -0.512 OA 
BRANCH  16  17
HETATM   17  C   UNL     1      -7.725  16.925  66.083  1.00  0.00    -0.224 C  
HETATM   18  C   UNL     1      -6.580  17.912  66.270  1.00  0.00    -0.288 C  
ENDBRANCH  16  17
ENDBRANCH  14  16
ENDBRANCH  12  14
BRANCH  13  19
HETATM   19  C   UNL     1     -10.921  14.027  66.727  1.00  0.00    -0.298 A  
HETATM   20  C   UNL     1     -10.211  12.920  66.221  1.00  0.00    -0.285 A  
HETATM   21  C   UNL     1     -10.862  12.056  65.317  1.00  0.00    -0.340 A  
HETATM   22  C   UNL     1     -12.256  14.235  66.296  1.00  0.00    -0.433 A  
HETATM   23  C   UNL     1     -12.879  13.369  65.403  1.00  0.00    -0.388 A  
HETATM   24  C   UNL     1     -12.184  12.272  64.920  1.00  0.00    -0.410 A  
BRANCH  20  25
HETATM   25  C   UNL     1      -8.799  12.665  66.556  1.00  0.00    -0.067 C  
HETATM   26  C   UNL     1      -8.100  13.426  67.414  1.00  0.00    -0.178 C  
BRANCH  26  27
HETATM   27  C   UNL     1      -6.720  13.136  67.849  1.00  0.00    -0.138 C  
HETATM   28  O   UNL     1      -6.301  11.989  67.902  1.00  0.00    -0.060 OA 
BRANCH  27  29
HETATM   29  O   UNL     1      -6.041  14.267  68.144  1.00  0.00    -0.111 OA 
HETATM   30  C   UNL     1      -6.066  14.808  69.490  1.00  0.00    -0.112 C  
HETATM   31  C   UNL     1      -7.490  15.136  69.951  1.00  0.00    -0.032 C  
HETATM   32  C   UNL     1      -5.355  13.865  70.468  1.00  0.00    -0.119 C  
HETATM   33  C   UNL     1      -5.269  16.119  69.398  1.00  0.00    -0.113 C  
ENDBRANCH  27  29
ENDBRANCH  26  27
ENDBRANCH  20  25
ENDBRANCH  13  19
ENDBRANCH   4   6
ENDBRANCH   3   4
ENDBRANCH   2   3
TORSDOF 10
ENDMDL
MODEL       71
REMARK 921   NORMALIZED FREE ENERGY PREDICTED BY IDOCK:   -4.29 KCAL/MOL
REMARK 922        TOTAL FREE ENERGY PREDICTED BY IDOCK:   -9.17 KCAL/MOL
REMARK 923 INTER-LIGAND FREE ENERGY PREDICTED BY IDOCK:   -8.03 KCAL/MOL
REMARK 924 INTRA-LIGAND FREE ENERGY PREDICTED BY IDOCK:   -1.13 KCAL/MOL
REMARK 927      BINDING AFFINITY PREDICTED BY RF-SCORE:    0.00 PKD
ROOT
HETATM    1  C   UNL     1     -12.657  12.011  63.304  1.00  0.00    -0.512 C  
HETATM    2  C   UNL     1     -11.499  12.954  63.564  1.00  0.00    -0.412 C  
ENDROOT
BRANCH   2   3
HETATM    3  O   UNL     1     -11.567  13.428  64.921  1.00  0.00    -0.313 OA 
BRANCH   3   4
HETATM    4  C   UNL     1     -11.271  12.502  65.865  1.00  0.00    -0.320 C  
HETATM    5  O   UNL     1     -12.095  11.824  66.464  1.00  0.00    -0.498 OA 
BRANCH   4   6
HETATM    6  C   UNL     1      -9.811  12.408  66.104  1.00  0.00    -0.263 C  
HETATM    7  C   UNL     1      -9.169  11.259  65.779  1.00  0.00    -0.219 C  
HETATM    8  C   UNL     1      -9.740  10.094  65.004  1.00  0.00    -0.384 C  
HETATM    9  N   UNL     1      -7.857  11.073  66.176  1.00  0.00    -0.148 NA 
HETATM   10  C   UNL     1      -7.197  11.873  67.094  1.00  0.00    -0.144 C  
HETATM   11  C   UNL     1      -5.932  11.278  67.666  1.00  0.00    -0.051 C  
HETATM   12  C   UNL     1      -7.704  13.090  67.421  1.00  0.00    -0.159 C  
HETATM   13  C   UNL     1      -9.038  13.553  66.793  1.00  0.00    -0.223 C  
BRANCH  12  14
HETATM   14  C   UNL     1      -6.957  13.944  68.393  1.00  0.00    -0.102 C  
HETATM   15  O   UNL     1      -6.272  14.905  68.074  1.00  0.00    -0.127 OA 
BRANCH  14  16
HETATM   16  O   UNL     1      -7.142  13.543  69.674  1.00  0.00     0.091 OA 
BRANCH  16  17
HETATM   17  C   UNL     1      -6.243  14.134  70.633  1.00  0.00    -0.123 C  
HETATM   18  C   UNL     1      -5.617  13.094  71.552  1.00  0.00    -0.008 C  
ENDBRANCH  16  17
ENDBRANCH  14  16
ENDBRANCH  12  14
BRANCH  13  19
HETATM   19  C   UNL     1      -9.898  14.428  67.718  1.00  0.00    -0.221 A  
HETATM   20  C   UNL     1      -9.942  15.835  67.675  1.00  0.00    -0.239 A  
HETATM   21  C   UNL     1     -10.828  16.510  68.539  1.00  0.00    -0.349 A  
HETATM   22  C   UNL     1     -10.737  13.748  68.639  1.00  0.00    -0.270 A  
HETATM   23  C   UNL     1     -11.604  14.434  69.482  1.00  0.00    -0.352 A  
HETATM   24  C   UNL     1     -11.657  15.817  69.426  1.00  0.00    -0.371 A  
BRANCH  20  25
HETATM   25  C   UNL     1      -9.058  16.627  66.803  1.00  0.00    -0.261 C  
HETATM   26  C   UNL     1      -8.315  17.653  67.250  1.00  0.00    -0.225 C  
BRANCH  26  27
HETATM   27  C   UNL     1      -7.344  18.398  66.425  1.00  0.00    -0.247 C  
HETATM   28  O   UNL     1      -7.484  18.496  65.215  1.00  0.00    -0.366 OA 
BRANCH  27  29
HETATM   29  O   UNL     1      -6.353  18.927  67.176  1.00  0.00    -0.183 OA 
HETATM   30  C   UNL     1      -6.612  20.065  68.038  1.00  0.00    -0.267 C  
HETATM   31  C   UNL     1      -7.126  21.275  67.253  1.00  0.00    -0.231 C  
HETATM   32  C   UNL     1      -7.564  19.678  69.176  1.00  0.00    -0.273 C  
HETATM   33  C   UNL     1      -5.242  20.419  68.639  1.00  0.00    -0.263 C  
ENDBRANCH  27  29
ENDBRANCH  26  27
ENDBRANCH  20  25
ENDBRANCH  13  19
ENDBRANCH   4   6
ENDBRANCH   3   4
ENDBRANCH   2   3
TORSDOF 10
ENDMDL
MODEL       72
REMARK 921   NORMALIZED FREE ENERGY PREDICTED BY IDOCK:   -4.29 KCAL/MOL
REMARK 922        TOTAL FREE ENERGY PREDICTED BY IDOCK:   -9.16 KCAL/MOL
REMARK 923 INTER-LIGAND FREE ENERGY PREDICTED BY IDOCK:   -6.87 KCAL/MOL
REMARK 924 INTRA-LIGAND FREE ENERGY PREDICTED BY IDOCK:   -2.30 KCAL/MOL
REMARK 927      BINDING AFFINITY PREDICTED BY RF-SCORE:    0.00 PKD
ROOT
HETATM    1  C   UNL     1     -12.257  14.492  65.023  1.00  0.00    -0.376 C  
HETATM    2  C   UNL     1     -12.157  13.412  63.963  1.00  0.00    -0.449 C  
ENDROOT
BRANCH   2   3
HETATM    3  O   UNL     1     -10.886  12.748  64.079  1.00  0.00    -0.376 OA 
BRANCH   3   4
HETATM    4  C   UNL     1     -10.811  11.824  65.067  1.00  0.00    -0.295 C  
HETATM    5  O   UNL     1     -11.766  11.220  65.535  1.00  0.00     0.018 OA 
BRANCH   4   6
HETATM    6  C   UNL     1      -9.417  11.631  65.533  1.00  0.00    -0.215 C  
HETATM    7  C   UNL     1      -8.692  10.608  65.016  1.00  0.00    -0.176 C  
HETATM    8  C   UNL     1      -9.075   9.729  63.847  1.00  0.00    -0.275 C  
HETATM    9  N   UNL     1      -7.469  10.285  65.578  1.00  0.00    -0.146 NA 
HETATM   10  C   UNL     1      -7.014  10.771  66.791  1.00  0.00    -0.119 C  
HETATM   11  C   UNL     1      -5.857  10.006  67.392  1.00  0.00    -0.053 C  
HETATM   12  C   UNL     1      -7.609  11.854  67.355  1.00  0.00    -0.151 C  
HETATM   13  C   UNL     1      -8.818  12.509  66.652  1.00  0.00    -0.142 C  
BRANCH  12  14
HETATM   14  C   UNL     1      -7.079  12.374  68.651  1.00  0.00    -0.103 C  
HETATM   15  O   UNL     1      -7.031  11.719  69.683  1.00  0.00    -0.043 OA 
BRANCH  14  16
HETATM   16  O   UNL     1      -6.639  13.652  68.550  1.00  0.00    -0.075 OA 
BRANCH  16  17
HETATM   17  C   UNL     1      -6.594  14.381  69.791  1.00  0.00    -0.142 C  
HETATM   18  C   UNL     1      -6.967  15.847  69.612  1.00  0.00    -0.147 C  
ENDBRANCH  16  17
ENDBRANCH  14  16
ENDBRANCH  12  14
BRANCH  13  19
HETATM   19  C   UNL     1      -9.860  13.101  67.614  1.00  0.00    -0.219 A  
HETATM   20  C   UNL     1     -10.558  12.364  68.591  1.00  0.00    -0.243 A  
HETATM   21  C   UNL     1     -11.439  13.048  69.452  1.00  0.00    -0.323 A  
HETATM   22  C   UNL     1     -10.083  14.500  67.528  1.00  0.00    -0.228 A  
HETATM   23  C   UNL     1     -10.957  15.155  68.389  1.00  0.00    -0.271 A  
HETATM   24  C   UNL     1     -11.629  14.429  69.360  1.00  0.00    -0.349 A  
BRANCH  20  25
HETATM   25  C   UNL     1     -10.444  10.900  68.707  1.00  0.00    -0.224 C  
HETATM   26  C   UNL     1     -10.503  10.250  69.881  1.00  0.00    -0.304 C  
BRANCH  26  27
HETATM   27  C   UNL     1     -10.497   8.781  70.021  1.00  0.00    -0.212 C  
HETATM   28  O   UNL     1     -10.201   8.247  71.079  1.00  0.00    -0.186 OA 
BRANCH  27  29
HETATM   29  O   UNL     1     -10.859   8.169  68.872  1.00  0.00    -0.115 OA 
HETATM   30  C   UNL     1     -10.021   7.134  68.294  1.00  0.00    -0.156 C  
HETATM   31  C   UNL     1      -8.613   7.648  67.977  1.00  0.00    -0.123 C  
HETATM   32  C   UNL     1      -9.985   5.897  69.199  1.00  0.00    -0.214 C  
HETATM   33  C   UNL     1     -10.714   6.762  66.974  1.00  0.00    -0.435 C  
ENDBRANCH  27  29
ENDBRANCH  26  27
ENDBRANCH  20  25
ENDBRANCH  13  19
ENDBRANCH   4   6
ENDBRANCH   3   4
ENDBRANCH   2   3
TORSDOF 10
ENDMDL
MODEL       73
REMARK 921   NORMALIZED FREE ENERGY PREDICTED BY IDOCK:   -4.27 KCAL/MOL
REMARK 922        TOTAL FREE ENERGY PREDICTED BY IDOCK:   -9.14 KCAL/MOL
REMARK 923 INTER-LIGAND FREE ENERGY PREDICTED BY IDOCK:   -7.21 KCAL/MOL
REMARK 924 INTRA-LIGAND FREE ENERGY PREDICTED BY IDOCK:   -1.93 KCAL/MOL
REMARK 927      BINDING AFFINITY PREDICTED BY RF-SCORE:    0.00 PKD
ROOT
HETATM    1  C   UNL     1     -11.256  15.442  64.770  1.00  0.00    -0.404 C  
HETATM    2  C   UNL     1     -12.191  14.288  64.463  1.00  0.00    -0.455 C  
ENDROOT
BRANCH   2   3
HETATM    3  O   UNL     1     -11.416  13.132  64.098  1.00  0.00    -0.367 OA 
BRANCH   3   4
HETATM    4  C   UNL     1     -11.340  12.171  65.051  1.00  0.00    -0.328 C  
HETATM    5  O   UNL     1     -12.301  11.607  65.555  1.00  0.00    -0.026 OA 
BRANCH   4   6
HETATM    6  C   UNL     1      -9.936  11.883  65.429  1.00  0.00    -0.281 C  
HETATM    7  C   UNL     1      -9.236  10.980  64.700  1.00  0.00    -0.168 C  
HETATM    8  C   UNL     1      -9.660  10.352  63.392  1.00  0.00    -0.361 C  
HETATM    9  N   UNL     1      -8.002  10.546  65.151  1.00  0.00    -0.131 NA 
HETATM   10  C   UNL     1      -7.508  10.780  66.423  1.00  0.00    -0.142 C  
HETATM   11  C   UNL     1      -6.343   9.906  66.826  1.00  0.00    -0.065 C  
HETATM   12  C   UNL     1      -8.076  11.732  67.207  1.00  0.00    -0.164 C  
HETATM   13  C   UNL     1      -9.298  12.519  66.683  1.00  0.00    -0.236 C  
BRANCH  12  14
HETATM   14  C   UNL     1      -7.506  11.983  68.564  1.00  0.00    -0.117 C  
HETATM   15  O   UNL     1      -6.991  13.038  68.906  1.00  0.00    -0.098 OA 
BRANCH  14  16
HETATM   16  O   UNL     1      -7.640  10.910  69.382  1.00  0.00    -0.142 OA 
BRANCH  16  17
HETATM   17  C   UNL     1      -6.546  10.699  70.295  1.00  0.00    -0.125 C  
HETATM   18  C   UNL     1      -6.570   9.307  70.911  1.00  0.00    -0.089 C  
ENDBRANCH  16  17
ENDBRANCH  14  16
ENDBRANCH  12  14
BRANCH  13  19
HETATM   19  C   UNL     1     -10.306  12.914  67.772  1.00  0.00    -0.223 A  
HETATM   20  C   UNL     1     -10.944  12.005  68.640  1.00  0.00    -0.281 A  
HETATM   21  C   UNL     1     -11.798  12.512  69.640  1.00  0.00    -0.382 A  
HETATM   22  C   UNL     1     -10.561  14.301  67.931  1.00  0.00    -0.240 A  
HETATM   23  C   UNL     1     -11.408  14.779  68.926  1.00  0.00    -0.302 A  
HETATM   24  C   UNL     1     -12.021  13.884  69.788  1.00  0.00    -0.398 A  
BRANCH  20  25
HETATM   25  C   UNL     1     -10.795  10.546  68.504  1.00  0.00    -0.275 C  
HETATM   26  C   UNL     1     -10.430   9.748  69.521  1.00  0.00    -0.250 C  
BRANCH  26  27
HETATM   27  C   UNL     1     -10.373   8.275  69.444  1.00  0.00    -0.222 C  
HETATM   28  O   UNL     1     -11.326   7.587  69.778  1.00  0.00    -0.127 OA 
BRANCH  27  29
HETATM   29  O   UNL     1      -9.185   7.845  68.965  1.00  0.00    -0.148 OA 
HETATM   30  C   UNL     1      -9.131   6.997  67.789  1.00  0.00    -0.126 C  
HETATM   31  C   UNL     1      -9.911   5.693  67.985  1.00  0.00    -0.162 C  
HETATM   32  C   UNL     1      -9.602   7.761  66.547  1.00  0.00    -0.270 C  
HETATM   33  C   UNL     1      -7.641   6.655  67.623  1.00  0.00    -0.106 C  
ENDBRANCH  27  29
ENDBRANCH  26  27
ENDBRANCH  20  25
ENDBRANCH  13  19
ENDBRANCH   4   6
ENDBRANCH   3   4
ENDBRANCH   2   3
TORSDOF 10
ENDMDL
MODEL       74
REMARK 921   NORMALIZED FREE ENERGY PREDICTED BY IDOCK:   -4.26 KCAL/MOL
REMARK 922        TOTAL FREE ENERGY PREDICTED BY IDOCK:   -9.12 KCAL/MOL
REMARK 923 INTER-LIGAND FREE ENERGY PREDICTED BY IDOCK:   -7.06 KCAL/MOL
REMARK 924 INTRA-LIGAND FREE ENERGY PREDICTED BY IDOCK:   -2.07 KCAL/MOL
REMARK 927      BINDING AFFINITY PREDICTED BY RF-SCORE:    0.00 PKD
ROOT
HETATM    1  C   UNL     1      -5.822  14.711  69.545  1.00  0.00    -0.101 C  
HETATM    2  C   UNL     1      -5.311  14.009  68.302  1.00  0.00    -0.112 C  
ENDROOT
BRANCH   2   3
HETATM    3  O   UNL     1      -6.414  13.739  67.419  1.00  0.00    -0.292 OA 
BRANCH   3   4
HETATM    4  C   UNL     1      -6.662  12.425  67.199  1.00  0.00    -0.081 C  
HETATM    5  O   UNL     1      -6.158  11.756  66.308  1.00  0.00    -0.105 OA 
BRANCH   4   6
HETATM    6  C   UNL     1      -7.640  11.881  68.171  1.00  0.00    -0.121 C  
HETATM    7  C   UNL     1      -7.284  10.814  68.927  1.00  0.00    -0.088 C  
HETATM    8  C   UNL     1      -5.903  10.209  69.042  1.00  0.00    -0.037 C  
HETATM    9  N   UNL     1      -8.240  10.166  69.689  1.00  0.00    -0.173 NA 
HETATM   10  C   UNL     1      -9.604  10.369  69.569  1.00  0.00    -0.157 C  
HETATM   11  C   UNL     1     -10.467   9.303  70.203  1.00  0.00    -0.265 C  
HETATM   12  C   UNL     1     -10.072  11.462  68.911  1.00  0.00    -0.166 C  
HETATM   13  C   UNL     1      -9.073  12.448  68.267  1.00  0.00    -0.183 C  
BRANCH  12  14
HETATM   14  C   UNL     1     -11.549  11.671  68.821  1.00  0.00    -0.313 C  
HETATM   15  O   UNL     1     -12.244  11.253  67.907  1.00  0.00    -0.570 OA 
BRANCH  14  16
HETATM   16  O   UNL     1     -12.034  12.362  69.881  1.00  0.00    -0.322 OA 
BRANCH  16  17
HETATM   17  C   UNL     1     -12.089  13.791  69.702  1.00  0.00    -0.336 C  
HETATM   18  C   UNL     1     -12.057  14.539  71.028  1.00  0.00    -0.409 C  
ENDBRANCH  16  17
ENDBRANCH  14  16
ENDBRANCH  12  14
BRANCH  13  19
HETATM   19  C   UNL     1      -9.580  13.102  66.973  1.00  0.00    -0.241 A  
HETATM   20  C   UNL     1      -9.917  12.399  65.800  1.00  0.00    -0.270 A  
HETATM   21  C   UNL     1     -10.434  13.121  64.705  1.00  0.00    -0.390 A  
HETATM   22  C   UNL     1      -9.762  14.509  67.000  1.00  0.00    -0.247 A  
HETATM   23  C   UNL     1     -10.274  15.201  65.908  1.00  0.00    -0.345 A  
HETATM   24  C   UNL     1     -10.620  14.505  64.761  1.00  0.00    -0.401 A  
BRANCH  20  25
HETATM   25  C   UNL     1      -9.697  10.950  65.655  1.00  0.00    -0.279 C  
HETATM   26  C   UNL     1      -8.963  10.415  64.666  1.00  0.00    -0.235 C  
BRANCH  26  27
HETATM   27  C   UNL     1      -8.638   8.979  64.554  1.00  0.00    -0.156 C  
HETATM   28  O   UNL     1      -7.734   8.590  63.830  1.00  0.00    -0.125 OA 
BRANCH  27  29
HETATM   29  O   UNL     1      -9.438   8.223  65.338  1.00  0.00     0.114 OA 
HETATM   30  C   UNL     1      -8.882   7.141  66.128  1.00  0.00    -0.150 C  
HETATM   31  C   UNL     1      -8.175   6.098  65.257  1.00  0.00    -0.142 C  
HETATM   32  C   UNL     1      -7.959   7.688  67.223  1.00  0.00    -0.118 C  
HETATM   33  C   UNL     1     -10.100   6.478  66.793  1.00  0.00    -0.239 C  
ENDBRANCH  27  29
ENDBRANCH  26  27
ENDBRANCH  20  25
ENDBRANCH  13  19
ENDBRANCH   4   6
ENDBRANCH   3   4
ENDBRANCH   2   3
TORSDOF 10
ENDMDL
MODEL       75
REMARK 921   NORMALIZED FREE ENERGY PREDICTED BY IDOCK:   -4.25 KCAL/MOL
REMARK 922        TOTAL FREE ENERGY PREDICTED BY IDOCK:   -9.10 KCAL/MOL
REMARK 923 INTER-LIGAND FREE ENERGY PREDICTED BY IDOCK:   -8.07 KCAL/MOL
REMARK 924 INTRA-LIGAND FREE ENERGY PREDICTED BY IDOCK:   -1.03 KCAL/MOL
REMARK 927      BINDING AFFINITY PREDICTED BY RF-SCORE:    0.00 PKD
ROOT
HETATM    1  C   UNL     1     -13.140  11.134  71.543  1.00  0.00    -0.489 C  
HETATM    2  C   UNL     1     -12.025  10.408  70.815  1.00  0.00    -0.363 C  
ENDROOT
BRANCH   2   3
HETATM    3  O   UNL     1     -11.266   9.632  71.759  1.00  0.00    -0.323 OA 
BRANCH   3   4
HETATM    4  C   UNL     1     -10.199   8.981  71.237  1.00  0.00    -0.314 C  
HETATM    5  O   UNL     1      -9.090   8.927  71.751  1.00  0.00    -0.284 OA 
BRANCH   4   6
HETATM    6  C   UNL     1     -10.529   8.336  69.943  1.00  0.00    -0.223 C  
HETATM    7  C   UNL     1     -11.139   7.126  69.954  1.00  0.00    -0.235 C  
HETATM    8  C   UNL     1     -11.716   6.415  71.157  1.00  0.00    -0.359 C  
HETATM    9  N   UNL     1     -11.273   6.417  68.773  1.00  0.00    -0.326 NA 
HETATM   10  C   UNL     1     -10.620   6.734  67.593  1.00  0.00    -0.259 C  
HETATM   11  C   UNL     1     -10.599   5.631  66.560  1.00  0.00    -0.320 C  
HETATM   12  C   UNL     1     -10.053   7.959  67.439  1.00  0.00    -0.292 C  
HETATM   13  C   UNL     1     -10.108   8.974  68.602  1.00  0.00    -0.207 C  
BRANCH  12  14
HETATM   14  C   UNL     1      -9.380   8.283  66.146  1.00  0.00    -0.188 C  
HETATM   15  O   UNL     1      -8.416   7.673  65.705  1.00  0.00    -0.141 OA 
BRANCH  14  16
HETATM   16  O   UNL     1      -9.972   9.321  65.506  1.00  0.00    -0.228 OA 
BRANCH  16  17
HETATM   17  C   UNL     1      -9.064  10.254  64.890  1.00  0.00    -0.213 C  
HETATM   18  C   UNL     1      -9.795  11.372  64.158  1.00  0.00    -0.307 C  
ENDBRANCH  16  17
ENDBRANCH  14  16
ENDBRANCH  12  14
BRANCH  13  19
HETATM   19  C   UNL     1      -8.878   9.889  68.696  1.00  0.00    -0.128 A  
HETATM   20  C   UNL     1      -8.907  11.289  68.539  1.00  0.00    -0.159 A  
HETATM   21  C   UNL     1      -7.711  12.014  68.718  1.00  0.00    -0.054 A  
HETATM   22  C   UNL     1      -7.644   9.265  69.014  1.00  0.00    -0.074 A  
HETATM   23  C   UNL     1      -6.476  10.000  69.186  1.00  0.00    -0.048 A  
HETATM   24  C   UNL     1      -6.511  11.379  69.047  1.00  0.00    -0.069 A  
BRANCH  20  25
HETATM   25  C   UNL     1     -10.126  12.014  68.141  1.00  0.00    -0.200 C  
HETATM   26  C   UNL     1     -10.122  13.303  67.763  1.00  0.00    -0.229 C  
BRANCH  26  27
HETATM   27  C   UNL     1     -11.306  14.026  67.259  1.00  0.00    -0.330 C  
HETATM   28  O   UNL     1     -12.362  13.446  67.055  1.00  0.00    -0.311 OA 
BRANCH  27  29
HETATM   29  O   UNL     1     -11.052  15.342  67.088  1.00  0.00    -0.333 OA 
HETATM   30  C   UNL     1     -10.721  16.181  68.224  1.00  0.00    -0.307 C  
HETATM   31  C   UNL     1     -11.832  16.184  69.279  1.00  0.00    -0.176 C  
HETATM   32  C   UNL     1      -9.369  15.775  68.823  1.00  0.00    -0.218 C  
HETATM   33  C   UNL     1     -10.597  17.598  67.641  1.00  0.00    -0.364 C  
ENDBRANCH  27  29
ENDBRANCH  26  27
ENDBRANCH  20  25
ENDBRANCH  13  19
ENDBRANCH   4   6
ENDBRANCH   3   4
ENDBRANCH   2   3
TORSDOF 10
ENDMDL
MODEL       76
REMARK 921   NORMALIZED FREE ENERGY PREDICTED BY IDOCK:   -4.22 KCAL/MOL
REMARK 922        TOTAL FREE ENERGY PREDICTED BY IDOCK:   -9.05 KCAL/MOL
REMARK 923 INTER-LIGAND FREE ENERGY PREDICTED BY IDOCK:   -6.61 KCAL/MOL
REMARK 924 INTRA-LIGAND FREE ENERGY PREDICTED BY IDOCK:   -2.44 KCAL/MOL
REMARK 927      BINDING AFFINITY PREDICTED BY RF-SCORE:    0.00 PKD
ROOT
HETATM    1  C   UNL     1     -13.389  10.009  72.034  1.00  0.00    -0.513 C  
HETATM    2  C   UNL     1     -13.692   8.572  71.658  1.00  0.00    -0.372 C  
ENDROOT
BRANCH   2   3
HETATM    3  O   UNL     1     -12.665   7.715  72.189  1.00  0.00    -0.258 OA 
BRANCH   3   4
HETATM    4  C   UNL     1     -11.720   7.334  71.296  1.00  0.00    -0.296 C  
HETATM    5  O   UNL     1     -11.937   6.698  70.275  1.00  0.00    -0.387 OA 
BRANCH   4   6
HETATM    6  C   UNL     1     -10.366   7.774  71.710  1.00  0.00    -0.243 C  
HETATM    7  C   UNL     1      -9.814   8.850  71.097  1.00  0.00    -0.275 C  
HETATM    8  C   UNL     1     -10.506   9.804  70.150  1.00  0.00    -0.338 C  
HETATM    9  N   UNL     1      -8.483   9.156  71.319  1.00  0.00    -0.325 NA 
HETATM   10  C   UNL     1      -7.581   8.310  71.941  1.00  0.00    -0.108 C  
HETATM   11  C   UNL     1      -6.126   8.665  71.735  1.00  0.00    -0.063 C  
HETATM   12  C   UNL     1      -8.030   7.251  72.663  1.00  0.00    -0.111 C  
HETATM   13  C   UNL     1      -9.548   6.977  72.749  1.00  0.00    -0.172 C  
BRANCH  12  14
HETATM   14  C   UNL     1      -7.035   6.371  73.347  1.00  0.00    -0.078 C  
HETATM   15  O   UNL     1      -6.796   6.410  74.545  1.00  0.00    -0.088 OA 
BRANCH  14  16
HETATM   16  O   UNL     1      -6.439   5.508  72.488  1.00  0.00    -0.055 OA 
BRANCH  16  17
HETATM   17  C   UNL     1      -6.124   4.217  73.043  1.00  0.00    -0.016 C  
HETATM   18  C   UNL     1      -6.243   3.101  72.013  1.00  0.00    -0.014 C  
ENDBRANCH  16  17
ENDBRANCH  14  16
ENDBRANCH  12  14
BRANCH  13  19
HETATM   19  C   UNL     1      -9.915   5.488  72.833  1.00  0.00    -0.191 A  
HETATM   20  C   UNL     1      -9.684   4.548  71.810  1.00  0.00    -0.235 A  
HETATM   21  C   UNL     1     -10.011   3.197  72.047  1.00  0.00    -0.223 A  
HETATM   22  C   UNL     1     -10.481   5.040  74.054  1.00  0.00    -0.325 A  
HETATM   23  C   UNL     1     -10.796   3.702  74.267  1.00  0.00    -0.147 A  
HETATM   24  C   UNL     1     -10.552   2.777  73.265  1.00  0.00    -0.262 A  
BRANCH  20  25
HETATM   25  C   UNL     1      -9.167   4.932  70.485  1.00  0.00    -0.196 C  
HETATM   26  C   UNL     1      -9.482   4.276  69.356  1.00  0.00    -0.256 C  
BRANCH  26  27
HETATM   27  C   UNL     1      -9.065   4.698  68.005  1.00  0.00    -0.120 C  
HETATM   28  O   UNL     1      -9.277   3.994  67.028  1.00  0.00    -0.141 OA 
BRANCH  27  29
HETATM   29  O   UNL     1      -8.465   5.909  68.022  1.00  0.00    -0.111 OA 
HETATM   30  C   UNL     1      -8.839   6.927  67.058  1.00  0.00    -0.119 C  
HETATM   31  C   UNL     1      -8.621   6.460  65.616  1.00  0.00    -0.138 C  
HETATM   32  C   UNL     1     -10.280   7.394  67.294  1.00  0.00    -0.330 C  
HETATM   33  C   UNL     1      -7.886   8.100  67.341  1.00  0.00    -0.106 C  
ENDBRANCH  27  29
ENDBRANCH  26  27
ENDBRANCH  20  25
ENDBRANCH  13  19
ENDBRANCH   4   6
ENDBRANCH   3   4
ENDBRANCH   2   3
TORSDOF 10
ENDMDL
MODEL       77
REMARK 921   NORMALIZED FREE ENERGY PREDICTED BY IDOCK:   -4.20 KCAL/MOL
REMARK 922        TOTAL FREE ENERGY PREDICTED BY IDOCK:   -9.03 KCAL/MOL
REMARK 923 INTER-LIGAND FREE ENERGY PREDICTED BY IDOCK:   -7.45 KCAL/MOL
REMARK 924 INTRA-LIGAND FREE ENERGY PREDICTED BY IDOCK:   -1.58 KCAL/MOL
REMARK 927      BINDING AFFINITY PREDICTED BY RF-SCORE:    0.00 PKD
ROOT
HETATM    1  C   UNL     1     -11.145   6.651  67.011  1.00  0.00    -0.395 C  
HETATM    2  C   UNL     1      -9.766   7.239  66.782  1.00  0.00    -0.198 C  
ENDROOT
BRANCH   2   3
HETATM    3  O   UNL     1      -9.818   8.663  66.980  1.00  0.00    -0.179 OA 
BRANCH   3   4
HETATM    4  C   UNL     1      -9.148   9.394  66.056  1.00  0.00    -0.183 C  
HETATM    5  O   UNL     1      -9.234   9.240  64.845  1.00  0.00    -0.225 OA 
BRANCH   4   6
HETATM    6  C   UNL     1      -8.275  10.412  66.687  1.00  0.00    -0.128 C  
HETATM    7  C   UNL     1      -7.311  10.002  67.547  1.00  0.00    -0.090 C  
HETATM    8  C   UNL     1      -6.876   8.577  67.804  1.00  0.00    -0.067 C  
HETATM    9  N   UNL     1      -6.623  10.938  68.300  1.00  0.00    -0.058 NA 
HETATM   10  C   UNL     1      -6.996  12.265  68.427  1.00  0.00    -0.082 C  
HETATM   11  C   UNL     1      -6.351  13.001  69.578  1.00  0.00    -0.103 C  
HETATM   12  C   UNL     1      -7.887  12.806  67.557  1.00  0.00    -0.171 C  
HETATM   13  C   UNL     1      -8.507  11.920  66.454  1.00  0.00    -0.039 C  
BRANCH  12  14
HETATM   14  C   UNL     1      -8.251  14.248  67.701  1.00  0.00    -0.185 C  
HETATM   15  O   UNL     1      -7.910  15.121  66.916  1.00  0.00    -0.201 OA 
BRANCH  14  16
HETATM   16  O   UNL     1      -9.019  14.475  68.794  1.00  0.00    -0.188 OA 
BRANCH  16  17
HETATM   17  C   UNL     1      -9.866  15.638  68.712  1.00  0.00    -0.213 C  
HETATM   18  C   UNL     1     -11.300  15.336  69.125  1.00  0.00    -0.307 C  
ENDBRANCH  16  17
ENDBRANCH  14  16
ENDBRANCH  12  14
BRANCH  13  19
HETATM   19  C   UNL     1      -9.955  12.287  66.092  1.00  0.00    -0.260 A  
HETATM   20  C   UNL     1     -11.045  12.215  66.982  1.00  0.00    -0.347 A  
HETATM   21  C   UNL     1     -12.310  12.647  66.535  1.00  0.00     0.093 A  
HETATM   22  C   UNL     1     -10.178  12.777  64.779  1.00  0.00    -0.304 A  
HETATM   23  C   UNL     1     -11.435  13.198  64.360  1.00  0.00    -0.407 A  
HETATM   24  C   UNL     1     -12.502  13.142  65.242  1.00  0.00    -0.550 A  
BRANCH  20  25
HETATM   25  C   UNL     1     -10.923  11.654  68.338  1.00  0.00    -0.265 C  
HETATM   26  C   UNL     1     -11.846  10.846  68.883  1.00  0.00    -0.340 C  
BRANCH  26  27
HETATM   27  C   UNL     1     -11.703  10.186  70.196  1.00  0.00    -0.256 C  
HETATM   28  O   UNL     1     -11.754  10.827  71.235  1.00  0.00    -0.210 OA 
BRANCH  27  29
HETATM   29  O   UNL     1     -11.533   8.852  70.068  1.00  0.00    -0.131 OA 
HETATM   30  C   UNL     1     -11.898   7.958  71.152  1.00  0.00    -0.287 C  
HETATM   31  C   UNL     1     -11.134   8.277  72.441  1.00  0.00    -0.447 C  
HETATM   32  C   UNL     1     -13.415   7.964  71.372  1.00  0.00    -0.290 C  
HETATM   33  C   UNL     1     -11.474   6.562  70.665  1.00  0.00    -0.433 C  
ENDBRANCH  27  29
ENDBRANCH  26  27
ENDBRANCH  20  25
ENDBRANCH  13  19
ENDBRANCH   4   6
ENDBRANCH   3   4
ENDBRANCH   2   3
TORSDOF 10
ENDMDL
MODEL       78
REMARK 921   NORMALIZED FREE ENERGY PREDICTED BY IDOCK:   -4.20 KCAL/MOL
REMARK 922        TOTAL FREE ENERGY PREDICTED BY IDOCK:   -9.01 KCAL/MOL
REMARK 923 INTER-LIGAND FREE ENERGY PREDICTED BY IDOCK:   -7.15 KCAL/MOL
REMARK 924 INTRA-LIGAND FREE ENERGY PREDICTED BY IDOCK:   -1.87 KCAL/MOL
REMARK 927      BINDING AFFINITY PREDICTED BY RF-SCORE:    0.00 PKD
ROOT
HETATM    1  C   UNL     1      -6.816   7.304  63.968  1.00  0.00    -0.052 C  
HETATM    2  C   UNL     1      -6.582   7.990  65.299  1.00  0.00    -0.051 C  
ENDROOT
BRANCH   2   3
HETATM    3  O   UNL     1      -7.727   8.798  65.626  1.00  0.00    -0.088 OA 
BRANCH   3   4
HETATM    4  C   UNL     1      -7.652  10.088  65.219  1.00  0.00    -0.137 C  
HETATM    5  O   UNL     1      -6.614  10.680  64.955  1.00  0.00    -0.060 OA 
BRANCH   4   6
HETATM    6  C   UNL     1      -8.992  10.717  65.138  1.00  0.00    -0.215 C  
HETATM    7  C   UNL     1      -9.659  10.681  63.959  1.00  0.00    -0.299 C  
HETATM    8  C   UNL     1      -9.279   9.888  62.729  1.00  0.00    -0.292 C  
HETATM    9  N   UNL     1     -10.812  11.431  63.802  1.00  0.00    -0.393 NA 
HETATM   10  C   UNL     1     -11.228  12.417  64.680  1.00  0.00    -0.312 C  
HETATM   11  C   UNL     1     -12.275  13.359  64.132  1.00  0.00    -0.457 C  
HETATM   12  C   UNL     1     -10.691  12.486  65.926  1.00  0.00    -0.294 C  
HETATM   13  C   UNL     1      -9.589  11.485  66.337  1.00  0.00    -0.230 C  
BRANCH  12  14
HETATM   14  C   UNL     1     -11.179  13.543  66.862  1.00  0.00    -0.311 C  
HETATM   15  O   UNL     1     -11.004  14.741  66.693  1.00  0.00    -0.314 OA 
BRANCH  14  16
HETATM   16  O   UNL     1     -11.855  13.022  67.915  1.00  0.00    -0.344 OA 
BRANCH  16  17
HETATM   17  C   UNL     1     -12.099  13.942  68.997  1.00  0.00    -0.329 C  
HETATM   18  C   UNL     1     -12.140  13.242  70.349  1.00  0.00    -0.401 C  
ENDBRANCH  16  17
ENDBRANCH  14  16
ENDBRANCH  12  14
BRANCH  13  19
HETATM   19  C   UNL     1      -8.542  12.063  67.301  1.00  0.00    -0.177 A  
HETATM   20  C   UNL     1      -8.002  11.371  68.404  1.00  0.00    -0.142 A  
HETATM   21  C   UNL     1      -6.997  11.999  69.168  1.00  0.00    -0.066 A  
HETATM   22  C   UNL     1      -8.063  13.367  67.013  1.00  0.00    -0.018 A  
HETATM   23  C   UNL     1      -7.070  13.967  67.781  1.00  0.00    -0.181 A  
HETATM   24  C   UNL     1      -6.530  13.278  68.855  1.00  0.00    -0.100 A  
BRANCH  20  25
HETATM   25  C   UNL     1      -8.488  10.045  68.820  1.00  0.00    -0.126 C  
HETATM   26  C   UNL     1      -9.424   9.870  69.767  1.00  0.00    -0.254 C  
BRANCH  26  27
HETATM   27  C   UNL     1     -10.004   8.563  70.132  1.00  0.00    -0.181 C  
HETATM   28  O   UNL     1     -11.006   8.488  70.829  1.00  0.00    -0.235 OA 
BRANCH  27  29
HETATM   29  O   UNL     1      -9.305   7.539  69.596  1.00  0.00    -0.154 OA 
HETATM   30  C   UNL     1      -9.942   6.615  68.676  1.00  0.00    -0.147 C  
HETATM   31  C   UNL     1     -11.146   5.911  69.310  1.00  0.00    -0.352 C  
HETATM   32  C   UNL     1     -10.321   7.326  67.371  1.00  0.00    -0.330 C  
HETATM   33  C   UNL     1      -8.865   5.562  68.371  1.00  0.00    -0.107 C  
ENDBRANCH  27  29
ENDBRANCH  26  27
ENDBRANCH  20  25
ENDBRANCH  13  19
ENDBRANCH   4   6
ENDBRANCH   3   4
ENDBRANCH   2   3
TORSDOF 10
ENDMDL
MODEL       79
REMARK 921   NORMALIZED FREE ENERGY PREDICTED BY IDOCK:   -4.19 KCAL/MOL
REMARK 922        TOTAL FREE ENERGY PREDICTED BY IDOCK:   -9.01 KCAL/MOL
REMARK 923 INTER-LIGAND FREE ENERGY PREDICTED BY IDOCK:   -7.01 KCAL/MOL
REMARK 924 INTRA-LIGAND FREE ENERGY PREDICTED BY IDOCK:   -2.00 KCAL/MOL
REMARK 927      BINDING AFFINITY PREDICTED BY RF-SCORE:    0.00 PKD
ROOT
HETATM    1  C   UNL     1      -5.299  14.432  69.317  1.00  0.00    -0.085 C  
HETATM    2  C   UNL     1      -6.596  15.049  69.802  1.00  0.00    -0.170 C  
ENDROOT
BRANCH   2   3
HETATM    3  O   UNL     1      -7.438  15.338  68.672  1.00  0.00    -0.115 OA 
BRANCH   3   4
HETATM    4  C   UNL     1      -8.753  15.068  68.856  1.00  0.00    -0.197 C  
HETATM    5  O   UNL     1      -9.317  15.035  69.941  1.00  0.00    -0.033 OA 
BRANCH   4   6
HETATM    6  C   UNL     1      -9.444  14.803  67.571  1.00  0.00    -0.197 C  
HETATM    7  C   UNL     1     -10.463  15.614  67.198  1.00  0.00    -0.303 C  
HETATM    8  C   UNL     1     -10.872  16.912  67.857  1.00  0.00    -0.310 C  
HETATM    9  N   UNL     1     -11.250  15.269  66.113  1.00  0.00    -0.280 NA 
HETATM   10  C   UNL     1     -11.236  14.028  65.501  1.00  0.00    -0.311 C  
HETATM   11  C   UNL     1     -12.422  13.742  64.609  1.00  0.00    -0.356 C  
HETATM   12  C   UNL     1     -10.208  13.169  65.731  1.00  0.00    -0.294 C  
HETATM   13  C   UNL     1      -9.083  13.574  66.708  1.00  0.00    -0.223 C  
BRANCH  12  14
HETATM   14  C   UNL     1     -10.205  11.847  65.036  1.00  0.00    -0.278 C  
HETATM   15  O   UNL     1      -9.794  11.674  63.897  1.00  0.00    -0.272 OA 
BRANCH  14  16
HETATM   16  O   UNL     1     -10.694  10.855  65.819  1.00  0.00    -0.204 OA 
BRANCH  16  17
HETATM   17  C   UNL     1      -9.975   9.609  65.743  1.00  0.00    -0.272 C  
HETATM   18  C   UNL     1     -10.358   8.653  66.864  1.00  0.00    -0.355 C  
ENDBRANCH  16  17
ENDBRANCH  14  16
ENDBRANCH  12  14
BRANCH  13  19
HETATM   19  C   UNL     1      -8.485  12.401  67.500  1.00  0.00    -0.175 A  
HETATM   20  C   UNL     1      -9.151  11.709  68.530  1.00  0.00    -0.157 A  
HETATM   21  C   UNL     1      -8.508  10.606  69.128  1.00  0.00    -0.134 A  
HETATM   22  C   UNL     1      -7.189  11.970  67.116  1.00  0.00    -0.131 A  
HETATM   23  C   UNL     1      -6.573  10.878  67.720  1.00  0.00    -0.064 A  
HETATM   24  C   UNL     1      -7.238  10.189  68.722  1.00  0.00    -0.081 A  
BRANCH  20  25
HETATM   25  C   UNL     1     -10.467  12.128  69.043  1.00  0.00    -0.072 C  
HETATM   26  C   UNL     1     -11.088  11.511  70.060  1.00  0.00     0.021 C  
BRANCH  26  27
HETATM   27  C   UNL     1     -12.355  11.970  70.663  1.00  0.00    -0.304 C  
HETATM   28  O   UNL     1     -12.996  11.250  71.414  1.00  0.00    -0.407 OA 
BRANCH  27  29
HETATM   29  O   UNL     1     -12.659  13.231  70.286  1.00  0.00    -0.211 OA 
HETATM   30  C   UNL     1     -13.016  14.229  71.278  1.00  0.00    -0.352 C  
HETATM   31  C   UNL     1     -14.243  13.812  72.095  1.00  0.00    -0.544 C  
HETATM   32  C   UNL     1     -11.817  14.553  72.177  1.00  0.00    -0.071 C  
HETATM   33  C   UNL     1     -13.375  15.481  70.461  1.00  0.00    -0.079 C  
ENDBRANCH  27  29
ENDBRANCH  26  27
ENDBRANCH  20  25
ENDBRANCH  13  19
ENDBRANCH   4   6
ENDBRANCH   3   4
ENDBRANCH   2   3
TORSDOF 10
ENDMDL
MODEL       80
REMARK 921   NORMALIZED FREE ENERGY PREDICTED BY IDOCK:   -4.17 KCAL/MOL
REMARK 922        TOTAL FREE ENERGY PREDICTED BY IDOCK:   -8.97 KCAL/MOL
REMARK 923 INTER-LIGAND FREE ENERGY PREDICTED BY IDOCK:   -6.60 KCAL/MOL
REMARK 924 INTRA-LIGAND FREE ENERGY PREDICTED BY IDOCK:   -2.37 KCAL/MOL
REMARK 927      BINDING AFFINITY PREDICTED BY RF-SCORE:    0.00 PKD
ROOT
HETATM    1  C   UNL     1      -6.318  12.369  67.550  1.00  0.00    -0.148 C  
HETATM    2  C   UNL     1      -7.126  11.434  66.672  1.00  0.00    -0.103 C  
ENDROOT
BRANCH   2   3
HETATM    3  O   UNL     1      -8.515  11.801  66.736  1.00  0.00    -0.176 OA 
BRANCH   3   4
HETATM    4  C   UNL     1      -9.383  10.821  66.386  1.00  0.00    -0.174 C  
HETATM    5  O   UNL     1      -9.354  10.204  65.330  1.00  0.00    -0.181 OA 
BRANCH   4   6
HETATM    6  C   UNL     1     -10.397  10.583  67.441  1.00  0.00    -0.269 C  
HETATM    7  C   UNL     1     -11.397  11.484  67.600  1.00  0.00    -0.291 C  
HETATM    8  C   UNL     1     -11.727  12.639  66.683  1.00  0.00    -0.464 C  
HETATM    9  N   UNL     1     -12.232  11.391  68.700  1.00  0.00    -0.510 NA 
HETATM   10  C   UNL     1     -11.990  10.584  69.798  1.00  0.00    -0.238 C  
HETATM   11  C   UNL     1     -12.802  10.920  71.028  1.00  0.00    -0.472 C  
HETATM   12  C   UNL     1     -11.073   9.585  69.718  1.00  0.00    -0.216 C  
HETATM   13  C   UNL     1     -10.278   9.386  68.409  1.00  0.00    -0.224 C  
BRANCH  12  14
HETATM   14  C   UNL     1     -10.853   8.711  70.910  1.00  0.00    -0.239 C  
HETATM   15  O   UNL     1     -10.297   9.080  71.934  1.00  0.00    -0.341 OA 
BRANCH  14  16
HETATM   16  O   UNL     1     -11.358   7.466  70.733  1.00  0.00    -0.269 OA 
BRANCH  16  17
HETATM   17  C   UNL     1     -10.727   6.436  71.517  1.00  0.00    -0.238 C  
HETATM   18  C   UNL     1      -9.433   5.942  70.884  1.00  0.00    -0.191 C  
ENDBRANCH  16  17
ENDBRANCH  14  16
ENDBRANCH  12  14
BRANCH  13  19
HETATM   19  C   UNL     1      -8.841   8.883  68.616  1.00  0.00    -0.137 A  
HETATM   20  C   UNL     1      -8.247   7.835  67.885  1.00  0.00    -0.123 A  
HETATM   21  C   UNL     1      -6.896   7.520  68.134  1.00  0.00    -0.063 A  
HETATM   22  C   UNL     1      -8.060   9.568  69.582  1.00  0.00    -0.128 A  
HETATM   23  C   UNL     1      -6.728   9.240  69.811  1.00  0.00    -0.051 A  
HETATM   24  C   UNL     1      -6.142   8.220  69.079  1.00  0.00    -0.043 A  
BRANCH  20  25
HETATM   25  C   UNL     1      -9.000   7.022  66.915  1.00  0.00    -0.135 C  
HETATM   26  C   UNL     1      -9.267   5.719  67.100  1.00  0.00    -0.115 C  
BRANCH  26  27
HETATM   27  C   UNL     1     -10.106   4.906  66.198  1.00  0.00    -0.254 C  
HETATM   28  O   UNL     1     -11.282   5.178  66.010  1.00  0.00    -0.045 OA 
BRANCH  27  29
HETATM   29  O   UNL     1      -9.405   3.892  65.644  1.00  0.00    -0.144 OA 
HETATM   30  C   UNL     1      -9.261   3.800  64.203  1.00  0.00    -0.140 C  
HETATM   31  C   UNL     1     -10.616   3.704  63.495  1.00  0.00    -0.266 C  
HETATM   32  C   UNL     1      -8.420   4.964  63.666  1.00  0.00    -0.132 C  
HETATM   33  C   UNL     1      -8.494   2.488  63.970  1.00  0.00    -0.086 C  
ENDBRANCH  27  29
ENDBRANCH  26  27
ENDBRANCH  20  25
ENDBRANCH  13  19
ENDBRANCH   4   6
ENDBRANCH   3   4
ENDBRANCH   2   3
TORSDOF 10
ENDMDL
MODEL       81
REMARK 921   NORMALIZED FREE ENERGY PREDICTED BY IDOCK:   -4.13 KCAL/MOL
REMARK 922        TOTAL FREE ENERGY PREDICTED BY IDOCK:   -8.91 KCAL/MOL
REMARK 923 INTER-LIGAND FREE ENERGY PREDICTED BY IDOCK:   -7.38 KCAL/MOL
REMARK 924 INTRA-LIGAND FREE ENERGY PREDICTED BY IDOCK:   -1.53 KCAL/MOL
REMARK 927      BINDING AFFINITY PREDICTED BY RF-SCORE:    0.00 PKD
ROOT
HETATM    1  C   UNL     1      -5.256  10.551  64.214  1.00  0.00    -0.152 C  
HETATM    2  C   UNL     1      -6.316   9.577  64.692  1.00  0.00    -0.084 C  
ENDROOT
BRANCH   2   3
HETATM    3  O   UNL     1      -7.596  10.232  64.697  1.00  0.00    -0.146 OA 
BRANCH   3   4
HETATM    4  C   UNL     1      -8.602   9.517  65.257  1.00  0.00    -0.157 C  
HETATM    5  O   UNL     1      -8.563   8.317  65.490  1.00  0.00    -0.157 OA 
BRANCH   4   6
HETATM    6  C   UNL     1      -9.782  10.366  65.551  1.00  0.00    -0.307 C  
HETATM    7  C   UNL     1     -10.456  10.926  64.517  1.00  0.00    -0.323 C  
HETATM    8  C   UNL     1     -10.266  10.629  63.047  1.00  0.00    -0.003 C  
HETATM    9  N   UNL     1     -11.428  11.879  64.770  1.00  0.00    -0.293 NA 
HETATM   10  C   UNL     1     -11.617  12.494  65.996  1.00  0.00    -0.406 C  
HETATM   11  C   UNL     1     -12.451  13.754  65.955  1.00  0.00    -0.512 C  
HETATM   12  C   UNL     1     -11.063  11.962  67.116  1.00  0.00    -0.347 C  
HETATM   13  C   UNL     1     -10.190  10.692  67.003  1.00  0.00    -0.267 C  
BRANCH  12  14
HETATM   14  C   UNL     1     -11.307  12.631  68.429  1.00  0.00    -0.290 C  
HETATM   15  O   UNL     1     -10.691  13.612  68.821  1.00  0.00    -0.247 OA 
BRANCH  14  16
HETATM   16  O   UNL     1     -12.305  12.038  69.129  1.00  0.00    -0.126 OA 
BRANCH  16  17
HETATM   17  C   UNL     1     -11.979  11.709  70.493  1.00  0.00    -0.319 C  
HETATM   18  C   UNL     1     -12.748  12.564  71.491  1.00  0.00    -0.325 C  
ENDBRANCH  16  17
ENDBRANCH  14  16
ENDBRANCH  12  14
BRANCH  13  19
HETATM   19  C   UNL     1      -9.034  10.633  68.012  1.00  0.00    -0.140 A  
HETATM   20  C   UNL     1      -8.956   9.725  69.087  1.00  0.00    -0.161 A  
HETATM   21  C   UNL     1      -7.803   9.737  69.899  1.00  0.00    -0.168 A  
HETATM   22  C   UNL     1      -7.956  11.530  67.799  1.00  0.00    -0.128 A  
HETATM   23  C   UNL     1      -6.827  11.524  68.612  1.00  0.00    -0.077 A  
HETATM   24  C   UNL     1      -6.746  10.619  69.659  1.00  0.00    -0.116 A  
BRANCH  20  25
HETATM   25  C   UNL     1     -10.056   8.807  69.428  1.00  0.00    -0.203 C  
HETATM   26  C   UNL     1     -10.201   8.255  70.644  1.00  0.00    -0.214 C  
BRANCH  26  27
HETATM   27  C   UNL     1     -11.347   7.416  71.045  1.00  0.00    -0.275 C  
HETATM   28  O   UNL     1     -12.388   7.916  71.446  1.00  0.00    -0.307 OA 
BRANCH  27  29
HETATM   29  O   UNL     1     -11.079   6.100  70.895  1.00  0.00    -0.286 OA 
HETATM   30  C   UNL     1     -10.254   5.402  71.864  1.00  0.00    -0.203 C  
HETATM   31  C   UNL     1      -8.858   6.022  71.981  1.00  0.00    -0.137 C  
HETATM   32  C   UNL     1     -10.959   5.328  73.223  1.00  0.00    -0.369 C  
HETATM   33  C   UNL     1     -10.111   3.979  71.302  1.00  0.00    -0.133 C  
ENDBRANCH  27  29
ENDBRANCH  26  27
ENDBRANCH  20  25
ENDBRANCH  13  19
ENDBRANCH   4   6
ENDBRANCH   3   4
ENDBRANCH   2   3
TORSDOF 10
ENDMDL
MODEL       82
REMARK 921   NORMALIZED FREE ENERGY PREDICTED BY IDOCK:   -4.09 KCAL/MOL
REMARK 922        TOTAL FREE ENERGY PREDICTED BY IDOCK:   -8.85 KCAL/MOL
REMARK 923 INTER-LIGAND FREE ENERGY PREDICTED BY IDOCK:   -6.75 KCAL/MOL
REMARK 924 INTRA-LIGAND FREE ENERGY PREDICTED BY IDOCK:   -2.10 KCAL/MOL
REMARK 927      BINDING AFFINITY PREDICTED BY RF-SCORE:    0.00 PKD
ROOT
HETATM    1  C   UNL     1      -5.826  15.053  69.400  1.00  0.00    -0.103 C  
HETATM    2  C   UNL     1      -5.383  14.635  68.012  1.00  0.00    -0.109 C  
ENDROOT
BRANCH   2   3
HETATM    3  O   UNL     1      -6.482  14.005  67.330  1.00  0.00    -0.304 OA 
BRANCH   3   4
HETATM    4  C   UNL     1      -6.412  12.653  67.259  1.00  0.00    -0.097 C  
HETATM    5  O   UNL     1      -5.723  12.028  66.465  1.00  0.00    -0.272 OA 
BRANCH   4   6
HETATM    6  C   UNL     1      -7.289  12.005  68.263  1.00  0.00    -0.095 C  
HETATM    7  C   UNL     1      -6.721  11.245  69.231  1.00  0.00    -0.110 C  
HETATM    8  C   UNL     1      -5.245  11.127  69.539  1.00  0.00    -0.044 C  
HETATM    9  N   UNL     1      -7.523  10.470  70.051  1.00  0.00    -0.124 NA 
HETATM   10  C   UNL     1      -8.864  10.216  69.819  1.00  0.00    -0.127 C  
HETATM   11  C   UNL     1      -9.439   9.058  70.600  1.00  0.00    -0.286 C  
HETATM   12  C   UNL     1      -9.556  10.982  68.935  1.00  0.00    -0.174 C  
HETATM   13  C   UNL     1      -8.826  12.106  68.167  1.00  0.00    -0.187 C  
BRANCH  12  14
HETATM   14  C   UNL     1     -11.008  10.703  68.724  1.00  0.00    -0.246 C  
HETATM   15  O   UNL     1     -11.440   9.901  67.908  1.00  0.00    -0.123 OA 
BRANCH  14  16
HETATM   16  O   UNL     1     -11.795  11.429  69.556  1.00  0.00    -0.299 OA 
BRANCH  16  17
HETATM   17  C   UNL     1     -12.762  10.664  70.301  1.00  0.00    -0.209 C  
HETATM   18  C   UNL     1     -13.030  11.257  71.678  1.00  0.00    -0.537 C  
ENDBRANCH  16  17
ENDBRANCH  14  16
ENDBRANCH  12  14
BRANCH  13  19
HETATM   19  C   UNL     1      -9.355  12.342  66.744  1.00  0.00    -0.218 A  
HETATM   20  C   UNL     1      -9.296  11.396  65.702  1.00  0.00    -0.242 A  
HETATM   21  C   UNL     1      -9.881  11.721  64.461  1.00  0.00    -0.228 A  
HETATM   22  C   UNL     1      -9.988  13.587  66.499  1.00  0.00    -0.287 A  
HETATM   23  C   UNL     1     -10.559  13.887  65.267  1.00  0.00    -0.372 A  
HETATM   24  C   UNL     1     -10.514  12.949  64.248  1.00  0.00    -0.430 A  
BRANCH  20  25
HETATM   25  C   UNL     1      -8.598  10.107  65.842  1.00  0.00    -0.156 C  
HETATM   26  C   UNL     1      -9.167   8.928  65.543  1.00  0.00    -0.242 C  
BRANCH  26  27
HETATM   27  C   UNL     1      -8.461   7.631  65.574  1.00  0.00    -0.120 C  
HETATM   28  O   UNL     1      -8.007   7.134  64.554  1.00  0.00    -0.122 OA 
BRANCH  27  29
HETATM   29  O   UNL     1      -8.394   7.129  66.827  1.00  0.00    -0.111 OA 
HETATM   30  C   UNL     1      -9.265   6.041  67.230  1.00  0.00    -0.114 C  
HETATM   31  C   UNL     1     -10.746   6.409  67.090  1.00  0.00    -0.433 C  
HETATM   32  C   UNL     1      -8.922   4.759  66.462  1.00  0.00    -0.112 C  
HETATM   33  C   UNL     1      -8.954   5.824  68.720  1.00  0.00    -0.116 C  
ENDBRANCH  27  29
ENDBRANCH  26  27
ENDBRANCH  20  25
ENDBRANCH  13  19
ENDBRANCH   4   6
ENDBRANCH   3   4
ENDBRANCH   2   3
TORSDOF 10
ENDMDL
MODEL       83
REMARK 921   NORMALIZED FREE ENERGY PREDICTED BY IDOCK:   -4.08 KCAL/MOL
REMARK 922        TOTAL FREE ENERGY PREDICTED BY IDOCK:   -8.84 KCAL/MOL
REMARK 923 INTER-LIGAND FREE ENERGY PREDICTED BY IDOCK:   -7.38 KCAL/MOL
REMARK 924 INTRA-LIGAND FREE ENERGY PREDICTED BY IDOCK:   -1.46 KCAL/MOL
REMARK 927      BINDING AFFINITY PREDICTED BY RF-SCORE:    0.00 PKD
ROOT
HETATM    1  C   UNL     1      -5.552  12.507  67.459  1.00  0.00    -0.131 C  
HETATM    2  C   UNL     1      -6.690  11.524  67.655  1.00  0.00    -0.079 C  
ENDROOT
BRANCH   2   3
HETATM    3  O   UNL     1      -6.865  11.272  69.060  1.00  0.00    -0.081 OA 
BRANCH   3   4
HETATM    4  C   UNL     1      -6.780   9.969  69.423  1.00  0.00    -0.060 C  
HETATM    5  O   UNL     1      -6.045   9.143  68.900  1.00  0.00    -0.043 OA 
BRANCH   4   6
HETATM    6  C   UNL     1      -7.704   9.648  70.537  1.00  0.00    -0.152 C  
HETATM    7  C   UNL     1      -7.183   9.211  71.710  1.00  0.00     0.184 C  
HETATM    8  C   UNL     1      -5.723   9.191  72.099  1.00  0.00    -0.065 C  
HETATM    9  N   UNL     1      -8.026   8.715  72.690  1.00  0.00    -0.381 NA 
HETATM   10  C   UNL     1      -9.360   8.404  72.488  1.00  0.00    -0.275 C  
HETATM   11  C   UNL     1      -9.979   7.530  73.554  1.00  0.00    -0.371 C  
HETATM   12  C   UNL     1     -10.008   8.871  71.389  1.00  0.00    -0.378 C  
HETATM   13  C   UNL     1      -9.235   9.716  70.353  1.00  0.00    -0.258 C  
BRANCH  12  14
HETATM   14  C   UNL     1     -11.454   8.542  71.211  1.00  0.00    -0.277 C  
HETATM   15  O   UNL     1     -12.322   9.373  70.986  1.00  0.00    -0.297 OA 
BRANCH  14  16
HETATM   16  O   UNL     1     -11.692   7.211  71.309  1.00  0.00    -0.276 OA 
BRANCH  16  17
HETATM   17  C   UNL     1     -11.616   6.486  70.067  1.00  0.00    -0.390 C  
HETATM   18  C   UNL     1     -10.518   5.431  70.082  1.00  0.00    -0.361 C  
ENDBRANCH  16  17
ENDBRANCH  14  16
ENDBRANCH  12  14
BRANCH  13  19
HETATM   19  C   UNL     1      -9.704   9.517  68.903  1.00  0.00    -0.166 A  
HETATM   20  C   UNL     1     -10.386  10.488  68.143  1.00  0.00    -0.201 A  
HETATM   21  C   UNL     1     -10.700  10.195  66.800  1.00  0.00    -0.191 A  
HETATM   22  C   UNL     1      -9.375   8.280  68.291  1.00  0.00    -0.138 A  
HETATM   23  C   UNL     1      -9.694   8.013  66.964  1.00  0.00    -0.275 A  
HETATM   24  C   UNL     1     -10.350   8.976  66.214  1.00  0.00    -0.130 A  
BRANCH  20  25
HETATM   25  C   UNL     1     -10.831  11.770  68.714  1.00  0.00    -0.268 C  
HETATM   26  C   UNL     1     -11.155  12.835  67.963  1.00  0.00    -0.284 C  
BRANCH  26  27
HETATM   27  C   UNL     1     -11.703  14.097  68.499  1.00  0.00    -0.345 C  
HETATM   28  O   UNL     1     -12.251  14.135  69.591  1.00  0.00    -0.326 OA 
BRANCH  27  29
HETATM   29  O   UNL     1     -11.500  15.129  67.652  1.00  0.00    -0.332 OA 
HETATM   30  C   UNL     1     -10.334  15.981  67.796  1.00  0.00    -0.279 C  
HETATM   31  C   UNL     1     -10.280  16.653  69.171  1.00  0.00    -0.309 C  
HETATM   32  C   UNL     1      -9.050  15.197  67.495  1.00  0.00    -0.187 C  
HETATM   33  C   UNL     1     -10.510  17.070  66.726  1.00  0.00    -0.257 C  
ENDBRANCH  27  29
ENDBRANCH  26  27
ENDBRANCH  20  25
ENDBRANCH  13  19
ENDBRANCH   4   6
ENDBRANCH   3   4
ENDBRANCH   2   3
TORSDOF 10
ENDMDL
MODEL       84
REMARK 921   NORMALIZED FREE ENERGY PREDICTED BY IDOCK:   -4.08 KCAL/MOL
REMARK 922        TOTAL FREE ENERGY PREDICTED BY IDOCK:   -8.84 KCAL/MOL
REMARK 923 INTER-LIGAND FREE ENERGY PREDICTED BY IDOCK:   -7.41 KCAL/MOL
REMARK 924 INTRA-LIGAND FREE ENERGY PREDICTED BY IDOCK:   -1.42 KCAL/MOL
REMARK 927      BINDING AFFINITY PREDICTED BY RF-SCORE:    0.00 PKD
ROOT
HETATM    1  C   UNL     1      -6.213  15.972  67.352  1.00  0.00    -0.191 C  
HETATM    2  C   UNL     1      -7.682  16.321  67.207  1.00  0.00    -0.178 C  
ENDROOT
BRANCH   2   3
HETATM    3  O   UNL     1      -8.319  16.242  68.494  1.00  0.00    -0.184 OA 
BRANCH   3   4
HETATM    4  C   UNL     1      -8.934  15.063  68.756  1.00  0.00    -0.196 C  
HETATM    5  O   UNL     1      -8.884  14.468  69.823  1.00  0.00     0.338 OA 
BRANCH   4   6
HETATM    6  C   UNL     1      -9.681  14.560  67.577  1.00  0.00    -0.211 C  
HETATM    7  C   UNL     1     -10.902  15.083  67.307  1.00  0.00    -0.310 C  
HETATM    8  C   UNL     1     -11.536  16.287  67.966  1.00  0.00    -0.125 C  
HETATM    9  N   UNL     1     -11.700  14.493  66.342  1.00  0.00    -0.376 NA 
HETATM   10  C   UNL     1     -11.455  13.253  65.777  1.00  0.00    -0.323 C  
HETATM   11  C   UNL     1     -12.630  12.639  65.052  1.00  0.00    -0.504 C  
HETATM   12  C   UNL     1     -10.231  12.678  65.906  1.00  0.00    -0.290 C  
HETATM   13  C   UNL     1      -9.134  13.399  66.720  1.00  0.00    -0.221 C  
BRANCH  12  14
HETATM   14  C   UNL     1      -9.987  11.352  65.263  1.00  0.00    -0.258 C  
HETATM   15  O   UNL     1      -9.307  11.194  64.258  1.00  0.00    -0.210 OA 
BRANCH  14  16
HETATM   16  O   UNL     1     -10.590  10.339  65.931  1.00  0.00    -0.141 OA 
BRANCH  16  17
HETATM   17  C   UNL     1      -9.804   9.139  66.055  1.00  0.00    -0.272 C  
HETATM   18  C   UNL     1     -10.443   8.126  66.997  1.00  0.00    -0.396 C  
ENDBRANCH  16  17
ENDBRANCH  14  16
ENDBRANCH  12  14
BRANCH  13  19
HETATM   19  C   UNL     1      -8.184  12.453  67.471  1.00  0.00    -0.173 A  
HETATM   20  C   UNL     1      -8.588  11.523  68.448  1.00  0.00    -0.159 A  
HETATM   21  C   UNL     1      -7.617  10.669  69.010  1.00  0.00    -0.122 A  
HETATM   22  C   UNL     1      -6.814  12.504  67.103  1.00  0.00    -0.058 A  
HETATM   23  C   UNL     1      -5.873  11.651  67.671  1.00  0.00    -0.060 A  
HETATM   24  C   UNL     1      -6.277  10.726  68.620  1.00  0.00    -0.043 A  
BRANCH  20  25
HETATM   25  C   UNL     1      -9.974  11.448  68.943  1.00  0.00    -0.146 C  
HETATM   26  C   UNL     1     -10.394  10.509  69.806  1.00  0.00    -0.211 C  
BRANCH  26  27
HETATM   27  C   UNL     1     -11.745  10.470  70.400  1.00  0.00    -0.344 C  
HETATM   28  O   UNL     1     -12.308  11.493  70.760  1.00  0.00    -0.374 OA 
BRANCH  27  29
HETATM   29  O   UNL     1     -12.227   9.209  70.462  1.00  0.00    -0.093 OA 
HETATM   30  C   UNL     1     -12.441   8.567  71.746  1.00  0.00    -0.342 C  
HETATM   31  C   UNL     1     -11.151   8.480  72.567  1.00  0.00    -0.328 C  
HETATM   32  C   UNL     1     -13.563   9.268  72.522  1.00  0.00    -0.478 C  
HETATM   33  C   UNL     1     -12.897   7.141  71.398  1.00  0.00    -0.431 C  
ENDBRANCH  27  29
ENDBRANCH  26  27
ENDBRANCH  20  25
ENDBRANCH  13  19
ENDBRANCH   4   6
ENDBRANCH   3   4
ENDBRANCH   2   3
TORSDOF 10
ENDMDL
MODEL       85
REMARK 921   NORMALIZED FREE ENERGY PREDICTED BY IDOCK:   -4.07 KCAL/MOL
REMARK 922        TOTAL FREE ENERGY PREDICTED BY IDOCK:   -8.81 KCAL/MOL
REMARK 923 INTER-LIGAND FREE ENERGY PREDICTED BY IDOCK:   -7.07 KCAL/MOL
REMARK 924 INTRA-LIGAND FREE ENERGY PREDICTED BY IDOCK:   -1.74 KCAL/MOL
REMARK 927      BINDING AFFINITY PREDICTED BY RF-SCORE:    0.00 PKD
ROOT
HETATM    1  C   UNL     1      -6.577   6.261  68.499  1.00  0.00    -0.059 C  
HETATM    2  C   UNL     1      -6.900   6.358  69.977  1.00  0.00    -0.054 C  
ENDROOT
BRANCH   2   3
HETATM    3  O   UNL     1      -8.083   7.159  70.154  1.00  0.00    -0.124 OA 
BRANCH   3   4
HETATM    4  C   UNL     1      -7.874   8.367  70.730  1.00  0.00    -0.089 C  
HETATM    5  O   UNL     1      -6.783   8.800  71.076  1.00  0.00    -0.055 OA 
BRANCH   4   6
HETATM    6  C   UNL     1      -9.141   9.117  70.908  1.00  0.00    -0.316 C  
HETATM    7  C   UNL     1     -10.048   8.661  71.805  1.00  0.00    -0.310 C  
HETATM    8  C   UNL     1      -9.842   7.557  72.818  1.00  0.00    -0.261 C  
HETATM    9  N   UNL     1     -11.313   9.221  71.843  1.00  0.00    -0.359 NA 
HETATM   10  C   UNL     1     -11.823  10.065  70.872  1.00  0.00    -0.368 C  
HETATM   11  C   UNL     1     -13.323  10.244  70.905  1.00  0.00    -0.242 C  
HETATM   12  C   UNL     1     -10.987  10.653  69.977  1.00  0.00    -0.325 C  
HETATM   13  C   UNL     1      -9.476  10.341  70.028  1.00  0.00     0.039 C  
BRANCH  12  14
HETATM   14  C   UNL     1     -11.562  11.581  68.957  1.00  0.00    -0.318 C  
HETATM   15  O   UNL     1     -12.283  11.224  68.036  1.00  0.00    -0.621 OA 
BRANCH  14  16
HETATM   16  O   UNL     1     -11.207  12.870  69.179  1.00  0.00    -0.256 OA 
BRANCH  16  17
HETATM   17  C   UNL     1     -12.263  13.715  69.674  1.00  0.00    -0.270 C  
HETATM   18  C   UNL     1     -12.124  13.997  71.165  1.00  0.00    -0.355 C  
ENDBRANCH  16  17
ENDBRANCH  14  16
ENDBRANCH  12  14
BRANCH  13  19
HETATM   19  C   UNL     1      -8.787  10.339  68.655  1.00  0.00    -0.137 A  
HETATM   20  C   UNL     1      -9.060   9.418  67.624  1.00  0.00    -0.131 A  
HETATM   21  C   UNL     1      -8.400   9.574  66.388  1.00  0.00    -0.120 A  
HETATM   22  C   UNL     1      -7.848  11.374  68.413  1.00  0.00    -0.135 A  
HETATM   23  C   UNL     1      -7.208  11.509  67.185  1.00  0.00    -0.140 A  
HETATM   24  C   UNL     1      -7.492  10.612  66.167  1.00  0.00    -0.138 A  
BRANCH  20  25
HETATM   25  C   UNL     1      -9.965   8.271  67.808  1.00  0.00    -0.235 C  
HETATM   26  C   UNL     1      -9.840   7.122  67.124  1.00  0.00    -0.235 C  
BRANCH  26  27
HETATM   27  C   UNL     1     -10.664   5.920  67.360  1.00  0.00    -0.287 C  
HETATM   28  O   UNL     1     -11.145   5.687  68.459  1.00  0.00    -0.119 OA 
BRANCH  27  29
HETATM   29  O   UNL     1     -10.800   5.179  66.237  1.00  0.00    -0.296 OA 
HETATM   30  C   UNL     1      -9.688   4.392  65.737  1.00  0.00    -0.209 C  
HETATM   31  C   UNL     1      -8.464   5.258  65.427  1.00  0.00    -0.145 C  
HETATM   32  C   UNL     1      -9.350   3.255  66.708  1.00  0.00    -0.171 C  
HETATM   33  C   UNL     1     -10.202   3.783  64.422  1.00  0.00    -0.227 C  
ENDBRANCH  27  29
ENDBRANCH  26  27
ENDBRANCH  20  25
ENDBRANCH  13  19
ENDBRANCH   4   6
ENDBRANCH   3   4
ENDBRANCH   2   3
TORSDOF 10
ENDMDL
MODEL       86
REMARK 921   NORMALIZED FREE ENERGY PREDICTED BY IDOCK:   -4.06 KCAL/MOL
REMARK 922        TOTAL FREE ENERGY PREDICTED BY IDOCK:   -8.80 KCAL/MOL
REMARK 923 INTER-LIGAND FREE ENERGY PREDICTED BY IDOCK:   -6.70 KCAL/MOL
REMARK 924 INTRA-LIGAND FREE ENERGY PREDICTED BY IDOCK:   -2.10 KCAL/MOL
REMARK 927      BINDING AFFINITY PREDICTED BY RF-SCORE:    0.00 PKD
ROOT
HETATM    1  C   UNL     1      -9.446   3.551  65.022  1.00  0.00    -0.159 C  
HETATM    2  C   UNL     1     -10.337   4.667  65.530  1.00  0.00    -0.198 C  
ENDROOT
BRANCH   2   3
HETATM    3  O   UNL     1     -10.114   4.851  66.939  1.00  0.00    -0.197 OA 
BRANCH   3   4
HETATM    4  C   UNL     1     -10.475   6.065  67.421  1.00  0.00    -0.246 C  
HETATM    5  O   UNL     1     -11.500   6.661  67.122  1.00  0.00    -0.230 OA 
BRANCH   4   6
HETATM    6  C   UNL     1      -9.465   6.604  68.363  1.00  0.00    -0.125 C  
HETATM    7  C   UNL     1      -9.533   6.245  69.669  1.00  0.00    -0.146 C  
HETATM    8  C   UNL     1     -10.423   5.180  70.268  1.00  0.00    -0.296 C  
HETATM    9  N   UNL     1      -8.733   6.889  70.597  1.00  0.00    -0.148 NA 
HETATM   10  C   UNL     1      -8.022   8.049  70.345  1.00  0.00    -0.103 C  
HETATM   11  C   UNL     1      -7.541   8.783  71.575  1.00  0.00    -0.130 C  
HETATM   12  C   UNL     1      -7.812   8.452  69.064  1.00  0.00    -0.102 C  
HETATM   13  C   UNL     1      -8.406   7.628  67.901  1.00  0.00    -0.123 C  
BRANCH  12  14
HETATM   14  C   UNL     1      -7.018   9.693  68.821  1.00  0.00    -0.066 C  
HETATM   15  O   UNL     1      -5.979   9.725  68.177  1.00  0.00    -0.046 OA 
BRANCH  14  16
HETATM   16  O   UNL     1      -7.591  10.786  69.380  1.00  0.00    -0.133 OA 
BRANCH  16  17
HETATM   17  C   UNL     1      -7.124  12.049  68.867  1.00  0.00    -0.104 C  
HETATM   18  C   UNL     1      -7.882  12.480  67.619  1.00  0.00    -0.162 C  
ENDBRANCH  16  17
ENDBRANCH  14  16
ENDBRANCH  12  14
BRANCH  13  19
HETATM   19  C   UNL     1      -8.830   8.469  66.687  1.00  0.00    -0.157 A  
HETATM   20  C   UNL     1      -9.774   9.515  66.728  1.00  0.00    -0.254 A  
HETATM   21  C   UNL     1     -10.020  10.249  65.550  1.00  0.00    -0.364 A  
HETATM   22  C   UNL     1      -8.177   8.189  65.459  1.00  0.00    -0.144 A  
HETATM   23  C   UNL     1      -8.435   8.927  64.309  1.00  0.00    -0.165 A  
HETATM   24  C   UNL     1      -9.352   9.965  64.356  1.00  0.00    -0.326 A  
BRANCH  20  25
HETATM   25  C   UNL     1     -10.552   9.830  67.938  1.00  0.00    -0.310 C  
HETATM   26  C   UNL     1     -11.116  11.030  68.156  1.00  0.00    -0.329 C  
BRANCH  26  27
HETATM   27  C   UNL     1     -11.986  11.344  69.306  1.00  0.00    -0.332 C  
HETATM   28  O   UNL     1     -12.017  12.467  69.788  1.00  0.00    -0.312 OA 
BRANCH  27  29
HETATM   29  O   UNL     1     -12.700  10.267  69.700  1.00  0.00    -0.012 OA 
HETATM   30  C   UNL     1     -12.646   9.813  71.078  1.00  0.00    -0.314 C  
HETATM   31  C   UNL     1     -11.220   9.452  71.506  1.00  0.00    -0.457 C  
HETATM   32  C   UNL     1     -13.277  10.849  72.016  1.00  0.00    -0.456 C  
HETATM   33  C   UNL     1     -13.502   8.537  71.102  1.00  0.00    -0.052 C  
ENDBRANCH  27  29
ENDBRANCH  26  27
ENDBRANCH  20  25
ENDBRANCH  13  19
ENDBRANCH   4   6
ENDBRANCH   3   4
ENDBRANCH   2   3
TORSDOF 10
ENDMDL
MODEL       87
REMARK 921   NORMALIZED FREE ENERGY PREDICTED BY IDOCK:   -4.03 KCAL/MOL
REMARK 922        TOTAL FREE ENERGY PREDICTED BY IDOCK:   -8.75 KCAL/MOL
REMARK 923 INTER-LIGAND FREE ENERGY PREDICTED BY IDOCK:   -7.26 KCAL/MOL
REMARK 924 INTRA-LIGAND FREE ENERGY PREDICTED BY IDOCK:   -1.50 KCAL/MOL
REMARK 927      BINDING AFFINITY PREDICTED BY RF-SCORE:    0.00 PKD
ROOT
HETATM    1  C   UNL     1      -5.701  11.359  68.721  1.00  0.00    -0.042 C  
HETATM    2  C   UNL     1      -6.617  10.779  69.782  1.00  0.00    -0.128 C  
ENDROOT
BRANCH   2   3
HETATM    3  O   UNL     1      -6.570   9.343  69.717  1.00  0.00    -0.041 OA 
BRANCH   3   4
HETATM    4  C   UNL     1      -7.726   8.750  69.332  1.00  0.00    -0.093 C  
HETATM    5  O   UNL     1      -7.841   7.992  68.379  1.00  0.00    -0.117 OA 
BRANCH   4   6
HETATM    6  C   UNL     1      -8.860   9.139  70.204  1.00  0.00    -0.215 C  
HETATM    7  C   UNL     1      -9.115   8.400  71.311  1.00  0.00    -0.178 C  
HETATM    8  C   UNL     1      -8.243   7.308  71.889  1.00  0.00    -0.106 C  
HETATM    9  N   UNL     1     -10.280   8.617  72.026  1.00  0.00    -0.321 NA 
HETATM   10  C   UNL     1     -11.343   9.379  71.572  1.00  0.00    -0.394 C  
HETATM   11  C   UNL     1     -12.641   9.169  72.318  1.00  0.00    -0.425 C  
HETATM   12  C   UNL     1     -11.173  10.227  70.525  1.00  0.00    -0.408 C  
HETATM   13  C   UNL     1      -9.799  10.303  69.824  1.00  0.00    -0.201 C  
BRANCH  12  14
HETATM   14  C   UNL     1     -12.331  11.057  70.075  1.00  0.00    -0.305 C  
HETATM   15  O   UNL     1     -13.267  10.625  69.417  1.00  0.00     0.210 OA 
BRANCH  14  16
HETATM   16  O   UNL     1     -12.235  12.342  70.495  1.00  0.00    -0.360 OA 
BRANCH  16  17
HETATM   17  C   UNL     1     -13.067  12.677  71.622  1.00  0.00    -0.323 C  
HETATM   18  C   UNL     1     -12.882  14.123  72.064  1.00  0.00    -0.423 C  
ENDBRANCH  16  17
ENDBRANCH  14  16
ENDBRANCH  12  14
BRANCH  13  19
HETATM   19  C   UNL     1      -9.878  10.583  68.315  1.00  0.00    -0.162 A  
HETATM   20  C   UNL     1      -9.570  11.819  67.713  1.00  0.00    -0.184 A  
HETATM   21  C   UNL     1      -9.622  11.917  66.308  1.00  0.00    -0.243 A  
HETATM   22  C   UNL     1     -10.241   9.492  67.484  1.00  0.00    -0.283 A  
HETATM   23  C   UNL     1     -10.285   9.612  66.098  1.00  0.00    -0.276 A  
HETATM   24  C   UNL     1      -9.966  10.824  65.509  1.00  0.00    -0.321 A  
BRANCH  20  25
HETATM   25  C   UNL     1      -9.253  13.024  68.499  1.00  0.00    -0.062 C  
HETATM   26  C   UNL     1      -8.280  13.886  68.160  1.00  0.00    -0.158 C  
BRANCH  26  27
HETATM   27  C   UNL     1      -8.007  15.153  68.867  1.00  0.00    -0.178 C  
HETATM   28  O   UNL     1      -6.897  15.402  69.313  1.00  0.00    -0.132 OA 
BRANCH  27  29
HETATM   29  O   UNL     1      -9.104  15.940  68.922  1.00  0.00    -0.203 OA 
HETATM   30  C   UNL     1      -9.164  17.172  68.159  1.00  0.00    -0.261 C  
HETATM   31  C   UNL     1      -8.034  18.136  68.534  1.00  0.00    -0.312 C  
HETATM   32  C   UNL     1      -9.184  16.877  66.654  1.00  0.00    -0.278 C  
HETATM   33  C   UNL     1     -10.505  17.812  68.555  1.00  0.00    -0.332 C  
ENDBRANCH  27  29
ENDBRANCH  26  27
ENDBRANCH  20  25
ENDBRANCH  13  19
ENDBRANCH   4   6
ENDBRANCH   3   4
ENDBRANCH   2   3
TORSDOF 10
ENDMDL
MODEL       88
REMARK 921   NORMALIZED FREE ENERGY PREDICTED BY IDOCK:   -4.01 KCAL/MOL
REMARK 922        TOTAL FREE ENERGY PREDICTED BY IDOCK:   -8.72 KCAL/MOL
REMARK 923 INTER-LIGAND FREE ENERGY PREDICTED BY IDOCK:   -6.25 KCAL/MOL
REMARK 924 INTRA-LIGAND FREE ENERGY PREDICTED BY IDOCK:   -2.47 KCAL/MOL
REMARK 927      BINDING AFFINITY PREDICTED BY RF-SCORE:    0.00 PKD
ROOT
HETATM    1  C   UNL     1      -8.475   2.081  66.436  1.00  0.00    -0.102 C  
HETATM    2  C   UNL     1      -9.224   3.241  67.063  1.00  0.00    -0.180 C  
ENDROOT
BRANCH   2   3
HETATM    3  O   UNL     1      -8.487   3.725  68.200  1.00  0.00    -0.090 OA 
BRANCH   3   4
HETATM    4  C   UNL     1      -8.605   5.054  68.435  1.00  0.00    -0.097 C  
HETATM    5  O   UNL     1      -7.837   5.910  68.019  1.00  0.00    -0.102 OA 
BRANCH   4   6
HETATM    6  C   UNL     1      -9.786   5.360  69.278  1.00  0.00    -0.249 C  
HETATM    7  C   UNL     1     -10.827   6.029  68.725  1.00  0.00    -0.322 C  
HETATM    8  C   UNL     1     -11.021   6.345  67.259  1.00  0.00    -0.474 C  
HETATM    9  N   UNL     1     -11.844   6.501  69.535  1.00  0.00    -0.123 NA 
HETATM   10  C   UNL     1     -11.781   6.556  70.917  1.00  0.00    -0.356 C  
HETATM   11  C   UNL     1     -12.814   7.447  71.568  1.00  0.00    -0.416 C  
HETATM   12  C   UNL     1     -10.833   5.845  71.581  1.00  0.00    -0.321 C  
HETATM   13  C   UNL     1      -9.807   5.013  70.782  1.00  0.00    -0.279 C  
BRANCH  12  14
HETATM   14  C   UNL     1     -10.806   5.901  73.074  1.00  0.00    -0.267 C  
HETATM   15  O   UNL     1     -10.294   6.808  73.715  1.00  0.00    -0.306 OA 
BRANCH  14  16
HETATM   16  O   UNL     1     -11.431   4.839  73.638  1.00  0.00    -0.273 OA 
BRANCH  16  17
HETATM   17  C   UNL     1     -10.555   3.863  74.233  1.00  0.00    -0.206 C  
HETATM   18  C   UNL     1     -10.934   2.439  73.850  1.00  0.00    -0.274 C  
ENDBRANCH  16  17
ENDBRANCH  14  16
ENDBRANCH  12  14
BRANCH  13  19
HETATM   19  C   UNL     1      -8.416   4.937  71.431  1.00  0.00    -0.120 A  
HETATM   20  C   UNL     1      -7.590   6.049  71.685  1.00  0.00    -0.100 A  
HETATM   21  C   UNL     1      -6.363   5.842  72.348  1.00  0.00    -0.053 A  
HETATM   22  C   UNL     1      -7.975   3.653  71.841  1.00  0.00    -0.063 A  
HETATM   23  C   UNL     1      -6.760   3.471  72.495  1.00  0.00    -0.029 A  
HETATM   24  C   UNL     1      -5.957   4.569  72.757  1.00  0.00    -0.016 A  
BRANCH  20  25
HETATM   25  C   UNL     1      -7.933   7.409  71.233  1.00  0.00    -0.096 C  
HETATM   26  C   UNL     1      -7.080   8.193  70.554  1.00  0.00    -0.041 C  
BRANCH  26  27
HETATM   27  C   UNL     1      -7.428   9.516  69.999  1.00  0.00    -0.126 C  
HETATM   28  O   UNL     1      -7.053  10.547  70.537  1.00  0.00    -0.278 OA 
BRANCH  27  29
HETATM   29  O   UNL     1      -8.165   9.406  68.872  1.00  0.00    -0.107 OA 
HETATM   30  C   UNL     1      -9.385  10.175  68.713  1.00  0.00    -0.168 C  
HETATM   31  C   UNL     1     -10.403   9.869  69.817  1.00  0.00    -0.278 C  
HETATM   32  C   UNL     1      -9.074  11.673  68.625  1.00  0.00    -0.103 C  
HETATM   33  C   UNL     1      -9.968   9.710  67.369  1.00  0.00    -0.237 C  
ENDBRANCH  27  29
ENDBRANCH  26  27
ENDBRANCH  20  25
ENDBRANCH  13  19
ENDBRANCH   4   6
ENDBRANCH   3   4
ENDBRANCH   2   3
TORSDOF 10
ENDMDL
MODEL       89
REMARK 921   NORMALIZED FREE ENERGY PREDICTED BY IDOCK:   -3.96 KCAL/MOL
REMARK 922        TOTAL FREE ENERGY PREDICTED BY IDOCK:   -8.64 KCAL/MOL
REMARK 923 INTER-LIGAND FREE ENERGY PREDICTED BY IDOCK:   -6.48 KCAL/MOL
REMARK 924 INTRA-LIGAND FREE ENERGY PREDICTED BY IDOCK:   -2.16 KCAL/MOL
REMARK 927      BINDING AFFINITY PREDICTED BY RF-SCORE:    0.00 PKD
ROOT
HETATM    1  C   UNL     1     -12.340   6.985  70.969  1.00  0.00    -0.402 C  
HETATM    2  C   UNL     1     -11.155   7.483  71.773  1.00  0.00    -0.241 C  
ENDROOT
BRANCH   2   3
HETATM    3  O   UNL     1     -10.182   8.057  70.882  1.00  0.00    -0.191 OA 
BRANCH   3   4
HETATM    4  C   UNL     1      -9.077   7.300  70.677  1.00  0.00    -0.157 C  
HETATM    5  O   UNL     1      -8.239   7.038  71.528  1.00  0.00    -0.107 OA 
BRANCH   4   6
HETATM    6  C   UNL     1      -8.991   6.823  69.276  1.00  0.00    -0.137 C  
HETATM    7  C   UNL     1      -9.273   5.524  69.010  1.00  0.00    -0.119 C  
HETATM    8  C   UNL     1      -9.869   4.515  69.966  1.00  0.00    -0.296 C  
HETATM    9  N   UNL     1      -9.006   5.009  67.754  1.00  0.00    -0.110 NA 
HETATM   10  C   UNL     1      -8.245   5.651  66.792  1.00  0.00    -0.105 C  
HETATM   11  C   UNL     1      -7.760   4.767  65.667  1.00  0.00    -0.090 C  
HETATM   12  C   UNL     1      -7.981   6.979  66.911  1.00  0.00    -0.115 C  
HETATM   13  C   UNL     1      -8.500   7.750  68.144  1.00  0.00    -0.124 C  
BRANCH  12  14
HETATM   14  C   UNL     1      -7.181   7.652  65.844  1.00  0.00    -0.069 C  
HETATM   15  O   UNL     1      -5.966   7.790  65.884  1.00  0.00    -0.037 OA 
BRANCH  14  16
HETATM   16  O   UNL     1      -7.954   8.078  64.815  1.00  0.00    -0.130 OA 
BRANCH  16  17
HETATM   17  C   UNL     1      -8.274   9.482  64.835  1.00  0.00    -0.140 C  
HETATM   18  C   UNL     1      -9.769   9.730  64.992  1.00  0.00    -0.303 C  
ENDBRANCH  16  17
ENDBRANCH  14  16
ENDBRANCH  12  14
BRANCH  13  19
HETATM   19  C   UNL     1      -7.574   8.883  68.613  1.00  0.00    -0.096 A  
HETATM   20  C   UNL     1      -7.958  10.233  68.731  1.00  0.00    -0.113 A  
HETATM   21  C   UNL     1      -7.024  11.159  69.238  1.00  0.00    -0.118 A  
HETATM   22  C   UNL     1      -6.260   8.513  68.996  1.00  0.00    -0.044 A  
HETATM   23  C   UNL     1      -5.354   9.443  69.495  1.00  0.00    -0.035 A  
HETATM   24  C   UNL     1      -5.740  10.767  69.625  1.00  0.00    -0.044 A  
BRANCH  20  25
HETATM   25  C   UNL     1      -9.277  10.722  68.291  1.00  0.00    -0.157 C  
HETATM   26  C   UNL     1      -9.502  11.994  67.924  1.00  0.00    -0.196 C  
BRANCH  26  27
HETATM   27  C   UNL     1     -10.783  12.488  67.381  1.00  0.00    -0.229 C  
HETATM   28  O   UNL     1     -11.799  11.813  67.443  1.00  0.00    -0.590 OA 
BRANCH  27  29
HETATM   29  O   UNL     1     -10.657  13.726  66.855  1.00  0.00    -0.273 OA 
HETATM   30  C   UNL     1     -11.165  14.016  65.526  1.00  0.00    -0.311 C  
HETATM   31  C   UNL     1     -10.520  13.126  64.459  1.00  0.00    -0.425 C  
HETATM   32  C   UNL     1     -12.695  13.921  65.498  1.00  0.00    -0.536 C  
HETATM   33  C   UNL     1     -10.754  15.473  65.260  1.00  0.00    -0.440 C  
ENDBRANCH  27  29
ENDBRANCH  26  27
ENDBRANCH  20  25
ENDBRANCH  13  19
ENDBRANCH   4   6
ENDBRANCH   3   4
ENDBRANCH   2   3
TORSDOF 10
ENDMDL
MODEL       90
REMARK 921   NORMALIZED FREE ENERGY PREDICTED BY IDOCK:   -3.96 KCAL/MOL
REMARK 922        TOTAL FREE ENERGY PREDICTED BY IDOCK:   -8.64 KCAL/MOL
REMARK 923 INTER-LIGAND FREE ENERGY PREDICTED BY IDOCK:   -6.86 KCAL/MOL
REMARK 924 INTRA-LIGAND FREE ENERGY PREDICTED BY IDOCK:   -1.78 KCAL/MOL
REMARK 927      BINDING AFFINITY PREDICTED BY RF-SCORE:    0.00 PKD
ROOT
HETATM    1  C   UNL     1      -9.575  10.169  64.827  1.00  0.00    -0.378 C  
HETATM    2  C   UNL     1      -9.401   8.849  65.553  1.00  0.00    -0.145 C  
ENDROOT
BRANCH   2   3
HETATM    3  O   UNL     1     -10.533   8.625  66.412  1.00  0.00    -0.205 OA 
BRANCH   3   4
HETATM    4  C   UNL     1     -10.435   7.539  67.215  1.00  0.00    -0.321 C  
HETATM    5  O   UNL     1     -11.277   6.656  67.306  1.00  0.00    -0.366 OA 
BRANCH   4   6
HETATM    6  C   UNL     1      -9.174   7.545  67.995  1.00  0.00    -0.137 C  
HETATM    7  C   UNL     1      -8.328   6.492  67.876  1.00  0.00    -0.115 C  
HETATM    8  C   UNL     1      -8.422   5.367  66.871  1.00  0.00    -0.107 C  
HETATM    9  N   UNL     1      -7.252   6.379  68.739  1.00  0.00    -0.082 NA 
HETATM   10  C   UNL     1      -7.088   7.135  69.887  1.00  0.00    -0.073 C  
HETATM   11  C   UNL     1      -6.075   6.593  70.868  1.00  0.00    -0.028 C  
HETATM   12  C   UNL     1      -7.820   8.265  70.065  1.00  0.00    -0.104 C  
HETATM   13  C   UNL     1      -8.860   8.674  68.999  1.00  0.00    -0.138 C  
BRANCH  12  14
HETATM   14  C   UNL     1      -7.603   9.076  71.301  1.00  0.00    -0.070 C  
HETATM   15  O   UNL     1      -8.324   9.028  72.287  1.00  0.00    -0.354 OA 
BRANCH  14  16
HETATM   16  O   UNL     1      -6.501   9.861  71.212  1.00  0.00    -0.299 OA 
BRANCH  16  17
HETATM   17  C   UNL     1      -6.550  10.865  70.180  1.00  0.00    -0.120 C  
HETATM   18  C   UNL     1      -5.352  10.787  69.243  1.00  0.00    -0.041 C  
ENDBRANCH  16  17
ENDBRANCH  14  16
ENDBRANCH  12  14
BRANCH  13  19
HETATM   19  C   UNL     1     -10.102   9.376  69.569  1.00  0.00    -0.214 A  
HETATM   20  C   UNL     1     -11.006   8.790  70.477  1.00  0.00    -0.272 A  
HETATM   21  C   UNL     1     -12.069   9.573  70.971  1.00  0.00    -0.398 A  
HETATM   22  C   UNL     1     -10.308  10.724  69.177  1.00  0.00    -0.238 A  
HETATM   23  C   UNL     1     -11.364  11.478  69.678  1.00  0.00    -0.329 A  
HETATM   24  C   UNL     1     -12.241  10.904  70.584  1.00  0.00    -0.472 A  
BRANCH  20  25
HETATM   25  C   UNL     1     -10.913   7.378  70.885  1.00  0.00    -0.271 C  
HETATM   26  C   UNL     1     -10.815   6.989  72.167  1.00  0.00    -0.255 C  
BRANCH  26  27
HETATM   27  C   UNL     1     -10.826   5.582  72.613  1.00  0.00    -0.257 C  
HETATM   28  O   UNL     1     -11.857   5.045  72.989  1.00  0.00    -0.269 OA 
BRANCH  27  29
HETATM   29  O   UNL     1      -9.599   5.022  72.529  1.00  0.00    -0.144 OA 
HETATM   30  C   UNL     1      -9.398   3.801  71.770  1.00  0.00    -0.131 C  
HETATM   31  C   UNL     1     -10.262   2.651  72.296  1.00  0.00    -0.195 C  
HETATM   32  C   UNL     1      -9.627   4.048  70.275  1.00  0.00    -0.271 C  
HETATM   33  C   UNL     1      -7.919   3.443  71.992  1.00  0.00    -0.063 C  
ENDBRANCH  27  29
ENDBRANCH  26  27
ENDBRANCH  20  25
ENDBRANCH  13  19
ENDBRANCH   4   6
ENDBRANCH   3   4
ENDBRANCH   2   3
TORSDOF 10
ENDMDL
MODEL       91
REMARK 921   NORMALIZED FREE ENERGY PREDICTED BY IDOCK:   -3.94 KCAL/MOL
REMARK 922        TOTAL FREE ENERGY PREDICTED BY IDOCK:   -8.60 KCAL/MOL
REMARK 923 INTER-LIGAND FREE ENERGY PREDICTED BY IDOCK:   -6.11 KCAL/MOL
REMARK 924 INTRA-LIGAND FREE ENERGY PREDICTED BY IDOCK:   -2.49 KCAL/MOL
REMARK 927      BINDING AFFINITY PREDICTED BY RF-SCORE:    0.00 PKD
ROOT
HETATM    1  C   UNL     1      -7.286   8.890  66.166  1.00  0.00    -0.090 C  
HETATM    2  C   UNL     1      -6.256   7.966  66.786  1.00  0.00    -0.053 C  
ENDROOT
BRANCH   2   3
HETATM    3  O   UNL     1      -6.866   7.224  67.857  1.00  0.00    -0.065 OA 
BRANCH   3   4
HETATM    4  C   UNL     1      -6.685   7.751  69.093  1.00  0.00    -0.048 C  
HETATM    5  O   UNL     1      -5.884   8.634  69.368  1.00  0.00    -0.034 OA 
BRANCH   4   6
HETATM    6  C   UNL     1      -7.576   7.119  70.095  1.00  0.00    -0.091 C  
HETATM    7  C   UNL     1      -7.228   5.914  70.609  1.00  0.00    -0.083 C  
HETATM    8  C   UNL     1      -5.908   5.201  70.426  1.00  0.00    -0.017 C  
HETATM    9  N   UNL     1      -8.135   5.215  71.386  1.00  0.00    -0.111 NA 
HETATM   10  C   UNL     1      -9.477   5.533  71.498  1.00  0.00    -0.148 C  
HETATM   11  C   UNL     1     -10.348   4.438  72.069  1.00  0.00    -0.189 C  
HETATM   12  C   UNL     1      -9.920   6.754  71.099  1.00  0.00    -0.194 C  
HETATM   13  C   UNL     1      -8.924   7.762  70.486  1.00  0.00    -0.150 C  
BRANCH  12  14
HETATM   14  C   UNL     1     -11.369   7.081  71.257  1.00  0.00    -0.274 C  
HETATM   15  O   UNL     1     -12.258   6.600  70.569  1.00  0.00    -0.364 OA 
BRANCH  14  16
HETATM   16  O   UNL     1     -11.590   7.960  72.265  1.00  0.00    -0.305 OA 
BRANCH  16  17
HETATM   17  C   UNL     1     -12.192   9.206  71.865  1.00  0.00    -0.379 C  
HETATM   18  C   UNL     1     -13.660   9.290  72.263  1.00  0.00    -0.544 C  
ENDBRANCH  16  17
ENDBRANCH  14  16
ENDBRANCH  12  14
BRANCH  13  19
HETATM   19  C   UNL     1      -9.530   8.665  69.401  1.00  0.00    -0.161 A  
HETATM   20  C   UNL     1     -10.204   8.197  68.255  1.00  0.00    -0.245 A  
HETATM   21  C   UNL     1     -10.770   9.140  67.373  1.00  0.00    -0.247 A  
HETATM   22  C   UNL     1      -9.437  10.065  69.612  1.00  0.00    -0.247 A  
HETATM   23  C   UNL     1     -10.004  10.977  68.728  1.00  0.00    -0.215 A  
HETATM   24  C   UNL     1     -10.680  10.514  67.611  1.00  0.00    -0.324 A  
BRANCH  20  25
HETATM   25  C   UNL     1     -10.289   6.766  67.917  1.00  0.00    -0.236 C  
HETATM   26  C   UNL     1      -9.946   6.275  66.715  1.00  0.00    -0.220 C  
BRANCH  26  27
HETATM   27  C   UNL     1      -9.921   4.838  66.380  1.00  0.00    -0.241 C  
HETATM   28  O   UNL     1     -10.004   4.457  65.221  1.00  0.00    -0.193 OA 
BRANCH  27  29
HETATM   29  O   UNL     1      -9.787   4.070  67.483  1.00  0.00    -0.163 OA 
HETATM   30  C   UNL     1      -8.759   3.048  67.547  1.00  0.00    -0.119 C  
HETATM   31  C   UNL     1      -8.907   2.013  66.427  1.00  0.00    -0.126 C  
HETATM   32  C   UNL     1      -7.363   3.683  67.553  1.00  0.00    -0.066 C  
HETATM   33  C   UNL     1      -8.988   2.346  68.895  1.00  0.00    -0.170 C  
ENDBRANCH  27  29
ENDBRANCH  26  27
ENDBRANCH  20  25
ENDBRANCH  13  19
ENDBRANCH   4   6
ENDBRANCH   3   4
ENDBRANCH   2   3
TORSDOF 10
ENDMDL
MODEL       92
REMARK 921   NORMALIZED FREE ENERGY PREDICTED BY IDOCK:   -3.93 KCAL/MOL
REMARK 922        TOTAL FREE ENERGY PREDICTED BY IDOCK:   -8.59 KCAL/MOL
REMARK 923 INTER-LIGAND FREE ENERGY PREDICTED BY IDOCK:   -7.48 KCAL/MOL
REMARK 924 INTRA-LIGAND FREE ENERGY PREDICTED BY IDOCK:   -1.11 KCAL/MOL
REMARK 927      BINDING AFFINITY PREDICTED BY RF-SCORE:    0.00 PKD
ROOT
HETATM    1  C   UNL     1     -10.641  19.555  67.037  1.00  0.00    -0.607 C  
HETATM    2  C   UNL     1     -10.823  18.708  65.793  1.00  0.00    -0.044 C  
ENDROOT
BRANCH   2   3
HETATM    3  O   UNL     1     -10.874  17.319  66.166  1.00  0.00    -0.153 OA 
BRANCH   3   4
HETATM    4  C   UNL     1     -10.907  16.449  65.128  1.00  0.00    -0.275 C  
HETATM    5  O   UNL     1     -11.348  16.702  64.015  1.00  0.00    -1.120 OA 
BRANCH   4   6
HETATM    6  C   UNL     1     -10.349  15.127  65.501  1.00  0.00    -0.399 C  
HETATM    7  C   UNL     1     -11.160  14.042  65.464  1.00  0.00    -0.309 C  
HETATM    8  C   UNL     1     -12.556  13.978  64.887  1.00  0.00    -0.369 C  
HETATM    9  N   UNL     1     -10.723  12.843  65.998  1.00  0.00    -0.274 NA 
HETATM   10  C   UNL     1      -9.598  12.705  66.792  1.00  0.00    -0.241 C  
HETATM   11  C   UNL     1      -9.522  11.415  67.574  1.00  0.00    -0.173 C  
HETATM   12  C   UNL     1      -8.669  13.696  66.831  1.00  0.00    -0.162 C  
HETATM   13  C   UNL     1      -8.900  14.987  66.015  1.00  0.00     0.109 C  
BRANCH  12  14
HETATM   14  C   UNL     1      -7.451  13.509  67.675  1.00  0.00    -0.181 C  
HETATM   15  O   UNL     1      -6.353  13.200  67.234  1.00  0.00    -0.270 OA 
BRANCH  14  16
HETATM   16  O   UNL     1      -7.697  13.740  68.988  1.00  0.00    -0.066 OA 
BRANCH  16  17
HETATM   17  C   UNL     1      -6.528  13.789  69.827  1.00  0.00    -0.079 C  
HETATM   18  C   UNL     1      -5.886  15.170  69.840  1.00  0.00    -0.130 C  
ENDBRANCH  16  17
ENDBRANCH  14  16
ENDBRANCH  12  14
BRANCH  13  19
HETATM   19  C   UNL     1      -8.339  16.257  66.675  1.00  0.00    -0.315 A  
HETATM   20  C   UNL     1      -8.721  16.735  67.944  1.00  0.00    -0.203 A  
HETATM   21  C   UNL     1      -8.076  17.878  68.457  1.00  0.00    -0.305 A  
HETATM   22  C   UNL     1      -7.331  16.953  65.960  1.00  0.00     0.013 A  
HETATM   23  C   UNL     1      -6.707  18.079  66.486  1.00  0.00    -0.243 A  
HETATM   24  C   UNL     1      -7.074  18.538  67.741  1.00  0.00    -0.222 A  
BRANCH  20  25
HETATM   25  C   UNL     1      -9.807  16.120  68.726  1.00  0.00    -0.230 C  
HETATM   26  C   UNL     1      -9.879  16.194  70.065  1.00  0.00     0.233 C  
BRANCH  26  27
HETATM   27  C   UNL     1     -11.006  15.679  70.868  1.00  0.00    -0.272 C  
HETATM   28  O   UNL     1     -11.725  16.434  71.505  1.00  0.00    -0.448 OA 
BRANCH  27  29
HETATM   29  O   UNL     1     -11.111  14.335  70.777  1.00  0.00     0.089 OA 
HETATM   30  C   UNL     1     -12.322  13.726  70.262  1.00  0.00    -0.337 C  
HETATM   31  C   UNL     1     -13.554  14.108  71.089  1.00  0.00    -0.254 C  
HETATM   32  C   UNL     1     -12.508  14.059  68.777  1.00  0.00     0.150 C  
HETATM   33  C   UNL     1     -12.089  12.213  70.404  1.00  0.00    -0.395 C  
ENDBRANCH  27  29
ENDBRANCH  26  27
ENDBRANCH  20  25
ENDBRANCH  13  19
ENDBRANCH   4   6
ENDBRANCH   3   4
ENDBRANCH   2   3
TORSDOF 10
ENDMDL
MODEL       93
REMARK 921   NORMALIZED FREE ENERGY PREDICTED BY IDOCK:   -3.92 KCAL/MOL
REMARK 922        TOTAL FREE ENERGY PREDICTED BY IDOCK:   -8.58 KCAL/MOL
REMARK 923 INTER-LIGAND FREE ENERGY PREDICTED BY IDOCK:   -7.28 KCAL/MOL
REMARK 924 INTRA-LIGAND FREE ENERGY PREDICTED BY IDOCK:   -1.30 KCAL/MOL
REMARK 927      BINDING AFFINITY PREDICTED BY RF-SCORE:    0.00 PKD
ROOT
HETATM    1  C   UNL     1      -9.037   7.146  73.786  1.00  0.00    -0.238 C  
HETATM    2  C   UNL     1      -9.205   8.284  72.798  1.00  0.00    -0.266 C  
ENDROOT
BRANCH   2   3
HETATM    3  O   UNL     1     -10.607   8.537  72.597  1.00  0.00    -0.304 OA 
BRANCH   3   4
HETATM    4  C   UNL     1     -10.923   9.076  71.395  1.00  0.00    -0.324 C  
HETATM    5  O   UNL     1     -11.252  10.240  71.213  1.00  0.00    -0.216 OA 
BRANCH   4   6
HETATM    6  C   UNL     1     -10.836   8.075  70.304  1.00  0.00    -0.241 C  
HETATM    7  C   UNL     1     -11.441   6.874  70.471  1.00  0.00    -0.342 C  
HETATM    8  C   UNL     1     -12.384   6.484  71.586  1.00  0.00    -0.315 C  
HETATM    9  N   UNL     1     -11.204   5.857  69.562  1.00  0.00    -0.346 NA 
HETATM   10  C   UNL     1     -10.204   5.882  68.606  1.00  0.00    -0.192 C  
HETATM   11  C   UNL     1      -9.876   4.540  67.992  1.00  0.00    -0.154 C  
HETATM   12  C   UNL     1      -9.594   7.054  68.291  1.00  0.00    -0.134 C  
HETATM   13  C   UNL     1      -9.998   8.345  69.036  1.00  0.00    -0.194 C  
BRANCH  12  14
HETATM   14  C   UNL     1      -8.538   7.056  67.235  1.00  0.00    -0.121 C  
HETATM   15  O   UNL     1      -8.689   7.525  66.116  1.00  0.00    -0.144 OA 
BRANCH  14  16
HETATM   16  O   UNL     1      -7.383   6.492  67.665  1.00  0.00    -0.090 OA 
BRANCH  16  17
HETATM   17  C   UNL     1      -6.530   5.979  66.623  1.00  0.00    -0.050 C  
HETATM   18  C   UNL     1      -6.359   4.469  66.711  1.00  0.00    -0.037 C  
ENDBRANCH  16  17
ENDBRANCH  14  16
ENDBRANCH  12  14
BRANCH  13  19
HETATM   19  C   UNL     1      -8.844   9.339  69.242  1.00  0.00    -0.146 A  
HETATM   20  C   UNL     1      -8.867  10.687  68.832  1.00  0.00    -0.160 A  
HETATM   21  C   UNL     1      -7.763  11.506  69.145  1.00  0.00     0.030 A  
HETATM   22  C   UNL     1      -7.707   8.858  69.940  1.00  0.00    -0.076 A  
HETATM   23  C   UNL     1      -6.628   9.685  70.238  1.00  0.00    -0.091 A  
HETATM   24  C   UNL     1      -6.660  11.014  69.848  1.00  0.00    -0.142 A  
BRANCH  20  25
HETATM   25  C   UNL     1      -9.972  11.255  68.041  1.00  0.00    -0.191 C  
HETATM   26  C   UNL     1     -10.651  12.352  68.412  1.00  0.00    -0.251 C  
BRANCH  26  27
HETATM   27  C   UNL     1     -11.691  13.004  67.592  1.00  0.00    -0.366 C  
HETATM   28  O   UNL     1     -12.170  14.080  67.917  1.00  0.00    -0.319 OA 
BRANCH  27  29
HETATM   29  O   UNL     1     -11.994  12.273  66.497  1.00  0.00    -0.596 OA 
HETATM   30  C   UNL     1     -11.833  12.837  65.170  1.00  0.00    -0.391 C  
HETATM   31  C   UNL     1     -12.674  14.103  64.978  1.00  0.00    -0.336 C  
HETATM   32  C   UNL     1     -10.352  13.086  64.862  1.00  0.00    -0.343 C  
HETATM   33  C   UNL     1     -12.360  11.752  64.217  1.00  0.00    -0.195 C  
ENDBRANCH  27  29
ENDBRANCH  26  27
ENDBRANCH  20  25
ENDBRANCH  13  19
ENDBRANCH   4   6
ENDBRANCH   3   4
ENDBRANCH   2   3
TORSDOF 10
ENDMDL
MODEL       94
REMARK 921   NORMALIZED FREE ENERGY PREDICTED BY IDOCK:   -3.90 KCAL/MOL
REMARK 922        TOTAL FREE ENERGY PREDICTED BY IDOCK:   -8.55 KCAL/MOL
REMARK 923 INTER-LIGAND FREE ENERGY PREDICTED BY IDOCK:   -6.19 KCAL/MOL
REMARK 924 INTRA-LIGAND FREE ENERGY PREDICTED BY IDOCK:   -2.36 KCAL/MOL
REMARK 927      BINDING AFFINITY PREDICTED BY RF-SCORE:    0.00 PKD
ROOT
HETATM    1  C   UNL     1      -9.121   3.023  65.517  1.00  0.00    -0.150 C  
HETATM    2  C   UNL     1      -9.914   4.315  65.560  1.00  0.00    -0.225 C  
ENDROOT
BRANCH   2   3
HETATM    3  O   UNL     1     -10.058   4.740  66.927  1.00  0.00    -0.206 OA 
BRANCH   3   4
HETATM    4  C   UNL     1     -10.424   6.035  67.087  1.00  0.00    -0.264 C  
HETATM    5  O   UNL     1     -11.411   6.552  66.583  1.00  0.00    -0.171 OA 
BRANCH   4   6
HETATM    6  C   UNL     1      -9.469   6.772  67.950  1.00  0.00    -0.118 C  
HETATM    7  C   UNL     1      -9.842   7.087  69.215  1.00  0.00    -0.159 C  
HETATM    8  C   UNL     1     -11.074   6.598  69.942  1.00  0.00    -0.403 C  
HETATM    9  N   UNL     1      -9.057   7.943  69.966  1.00  0.00    -0.152 NA 
HETATM   10  C   UNL     1      -8.023   8.708  69.452  1.00  0.00    -0.102 C  
HETATM   11  C   UNL     1      -7.564   9.840  70.343  1.00  0.00    -0.165 C  
HETATM   12  C   UNL     1      -7.508   8.420  68.229  1.00  0.00    -0.096 C  
HETATM   13  C   UNL     1      -8.110   7.261  67.404  1.00  0.00    -0.113 C  
BRANCH  12  14
HETATM   14  C   UNL     1      -6.375   9.244  67.712  1.00  0.00    -0.059 C  
HETATM   15  O   UNL     1      -5.207   8.884  67.720  1.00  0.00    -0.034 OA 
BRANCH  14  16
HETATM   16  O   UNL     1      -6.793  10.433  67.213  1.00  0.00    -0.078 OA 
BRANCH  16  17
HETATM   17  C   UNL     1      -5.742  11.304  66.752  1.00  0.00    -0.120 C  
HETATM   18  C   UNL     1      -5.734  12.638  67.486  1.00  0.00    -0.131 C  
ENDBRANCH  16  17
ENDBRANCH  14  16
ENDBRANCH  12  14
BRANCH  13  19
HETATM   19  C   UNL     1      -8.087   7.491  65.885  1.00  0.00    -0.127 A  
HETATM   20  C   UNL     1      -8.759   8.538  65.224  1.00  0.00    -0.175 A  
HETATM   21  C   UNL     1      -8.597   8.670  63.830  1.00  0.00    -0.019 A  
HETATM   22  C   UNL     1      -7.285   6.606  65.120  1.00  0.00    -0.074 A  
HETATM   23  C   UNL     1      -7.139   6.756  63.745  1.00  0.00    -0.060 A  
HETATM   24  C   UNL     1      -7.789   7.796  63.100  1.00  0.00    -0.135 A  
BRANCH  20  25
HETATM   25  C   UNL     1      -9.669   9.461  65.925  1.00  0.00    -0.355 C  
HETATM   26  C   UNL     1     -10.143  10.587  65.369  1.00  0.00    -0.358 C  
BRANCH  26  27
HETATM   27  C   UNL     1     -11.134  11.476  66.005  1.00  0.00    -0.230 C  
HETATM   28  O   UNL     1     -11.636  12.407  65.391  1.00  0.00    -0.350 OA 
BRANCH  27  29
HETATM   29  O   UNL     1     -11.388  11.110  67.281  1.00  0.00    -0.397 OA 
HETATM   30  C   UNL     1     -10.982  11.960  68.384  1.00  0.00    -0.232 C  
HETATM   31  C   UNL     1      -9.469  12.204  68.394  1.00  0.00    -0.179 C  
HETATM   32  C   UNL     1     -11.770  13.275  68.374  1.00  0.00    -0.389 C  
HETATM   33  C   UNL     1     -11.357  11.168  69.647  1.00  0.00    -0.366 C  
ENDBRANCH  27  29
ENDBRANCH  26  27
ENDBRANCH  20  25
ENDBRANCH  13  19
ENDBRANCH   4   6
ENDBRANCH   3   4
ENDBRANCH   2   3
TORSDOF 10
ENDMDL
MODEL       95
REMARK 921   NORMALIZED FREE ENERGY PREDICTED BY IDOCK:   -3.89 KCAL/MOL
REMARK 922        TOTAL FREE ENERGY PREDICTED BY IDOCK:   -8.54 KCAL/MOL
REMARK 923 INTER-LIGAND FREE ENERGY PREDICTED BY IDOCK:   -6.96 KCAL/MOL
REMARK 924 INTRA-LIGAND FREE ENERGY PREDICTED BY IDOCK:   -1.58 KCAL/MOL
REMARK 927      BINDING AFFINITY PREDICTED BY RF-SCORE:    0.00 PKD
ROOT
HETATM    1  C   UNL     1      -6.108  13.240  67.696  1.00  0.00    -0.140 C  
HETATM    2  C   UNL     1      -6.576  12.446  68.900  1.00  0.00    -0.095 C  
ENDROOT
BRANCH   2   3
HETATM    3  O   UNL     1      -5.705  11.317  69.093  1.00  0.00    -0.041 OA 
BRANCH   3   4
HETATM    4  C   UNL     1      -6.297  10.107  68.946  1.00  0.00    -0.044 C  
HETATM    5  O   UNL     1      -6.036   9.301  68.064  1.00  0.00    -0.049 OA 
BRANCH   4   6
HETATM    6  C   UNL     1      -7.324   9.869  69.989  1.00  0.00    -0.159 C  
HETATM    7  C   UNL     1      -6.922   9.484  71.225  1.00  0.00     0.117 C  
HETATM    8  C   UNL     1      -5.502   9.451  71.743  1.00  0.00    -0.073 C  
HETATM    9  N   UNL     1      -7.861   9.062  72.149  1.00  0.00    -0.326 NA 
HETATM   10  C   UNL     1      -9.180   8.770  71.846  1.00  0.00    -0.250 C  
HETATM   11  C   UNL     1      -9.915   7.970  72.896  1.00  0.00    -0.360 C  
HETATM   12  C   UNL     1      -9.715   9.193  70.671  1.00  0.00    -0.314 C  
HETATM   13  C   UNL     1      -8.830   9.962  69.665  1.00  0.00    -0.224 C  
BRANCH  12  14
HETATM   14  C   UNL     1     -11.148   8.888  70.381  1.00  0.00    -0.239 C  
HETATM   15  O   UNL     1     -11.590   7.758  70.227  1.00  0.00    -0.181 OA 
BRANCH  14  16
HETATM   16  O   UNL     1     -11.909  10.008  70.327  1.00  0.00    -0.252 OA 
BRANCH  16  17
HETATM   17  C   UNL     1     -12.452  10.437  71.590  1.00  0.00    -0.370 C  
HETATM   18  C   UNL     1     -13.214   9.324  72.298  1.00  0.00    -0.535 C  
ENDBRANCH  16  17
ENDBRANCH  14  16
ENDBRANCH  12  14
BRANCH  13  19
HETATM   19  C   UNL     1      -9.176   9.696  68.192  1.00  0.00    -0.130 A  
HETATM   20  C   UNL     1      -9.503  10.694  67.254  1.00  0.00    -0.178 A  
HETATM   21  C   UNL     1      -9.734  10.315  65.916  1.00  0.00    -0.283 A  
HETATM   22  C   UNL     1      -9.106   8.348  67.755  1.00  0.00    -0.142 A  
HETATM   23  C   UNL     1      -9.338   7.996  66.429  1.00  0.00    -0.259 A  
HETATM   24  C   UNL     1      -9.643   8.982  65.506  1.00  0.00    -0.166 A  
BRANCH  20  25
HETATM   25  C   UNL     1      -9.668  12.109  67.630  1.00  0.00    -0.188 C  
HETATM   26  C   UNL     1      -9.760  13.101  66.730  1.00  0.00    -0.246 C  
BRANCH  26  27
HETATM   27  C   UNL     1     -10.029  14.512  67.071  1.00  0.00    -0.255 C  
HETATM   28  O   UNL     1      -9.692  15.419  66.325  1.00  0.00    -0.257 OA 
BRANCH  27  29
HETATM   29  O   UNL     1     -10.675  14.626  68.252  1.00  0.00    -0.232 OA 
HETATM   30  C   UNL     1     -10.303  15.662  69.198  1.00  0.00    -0.241 C  
HETATM   31  C   UNL     1      -8.835  15.550  69.622  1.00  0.00    -0.140 C  
HETATM   32  C   UNL     1     -10.629  17.051  68.636  1.00  0.00    -0.362 C  
HETATM   33  C   UNL     1     -11.188  15.405  70.428  1.00  0.00    -0.345 C  
ENDBRANCH  27  29
ENDBRANCH  26  27
ENDBRANCH  20  25
ENDBRANCH  13  19
ENDBRANCH   4   6
ENDBRANCH   3   4
ENDBRANCH   2   3
TORSDOF 10
ENDMDL
MODEL       96
REMARK 921   NORMALIZED FREE ENERGY PREDICTED BY IDOCK:   -3.89 KCAL/MOL
REMARK 922        TOTAL FREE ENERGY PREDICTED BY IDOCK:   -8.54 KCAL/MOL
REMARK 923 INTER-LIGAND FREE ENERGY PREDICTED BY IDOCK:   -6.77 KCAL/MOL
REMARK 924 INTRA-LIGAND FREE ENERGY PREDICTED BY IDOCK:   -1.77 KCAL/MOL
REMARK 927      BINDING AFFINITY PREDICTED BY RF-SCORE:    0.00 PKD
ROOT
HETATM    1  C   UNL     1     -12.449  12.333  70.893  1.00  0.00    -0.371 C  
HETATM    2  C   UNL     1     -11.966  13.196  69.744  1.00  0.00    -0.314 C  
ENDROOT
BRANCH   2   3
HETATM    3  O   UNL     1     -10.848  12.555  69.104  1.00  0.00    -0.189 OA 
BRANCH   3   4
HETATM    4  C   UNL     1     -10.123  13.355  68.284  1.00  0.00    -0.247 C  
HETATM    5  O   UNL     1      -9.839  14.522  68.515  1.00  0.00    -0.219 OA 
BRANCH   4   6
HETATM    6  C   UNL     1      -9.715  12.647  67.047  1.00  0.00    -0.225 C  
HETATM    7  C   UNL     1     -10.665  12.332  66.133  1.00  0.00    -0.261 C  
HETATM    8  C   UNL     1     -12.103  12.796  66.127  1.00  0.00    -0.429 C  
HETATM    9  N   UNL     1     -10.345  11.499  65.074  1.00  0.00    -0.267 NA 
HETATM   10  C   UNL     1      -9.180  10.755  64.990  1.00  0.00    -0.211 C  
HETATM   11  C   UNL     1      -9.207   9.641  63.969  1.00  0.00    -0.202 C  
HETATM   12  C   UNL     1      -8.128  11.048  65.797  1.00  0.00    -0.038 C  
HETATM   13  C   UNL     1      -8.257  12.187  66.833  1.00  0.00    -0.134 C  
BRANCH  12  14
HETATM   14  C   UNL     1      -6.874  10.247  65.665  1.00  0.00    -0.133 C  
HETATM   15  O   UNL     1      -5.861  10.648  65.109  1.00  0.00    -0.134 OA 
BRANCH  14  16
HETATM   16  O   UNL     1      -6.980   9.030  66.250  1.00  0.00    -0.077 OA 
BRANCH  16  17
HETATM   17  C   UNL     1      -5.991   8.067  65.837  1.00  0.00    -0.038 C  
HETATM   18  C   UNL     1      -6.509   7.140  64.746  1.00  0.00    -0.037 C  
ENDBRANCH  16  17
ENDBRANCH  14  16
ENDBRANCH  12  14
BRANCH  13  19
HETATM   19  C   UNL     1      -7.474  11.947  68.133  1.00  0.00    -0.100 A  
HETATM   20  C   UNL     1      -7.716  10.888  69.029  1.00  0.00    -0.135 A  
HETATM   21  C   UNL     1      -6.876  10.749  70.153  1.00  0.00    -0.074 A  
HETATM   22  C   UNL     1      -6.404  12.838  68.404  1.00  0.00    -0.078 A  
HETATM   23  C   UNL     1      -5.587  12.681  69.519  1.00  0.00    -0.089 A  
HETATM   24  C   UNL     1      -5.817  11.629  70.390  1.00  0.00    -0.156 A  
BRANCH  20  25
HETATM   25  C   UNL     1      -8.847   9.958  68.867  1.00  0.00    -0.145 C  
HETATM   26  C   UNL     1      -9.490   9.397  69.904  1.00  0.00    -0.235 C  
BRANCH  26  27
HETATM   27  C   UNL     1     -10.689   8.546  69.778  1.00  0.00    -0.213 C  
HETATM   28  O   UNL     1     -10.699   7.572  69.040  1.00  0.00    -0.207 OA 
BRANCH  27  29
HETATM   29  O   UNL     1     -11.696   8.981  70.566  1.00  0.00    -0.234 OA 
HETATM   30  C   UNL     1     -12.158   8.176  71.682  1.00  0.00    -0.304 C  
HETATM   31  C   UNL     1     -12.651   6.798  71.229  1.00  0.00    -0.328 C  
HETATM   32  C   UNL     1     -11.071   8.066  72.758  1.00  0.00    -0.448 C  
HETATM   33  C   UNL     1     -13.349   8.956  72.260  1.00  0.00    -0.497 C  
ENDBRANCH  27  29
ENDBRANCH  26  27
ENDBRANCH  20  25
ENDBRANCH  13  19
ENDBRANCH   4   6
ENDBRANCH   3   4
ENDBRANCH   2   3
TORSDOF 10
ENDMDL
MODEL       97
REMARK 921   NORMALIZED FREE ENERGY PREDICTED BY IDOCK:   -3.88 KCAL/MOL
REMARK 922        TOTAL FREE ENERGY PREDICTED BY IDOCK:   -8.51 KCAL/MOL
REMARK 923 INTER-LIGAND FREE ENERGY PREDICTED BY IDOCK:   -8.31 KCAL/MOL
REMARK 924 INTRA-LIGAND FREE ENERGY PREDICTED BY IDOCK:   -0.20 KCAL/MOL
REMARK 927      BINDING AFFINITY PREDICTED BY RF-SCORE:    0.00 PKD
ROOT
HETATM    1  C   UNL     1      -6.690  15.210  69.114  1.00  0.00    -0.130 C  
HETATM    2  C   UNL     1      -7.894  16.088  69.395  1.00  0.00    -0.167 C  
ENDROOT
BRANCH   2   3
HETATM    3  O   UNL     1      -8.916  15.304  70.035  1.00  0.00    -0.035 OA 
BRANCH   3   4
HETATM    4  C   UNL     1     -10.185  15.722  69.807  1.00  0.00    -0.290 C  
HETATM    5  O   UNL     1     -10.494  16.837  69.409  1.00  0.00    -0.321 OA 
BRANCH   4   6
HETATM    6  C   UNL     1     -11.175  14.661  70.108  1.00  0.00    -0.230 C  
HETATM    7  C   UNL     1     -11.839  14.704  71.290  1.00  0.00    -0.319 C  
HETATM    8  C   UNL     1     -11.835  15.841  72.287  1.00  0.00    -0.598 C  
HETATM    9  N   UNL     1     -12.612  13.625  71.680  1.00  0.00    -0.294 NA 
HETATM   10  C   UNL     1     -12.584  12.383  71.069  1.00  0.00    -0.254 C  
HETATM   11  C   UNL     1     -13.197  11.262  71.875  1.00  0.00    -0.491 C  
HETATM   12  C   UNL     1     -12.026  12.244  69.838  1.00  0.00    -0.377 C  
HETATM   13  C   UNL     1     -11.390  13.471  69.149  1.00  0.00    -0.333 C  
BRANCH  12  14
HETATM   14  C   UNL     1     -12.035  10.898  69.191  1.00  0.00    -0.288 C  
HETATM   15  O   UNL     1     -12.150  10.718  67.987  1.00  0.00    -0.474 OA 
BRANCH  14  16
HETATM   16  O   UNL     1     -11.883   9.896  70.091  1.00  0.00    -0.216 OA 
BRANCH  16  17
HETATM   17  C   UNL     1     -10.897   8.906  69.738  1.00  0.00    -0.200 C  
HETATM   18  C   UNL     1      -9.663   8.979  70.626  1.00  0.00    -0.287 C  
ENDBRANCH  16  17
ENDBRANCH  14  16
ENDBRANCH  12  14
BRANCH  13  19
HETATM   19  C   UNL     1     -10.172  13.139  68.272  1.00  0.00    -0.250 A  
HETATM   20  C   UNL     1      -9.772  13.882  67.144  1.00  0.00    -0.244 A  
HETATM   21  C   UNL     1      -8.594  13.503  66.470  1.00  0.00     0.184 A  
HETATM   22  C   UNL     1      -9.381  12.033  68.675  1.00  0.00    -0.056 A  
HETATM   23  C   UNL     1      -8.222  11.677  67.995  1.00  0.00    -0.146 A  
HETATM   24  C   UNL     1      -7.822  12.419  66.895  1.00  0.00    -0.014 A  
BRANCH  20  25
HETATM   25  C   UNL     1     -10.568  15.001  66.611  1.00  0.00    -0.301 C  
HETATM   26  C   UNL     1     -10.029  16.172  66.238  1.00  0.00    -0.336 C  
BRANCH  26  27
HETATM   27  C   UNL     1     -10.783  17.272  65.605  1.00  0.00    -0.120 C  
HETATM   28  O   UNL     1     -11.094  17.228  64.424  1.00  0.00    -0.998 OA 
BRANCH  27  29
HETATM   29  O   UNL     1     -11.064  18.257  66.486  1.00  0.00     0.089 OA 
HETATM   30  C   UNL     1     -10.155  19.376  66.653  1.00  0.00    -0.407 C  
HETATM   31  C   UNL     1      -8.758  18.920  67.086  1.00  0.00    -0.298 C  
HETATM   32  C   UNL     1     -10.107  20.229  65.380  1.00  0.00     0.104 C  
HETATM   33  C   UNL     1     -10.770  20.213  67.786  1.00  0.00    -0.216 C  
ENDBRANCH  27  29
ENDBRANCH  26  27
ENDBRANCH  20  25
ENDBRANCH  13  19
ENDBRANCH   4   6
ENDBRANCH   3   4
ENDBRANCH   2   3
TORSDOF 10
ENDMDL
MODEL       98
REMARK 921   NORMALIZED FREE ENERGY PREDICTED BY IDOCK:   -3.87 KCAL/MOL
REMARK 922        TOTAL FREE ENERGY PREDICTED BY IDOCK:   -8.49 KCAL/MOL
REMARK 923 INTER-LIGAND FREE ENERGY PREDICTED BY IDOCK:   -6.83 KCAL/MOL
REMARK 924 INTRA-LIGAND FREE ENERGY PREDICTED BY IDOCK:   -1.66 KCAL/MOL
REMARK 927      BINDING AFFINITY PREDICTED BY RF-SCORE:    0.00 PKD
ROOT
HETATM    1  C   UNL     1     -10.627  17.308  65.236  1.00  0.00    -0.002 C  
HETATM    2  C   UNL     1     -11.746  16.438  64.698  1.00  0.00     0.197 C  
ENDROOT
BRANCH   2   3
HETATM    3  O   UNL     1     -11.230  15.128  64.402  1.00  0.00    -0.287 OA 
BRANCH   3   4
HETATM    4  C   UNL     1     -11.757  14.125  65.146  1.00  0.00    -0.361 C  
HETATM    5  O   UNL     1     -12.815  14.186  65.757  1.00  0.00    -0.502 OA 
BRANCH   4   6
HETATM    6  C   UNL     1     -10.886  12.925  65.144  1.00  0.00    -0.320 C  
HETATM    7  C   UNL     1     -11.341  11.789  64.561  1.00  0.00    -0.281 C  
HETATM    8  C   UNL     1     -12.587  11.644  63.716  1.00  0.00    -0.261 C  
HETATM    9  N   UNL     1     -10.639  10.608  64.723  1.00  0.00    -0.222 NA 
HETATM   10  C   UNL     1      -9.616  10.427  65.638  1.00  0.00    -0.226 C  
HETATM   11  C   UNL     1      -9.259   8.986  65.919  1.00  0.00    -0.290 C  
HETATM   12  C   UNL     1      -9.022  11.504  66.215  1.00  0.00    -0.199 C  
HETATM   13  C   UNL     1      -9.524  12.924  65.871  1.00  0.00    -0.061 C  
BRANCH  12  14
HETATM   14  C   UNL     1      -7.903  11.280  67.178  1.00  0.00    -0.151 C  
HETATM   15  O   UNL     1      -6.743  11.603  66.967  1.00  0.00    -0.127 OA 
BRANCH  14  16
HETATM   16  O   UNL     1      -8.324  10.692  68.325  1.00  0.00    -0.113 OA 
BRANCH  16  17
HETATM   17  C   UNL     1      -7.329   9.904  69.006  1.00  0.00    -0.080 C  
HETATM   18  C   UNL     1      -7.897   9.184  70.221  1.00  0.00    -0.129 C  
ENDBRANCH  16  17
ENDBRANCH  14  16
ENDBRANCH  12  14
BRANCH  13  19
HETATM   19  C   UNL     1      -9.429  13.923  67.034  1.00  0.00    -0.256 A  
HETATM   20  C   UNL     1     -10.067  13.764  68.280  1.00  0.00    -0.239 A  
HETATM   21  C   UNL     1      -9.839  14.728  69.283  1.00  0.00    -0.123 A  
HETATM   22  C   UNL     1      -8.596  15.054  66.835  1.00  0.00    -0.280 A  
HETATM   23  C   UNL     1      -8.385  15.993  67.839  1.00  0.00    -0.158 A  
HETATM   24  C   UNL     1      -9.001  15.825  69.069  1.00  0.00    -0.246 A  
BRANCH  20  25
HETATM   25  C   UNL     1     -11.005  12.662  68.553  1.00  0.00    -0.292 C  
HETATM   26  C   UNL     1     -10.976  11.937  69.684  1.00  0.00    -0.012 C  
BRANCH  26  27
HETATM   27  C   UNL     1     -11.965  10.898  70.031  1.00  0.00    -0.350 C  
HETATM   28  O   UNL     1     -13.003  10.775  69.398  1.00  0.00    -0.078 OA 
BRANCH  27  29
HETATM   29  O   UNL     1     -11.557  10.151  71.080  1.00  0.00    -0.359 OA 
HETATM   30  C   UNL     1     -11.974   8.766  71.204  1.00  0.00    -0.285 C  
HETATM   31  C   UNL     1     -13.498   8.629  71.260  1.00  0.00    -0.180 C  
HETATM   32  C   UNL     1     -11.367   7.916  70.081  1.00  0.00    -0.099 C  
HETATM   33  C   UNL     1     -11.390   8.301  72.548  1.00  0.00    -0.455 C  
ENDBRANCH  27  29
ENDBRANCH  26  27
ENDBRANCH  20  25
ENDBRANCH  13  19
ENDBRANCH   4   6
ENDBRANCH   3   4
ENDBRANCH   2   3
TORSDOF 10
ENDMDL
MODEL       99
REMARK 921   NORMALIZED FREE ENERGY PREDICTED BY IDOCK:   -3.86 KCAL/MOL
REMARK 922        TOTAL FREE ENERGY PREDICTED BY IDOCK:   -8.48 KCAL/MOL
REMARK 923 INTER-LIGAND FREE ENERGY PREDICTED BY IDOCK:   -6.87 KCAL/MOL
REMARK 924 INTRA-LIGAND FREE ENERGY PREDICTED BY IDOCK:   -1.62 KCAL/MOL
REMARK 927      BINDING AFFINITY PREDICTED BY RF-SCORE:    0.00 PKD
ROOT
HETATM    1  C   UNL     1     -10.439  10.830  65.141  1.00  0.00    -0.299 C  
HETATM    2  C   UNL     1      -9.841   9.591  65.777  1.00  0.00    -0.293 C  
ENDROOT
BRANCH   2   3
HETATM    3  O   UNL     1     -10.747   9.083  66.773  1.00  0.00    -0.186 OA 
BRANCH   3   4
HETATM    4  C   UNL     1     -10.432   7.858  67.260  1.00  0.00    -0.320 C  
HETATM    5  O   UNL     1     -11.093   6.844  67.088  1.00  0.00    -0.370 OA 
BRANCH   4   6
HETATM    6  C   UNL     1      -9.177   7.888  68.051  1.00  0.00    -0.134 C  
HETATM    7  C   UNL     1      -8.071   7.294  67.541  1.00  0.00    -0.114 C  
HETATM    8  C   UNL     1      -7.899   6.754  66.139  1.00  0.00    -0.102 C  
HETATM    9  N   UNL     1      -6.952   7.132  68.340  1.00  0.00    -0.073 NA 
HETATM   10  C   UNL     1      -6.939   7.317  69.712  1.00  0.00    -0.057 C  
HETATM   11  C   UNL     1      -5.746   6.721  70.424  1.00  0.00    -0.023 C  
HETATM   12  C   UNL     1      -7.955   7.985  70.317  1.00  0.00    -0.104 C  
HETATM   13  C   UNL     1      -9.140   8.498  69.468  1.00  0.00    -0.150 C  
BRANCH  12  14
HETATM   14  C   UNL     1      -7.901   8.193  71.795  1.00  0.00    -0.112 C  
HETATM   15  O   UNL     1      -7.358   9.148  72.332  1.00  0.00    -0.313 OA 
BRANCH  14  16
HETATM   16  O   UNL     1      -8.541   7.210  72.475  1.00  0.00    -0.115 OA 
BRANCH  16  17
HETATM   17  C   UNL     1      -9.201   7.635  73.682  1.00  0.00    -0.283 C  
HETATM   18  C   UNL     1     -10.395   6.755  74.027  1.00  0.00    -0.377 C  
ENDBRANCH  16  17
ENDBRANCH  14  16
ENDBRANCH  12  14
BRANCH  13  19
HETATM   19  C   UNL     1     -10.491   8.480  70.199  1.00  0.00    -0.226 A  
HETATM   20  C   UNL     1     -11.208   7.312  70.527  1.00  0.00    -0.305 A  
HETATM   21  C   UNL     1     -12.406   7.438  71.259  1.00  0.00    -0.380 A  
HETATM   22  C   UNL     1     -11.011   9.735  70.606  1.00  0.00    -0.398 A  
HETATM   23  C   UNL     1     -12.196   9.836  71.328  1.00  0.00    -0.465 A  
HETATM   24  C   UNL     1     -12.890   8.685  71.663  1.00  0.00    -0.380 A  
BRANCH  20  25
HETATM   25  C   UNL     1     -10.782   5.973  70.086  1.00  0.00    -0.379 C  
HETATM   26  C   UNL     1      -9.906   5.219  70.770  1.00  0.00    -0.261 C  
BRANCH  26  27
HETATM   27  C   UNL     1      -9.539   3.835  70.409  1.00  0.00    -0.192 C  
HETATM   28  O   UNL     1     -10.135   2.879  70.883  1.00  0.00     0.073 OA 
BRANCH  27  29
HETATM   29  O   UNL     1      -8.520   3.803  69.523  1.00  0.00    -0.062 OA 
HETATM   30  C   UNL     1      -8.670   3.112  68.256  1.00  0.00    -0.106 C  
HETATM   31  C   UNL     1      -9.003   1.629  68.446  1.00  0.00    -0.163 C  
HETATM   32  C   UNL     1      -9.704   3.820  67.372  1.00  0.00    -0.143 C  
HETATM   33  C   UNL     1      -7.290   3.221  67.586  1.00  0.00    -0.058 C  
ENDBRANCH  27  29
ENDBRANCH  26  27
ENDBRANCH  20  25
ENDBRANCH  13  19
ENDBRANCH   4   6
ENDBRANCH   3   4
ENDBRANCH   2   3
TORSDOF 10
ENDMDL
MODEL      100
REMARK 921   NORMALIZED FREE ENERGY PREDICTED BY IDOCK:   -3.86 KCAL/MOL
REMARK 922        TOTAL FREE ENERGY PREDICTED BY IDOCK:   -8.48 KCAL/MOL
REMARK 923 INTER-LIGAND FREE ENERGY PREDICTED BY IDOCK:   -7.32 KCAL/MOL
REMARK 924 INTRA-LIGAND FREE ENERGY PREDICTED BY IDOCK:   -1.16 KCAL/MOL
REMARK 927      BINDING AFFINITY PREDICTED BY RF-SCORE:    0.00 PKD
ROOT
HETATM    1  C   UNL     1      -9.383   7.278  73.816  1.00  0.00    -0.296 C  
HETATM    2  C   UNL     1      -9.395   8.464  72.872  1.00  0.00    -0.212 C  
ENDROOT
BRANCH   2   3
HETATM    3  O   UNL     1     -10.731   8.669  72.381  1.00  0.00    -0.339 OA 
BRANCH   3   4
HETATM    4  C   UNL     1     -10.818   8.947  71.058  1.00  0.00    -0.259 C  
HETATM    5  O   UNL     1     -11.030  10.056  70.587  1.00  0.00    -0.300 OA 
BRANCH   4   6
HETATM    6  C   UNL     1     -10.634   7.732  70.228  1.00  0.00    -0.231 C  
HETATM    7  C   UNL     1     -11.314   6.608  70.559  1.00  0.00    -0.358 C  
HETATM    8  C   UNL     1     -12.417   6.488  71.586  1.00  0.00    -0.271 C  
HETATM    9  N   UNL     1     -11.009   5.413  69.930  1.00  0.00    -0.147 NA 
HETATM   10  C   UNL     1      -9.889   5.210  69.141  1.00  0.00    -0.187 C  
HETATM   11  C   UNL     1      -9.548   3.762  68.879  1.00  0.00    -0.183 C  
HETATM   12  C   UNL     1      -9.186   6.274  68.674  1.00  0.00    -0.124 C  
HETATM   13  C   UNL     1      -9.621   7.704  69.064  1.00  0.00    -0.151 C  
BRANCH  12  14
HETATM   14  C   UNL     1      -7.998   6.026  67.803  1.00  0.00    -0.105 C  
HETATM   15  O   UNL     1      -6.904   5.678  68.221  1.00  0.00    -0.059 OA 
BRANCH  14  16
HETATM   16  O   UNL     1      -8.278   6.214  66.490  1.00  0.00    -0.108 OA 
BRANCH  16  17
HETATM   17  C   UNL     1      -8.138   5.042  65.664  1.00  0.00    -0.113 C  
HETATM   18  C   UNL     1      -9.484   4.491  65.214  1.00  0.00    -0.175 C  
ENDBRANCH  16  17
ENDBRANCH  14  16
ENDBRANCH  12  14
BRANCH  13  19
HETATM   19  C   UNL     1      -8.458   8.697  69.215  1.00  0.00    -0.123 A  
HETATM   20  C   UNL     1      -8.193   9.760  68.330  1.00  0.00    -0.105 A  
HETATM   21  C   UNL     1      -7.130  10.637  68.626  1.00  0.00    -0.075 A  
HETATM   22  C   UNL     1      -7.636   8.543  70.361  1.00  0.00    -0.074 A  
HETATM   23  C   UNL     1      -6.591   9.420  70.634  1.00  0.00    -0.087 A  
HETATM   24  C   UNL     1      -6.344  10.475  69.770  1.00  0.00    -0.091 A  
BRANCH  20  25
HETATM   25  C   UNL     1      -8.948   9.955  67.080  1.00  0.00    -0.150 C  
HETATM   26  C   UNL     1      -9.965  10.826  66.966  1.00  0.00    -0.236 C  
BRANCH  26  27
HETATM   27  C   UNL     1     -10.671  11.119  65.703  1.00  0.00    -0.185 C  
HETATM   28  O   UNL     1     -10.384  10.536  64.667  1.00  0.00    -0.344 OA 
BRANCH  27  29
HETATM   29  O   UNL     1     -11.626  12.059  65.871  1.00  0.00    -0.362 OA 
HETATM   30  C   UNL     1     -11.813  13.103  64.881  1.00  0.00    -0.358 C  
HETATM   31  C   UNL     1     -10.544  13.939  64.682  1.00  0.00    -0.432 C  
HETATM   32  C   UNL     1     -12.319  12.513  63.560  1.00  0.00    -0.623 C  
HETATM   33  C   UNL     1     -12.907  14.009  65.470  1.00  0.00    -0.453 C  
ENDBRANCH  27  29
ENDBRANCH  26  27
ENDBRANCH  20  25
ENDBRANCH  13  19
ENDBRANCH   4   6
ENDBRANCH   3   4
ENDBRANCH   2   3
TORSDOF 10
ENDMDL
MODEL      101
REMARK 921   NORMALIZED FREE ENERGY PREDICTED BY IDOCK:   -3.81 KCAL/MOL
REMARK 922        TOTAL FREE ENERGY PREDICTED BY IDOCK:   -8.41 KCAL/MOL
REMARK 923 INTER-LIGAND FREE ENERGY PREDICTED BY IDOCK:   -5.74 KCAL/MOL
REMARK 924 INTRA-LIGAND FREE ENERGY PREDICTED BY IDOCK:   -2.67 KCAL/MOL
REMARK 927      BINDING AFFINITY PREDICTED BY RF-SCORE:    0.00 PKD
ROOT
HETATM    1  C   UNL     1     -13.561   9.187  72.396  1.00  0.00    -0.544 C  
HETATM    2  C   UNL     1     -12.650  10.088  71.585  1.00  0.00    -0.427 C  
ENDROOT
BRANCH   2   3
HETATM    3  O   UNL     1     -12.048   9.326  70.524  1.00  0.00    -0.168 OA 
BRANCH   3   4
HETATM    4  C   UNL     1     -10.866   8.743  70.838  1.00  0.00    -0.238 C  
HETATM    5  O   UNL     1      -9.972   9.274  71.484  1.00  0.00    -0.307 OA 
BRANCH   4   6
HETATM    6  C   UNL     1     -10.769   7.368  70.292  1.00  0.00    -0.250 C  
HETATM    7  C   UNL     1     -10.799   6.321  71.152  1.00  0.00    -0.266 C  
HETATM    8  C   UNL     1     -11.120   6.373  72.628  1.00  0.00    -0.294 C  
HETATM    9  N   UNL     1     -10.508   5.049  70.691  1.00  0.00    -0.205 NA 
HETATM   10  C   UNL     1      -9.952   4.774  69.454  1.00  0.00    -0.199 C  
HETATM   11  C   UNL     1      -9.366   3.389  69.310  1.00  0.00    -0.240 C  
HETATM   12  C   UNL     1      -9.954   5.724  68.483  1.00  0.00    -0.197 C  
HETATM   13  C   UNL     1     -10.544   7.119  68.785  1.00  0.00    -0.219 C  
BRANCH  12  14
HETATM   14  C   UNL     1      -9.372   5.392  67.148  1.00  0.00    -0.117 C  
HETATM   15  O   UNL     1     -10.038   5.169  66.147  1.00  0.00    -0.190 OA 
BRANCH  14  16
HETATM   16  O   UNL     1      -8.017   5.384  67.168  1.00  0.00    -0.100 OA 
BRANCH  16  17
HETATM   17  C   UNL     1      -7.388   5.423  65.872  1.00  0.00    -0.077 C  
HETATM   18  C   UNL     1      -6.587   6.701  65.659  1.00  0.00    -0.050 C  
ENDBRANCH  16  17
ENDBRANCH  14  16
ENDBRANCH  12  14
BRANCH  13  19
HETATM   19  C   UNL     1      -9.839   8.272  68.054  1.00  0.00    -0.201 A  
HETATM   20  C   UNL     1      -8.478   8.602  68.205  1.00  0.00    -0.131 A  
HETATM   21  C   UNL     1      -7.945   9.646  67.420  1.00  0.00    -0.106 A  
HETATM   22  C   UNL     1     -10.621   9.012  67.130  1.00  0.00    -0.291 A  
HETATM   23  C   UNL     1     -10.075  10.038  66.366  1.00  0.00    -0.307 A  
HETATM   24  C   UNL     1      -8.732  10.349  66.504  1.00  0.00    -0.143 A  
BRANCH  20  25
HETATM   25  C   UNL     1      -7.608   7.938  69.190  1.00  0.00    -0.098 C  
HETATM   26  C   UNL     1      -7.185   8.534  70.316  1.00  0.00    -0.048 C  
BRANCH  26  27
HETATM   27  C   UNL     1      -6.400   7.862  71.370  1.00  0.00    -0.035 C  
HETATM   28  O   UNL     1      -5.245   8.187  71.603  1.00  0.00    -0.033 OA 
BRANCH  27  29
HETATM   29  O   UNL     1      -7.121   6.907  71.997  1.00  0.00    -0.072 OA 
HETATM   30  C   UNL     1      -6.600   5.559  72.129  1.00  0.00    -0.057 C  
HETATM   31  C   UNL     1      -6.305   4.923  70.767  1.00  0.00    -0.019 C  
HETATM   32  C   UNL     1      -5.370   5.541  73.044  1.00  0.00    -0.022 C  
HETATM   33  C   UNL     1      -7.731   4.767  72.803  1.00  0.00    -0.092 C  
ENDBRANCH  27  29
ENDBRANCH  26  27
ENDBRANCH  20  25
ENDBRANCH  13  19
ENDBRANCH   4   6
ENDBRANCH   3   4
ENDBRANCH   2   3
TORSDOF 10
ENDMDL
MODEL      102
REMARK 921   NORMALIZED FREE ENERGY PREDICTED BY IDOCK:   -3.80 KCAL/MOL
REMARK 922        TOTAL FREE ENERGY PREDICTED BY IDOCK:   -8.39 KCAL/MOL
REMARK 923 INTER-LIGAND FREE ENERGY PREDICTED BY IDOCK:   -7.22 KCAL/MOL
REMARK 924 INTRA-LIGAND FREE ENERGY PREDICTED BY IDOCK:   -1.16 KCAL/MOL
REMARK 927      BINDING AFFINITY PREDICTED BY RF-SCORE:    0.00 PKD
ROOT
HETATM    1  C   UNL     1      -5.167  10.612  64.499  1.00  0.00    -0.143 C  
HETATM    2  C   UNL     1      -6.239   9.762  65.152  1.00  0.00    -0.092 C  
ENDROOT
BRANCH   2   3
HETATM    3  O   UNL     1      -7.505  10.441  65.064  1.00  0.00    -0.139 OA 
BRANCH   3   4
HETATM    4  C   UNL     1      -8.571   9.720  65.488  1.00  0.00    -0.145 C  
HETATM    5  O   UNL     1      -8.576   8.508  65.655  1.00  0.00    -0.158 OA 
BRANCH   4   6
HETATM    6  C   UNL     1      -9.757  10.579  65.721  1.00  0.00    -0.277 C  
HETATM    7  C   UNL     1     -10.363  11.157  64.655  1.00  0.00    -0.330 C  
HETATM    8  C   UNL     1     -10.088  10.873  63.195  1.00  0.00    -0.317 C  
HETATM    9  N   UNL     1     -11.338  12.117  64.860  1.00  0.00    -0.322 NA 
HETATM   10  C   UNL     1     -11.594  12.723  66.079  1.00  0.00    -0.383 C  
HETATM   11  C   UNL     1     -12.410  13.992  66.002  1.00  0.00    -0.504 C  
HETATM   12  C   UNL     1     -11.113  12.173  67.224  1.00  0.00    -0.341 C  
HETATM   13  C   UNL     1     -10.248  10.895  67.149  1.00  0.00    -0.249 C  
BRANCH  12  14
HETATM   14  C   UNL     1     -11.427  12.832  68.527  1.00  0.00    -0.309 C  
HETATM   15  O   UNL     1     -12.074  12.305  69.421  1.00  0.00    -0.260 OA 
BRANCH  14  16
HETATM   16  O   UNL     1     -10.897  14.076  68.613  1.00  0.00    -0.243 OA 
BRANCH  16  17
HETATM   17  C   UNL     1     -11.759  15.065  69.207  1.00  0.00    -0.323 C  
HETATM   18  C   UNL     1     -11.129  15.718  70.431  1.00  0.00    -0.380 C  
ENDBRANCH  16  17
ENDBRANCH  14  16
ENDBRANCH  12  14
BRANCH  13  19
HETATM   19  C   UNL     1      -9.154  10.812  68.225  1.00  0.00    -0.157 A  
HETATM   20  C   UNL     1      -8.904   9.681  69.027  1.00  0.00    -0.147 A  
HETATM   21  C   UNL     1      -7.823   9.719  69.931  1.00  0.00    -0.168 A  
HETATM   22  C   UNL     1      -8.317  11.948  68.370  1.00  0.00    -0.157 A  
HETATM   23  C   UNL     1      -7.255  11.964  69.269  1.00  0.00     0.039 A  
HETATM   24  C   UNL     1      -7.002  10.844  70.044  1.00  0.00    -0.036 A  
BRANCH  20  25
HETATM   25  C   UNL     1      -9.763   8.485  68.996  1.00  0.00    -0.170 C  
HETATM   26  C   UNL     1      -9.308   7.263  68.673  1.00  0.00    -0.138 C  
BRANCH  26  27
HETATM   27  C   UNL     1     -10.118   6.031  68.734  1.00  0.00    -0.168 C  
HETATM   28  O   UNL     1     -10.433   5.533  69.805  1.00  0.00    -0.270 OA 
BRANCH  27  29
HETATM   29  O   UNL     1     -10.441   5.584  67.501  1.00  0.00    -0.214 OA 
HETATM   30  C   UNL     1      -9.561   4.670  66.796  1.00  0.00    -0.181 C  
HETATM   31  C   UNL     1      -8.165   5.265  66.587  1.00  0.00    -0.108 C  
HETATM   32  C   UNL     1      -9.502   3.315  67.510  1.00  0.00    -0.209 C  
HETATM   33  C   UNL     1     -10.220   4.477  65.420  1.00  0.00    -0.224 C  
ENDBRANCH  27  29
ENDBRANCH  26  27
ENDBRANCH  20  25
ENDBRANCH  13  19
ENDBRANCH   4   6
ENDBRANCH   3   4
ENDBRANCH   2   3
TORSDOF 10
ENDMDL
MODEL      103
REMARK 921   NORMALIZED FREE ENERGY PREDICTED BY IDOCK:   -3.78 KCAL/MOL
REMARK 922        TOTAL FREE ENERGY PREDICTED BY IDOCK:   -8.36 KCAL/MOL
REMARK 923 INTER-LIGAND FREE ENERGY PREDICTED BY IDOCK:   -5.67 KCAL/MOL
REMARK 924 INTRA-LIGAND FREE ENERGY PREDICTED BY IDOCK:   -2.69 KCAL/MOL
REMARK 927      BINDING AFFINITY PREDICTED BY RF-SCORE:    0.00 PKD
ROOT
HETATM    1  C   UNL     1     -12.400  12.103  70.687  1.00  0.00    -0.385 C  
HETATM    2  C   UNL     1     -12.776  10.770  71.305  1.00  0.00    -0.441 C  
ENDROOT
BRANCH   2   3
HETATM    3  O   UNL     1     -11.578  10.036  71.616  1.00  0.00    -0.317 OA 
BRANCH   3   4
HETATM    4  C   UNL     1     -11.016   9.388  70.567  1.00  0.00    -0.274 C  
HETATM    5  O   UNL     1     -11.637   8.843  69.666  1.00  0.00     0.155 OA 
BRANCH   4   6
HETATM    6  C   UNL     1      -9.535   9.406  70.642  1.00  0.00    -0.325 C  
HETATM    7  C   UNL     1      -8.843  10.102  69.707  1.00  0.00    -0.127 C  
HETATM    8  C   UNL     1      -9.417  11.051  68.679  1.00  0.00    -0.197 C  
HETATM    9  N   UNL     1      -7.467   9.969  69.634  1.00  0.00    -0.116 NA 
HETATM   10  C   UNL     1      -6.741   8.991  70.292  1.00  0.00    -0.047 C  
HETATM   11  C   UNL     1      -5.335   8.786  69.778  1.00  0.00    -0.030 C  
HETATM   12  C   UNL     1      -7.309   8.295  71.311  1.00  0.00    -0.078 C  
HETATM   13  C   UNL     1      -8.777   8.576  71.700  1.00  0.00    -0.262 C  
BRANCH  12  14
HETATM   14  C   UNL     1      -6.493   7.264  72.021  1.00  0.00    -0.043 C  
HETATM   15  O   UNL     1      -5.966   7.440  73.110  1.00  0.00    -0.054 OA 
BRANCH  14  16
HETATM   16  O   UNL     1      -6.420   6.102  71.328  1.00  0.00    -0.046 OA 
BRANCH  16  17
HETATM   17  C   UNL     1      -5.922   4.977  72.077  1.00  0.00    -0.024 C  
HETATM   18  C   UNL     1      -7.044   4.161  72.705  1.00  0.00    -0.062 C  
ENDBRANCH  16  17
ENDBRANCH  14  16
ENDBRANCH  12  14
BRANCH  13  19
HETATM   19  C   UNL     1      -9.543   7.341  72.200  1.00  0.00    -0.162 A  
HETATM   20  C   UNL     1      -9.843   6.212  71.412  1.00  0.00    -0.200 A  
HETATM   21  C   UNL     1     -10.495   5.119  72.018  1.00  0.00    -0.278 A  
HETATM   22  C   UNL     1      -9.921   7.337  73.567  1.00  0.00    -0.366 A  
HETATM   23  C   UNL     1     -10.564   6.248  74.145  1.00  0.00    -0.136 A  
HETATM   24  C   UNL     1     -10.843   5.132  73.371  1.00  0.00    -0.359 A  
BRANCH  20  25
HETATM   25  C   UNL     1      -9.553   6.155  69.969  1.00  0.00    -0.185 C  
HETATM   26  C   UNL     1     -10.442   5.728  69.058  1.00  0.00    -0.336 C  
BRANCH  26  27
HETATM   27  C   UNL     1     -10.218   5.757  67.599  1.00  0.00    -0.193 C  
HETATM   28  O   UNL     1     -10.526   4.809  66.893  1.00  0.00    -0.194 OA 
BRANCH  27  29
HETATM   29  O   UNL     1      -9.669   6.926  67.201  1.00  0.00    -0.140 OA 
HETATM   30  C   UNL     1      -8.358   6.948  66.580  1.00  0.00    -0.118 C  
HETATM   31  C   UNL     1      -7.279   6.360  67.495  1.00  0.00    -0.086 C  
HETATM   32  C   UNL     1      -8.391   6.248  65.217  1.00  0.00    -0.138 C  
HETATM   33  C   UNL     1      -8.054   8.439  66.363  1.00  0.00    -0.104 C  
ENDBRANCH  27  29
ENDBRANCH  26  27
ENDBRANCH  20  25
ENDBRANCH  13  19
ENDBRANCH   4   6
ENDBRANCH   3   4
ENDBRANCH   2   3
TORSDOF 10
ENDMDL
MODEL      104
REMARK 921   NORMALIZED FREE ENERGY PREDICTED BY IDOCK:   -3.72 KCAL/MOL
REMARK 922        TOTAL FREE ENERGY PREDICTED BY IDOCK:   -8.26 KCAL/MOL
REMARK 923 INTER-LIGAND FREE ENERGY PREDICTED BY IDOCK:   -6.53 KCAL/MOL
REMARK 924 INTRA-LIGAND FREE ENERGY PREDICTED BY IDOCK:   -1.74 KCAL/MOL
REMARK 927      BINDING AFFINITY PREDICTED BY RF-SCORE:    0.00 PKD
ROOT
HETATM    1  C   UNL     1      -8.468   8.174  74.034  1.00  0.00    -0.289 C  
HETATM    2  C   UNL     1      -8.954   8.269  72.601  1.00  0.00    -0.246 C  
ENDROOT
BRANCH   2   3
HETATM    3  O   UNL     1      -8.105   9.170  71.869  1.00  0.00    -0.330 OA 
BRANCH   3   4
HETATM    4  C   UNL     1      -7.047   8.587  71.254  1.00  0.00    -0.078 C  
HETATM    5  O   UNL     1      -6.241   7.846  71.799  1.00  0.00    -0.038 OA 
BRANCH   4   6
HETATM    6  C   UNL     1      -6.969   8.964  69.822  1.00  0.00    -0.050 C  
HETATM    7  C   UNL     1      -6.419  10.158  69.491  1.00  0.00    -0.055 C  
HETATM    8  C   UNL     1      -5.679  11.099  70.415  1.00  0.00    -0.137 C  
HETATM    9  N   UNL     1      -6.517  10.619  68.190  1.00  0.00    -0.061 NA 
HETATM   10  C   UNL     1      -7.345  10.068  67.227  1.00  0.00    -0.090 C  
HETATM   11  C   UNL     1      -7.588  10.942  66.019  1.00  0.00    -0.094 C  
HETATM   12  C   UNL     1      -7.875   8.831  67.415  1.00  0.00    -0.098 C  
HETATM   13  C   UNL     1      -7.581   8.068  68.725  1.00  0.00    -0.103 C  
BRANCH  12  14
HETATM   14  C   UNL     1      -8.743   8.250  66.346  1.00  0.00    -0.142 C  
HETATM   15  O   UNL     1      -9.872   8.643  66.092  1.00  0.00    -0.262 OA 
BRANCH  14  16
HETATM   16  O   UNL     1      -8.126   7.246  65.676  1.00  0.00    -0.118 OA 
BRANCH  16  17
HETATM   17  C   UNL     1      -7.872   7.510  64.283  1.00  0.00    -0.133 C  
HETATM   18  C   UNL     1      -6.406   7.821  64.014  1.00  0.00    -0.057 C  
ENDBRANCH  16  17
ENDBRANCH  14  16
ENDBRANCH  12  14
BRANCH  13  19
HETATM   19  C   UNL     1      -8.737   7.179  69.208  1.00  0.00    -0.136 A  
HETATM   20  C   UNL     1     -10.058   7.624  69.410  1.00  0.00    -0.196 A  
HETATM   21  C   UNL     1     -11.036   6.683  69.793  1.00  0.00    -0.398 A  
HETATM   22  C   UNL     1      -8.442   5.806  69.412  1.00  0.00    -0.112 A  
HETATM   23  C   UNL     1      -9.423   4.896  69.790  1.00  0.00    -0.223 A  
HETATM   24  C   UNL     1     -10.725   5.333  69.971  1.00  0.00    -0.208 A  
BRANCH  20  25
HETATM   25  C   UNL     1     -10.442   9.041  69.291  1.00  0.00    -0.238 C  
HETATM   26  C   UNL     1     -11.595   9.531  69.774  1.00  0.00     0.035 C  
BRANCH  26  27
HETATM   27  C   UNL     1     -11.961  10.961  69.764  1.00  0.00    -0.351 C  
HETATM   28  O   UNL     1     -12.147  11.575  70.804  1.00  0.00    -0.364 OA 
BRANCH  27  29
HETATM   29  O   UNL     1     -12.037  11.448  68.505  1.00  0.00    -0.550 OA 
HETATM   30  C   UNL     1     -11.428  12.723  68.172  1.00  0.00    -0.314 C  
HETATM   31  C   UNL     1     -11.996  13.868  69.016  1.00  0.00    -0.402 C  
HETATM   32  C   UNL     1      -9.901  12.639  68.282  1.00  0.00    -0.227 C  
HETATM   33  C   UNL     1     -11.806  12.964  66.702  1.00  0.00    -0.461 C  
ENDBRANCH  27  29
ENDBRANCH  26  27
ENDBRANCH  20  25
ENDBRANCH  13  19
ENDBRANCH   4   6
ENDBRANCH   3   4
ENDBRANCH   2   3
TORSDOF 10
ENDMDL
MODEL      105
REMARK 921   NORMALIZED FREE ENERGY PREDICTED BY IDOCK:   -3.71 KCAL/MOL
REMARK 922        TOTAL FREE ENERGY PREDICTED BY IDOCK:   -8.25 KCAL/MOL
REMARK 923 INTER-LIGAND FREE ENERGY PREDICTED BY IDOCK:   -6.49 KCAL/MOL
REMARK 924 INTRA-LIGAND FREE ENERGY PREDICTED BY IDOCK:   -1.75 KCAL/MOL
REMARK 927      BINDING AFFINITY PREDICTED BY RF-SCORE:    0.00 PKD
ROOT
HETATM    1  C   UNL     1     -12.086  12.369  70.321  1.00  0.00    -0.377 C  
HETATM    2  C   UNL     1     -11.831  11.218  69.367  1.00  0.00    -0.355 C  
ENDROOT
BRANCH   2   3
HETATM    3  O   UNL     1     -10.430  11.169  69.044  1.00  0.00    -0.207 OA 
BRANCH   3   4
HETATM    4  C   UNL     1      -9.924   9.922  68.884  1.00  0.00    -0.181 C  
HETATM    5  O   UNL     1     -10.210   9.161  67.970  1.00  0.00    -0.190 OA 
BRANCH   4   6
HETATM    6  C   UNL     1      -8.974   9.573  69.968  1.00  0.00    -0.249 C  
HETATM    7  C   UNL     1      -7.644   9.647  69.719  1.00  0.00    -0.123 C  
HETATM    8  C   UNL     1      -6.986  10.243  68.496  1.00  0.00    -0.066 C  
HETATM    9  N   UNL     1      -6.746   9.136  70.640  1.00  0.00    -0.066 NA 
HETATM   10  C   UNL     1      -7.098   8.330  71.709  1.00  0.00    -0.085 C  
HETATM   11  C   UNL     1      -5.952   7.578  72.345  1.00  0.00    -0.040 C  
HETATM   12  C   UNL     1      -8.395   8.256  72.105  1.00  0.00    -0.232 C  
HETATM   13  C   UNL     1      -9.474   9.043  71.330  1.00  0.00    -0.339 C  
BRANCH  12  14
HETATM   14  C   UNL     1      -8.742   7.400  73.280  1.00  0.00    -0.151 C  
HETATM   15  O   UNL     1      -8.967   7.835  74.400  1.00  0.00    -0.171 OA 
BRANCH  14  16
HETATM   16  O   UNL     1      -8.797   6.085  72.957  1.00  0.00    -0.123 OA 
BRANCH  16  17
HETATM   17  C   UNL     1      -9.386   5.236  73.960  1.00  0.00    -0.129 C  
HETATM   18  C   UNL     1     -10.880   5.037  73.742  1.00  0.00    -0.366 C  
ENDBRANCH  16  17
ENDBRANCH  14  16
ENDBRANCH  12  14
BRANCH  13  19
HETATM   19  C   UNL     1     -10.842   8.346  71.272  1.00  0.00    -0.293 A  
HETATM   20  C   UNL     1     -11.110   7.169  70.547  1.00  0.00    -0.299 A  
HETATM   21  C   UNL     1     -12.397   6.599  70.636  1.00  0.00    -0.161 A  
HETATM   22  C   UNL     1     -11.880   8.918  72.051  1.00  0.00    -0.438 A  
HETATM   23  C   UNL     1     -13.143   8.339  72.124  1.00  0.00    -0.312 A  
HETATM   24  C   UNL     1     -13.399   7.172  71.423  1.00  0.00    -0.380 A  
BRANCH  20  25
HETATM   25  C   UNL     1     -10.116   6.545  69.656  1.00  0.00    -0.209 C  
HETATM   26  C   UNL     1      -9.354   5.502  70.024  1.00  0.00    -0.187 C  
BRANCH  26  27
HETATM   27  C   UNL     1      -8.426   4.790  69.123  1.00  0.00    -0.080 C  
HETATM   28  O   UNL     1      -7.339   4.396  69.518  1.00  0.00    -0.050 OA 
BRANCH  27  29
HETATM   29  O   UNL     1      -8.946   4.645  67.885  1.00  0.00    -0.107 OA 
HETATM   30  C   UNL     1      -8.608   3.488  67.077  1.00  0.00    -0.111 C  
HETATM   31  C   UNL     1      -7.100   3.383  66.828  1.00  0.00    -0.055 C  
HETATM   32  C   UNL     1      -9.173   2.207  67.701  1.00  0.00    -0.197 C  
HETATM   33  C   UNL     1      -9.309   3.733  65.731  1.00  0.00    -0.164 C  
ENDBRANCH  27  29
ENDBRANCH  26  27
ENDBRANCH  20  25
ENDBRANCH  13  19
ENDBRANCH   4   6
ENDBRANCH   3   4
ENDBRANCH   2   3
TORSDOF 10
ENDMDL
MODEL      106
REMARK 921   NORMALIZED FREE ENERGY PREDICTED BY IDOCK:   -3.69 KCAL/MOL
REMARK 922        TOTAL FREE ENERGY PREDICTED BY IDOCK:   -8.22 KCAL/MOL
REMARK 923 INTER-LIGAND FREE ENERGY PREDICTED BY IDOCK:   -6.43 KCAL/MOL
REMARK 924 INTRA-LIGAND FREE ENERGY PREDICTED BY IDOCK:   -1.79 KCAL/MOL
REMARK 927      BINDING AFFINITY PREDICTED BY RF-SCORE:    0.00 PKD
ROOT
HETATM    1  C   UNL     1      -9.794  10.566  63.801  1.00  0.00    -0.363 C  
HETATM    2  C   UNL     1      -9.273  11.025  65.149  1.00  0.00    -0.205 C  
ENDROOT
BRANCH   2   3
HETATM    3  O   UNL     1      -9.261   9.911  66.059  1.00  0.00    -0.153 OA 
BRANCH   3   4
HETATM    4  C   UNL     1      -8.032   9.411  66.334  1.00  0.00    -0.108 C  
HETATM    5  O   UNL     1      -7.378   8.705  65.580  1.00  0.00    -0.082 OA 
BRANCH   4   6
HETATM    6  C   UNL     1      -7.565   9.813  67.683  1.00  0.00    -0.091 C  
HETATM    7  C   UNL     1      -6.498  10.644  67.782  1.00  0.00    -0.060 C  
HETATM    8  C   UNL     1      -5.823  11.386  66.652  1.00  0.00    -0.144 C  
HETATM    9  N   UNL     1      -5.921  10.870  69.020  1.00  0.00    -0.040 NA 
HETATM   10  C   UNL     1      -6.195  10.129  70.157  1.00  0.00    -0.090 C  
HETATM   11  C   UNL     1      -5.192  10.284  71.276  1.00  0.00    -0.082 C  
HETATM   12  C   UNL     1      -7.295   9.334  70.200  1.00  0.00    -0.096 C  
HETATM   13  C   UNL     1      -8.210   9.233  68.959  1.00  0.00    -0.111 C  
BRANCH  12  14
HETATM   14  C   UNL     1      -7.581   8.567  71.449  1.00  0.00    -0.105 C  
HETATM   15  O   UNL     1      -6.876   7.663  71.874  1.00  0.00    -0.059 OA 
BRANCH  14  16
HETATM   16  O   UNL     1      -8.704   9.000  72.071  1.00  0.00    -0.367 OA 
BRANCH  16  17
HETATM   17  C   UNL     1      -9.567   7.959  72.567  1.00  0.00    -0.216 C  
HETATM   18  C   UNL     1     -11.033   8.369  72.554  1.00  0.00    -0.388 C  
ENDBRANCH  16  17
ENDBRANCH  14  16
ENDBRANCH  12  14
BRANCH  13  19
HETATM   19  C   UNL     1      -8.860   7.854  68.767  1.00  0.00    -0.138 A  
HETATM   20  C   UNL     1     -10.248   7.615  68.776  1.00  0.00    -0.210 A  
HETATM   21  C   UNL     1     -10.710   6.308  68.520  1.00  0.00    -0.354 A  
HETATM   22  C   UNL     1      -7.983   6.767  68.516  1.00  0.00    -0.119 A  
HETATM   23  C   UNL     1      -8.462   5.485  68.265  1.00  0.00    -0.097 A  
HETATM   24  C   UNL     1      -9.828   5.257  68.258  1.00  0.00    -0.206 A  
BRANCH  20  25
HETATM   25  C   UNL     1     -11.229   8.666  69.097  1.00  0.00     0.291 C  
HETATM   26  C   UNL     1     -10.920   9.972  69.133  1.00  0.00    -0.256 C  
BRANCH  26  27
HETATM   27  C   UNL     1     -11.900  11.054  69.349  1.00  0.00    -0.335 C  
HETATM   28  O   UNL     1     -12.407  11.239  70.446  1.00  0.00    -0.320 OA 
BRANCH  27  29
HETATM   29  O   UNL     1     -12.119  11.763  68.220  1.00  0.00    -0.525 OA 
HETATM   30  C   UNL     1     -11.593  13.109  68.083  1.00  0.00    -0.339 C  
HETATM   31  C   UNL     1     -12.116  14.043  69.179  1.00  0.00    -0.375 C  
HETATM   32  C   UNL     1     -10.061  13.090  68.035  1.00  0.00    -0.235 C  
HETATM   33  C   UNL     1     -12.124  13.600  66.727  1.00  0.00    -0.445 C  
ENDBRANCH  27  29
ENDBRANCH  26  27
ENDBRANCH  20  25
ENDBRANCH  13  19
ENDBRANCH   4   6
ENDBRANCH   3   4
ENDBRANCH   2   3
TORSDOF 10
ENDMDL
MODEL      107
REMARK 921   NORMALIZED FREE ENERGY PREDICTED BY IDOCK:   -3.68 KCAL/MOL
REMARK 922        TOTAL FREE ENERGY PREDICTED BY IDOCK:   -8.20 KCAL/MOL
REMARK 923 INTER-LIGAND FREE ENERGY PREDICTED BY IDOCK:   -6.17 KCAL/MOL
REMARK 924 INTRA-LIGAND FREE ENERGY PREDICTED BY IDOCK:   -2.03 KCAL/MOL
REMARK 927      BINDING AFFINITY PREDICTED BY RF-SCORE:    0.00 PKD
ROOT
HETATM    1  C   UNL     1      -9.990  16.183  66.033  1.00  0.00    -0.373 C  
HETATM    2  C   UNL     1      -9.984  14.999  65.086  1.00  0.00    -0.234 C  
ENDROOT
BRANCH   2   3
HETATM    3  O   UNL     1      -9.507  13.834  65.782  1.00  0.00    -0.131 OA 
BRANCH   3   4
HETATM    4  C   UNL     1     -10.039  12.660  65.365  1.00  0.00    -0.261 C  
HETATM    5  O   UNL     1     -10.132  12.308  64.197  1.00  0.00    -0.322 OA 
BRANCH   4   6
HETATM    6  C   UNL     1     -10.516  11.838  66.503  1.00  0.00    -0.265 C  
HETATM    7  C   UNL     1     -11.652  12.208  67.144  1.00  0.00    -0.335 C  
HETATM    8  C   UNL     1     -12.627  13.278  66.709  1.00  0.00     0.139 C  
HETATM    9  N   UNL     1     -12.004  11.581  68.326  1.00  0.00    -0.590 NA 
HETATM   10  C   UNL     1     -11.166  10.752  69.052  1.00  0.00    -0.262 C  
HETATM   11  C   UNL     1     -11.600  10.494  70.476  1.00  0.00    -0.441 C  
HETATM   12  C   UNL     1     -10.045  10.247  68.474  1.00  0.00    -0.181 C  
HETATM   13  C   UNL     1      -9.697  10.636  67.020  1.00  0.00    -0.207 C  
BRANCH  12  14
HETATM   14  C   UNL     1      -9.173   9.333  69.271  1.00  0.00    -0.152 C  
HETATM   15  O   UNL     1      -9.210   8.113  69.196  1.00  0.00    -0.151 OA 
BRANCH  14  16
HETATM   16  O   UNL     1      -8.319  10.013  70.076  1.00  0.00    -0.188 OA 
BRANCH  16  17
HETATM   17  C   UNL     1      -7.116   9.303  70.425  1.00  0.00    -0.091 C  
HETATM   18  C   UNL     1      -5.862  10.023  69.946  1.00  0.00    -0.046 C  
ENDBRANCH  16  17
ENDBRANCH  14  16
ENDBRANCH  12  14
BRANCH  13  19
HETATM   19  C   UNL     1      -8.190  10.731  66.738  1.00  0.00    -0.135 A  
HETATM   20  C   UNL     1      -7.466   9.824  65.939  1.00  0.00    -0.103 A  
HETATM   21  C   UNL     1      -6.097  10.070  65.710  1.00  0.00    -0.086 A  
HETATM   22  C   UNL     1      -7.509  11.847  67.290  1.00  0.00    -0.151 A  
HETATM   23  C   UNL     1      -6.157  12.070  67.050  1.00  0.00    -0.132 A  
HETATM   24  C   UNL     1      -5.451  11.184  66.251  1.00  0.00    -0.142 A  
BRANCH  20  25
HETATM   25  C   UNL     1      -8.072   8.602  65.384  1.00  0.00    -0.121 C  
HETATM   26  C   UNL     1      -7.438   7.419  65.350  1.00  0.00    -0.090 C  
BRANCH  26  27
HETATM   27  C   UNL     1      -8.054   6.157  64.896  1.00  0.00    -0.132 C  
HETATM   28  O   UNL     1      -8.350   5.983  63.723  1.00  0.00    -0.074 OA 
BRANCH  27  29
HETATM   29  O   UNL     1      -8.213   5.284  65.915  1.00  0.00    -0.112 OA 
HETATM   30  C   UNL     1      -9.488   4.623  66.124  1.00  0.00    -0.169 C  
HETATM   31  C   UNL     1     -10.624   5.624  66.354  1.00  0.00    -0.254 C  
HETATM   32  C   UNL     1      -9.798   3.665  64.968  1.00  0.00    -0.146 C  
HETATM   33  C   UNL     1      -9.295   3.800  67.409  1.00  0.00    -0.233 C  
ENDBRANCH  27  29
ENDBRANCH  26  27
ENDBRANCH  20  25
ENDBRANCH  13  19
ENDBRANCH   4   6
ENDBRANCH   3   4
ENDBRANCH   2   3
TORSDOF 10
ENDMDL
MODEL      108
REMARK 921   NORMALIZED FREE ENERGY PREDICTED BY IDOCK:   -3.67 KCAL/MOL
REMARK 922        TOTAL FREE ENERGY PREDICTED BY IDOCK:   -8.19 KCAL/MOL
REMARK 923 INTER-LIGAND FREE ENERGY PREDICTED BY IDOCK:   -7.02 KCAL/MOL
REMARK 924 INTRA-LIGAND FREE ENERGY PREDICTED BY IDOCK:   -1.17 KCAL/MOL
REMARK 927      BINDING AFFINITY PREDICTED BY RF-SCORE:    0.00 PKD
ROOT
HETATM    1  C   UNL     1      -6.074   8.636  74.056  1.00  0.00    -0.138 C  
HETATM    2  C   UNL     1      -7.588   8.585  73.983  1.00  0.00    -0.078 C  
ENDROOT
BRANCH   2   3
HETATM    3  O   UNL     1      -7.993   8.427  72.611  1.00  0.00    -0.220 OA 
BRANCH   3   4
HETATM    4  C   UNL     1      -8.342   7.166  72.260  1.00  0.00    -0.109 C  
HETATM    5  O   UNL     1      -8.676   6.287  73.043  1.00  0.00    -0.125 OA 
BRANCH   4   6
HETATM    6  C   UNL     1      -8.261   6.962  70.794  1.00  0.00    -0.122 C  
HETATM    7  C   UNL     1      -7.045   6.988  70.197  1.00  0.00    -0.067 C  
HETATM    8  C   UNL     1      -5.700   7.007  70.888  1.00  0.00    -0.027 C  
HETATM    9  N   UNL     1      -6.960   7.004  68.816  1.00  0.00    -0.076 NA 
HETATM   10  C   UNL     1      -8.032   7.235  67.970  1.00  0.00    -0.119 C  
HETATM   11  C   UNL     1      -7.659   7.592  66.550  1.00  0.00    -0.089 C  
HETATM   12  C   UNL     1      -9.302   7.142  68.443  1.00  0.00    -0.135 C  
HETATM   13  C   UNL     1      -9.536   6.818  69.935  1.00  0.00    -0.159 C  
BRANCH  12  14
HETATM   14  C   UNL     1     -10.439   7.370  67.503  1.00  0.00    -0.268 C  
HETATM   15  O   UNL     1     -10.648   8.427  66.924  1.00  0.00    -0.305 OA 
BRANCH  14  16
HETATM   16  O   UNL     1     -11.206   6.264  67.348  1.00  0.00    -0.328 OA 
BRANCH  16  17
HETATM   17  C   UNL     1     -10.476   5.044  67.112  1.00  0.00    -0.117 C  
HETATM   18  C   UNL     1     -10.430   4.677  65.635  1.00  0.00    -0.260 C  
ENDBRANCH  16  17
ENDBRANCH  14  16
ENDBRANCH  12  14
BRANCH  13  19
HETATM   19  C   UNL     1     -10.781   7.487  70.537  1.00  0.00    -0.244 A  
HETATM   20  C   UNL     1     -11.052   8.868  70.482  1.00  0.00    -0.288 A  
HETATM   21  C   UNL     1     -12.268   9.340  71.018  1.00  0.00    -0.322 A  
HETATM   22  C   UNL     1     -11.736   6.629  71.142  1.00  0.00    -0.399 A  
HETATM   23  C   UNL     1     -12.929   7.116  71.665  1.00  0.00    -0.415 A  
HETATM   24  C   UNL     1     -13.200   8.473  71.594  1.00  0.00    -0.371 A  
BRANCH  20  25
HETATM   25  C   UNL     1     -10.090   9.842  69.938  1.00  0.00    -0.297 C  
HETATM   26  C   UNL     1     -10.411  10.740  68.993  1.00  0.00    -0.235 C  
BRANCH  26  27
HETATM   27  C   UNL     1      -9.501  11.794  68.503  1.00  0.00    -0.163 C  
HETATM   28  O   UNL     1      -8.302  11.756  68.741  1.00  0.00    -0.113 OA 
BRANCH  27  29
HETATM   29  O   UNL     1     -10.160  12.733  67.790  1.00  0.00    -0.214 OA 
HETATM   30  C   UNL     1     -10.679  13.922  68.440  1.00  0.00    -0.257 C  
HETATM   31  C   UNL     1     -11.673  13.579  69.554  1.00  0.00    -0.382 C  
HETATM   32  C   UNL     1      -9.533  14.803  68.951  1.00  0.00    -0.191 C  
HETATM   33  C   UNL     1     -11.428  14.679  67.331  1.00  0.00    -0.384 C  
ENDBRANCH  27  29
ENDBRANCH  26  27
ENDBRANCH  20  25
ENDBRANCH  13  19
ENDBRANCH   4   6
ENDBRANCH   3   4
ENDBRANCH   2   3
TORSDOF 10
ENDMDL
MODEL      109
REMARK 921   NORMALIZED FREE ENERGY PREDICTED BY IDOCK:   -3.65 KCAL/MOL
REMARK 922        TOTAL FREE ENERGY PREDICTED BY IDOCK:   -8.16 KCAL/MOL
REMARK 923 INTER-LIGAND FREE ENERGY PREDICTED BY IDOCK:   -7.67 KCAL/MOL
REMARK 924 INTRA-LIGAND FREE ENERGY PREDICTED BY IDOCK:   -0.48 KCAL/MOL
REMARK 927      BINDING AFFINITY PREDICTED BY RF-SCORE:    0.00 PKD
ROOT
HETATM    1  C   UNL     1      -5.285  10.597  69.688  1.00  0.00    -0.038 C  
HETATM    2  C   UNL     1      -5.244  12.084  69.978  1.00  0.00    -0.088 C  
ENDROOT
BRANCH   2   3
HETATM    3  O   UNL     1      -6.379  12.720  69.364  1.00  0.00    -0.104 OA 
BRANCH   3   4
HETATM    4  C   UNL     1      -6.329  12.797  68.012  1.00  0.00    -0.099 C  
HETATM    5  O   UNL     1      -5.324  13.046  67.361  1.00  0.00    -0.298 OA 
BRANCH   4   6
HETATM    6  C   UNL     1      -7.657  12.553  67.399  1.00  0.00    -0.156 C  
HETATM    7  C   UNL     1      -7.828  11.449  66.631  1.00  0.00    -0.137 C  
HETATM    8  C   UNL     1      -6.859  10.300  66.472  1.00  0.00    -0.101 C  
HETATM    9  N   UNL     1      -8.987  11.306  65.888  1.00  0.00    -0.206 NA 
HETATM   10  C   UNL     1      -9.907  12.317  65.673  1.00  0.00    -0.231 C  
HETATM   11  C   UNL     1     -10.875  12.069  64.539  1.00  0.00    -0.363 C  
HETATM   12  C   UNL     1      -9.886  13.431  66.451  1.00  0.00    -0.299 C  
HETATM   13  C   UNL     1      -8.806  13.574  67.545  1.00  0.00    -0.209 C  
BRANCH  12  14
HETATM   14  C   UNL     1     -10.908  14.494  66.214  1.00  0.00    -0.317 C  
HETATM   15  O   UNL     1     -12.006  14.519  66.752  1.00  0.00    -0.397 OA 
BRANCH  14  16
HETATM   16  O   UNL     1     -10.472  15.441  65.348  1.00  0.00    -0.342 OA 
BRANCH  16  17
HETATM   17  C   UNL     1     -11.463  15.919  64.419  1.00  0.00    -0.264 C  
HETATM   18  C   UNL     1     -12.492  14.851  64.073  1.00  0.00     0.026 C  
ENDBRANCH  16  17
ENDBRANCH  14  16
ENDBRANCH  12  14
BRANCH  13  19
HETATM   19  C   UNL     1      -8.340  15.018  67.784  1.00  0.00    -0.158 A  
HETATM   20  C   UNL     1      -8.812  15.851  68.818  1.00  0.00    -0.213 A  
HETATM   21  C   UNL     1      -8.248  17.135  68.962  1.00  0.00    -0.107 A  
HETATM   22  C   UNL     1      -7.327  15.511  66.922  1.00  0.00    -0.058 A  
HETATM   23  C   UNL     1      -6.784  16.781  67.083  1.00  0.00    -0.224 A  
HETATM   24  C   UNL     1      -7.239  17.592  68.111  1.00  0.00    -0.216 A  
BRANCH  20  25
HETATM   25  C   UNL     1      -9.910  15.452  69.715  1.00  0.00    -0.236 C  
HETATM   26  C   UNL     1     -11.107  16.060  69.725  1.00  0.00    -0.337 C  
BRANCH  26  27
HETATM   27  C   UNL     1     -12.259  15.618  70.536  1.00  0.00    -0.399 C  
HETATM   28  O   UNL     1     -13.341  15.380  70.021  1.00  0.00     0.074 OA 
BRANCH  27  29
HETATM   29  O   UNL     1     -11.938  15.515  71.845  1.00  0.00    -0.342 OA 
HETATM   30  C   UNL     1     -12.906  15.012  72.802  1.00  0.00    -0.410 C  
HETATM   31  C   UNL     1     -14.180  15.861  72.829  1.00  0.00    -0.188 C  
HETATM   32  C   UNL     1     -13.212  13.533  72.536  1.00  0.00    -0.551 C  
HETATM   33  C   UNL     1     -12.207  15.134  74.165  1.00  0.00    -0.686 C  
ENDBRANCH  27  29
ENDBRANCH  26  27
ENDBRANCH  20  25
ENDBRANCH  13  19
ENDBRANCH   4   6
ENDBRANCH   3   4
ENDBRANCH   2   3
TORSDOF 10
ENDMDL
MODEL      110
REMARK 921   NORMALIZED FREE ENERGY PREDICTED BY IDOCK:   -3.65 KCAL/MOL
REMARK 922        TOTAL FREE ENERGY PREDICTED BY IDOCK:   -8.15 KCAL/MOL
REMARK 923 INTER-LIGAND FREE ENERGY PREDICTED BY IDOCK:   -6.06 KCAL/MOL
REMARK 924 INTRA-LIGAND FREE ENERGY PREDICTED BY IDOCK:   -2.10 KCAL/MOL
REMARK 927      BINDING AFFINITY PREDICTED BY RF-SCORE:    0.00 PKD
ROOT
HETATM    1  C   UNL     1      -9.262   9.791  63.636  1.00  0.00    -0.229 C  
HETATM    2  C   UNL     1      -9.111  10.024  65.126  1.00  0.00    -0.204 C  
ENDROOT
BRANCH   2   3
HETATM    3  O   UNL     1     -10.268   9.509  65.808  1.00  0.00    -0.255 OA 
BRANCH   3   4
HETATM    4  C   UNL     1     -10.054   8.378  66.524  1.00  0.00    -0.247 C  
HETATM    5  O   UNL     1     -10.830   7.436  66.594  1.00  0.00    -0.198 OA 
BRANCH   4   6
HETATM    6  C   UNL     1      -8.753   8.416  67.234  1.00  0.00    -0.130 C  
HETATM    7  C   UNL     1      -7.811   7.494  66.919  1.00  0.00    -0.111 C  
HETATM    8  C   UNL     1      -7.851   6.520  65.763  1.00  0.00    -0.104 C  
HETATM    9  N   UNL     1      -6.675   7.381  67.702  1.00  0.00    -0.064 NA 
HETATM   10  C   UNL     1      -6.518   7.980  68.940  1.00  0.00    -0.048 C  
HETATM   11  C   UNL     1      -5.391   7.423  69.779  1.00  0.00    -0.023 C  
HETATM   12  C   UNL     1      -7.351   8.983  69.319  1.00  0.00    -0.070 C  
HETATM   13  C   UNL     1      -8.494   9.420  68.378  1.00  0.00    -0.120 C  
BRANCH  12  14
HETATM   14  C   UNL     1      -7.140   9.630  70.649  1.00  0.00    -0.109 C  
HETATM   15  O   UNL     1      -6.430  10.609  70.830  1.00  0.00    -0.339 OA 
BRANCH  14  16
HETATM   16  O   UNL     1      -7.843   9.018  71.634  1.00  0.00    -0.316 OA 
BRANCH  16  17
HETATM   17  C   UNL     1      -7.043   8.368  72.639  1.00  0.00    -0.067 C  
HETATM   18  C   UNL     1      -7.545   6.965  72.957  1.00  0.00    -0.089 C  
ENDBRANCH  16  17
ENDBRANCH  14  16
ENDBRANCH  12  14
BRANCH  13  19
HETATM   19  C   UNL     1      -9.764   9.888  69.105  1.00  0.00    -0.204 A  
HETATM   20  C   UNL     1     -10.575   9.064  69.910  1.00  0.00    -0.240 A  
HETATM   21  C   UNL     1     -11.676   9.642  70.574  1.00  0.00    -0.312 A  
HETATM   22  C   UNL     1     -10.098  11.262  68.983  1.00  0.00    -0.147 A  
HETATM   23  C   UNL     1     -11.190  11.811  69.647  1.00  0.00    -0.225 A  
HETATM   24  C   UNL     1     -11.975  11.001  70.451  1.00  0.00    -0.459 A  
BRANCH  20  25
HETATM   25  C   UNL     1     -10.348   7.614  70.039  1.00  0.00    -0.223 C  
HETATM   26  C   UNL     1     -10.747   6.901  71.104  1.00  0.00    -0.252 C  
BRANCH  26  27
HETATM   27  C   UNL     1     -10.628   5.434  71.216  1.00  0.00    -0.206 C  
HETATM   28  O   UNL     1     -10.634   4.880  72.305  1.00  0.00    -0.211 OA 
BRANCH  27  29
HETATM   29  O   UNL     1     -10.530   4.847  70.003  1.00  0.00    -0.244 OA 
HETATM   30  C   UNL     1      -9.411   3.975  69.696  1.00  0.00    -0.192 C  
HETATM   31  C   UNL     1      -8.067   4.696  69.835  1.00  0.00    -0.068 C  
HETATM   32  C   UNL     1      -9.466   2.703  70.550  1.00  0.00    -0.195 C  
HETATM   33  C   UNL     1      -9.610   3.590  68.221  1.00  0.00    -0.161 C  
ENDBRANCH  27  29
ENDBRANCH  26  27
ENDBRANCH  20  25
ENDBRANCH  13  19
ENDBRANCH   4   6
ENDBRANCH   3   4
ENDBRANCH   2   3
TORSDOF 10
ENDMDL
MODEL      111
REMARK 921   NORMALIZED FREE ENERGY PREDICTED BY IDOCK:   -3.62 KCAL/MOL
REMARK 922        TOTAL FREE ENERGY PREDICTED BY IDOCK:   -8.10 KCAL/MOL
REMARK 923 INTER-LIGAND FREE ENERGY PREDICTED BY IDOCK:   -6.39 KCAL/MOL
REMARK 924 INTRA-LIGAND FREE ENERGY PREDICTED BY IDOCK:   -1.72 KCAL/MOL
REMARK 927      BINDING AFFINITY PREDICTED BY RF-SCORE:    0.00 PKD
ROOT
HETATM    1  C   UNL     1     -12.195  10.645  69.763  1.00  0.00    -0.318 C  
HETATM    2  C   UNL     1     -12.030  11.948  69.006  1.00  0.00    -0.262 C  
ENDROOT
BRANCH   2   3
HETATM    3  O   UNL     1     -11.754  11.663  67.623  1.00  0.00    -0.513 OA 
BRANCH   3   4
HETATM    4  C   UNL     1     -11.070  12.631  66.966  1.00  0.00    -0.281 C  
HETATM    5  O   UNL     1     -10.994  13.799  67.320  1.00  0.00    -0.284 OA 
BRANCH   4   6
HETATM    6  C   UNL     1     -10.421  12.108  65.739  1.00  0.00    -0.287 C  
HETATM    7  C   UNL     1     -11.165  11.972  64.615  1.00  0.00    -0.326 C  
HETATM    8  C   UNL     1     -12.571  12.481  64.394  1.00  0.00    -0.497 C  
HETATM    9  N   UNL     1     -10.640  11.301  63.524  1.00  0.00    -0.385 NA 
HETATM   10  C   UNL     1      -9.485  10.539  63.558  1.00  0.00    -0.312 C  
HETATM   11  C   UNL     1      -9.307   9.597  62.390  1.00  0.00    -0.142 C  
HETATM   12  C   UNL     1      -8.618  10.667  64.596  1.00  0.00    -0.125 C  
HETATM   13  C   UNL     1      -8.952  11.636  65.752  1.00  0.00    -0.067 C  
BRANCH  12  14
HETATM   14  C   UNL     1      -7.366   9.852  64.593  1.00  0.00    -0.140 C  
HETATM   15  O   UNL     1      -6.262  10.293  64.305  1.00  0.00    -0.133 OA 
BRANCH  14  16
HETATM   16  O   UNL     1      -7.589   8.568  64.966  1.00  0.00    -0.085 OA 
BRANCH  16  17
HETATM   17  C   UNL     1      -6.787   7.587  64.281  1.00  0.00    -0.052 C  
HETATM   18  C   UNL     1      -7.635   6.498  63.636  1.00  0.00    -0.096 C  
ENDBRANCH  16  17
ENDBRANCH  14  16
ENDBRANCH  12  14
BRANCH  13  19
HETATM   19  C   UNL     1      -8.450  11.171  67.128  1.00  0.00    -0.137 A  
HETATM   20  C   UNL     1      -7.599  11.920  67.964  1.00  0.00    -0.122 A  
HETATM   21  C   UNL     1      -7.269  11.400  69.232  1.00  0.00    -0.075 A  
HETATM   22  C   UNL     1      -8.929   9.918  67.590  1.00  0.00    -0.133 A  
HETATM   23  C   UNL     1      -8.591   9.424  68.845  1.00  0.00    -0.131 A  
HETATM   24  C   UNL     1      -7.767  10.171  69.672  1.00  0.00    -0.167 A  
BRANCH  20  25
HETATM   25  C   UNL     1      -6.997  13.196  67.540  1.00  0.00    -0.155 C  
HETATM   26  C   UNL     1      -7.564  14.389  67.778  1.00  0.00    -0.175 C  
BRANCH  26  27
HETATM   27  C   UNL     1      -6.937  15.687  67.460  1.00  0.00    -0.189 C  
HETATM   28  O   UNL     1      -6.817  16.065  66.304  1.00  0.00     0.136 OA 
BRANCH  27  29
HETATM   29  O   UNL     1      -6.558  16.347  68.577  1.00  0.00    -0.129 OA 
HETATM   30  C   UNL     1      -6.682  17.790  68.656  1.00  0.00    -0.230 C  
HETATM   31  C   UNL     1      -5.883  18.496  67.556  1.00  0.00    -0.163 C  
HETATM   32  C   UNL     1      -8.157  18.209  68.645  1.00  0.00    -0.301 C  
HETATM   33  C   UNL     1      -6.073  18.161  70.017  1.00  0.00    -0.109 C  
ENDBRANCH  27  29
ENDBRANCH  26  27
ENDBRANCH  20  25
ENDBRANCH  13  19
ENDBRANCH   4   6
ENDBRANCH   3   4
ENDBRANCH   2   3
TORSDOF 10
ENDMDL
MODEL      112
REMARK 921   NORMALIZED FREE ENERGY PREDICTED BY IDOCK:   -3.56 KCAL/MOL
REMARK 922        TOTAL FREE ENERGY PREDICTED BY IDOCK:   -8.00 KCAL/MOL
REMARK 923 INTER-LIGAND FREE ENERGY PREDICTED BY IDOCK:   -6.42 KCAL/MOL
REMARK 924 INTRA-LIGAND FREE ENERGY PREDICTED BY IDOCK:   -1.58 KCAL/MOL
REMARK 927      BINDING AFFINITY PREDICTED BY RF-SCORE:    0.00 PKD
ROOT
HETATM    1  C   UNL     1     -10.208  18.013  67.977  1.00  0.00    -0.390 C  
HETATM    2  C   UNL     1      -9.945  16.586  68.418  1.00  0.00    -0.250 C  
ENDROOT
BRANCH   2   3
HETATM    3  O   UNL     1      -8.710  16.129  67.840  1.00  0.00    -0.172 OA 
BRANCH   3   4
HETATM    4  C   UNL     1      -8.816  15.022  67.065  1.00  0.00    -0.234 C  
HETATM    5  O   UNL     1      -8.821  15.021  65.842  1.00  0.00    -0.048 OA 
BRANCH   4   6
HETATM    6  C   UNL     1      -8.937  13.791  67.882  1.00  0.00    -0.193 C  
HETATM    7  C   UNL     1      -7.852  13.351  68.564  1.00  0.00    -0.115 C  
HETATM    8  C   UNL     1      -6.545  14.086  68.754  1.00  0.00    -0.096 C  
HETATM    9  N   UNL     1      -7.881  12.104  69.164  1.00  0.00     0.181 NA 
HETATM   10  C   UNL     1      -8.854  11.148  68.932  1.00  0.00    -0.079 C  
HETATM   11  C   UNL     1      -8.493   9.749  69.375  1.00  0.00    -0.161 C  
HETATM   12  C   UNL     1     -10.024  11.500  68.339  1.00  0.00    -0.206 C  
HETATM   13  C   UNL     1     -10.240  12.963  67.892  1.00  0.00    -0.233 C  
BRANCH  12  14
HETATM   14  C   UNL     1     -11.068  10.453  68.126  1.00  0.00    -0.285 C  
HETATM   15  O   UNL     1     -10.900   9.446  67.453  1.00  0.00    -0.263 OA 
BRANCH  14  16
HETATM   16  O   UNL     1     -12.220  10.737  68.781  1.00  0.00    -0.460 OA 
BRANCH  16  17
HETATM   17  C   UNL     1     -12.400  10.039  70.028  1.00  0.00     0.083 C  
HETATM   18  C   UNL     1     -12.525  10.992  71.209  1.00  0.00    -0.475 C  
ENDBRANCH  16  17
ENDBRANCH  14  16
ENDBRANCH  12  14
BRANCH  13  19
HETATM   19  C   UNL     1     -11.093  13.113  66.622  1.00  0.00    -0.316 A  
HETATM   20  C   UNL     1     -10.811  12.490  65.390  1.00  0.00    -0.316 A  
HETATM   21  C   UNL     1     -11.716  12.662  64.324  1.00  0.00    -0.446 A  
HETATM   22  C   UNL     1     -12.268  13.899  66.735  1.00  0.00    -0.438 A  
HETATM   23  C   UNL     1     -13.148  14.055  65.669  1.00  0.00    -0.189 A  
HETATM   24  C   UNL     1     -12.877  13.428  64.464  1.00  0.00    -0.075 A  
BRANCH  20  25
HETATM   25  C   UNL     1      -9.579  11.716  65.160  1.00  0.00    -0.206 C  
HETATM   26  C   UNL     1      -9.416  10.894  64.111  1.00  0.00    -0.295 C  
BRANCH  26  27
HETATM   27  C   UNL     1      -8.159  10.186  63.796  1.00  0.00    -0.160 C  
HETATM   28  O   UNL     1      -7.934   9.765  62.671  1.00  0.00    -0.119 OA 
BRANCH  27  29
HETATM   29  O   UNL     1      -7.351  10.098  64.876  1.00  0.00    -0.137 OA 
HETATM   30  C   UNL     1      -6.954   8.802  65.393  1.00  0.00    -0.076 C  
HETATM   31  C   UNL     1      -8.161   7.952  65.801  1.00  0.00    -0.130 C  
HETATM   32  C   UNL     1      -6.056   8.069  64.389  1.00  0.00    -0.056 C  
HETATM   33  C   UNL     1      -6.132   9.119  66.652  1.00  0.00    -0.064 C  
ENDBRANCH  27  29
ENDBRANCH  26  27
ENDBRANCH  20  25
ENDBRANCH  13  19
ENDBRANCH   4   6
ENDBRANCH   3   4
ENDBRANCH   2   3
TORSDOF 10
ENDMDL
MODEL      113
REMARK 921   NORMALIZED FREE ENERGY PREDICTED BY IDOCK:   -3.53 KCAL/MOL
REMARK 922        TOTAL FREE ENERGY PREDICTED BY IDOCK:   -7.95 KCAL/MOL
REMARK 923 INTER-LIGAND FREE ENERGY PREDICTED BY IDOCK:   -5.96 KCAL/MOL
REMARK 924 INTRA-LIGAND FREE ENERGY PREDICTED BY IDOCK:   -1.99 KCAL/MOL
REMARK 927      BINDING AFFINITY PREDICTED BY RF-SCORE:    0.00 PKD
ROOT
HETATM    1  C   UNL     1      -6.212   8.527  74.080  1.00  0.00    -0.145 C  
HETATM    2  C   UNL     1      -7.722   8.588  73.956  1.00  0.00    -0.072 C  
ENDROOT
BRANCH   2   3
HETATM    3  O   UNL     1      -8.095   8.379  72.583  1.00  0.00    -0.226 OA 
BRANCH   3   4
HETATM    4  C   UNL     1      -8.391   7.096  72.260  1.00  0.00    -0.109 C  
HETATM    5  O   UNL     1      -8.691   6.223  73.062  1.00  0.00    -0.125 OA 
BRANCH   4   6
HETATM    6  C   UNL     1      -8.298   6.863  70.799  1.00  0.00    -0.127 C  
HETATM    7  C   UNL     1      -7.074   6.853  70.216  1.00  0.00    -0.067 C  
HETATM    8  C   UNL     1      -5.737   6.861  70.922  1.00  0.00    -0.027 C  
HETATM    9  N   UNL     1      -6.974   6.840  68.836  1.00  0.00    -0.083 NA 
HETATM   10  C   UNL     1      -8.032   7.075  67.974  1.00  0.00    -0.115 C  
HETATM   11  C   UNL     1      -7.636   7.397  66.551  1.00  0.00    -0.092 C  
HETATM   12  C   UNL     1      -9.308   7.016  68.434  1.00  0.00    -0.130 C  
HETATM   13  C   UNL     1      -9.566   6.725  69.928  1.00  0.00    -0.159 C  
BRANCH  12  14
HETATM   14  C   UNL     1     -10.431   7.247  67.475  1.00  0.00    -0.266 C  
HETATM   15  O   UNL     1     -10.658   8.319  66.933  1.00  0.00    -0.321 OA 
BRANCH  14  16
HETATM   16  O   UNL     1     -11.160   6.124  67.260  1.00  0.00    -0.333 OA 
BRANCH  16  17
HETATM   17  C   UNL     1     -10.392   4.959  66.900  1.00  0.00    -0.186 C  
HETATM   18  C   UNL     1     -10.585   4.571  65.440  1.00  0.00    -0.195 C  
ENDBRANCH  16  17
ENDBRANCH  14  16
ENDBRANCH  12  14
BRANCH  13  19
HETATM   19  C   UNL     1     -10.805   7.430  70.502  1.00  0.00    -0.259 A  
HETATM   20  C   UNL     1     -10.997   8.825  70.516  1.00  0.00    -0.272 A  
HETATM   21  C   UNL     1     -12.213   9.334  71.015  1.00  0.00    -0.322 A  
HETATM   22  C   UNL     1     -11.836   6.595  71.004  1.00  0.00    -0.427 A  
HETATM   23  C   UNL     1     -13.029   7.119  71.491  1.00  0.00    -0.431 A  
HETATM   24  C   UNL     1     -13.222   8.491  71.488  1.00  0.00    -0.324 A  
BRANCH  20  25
HETATM   25  C   UNL     1      -9.954   9.771  70.083  1.00  0.00    -0.315 C  
HETATM   26  C   UNL     1     -10.069  10.537  68.986  1.00  0.00    -0.230 C  
BRANCH  26  27
HETATM   27  C   UNL     1      -9.090  11.567  68.584  1.00  0.00    -0.120 C  
HETATM   28  O   UNL     1      -9.326  12.757  68.735  1.00  0.00    -0.030 OA 
BRANCH  27  29
HETATM   29  O   UNL     1      -7.968  11.017  68.071  1.00  0.00    -0.108 OA 
HETATM   30  C   UNL     1      -6.685  11.226  68.717  1.00  0.00    -0.070 C  
HETATM   31  C   UNL     1      -6.325  12.712  68.808  1.00  0.00    -0.080 C  
HETATM   32  C   UNL     1      -6.653  10.547  70.091  1.00  0.00    -0.149 C  
HETATM   33  C   UNL     1      -5.667  10.532  67.798  1.00  0.00    -0.044 C  
ENDBRANCH  27  29
ENDBRANCH  26  27
ENDBRANCH  20  25
ENDBRANCH  13  19
ENDBRANCH   4   6
ENDBRANCH   3   4
ENDBRANCH   2   3
TORSDOF 10
ENDMDL
MODEL      114
REMARK 921   NORMALIZED FREE ENERGY PREDICTED BY IDOCK:   -3.48 KCAL/MOL
REMARK 922        TOTAL FREE ENERGY PREDICTED BY IDOCK:   -7.88 KCAL/MOL
REMARK 923 INTER-LIGAND FREE ENERGY PREDICTED BY IDOCK:   -6.58 KCAL/MOL
REMARK 924 INTRA-LIGAND FREE ENERGY PREDICTED BY IDOCK:   -1.31 KCAL/MOL
REMARK 927      BINDING AFFINITY PREDICTED BY RF-SCORE:    0.00 PKD
ROOT
HETATM    1  C   UNL     1     -10.344   7.522  70.456  1.00  0.00    -0.217 C  
HETATM    2  C   UNL     1      -8.916   8.030  70.496  1.00  0.00    -0.152 C  
ENDROOT
BRANCH   2   3
HETATM    3  O   UNL     1      -8.921   9.467  70.429  1.00  0.00    -0.237 OA 
BRANCH   3   4
HETATM    4  C   UNL     1      -7.819  10.017  69.865  1.00  0.00    -0.174 C  
HETATM    5  O   UNL     1      -6.923  10.580  70.480  1.00  0.00    -0.307 OA 
BRANCH   4   6
HETATM    6  C   UNL     1      -7.824   9.866  68.390  1.00  0.00    -0.085 C  
HETATM    7  C   UNL     1      -6.675   9.506  67.767  1.00  0.00    -0.067 C  
HETATM    8  C   UNL     1      -5.398   9.039  68.427  1.00  0.00    -0.038 C  
HETATM    9  N   UNL     1      -6.601   9.557  66.386  1.00  0.00    -0.070 NA 
HETATM   10  C   UNL     1      -7.538  10.175  65.576  1.00  0.00    -0.146 C  
HETATM   11  C   UNL     1      -7.077  10.449  64.163  1.00  0.00     0.024 C  
HETATM   12  C   UNL     1      -8.760  10.495  66.074  1.00  0.00    -0.174 C  
HETATM   13  C   UNL     1      -9.079  10.200  67.556  1.00  0.00    -0.143 C  
BRANCH  12  14
HETATM   14  C   UNL     1      -9.761  11.137  65.169  1.00  0.00    -0.250 C  
HETATM   15  O   UNL     1     -10.524  10.516  64.443  1.00  0.00    -0.304 OA 
BRANCH  14  16
HETATM   16  O   UNL     1      -9.740  12.489  65.259  1.00  0.00    -0.185 OA 
BRANCH  16  17
HETATM   17  C   UNL     1     -10.845  13.159  64.623  1.00  0.00    -0.366 C  
HETATM   18  C   UNL     1     -12.096  13.161  65.492  1.00  0.00    -0.490 C  
ENDBRANCH  16  17
ENDBRANCH  14  16
ENDBRANCH  12  14
BRANCH  13  19
HETATM   19  C   UNL     1     -10.019  11.223  68.213  1.00  0.00    -0.201 A  
HETATM   20  C   UNL     1      -9.695  12.574  68.444  1.00  0.00    -0.189 A  
HETATM   21  C   UNL     1     -10.679  13.419  68.996  1.00  0.00    -0.160 A  
HETATM   22  C   UNL     1     -11.317  10.765  68.557  1.00  0.00    -0.360 A  
HETATM   23  C   UNL     1     -12.273  11.617  69.100  1.00  0.00    -0.201 A  
HETATM   24  C   UNL     1     -11.957  12.949  69.312  1.00  0.00    -0.313 A  
BRANCH  20  25
HETATM   25  C   UNL     1      -8.352  13.121  68.185  1.00  0.00    -0.161 C  
HETATM   26  C   UNL     1      -8.088  14.438  68.167  1.00  0.00    -0.137 C  
BRANCH  26  27
HETATM   27  C   UNL     1      -6.737  15.012  68.014  1.00  0.00    -0.145 C  
HETATM   28  O   UNL     1      -5.875  14.439  67.364  1.00  0.00    -0.346 OA 
BRANCH  27  29
HETATM   29  O   UNL     1      -6.623  16.197  68.653  1.00  0.00    -0.119 OA 
HETATM   30  C   UNL     1      -6.842  17.442  67.939  1.00  0.00    -0.178 C  
HETATM   31  C   UNL     1      -5.884  17.600  66.754  1.00  0.00    -0.203 C  
HETATM   32  C   UNL     1      -8.308  17.568  67.507  1.00  0.00    -0.220 C  
HETATM   33  C   UNL     1      -6.533  18.542  68.968  1.00  0.00    -0.265 C  
ENDBRANCH  27  29
ENDBRANCH  26  27
ENDBRANCH  20  25
ENDBRANCH  13  19
ENDBRANCH   4   6
ENDBRANCH   3   4
ENDBRANCH   2   3
TORSDOF 10
ENDMDL
MODEL      115
REMARK 921   NORMALIZED FREE ENERGY PREDICTED BY IDOCK:   -3.48 KCAL/MOL
REMARK 922        TOTAL FREE ENERGY PREDICTED BY IDOCK:   -7.87 KCAL/MOL
REMARK 923 INTER-LIGAND FREE ENERGY PREDICTED BY IDOCK:   -7.66 KCAL/MOL
REMARK 924 INTRA-LIGAND FREE ENERGY PREDICTED BY IDOCK:   -0.21 KCAL/MOL
REMARK 927      BINDING AFFINITY PREDICTED BY RF-SCORE:    0.00 PKD
ROOT
HETATM    1  C   UNL     1     -11.034  16.071  70.335  1.00  0.00    -0.347 C  
HETATM    2  C   UNL     1     -10.067  15.915  69.177  1.00  0.00    -0.240 C  
ENDROOT
BRANCH   2   3
HETATM    3  O   UNL     1      -9.059  14.950  69.526  1.00  0.00    -0.107 OA 
BRANCH   3   4
HETATM    4  C   UNL     1      -8.546  14.257  68.480  1.00  0.00    -0.175 C  
HETATM    5  O   UNL     1      -7.647  13.430  68.561  1.00  0.00    -0.124 OA 
BRANCH   4   6
HETATM    6  C   UNL     1      -9.199  14.627  67.202  1.00  0.00    -0.231 C  
HETATM    7  C   UNL     1      -8.935  15.842  66.662  1.00  0.00    -0.280 C  
HETATM    8  C   UNL     1      -7.876  16.821  67.115  1.00  0.00    -0.208 C  
HETATM    9  N   UNL     1      -9.681  16.289  65.586  1.00  0.00    -0.500 NA 
HETATM   10  C   UNL     1     -10.853  15.696  65.147  1.00  0.00    -0.431 C  
HETATM   11  C   UNL     1     -11.697  16.550  64.230  1.00  0.00     0.448 C  
HETATM   12  C   UNL     1     -11.170  14.439  65.553  1.00  0.00    -0.330 C  
HETATM   13  C   UNL     1     -10.236  13.698  66.535  1.00  0.00    -0.284 C  
BRANCH  12  14
HETATM   14  C   UNL     1     -12.426  13.812  65.042  1.00  0.00    -0.416 C  
HETATM   15  O   UNL     1     -13.471  13.761  65.675  1.00  0.00    -0.522 OA 
BRANCH  14  16
HETATM   16  O   UNL     1     -12.281  13.323  63.787  1.00  0.00    -0.561 OA 
BRANCH  16  17
HETATM   17  C   UNL     1     -12.207  11.887  63.698  1.00  0.00    -0.479 C  
HETATM   18  C   UNL     1     -10.769  11.385  63.677  1.00  0.00    -0.470 C  
ENDBRANCH  16  17
ENDBRANCH  14  16
ENDBRANCH  12  14
BRANCH  13  19
HETATM   19  C   UNL     1     -10.965  12.762  67.512  1.00  0.00    -0.280 A  
HETATM   20  C   UNL     1     -10.690  11.388  67.659  1.00  0.00    -0.261 A  
HETATM   21  C   UNL     1     -11.391  10.661  68.642  1.00  0.00    -0.345 A  
HETATM   22  C   UNL     1     -11.945  13.354  68.349  1.00  0.00    -0.359 A  
HETATM   23  C   UNL     1     -12.625  12.617  69.313  1.00  0.00     0.546 A  
HETATM   24  C   UNL     1     -12.341  11.270  69.467  1.00  0.00    -0.243 A  
BRANCH  20  25
HETATM   25  C   UNL     1      -9.742  10.673  66.787  1.00  0.00    -0.222 C  
HETATM   26  C   UNL     1      -9.493   9.358  66.896  1.00  0.00    -0.204 C  
BRANCH  26  27
HETATM   27  C   UNL     1      -8.630   8.595  65.974  1.00  0.00    -0.155 C  
HETATM   28  O   UNL     1      -8.445   8.969  64.825  1.00  0.00    -0.164 OA 
BRANCH  27  29
HETATM   29  O   UNL     1      -8.104   7.503  66.570  1.00  0.00    -0.113 OA 
HETATM   30  C   UNL     1      -8.696   6.194  66.360  1.00  0.00    -0.138 C  
HETATM   31  C   UNL     1     -10.163   6.151  66.801  1.00  0.00    -0.264 C  
HETATM   32  C   UNL     1      -8.526   5.750  64.903  1.00  0.00    -0.103 C  
HETATM   33  C   UNL     1      -7.887   5.250  67.263  1.00  0.00    -0.100 C  
ENDBRANCH  27  29
ENDBRANCH  26  27
ENDBRANCH  20  25
ENDBRANCH  13  19
ENDBRANCH   4   6
ENDBRANCH   3   4
ENDBRANCH   2   3
TORSDOF 10
ENDMDL
MODEL      116
REMARK 921   NORMALIZED FREE ENERGY PREDICTED BY IDOCK:   -3.45 KCAL/MOL
REMARK 922        TOTAL FREE ENERGY PREDICTED BY IDOCK:   -7.83 KCAL/MOL
REMARK 923 INTER-LIGAND FREE ENERGY PREDICTED BY IDOCK:   -5.63 KCAL/MOL
REMARK 924 INTRA-LIGAND FREE ENERGY PREDICTED BY IDOCK:   -2.19 KCAL/MOL
REMARK 927      BINDING AFFINITY PREDICTED BY RF-SCORE:    0.00 PKD
ROOT
HETATM    1  C   UNL     1     -12.061   1.657  73.599  1.00  0.00    -0.228 C  
HETATM    2  C   UNL     1     -10.642   2.145  73.819  1.00  0.00    -0.139 C  
ENDROOT
BRANCH   2   3
HETATM    3  O   UNL     1     -10.452   3.387  73.119  1.00  0.00    -0.153 OA 
BRANCH   3   4
HETATM    4  C   UNL     1      -9.662   3.310  72.021  1.00  0.00    -0.165 C  
HETATM    5  O   UNL     1      -9.871   2.588  71.057  1.00  0.00    -0.127 OA 
BRANCH   4   6
HETATM    6  C   UNL     1      -8.487   4.209  72.127  1.00  0.00    -0.110 C  
HETATM    7  C   UNL     1      -7.385   3.767  72.780  1.00  0.00    -0.062 C  
HETATM    8  C   UNL     1      -7.124   2.359  73.264  1.00  0.00    -0.032 C  
HETATM    9  N   UNL     1      -6.359   4.652  73.066  1.00  0.00    -0.036 NA 
HETATM   10  C   UNL     1      -6.459   6.028  72.949  1.00  0.00    -0.064 C  
HETATM   11  C   UNL     1      -5.384   6.809  73.669  1.00  0.00    -0.042 C  
HETATM   12  C   UNL     1      -7.476   6.576  72.234  1.00  0.00    -0.095 C  
HETATM   13  C   UNL     1      -8.536   5.656  71.590  1.00  0.00    -0.131 C  
BRANCH  12  14
HETATM   14  C   UNL     1      -7.543   8.062  72.101  1.00  0.00    -0.104 C  
HETATM   15  O   UNL     1      -7.860   8.817  73.010  1.00  0.00    -0.387 OA 
BRANCH  14  16
HETATM   16  O   UNL     1      -7.193   8.482  70.861  1.00  0.00    -0.053 OA 
BRANCH  16  17
HETATM   17  C   UNL     1      -8.125   9.389  70.240  1.00  0.00    -0.164 C  
HETATM   18  C   UNL     1      -8.519   8.940  68.839  1.00  0.00    -0.131 C  
ENDBRANCH  16  17
ENDBRANCH  14  16
ENDBRANCH  12  14
BRANCH  13  19
HETATM   19  C   UNL     1      -9.947   6.262  71.538  1.00  0.00    -0.208 A  
HETATM   20  C   UNL     1     -10.797   6.214  70.416  1.00  0.00    -0.374 A  
HETATM   21  C   UNL     1     -12.095   6.754  70.529  1.00  0.00    -0.332 A  
HETATM   22  C   UNL     1     -10.425   6.863  72.731  1.00  0.00    -0.252 A  
HETATM   23  C   UNL     1     -11.710   7.390  72.819  1.00  0.00    -0.184 A  
HETATM   24  C   UNL     1     -12.550   7.327  71.719  1.00  0.00    -0.376 A  
BRANCH  20  25
HETATM   25  C   UNL     1     -10.362   5.674  69.117  1.00  0.00    -0.328 C  
HETATM   26  C   UNL     1     -10.848   6.108  67.942  1.00  0.00    -0.406 C  
BRANCH  26  27
HETATM   27  C   UNL     1     -10.358   5.661  66.623  1.00  0.00    -0.256 C  
HETATM   28  O   UNL     1     -10.582   4.531  66.215  1.00  0.00    -0.227 OA 
BRANCH  27  29
HETATM   29  O   UNL     1      -9.683   6.641  65.983  1.00  0.00     0.010 OA 
HETATM   30  C   UNL     1      -8.322   6.421  65.531  1.00  0.00    -0.147 C  
HETATM   31  C   UNL     1      -7.384   6.060  66.686  1.00  0.00    -0.078 C  
HETATM   32  C   UNL     1      -8.285   5.367  64.417  1.00  0.00    -0.133 C  
HETATM   33  C   UNL     1      -7.881   7.773  64.947  1.00  0.00    -0.123 C  
ENDBRANCH  27  29
ENDBRANCH  26  27
ENDBRANCH  20  25
ENDBRANCH  13  19
ENDBRANCH   4   6
ENDBRANCH   3   4
ENDBRANCH   2   3
TORSDOF 10
ENDMDL
MODEL      117
REMARK 921   NORMALIZED FREE ENERGY PREDICTED BY IDOCK:   -3.44 KCAL/MOL
REMARK 922        TOTAL FREE ENERGY PREDICTED BY IDOCK:   -7.81 KCAL/MOL
REMARK 923 INTER-LIGAND FREE ENERGY PREDICTED BY IDOCK:   -6.39 KCAL/MOL
REMARK 924 INTRA-LIGAND FREE ENERGY PREDICTED BY IDOCK:   -1.42 KCAL/MOL
REMARK 927      BINDING AFFINITY PREDICTED BY RF-SCORE:    0.00 PKD
ROOT
HETATM    1  C   UNL     1      -8.165  17.172  66.322  1.00  0.00    -0.306 C  
HETATM    2  C   UNL     1      -7.598  15.826  66.733  1.00  0.00    -0.142 C  
ENDROOT
BRANCH   2   3
HETATM    3  O   UNL     1      -8.677  14.944  67.089  1.00  0.00    -0.192 OA 
BRANCH   3   4
HETATM    4  C   UNL     1      -8.576  14.385  68.319  1.00  0.00    -0.170 C  
HETATM    5  O   UNL     1      -7.526  14.173  68.909  1.00  0.00    -0.123 OA 
BRANCH   4   6
HETATM    6  C   UNL     1      -9.907  14.042  68.877  1.00  0.00    -0.077 C  
HETATM    7  C   UNL     1     -10.581  14.984  69.581  1.00  0.00    -0.238 C  
HETATM    8  C   UNL     1     -10.221  16.446  69.710  1.00  0.00    -0.142 C  
HETATM    9  N   UNL     1     -11.723  14.629  70.278  1.00  0.00    -0.283 NA 
HETATM   10  C   UNL     1     -12.118  13.324  70.517  1.00  0.00    -0.314 C  
HETATM   11  C   UNL     1     -13.153  13.160  71.606  1.00  0.00    -0.444 C  
HETATM   12  C   UNL     1     -11.573  12.307  69.799  1.00  0.00    -0.314 C  
HETATM   13  C   UNL     1     -10.485  12.616  68.748  1.00  0.00    -0.167 C  
BRANCH  12  14
HETATM   14  C   UNL     1     -12.038  10.912  70.059  1.00  0.00    -0.355 C  
HETATM   15  O   UNL     1     -12.575  10.202  69.220  1.00  0.00     0.197 OA 
BRANCH  14  16
HETATM   16  O   UNL     1     -11.781  10.514  71.329  1.00  0.00    -0.306 OA 
BRANCH  16  17
HETATM   17  C   UNL     1     -11.851   9.092  71.548  1.00  0.00    -0.345 C  
HETATM   18  C   UNL     1     -10.658   8.570  72.338  1.00  0.00    -0.368 C  
ENDBRANCH  16  17
ENDBRANCH  14  16
ENDBRANCH  12  14
BRANCH  13  19
HETATM   19  C   UNL     1      -9.423  11.516  68.599  1.00  0.00    -0.146 A  
HETATM   20  C   UNL     1      -8.765  11.196  67.395  1.00  0.00    -0.133 A  
HETATM   21  C   UNL     1      -7.762  10.206  67.416  1.00  0.00    -0.095 A  
HETATM   22  C   UNL     1      -9.059  10.819  69.780  1.00  0.00     0.416 A  
HETATM   23  C   UNL     1      -8.066   9.846  69.778  1.00  0.00    -0.185 A  
HETATM   24  C   UNL     1      -7.409   9.545  68.595  1.00  0.00    -0.075 A  
BRANCH  20  25
HETATM   25  C   UNL     1      -9.126  11.816  66.108  1.00  0.00    -0.189 C  
HETATM   26  C   UNL     1     -10.211  11.461  65.402  1.00  0.00    -0.320 C  
BRANCH  26  27
HETATM   27  C   UNL     1     -10.655  12.132  64.165  1.00  0.00    -0.365 C  
HETATM   28  O   UNL     1     -11.098  11.493  63.222  1.00  0.00    -0.341 OA 
BRANCH  27  29
HETATM   29  O   UNL     1     -10.514  13.474  64.246  1.00  0.00    -0.414 OA 
HETATM   30  C   UNL     1     -11.656  14.316  64.553  1.00  0.00    -0.387 C  
HETATM   31  C   UNL     1     -12.781  14.153  63.525  1.00  0.00     0.687 C  
HETATM   32  C   UNL     1     -12.149  14.061  65.982  1.00  0.00    -0.461 C  
HETATM   33  C   UNL     1     -11.117  15.752  64.464  1.00  0.00    -0.293 C  
ENDBRANCH  27  29
ENDBRANCH  26  27
ENDBRANCH  20  25
ENDBRANCH  13  19
ENDBRANCH   4   6
ENDBRANCH   3   4
ENDBRANCH   2   3
TORSDOF 10
ENDMDL
MODEL      118
REMARK 921   NORMALIZED FREE ENERGY PREDICTED BY IDOCK:   -3.42 KCAL/MOL
REMARK 922        TOTAL FREE ENERGY PREDICTED BY IDOCK:   -7.79 KCAL/MOL
REMARK 923 INTER-LIGAND FREE ENERGY PREDICTED BY IDOCK:   -6.18 KCAL/MOL
REMARK 924 INTRA-LIGAND FREE ENERGY PREDICTED BY IDOCK:   -1.61 KCAL/MOL
REMARK 927      BINDING AFFINITY PREDICTED BY RF-SCORE:    0.00 PKD
ROOT
HETATM    1  C   UNL     1      -9.765   8.464  72.225  1.00  0.00    -0.386 C  
HETATM    2  C   UNL     1      -9.155   7.650  71.100  1.00  0.00    -0.146 C  
ENDROOT
BRANCH   2   3
HETATM    3  O   UNL     1      -8.881   8.514  69.983  1.00  0.00    -0.135 OA 
BRANCH   3   4
HETATM    4  C   UNL     1      -9.929   8.722  69.150  1.00  0.00    -0.191 C  
HETATM    5  O   UNL     1     -10.814   9.548  69.328  1.00  0.00    -0.228 OA 
BRANCH   4   6
HETATM    6  C   UNL     1      -9.890   7.811  67.981  1.00  0.00    -0.192 C  
HETATM    7  C   UNL     1     -10.488   6.598  68.078  1.00  0.00    -0.216 C  
HETATM    8  C   UNL     1     -11.384   6.120  69.199  1.00  0.00    -0.303 C  
HETATM    9  N   UNL     1     -10.293   5.657  67.083  1.00  0.00    -0.220 NA 
HETATM   10  C   UNL     1      -9.335   5.759  66.089  1.00  0.00    -0.144 C  
HETATM   11  C   UNL     1      -9.035   4.472  65.357  1.00  0.00    -0.141 C  
HETATM   12  C   UNL     1      -8.738   6.954  65.842  1.00  0.00    -0.146 C  
HETATM   13  C   UNL     1      -9.107   8.182  66.703  1.00  0.00    -0.202 C  
BRANCH  12  14
HETATM   14  C   UNL     1      -7.728   7.042  64.745  1.00  0.00    -0.115 C  
HETATM   15  O   UNL     1      -6.660   6.446  64.749  1.00  0.00    -0.037 OA 
BRANCH  14  16
HETATM   16  O   UNL     1      -8.138   7.845  63.733  1.00  0.00    -0.144 OA 
BRANCH  16  17
HETATM   17  C   UNL     1      -7.167   8.813  63.291  1.00  0.00    -0.094 C  
HETATM   18  C   UNL     1      -7.817  10.107  62.821  1.00  0.00    -0.150 C  
ENDBRANCH  16  17
ENDBRANCH  14  16
ENDBRANCH  12  14
BRANCH  13  19
HETATM   19  C   UNL     1      -7.945   9.159  66.938  1.00  0.00    -0.105 A  
HETATM   20  C   UNL     1      -8.002  10.545  66.690  1.00  0.00    -0.125 A  
HETATM   21  C   UNL     1      -6.880  11.335  67.013  1.00  0.00    -0.126 A  
HETATM   22  C   UNL     1      -6.756   8.614  67.489  1.00  0.00    -0.066 A  
HETATM   23  C   UNL     1      -5.661   9.413  67.800  1.00  0.00    -0.041 A  
HETATM   24  C   UNL     1      -5.727  10.778  67.571  1.00  0.00    -0.044 A  
BRANCH  20  25
HETATM   25  C   UNL     1      -9.165  11.187  66.055  1.00  0.00    -0.223 C  
HETATM   26  C   UNL     1     -10.129  11.811  66.751  1.00  0.00    -0.235 C  
BRANCH  26  27
HETATM   27  C   UNL     1     -11.250  12.552  66.139  1.00  0.00    -0.321 C  
HETATM   28  O   UNL     1     -11.848  12.108  65.171  1.00  0.00    -0.358 OA 
BRANCH  27  29
HETATM   29  O   UNL     1     -11.496  13.711  66.789  1.00  0.00    -0.320 OA 
HETATM   30  C   UNL     1     -10.819  14.933  66.394  1.00  0.00    -0.325 C  
HETATM   31  C   UNL     1      -9.296  14.803  66.494  1.00  0.00    -0.316 C  
HETATM   32  C   UNL     1     -11.263  15.370  64.993  1.00  0.00    -0.393 C  
HETATM   33  C   UNL     1     -11.288  15.985  67.412  1.00  0.00     0.003 C  
ENDBRANCH  27  29
ENDBRANCH  26  27
ENDBRANCH  20  25
ENDBRANCH  13  19
ENDBRANCH   4   6
ENDBRANCH   3   4
ENDBRANCH   2   3
TORSDOF 10
ENDMDL
MODEL      119
REMARK 921   NORMALIZED FREE ENERGY PREDICTED BY IDOCK:   -3.42 KCAL/MOL
REMARK 922        TOTAL FREE ENERGY PREDICTED BY IDOCK:   -7.79 KCAL/MOL
REMARK 923 INTER-LIGAND FREE ENERGY PREDICTED BY IDOCK:   -6.24 KCAL/MOL
REMARK 924 INTRA-LIGAND FREE ENERGY PREDICTED BY IDOCK:   -1.55 KCAL/MOL
REMARK 927      BINDING AFFINITY PREDICTED BY RF-SCORE:    0.00 PKD
ROOT
HETATM    1  C   UNL     1     -12.995  11.148  70.933  1.00  0.00    -0.276 C  
HETATM    2  C   UNL     1     -12.040  12.166  70.341  1.00  0.00    -0.309 C  
ENDROOT
BRANCH   2   3
HETATM    3  O   UNL     1     -12.159  12.153  68.907  1.00  0.00    -0.267 OA 
BRANCH   3   4
HETATM    4  C   UNL     1     -11.716  13.273  68.287  1.00  0.00    -0.353 C  
HETATM    5  O   UNL     1     -12.379  13.957  67.519  1.00  0.00    -0.292 OA 
BRANCH   4   6
HETATM    6  C   UNL     1     -10.309  13.578  68.641  1.00  0.00    -0.220 C  
HETATM    7  C   UNL     1     -10.043  14.700  69.353  1.00  0.00    -0.055 C  
HETATM    8  C   UNL     1     -11.053  15.608  70.017  1.00  0.00    -0.332 C  
HETATM    9  N   UNL     1      -8.732  15.109  69.520  1.00  0.00    -0.184 NA 
HETATM   10  C   UNL     1      -7.657  14.595  68.815  1.00  0.00    -0.138 C  
HETATM   11  C   UNL     1      -6.401  15.434  68.865  1.00  0.00    -0.106 C  
HETATM   12  C   UNL     1      -7.786  13.423  68.141  1.00  0.00    -0.145 C  
HETATM   13  C   UNL     1      -9.148  12.694  68.135  1.00  0.00    -0.204 C  
BRANCH  12  14
HETATM   14  C   UNL     1      -6.602  12.878  67.411  1.00  0.00    -0.126 C  
HETATM   15  O   UNL     1      -5.755  13.571  66.868  1.00  0.00     0.166 OA 
BRANCH  14  16
HETATM   16  O   UNL     1      -6.564  11.523  67.437  1.00  0.00    -0.081 OA 
BRANCH  16  17
HETATM   17  C   UNL     1      -5.513  10.929  66.651  1.00  0.00    -0.082 C  
HETATM   18  C   UNL     1      -6.033  10.339  65.347  1.00  0.00    -0.115 C  
ENDBRANCH  16  17
ENDBRANCH  14  16
ENDBRANCH  12  14
BRANCH  13  19
HETATM   19  C   UNL     1      -9.452  11.938  66.832  1.00  0.00    -0.205 A  
HETATM   20  C   UNL     1      -9.809  10.577  66.762  1.00  0.00    -0.237 A  
HETATM   21  C   UNL     1     -10.126  10.027  65.503  1.00  0.00    -0.325 A  
HETATM   22  C   UNL     1      -9.411  12.695  65.633  1.00  0.00     0.013 A  
HETATM   23  C   UNL     1      -9.728  12.131  64.402  1.00  0.00    -0.061 A  
HETATM   24  C   UNL     1     -10.095  10.797  64.338  1.00  0.00    -0.419 A  
BRANCH  20  25
HETATM   25  C   UNL     1      -9.808   9.697  67.943  1.00  0.00    -0.182 C  
HETATM   26  C   UNL     1     -10.288   8.443  67.923  1.00  0.00    -0.279 C  
BRANCH  26  27
HETATM   27  C   UNL     1     -10.207   7.504  69.059  1.00  0.00    -0.205 C  
HETATM   28  O   UNL     1     -11.088   6.682  69.265  1.00  0.00    -0.282 OA 
BRANCH  27  29
HETATM   29  O   UNL     1      -9.074   7.680  69.773  1.00  0.00    -0.147 OA 
HETATM   30  C   UNL     1      -9.124   7.778  71.220  1.00  0.00    -0.137 C  
HETATM   31  C   UNL     1     -10.005   8.941  71.686  1.00  0.00    -0.397 C  
HETATM   32  C   UNL     1      -9.567   6.446  71.838  1.00  0.00    -0.160 C  
HETATM   33  C   UNL     1      -7.674   8.062  71.644  1.00  0.00    -0.100 C  
ENDBRANCH  27  29
ENDBRANCH  26  27
ENDBRANCH  20  25
ENDBRANCH  13  19
ENDBRANCH   4   6
ENDBRANCH   3   4
ENDBRANCH   2   3
TORSDOF 10
ENDMDL
MODEL      120
REMARK 921   NORMALIZED FREE ENERGY PREDICTED BY IDOCK:   -3.41 KCAL/MOL
REMARK 922        TOTAL FREE ENERGY PREDICTED BY IDOCK:   -7.77 KCAL/MOL
REMARK 923 INTER-LIGAND FREE ENERGY PREDICTED BY IDOCK:   -6.89 KCAL/MOL
REMARK 924 INTRA-LIGAND FREE ENERGY PREDICTED BY IDOCK:   -0.88 KCAL/MOL
REMARK 927      BINDING AFFINITY PREDICTED BY RF-SCORE:    0.00 PKD
ROOT
HETATM    1  C   UNL     1     -10.110   5.214  66.394  1.00  0.00    -0.268 C  
HETATM    2  C   UNL     1      -9.370   6.470  66.813  1.00  0.00    -0.156 C  
ENDROOT
BRANCH   2   3
HETATM    3  O   UNL     1     -10.088   7.624  66.340  1.00  0.00    -0.170 OA 
BRANCH   3   4
HETATM    4  C   UNL     1      -9.313   8.693  66.036  1.00  0.00    -0.218 C  
HETATM    5  O   UNL     1      -8.111   8.648  65.812  1.00  0.00    -0.104 OA 
BRANCH   4   6
HETATM    6  C   UNL     1     -10.098   9.951  66.016  1.00  0.00    -0.314 C  
HETATM    7  C   UNL     1     -10.142  10.674  64.871  1.00  0.00    -0.335 C  
HETATM    8  C   UNL     1      -9.633  10.248  63.513  1.00  0.00    -0.321 C  
HETATM    9  N   UNL     1     -10.694  11.943  64.884  1.00  0.00    -0.289 NA 
HETATM   10  C   UNL     1     -11.002  12.649  66.034  1.00  0.00    -0.282 C  
HETATM   11  C   UNL     1     -11.222  14.131  65.834  1.00  0.00    -0.313 C  
HETATM   12  C   UNL     1     -11.078  12.004  67.227  1.00  0.00    -0.341 C  
HETATM   13  C   UNL     1     -10.779  10.490  67.293  1.00  0.00    -0.333 C  
BRANCH  12  14
HETATM   14  C   UNL     1     -11.440  12.785  68.447  1.00  0.00    -0.311 C  
HETATM   15  O   UNL     1     -12.398  12.532  69.163  1.00  0.00    -0.084 OA 
BRANCH  14  16
HETATM   16  O   UNL     1     -10.572  13.799  68.682  1.00  0.00    -0.246 OA 
BRANCH  16  17
HETATM   17  C   UNL     1     -11.151  14.968  69.294  1.00  0.00    -0.272 C  
HETATM   18  C   UNL     1     -10.124  16.069  69.519  1.00  0.00    -0.266 C  
ENDBRANCH  16  17
ENDBRANCH  14  16
ENDBRANCH  12  14
BRANCH  13  19
HETATM   19  C   UNL     1     -10.115  10.036  68.602  1.00  0.00    -0.187 A  
HETATM   20  C   UNL     1      -8.813  10.394  69.004  1.00  0.00    -0.176 A  
HETATM   21  C   UNL     1      -8.353   9.960  70.264  1.00  0.00    -0.085 A  
HETATM   22  C   UNL     1     -10.903   9.242  69.473  1.00  0.00    -0.211 A  
HETATM   23  C   UNL     1     -10.429   8.825  70.713  1.00  0.00    -0.270 A  
HETATM   24  C   UNL     1      -9.154   9.193  71.113  1.00  0.00    -0.275 A  
BRANCH  20  25
HETATM   25  C   UNL     1      -7.898  11.155  68.136  1.00  0.00    -0.118 C  
HETATM   26  C   UNL     1      -6.879  11.890  68.610  1.00  0.00    -0.086 C  
BRANCH  26  27
HETATM   27  C   UNL     1      -5.884  12.577  67.763  1.00  0.00    -0.118 C  
HETATM   28  O   UNL     1      -5.612  12.165  66.645  1.00  0.00    -0.311 OA 
BRANCH  27  29
HETATM   29  O   UNL     1      -5.372  13.666  68.378  1.00  0.00    -0.083 OA 
HETATM   30  C   UNL     1      -6.221  14.798  68.696  1.00  0.00    -0.086 C  
HETATM   31  C   UNL     1      -6.879  15.391  67.446  1.00  0.00    -0.204 C  
HETATM   32  C   UNL     1      -7.258  14.417  69.759  1.00  0.00     0.052 C  
HETATM   33  C   UNL     1      -5.267  15.847  69.290  1.00  0.00    -0.109 C  
ENDBRANCH  27  29
ENDBRANCH  26  27
ENDBRANCH  20  25
ENDBRANCH  13  19
ENDBRANCH   4   6
ENDBRANCH   3   4
ENDBRANCH   2   3
TORSDOF 10
ENDMDL
MODEL      121
REMARK 921   NORMALIZED FREE ENERGY PREDICTED BY IDOCK:   -3.37 KCAL/MOL
REMARK 922        TOTAL FREE ENERGY PREDICTED BY IDOCK:   -7.71 KCAL/MOL
REMARK 923 INTER-LIGAND FREE ENERGY PREDICTED BY IDOCK:   -6.54 KCAL/MOL
REMARK 924 INTRA-LIGAND FREE ENERGY PREDICTED BY IDOCK:   -1.17 KCAL/MOL
REMARK 927      BINDING AFFINITY PREDICTED BY RF-SCORE:    0.00 PKD
ROOT
HETATM    1  C   UNL     1      -9.397   2.863  67.958  1.00  0.00    -0.258 C  
HETATM    2  C   UNL     1      -9.909   4.247  68.306  1.00  0.00    -0.037 C  
ENDROOT
BRANCH   2   3
HETATM    3  O   UNL     1     -10.213   4.961  67.094  1.00  0.00    -0.195 OA 
BRANCH   3   4
HETATM    4  C   UNL     1     -10.439   6.287  67.253  1.00  0.00    -0.254 C  
HETATM    5  O   UNL     1     -11.526   6.834  67.122  1.00  0.00    -0.210 OA 
BRANCH   4   6
HETATM    6  C   UNL     1      -9.196   7.019  67.599  1.00  0.00    -0.120 C  
HETATM    7  C   UNL     1      -8.079   6.788  66.868  1.00  0.00    -0.109 C  
HETATM    8  C   UNL     1      -7.987   5.997  65.582  1.00  0.00    -0.116 C  
HETATM    9  N   UNL     1      -6.865   7.300  67.293  1.00  0.00    -0.074 NA 
HETATM   10  C   UNL     1      -6.643   7.842  68.548  1.00  0.00    -0.061 C  
HETATM   11  C   UNL     1      -5.189   7.978  68.936  1.00  0.00    -0.023 C  
HETATM   12  C   UNL     1      -7.696   8.199  69.329  1.00  0.00    -0.104 C  
HETATM   13  C   UNL     1      -9.135   7.956  68.824  1.00  0.00    -0.140 C  
BRANCH  12  14
HETATM   14  C   UNL     1      -7.426   8.807  70.667  1.00  0.00    -0.079 C  
HETATM   15  O   UNL     1      -7.531  10.001  70.909  1.00  0.00    -0.265 OA 
BRANCH  14  16
HETATM   16  O   UNL     1      -7.069   7.880  71.588  1.00  0.00    -0.060 OA 
BRANCH  16  17
HETATM   17  C   UNL     1      -7.849   7.892  72.799  1.00  0.00    -0.118 C  
HETATM   18  C   UNL     1      -7.998   6.502  73.403  1.00  0.00    -0.098 C  
ENDBRANCH  16  17
ENDBRANCH  14  16
ENDBRANCH  12  14
BRANCH  13  19
HETATM   19  C   UNL     1     -10.142   7.613  69.932  1.00  0.00    -0.198 A  
HETATM   20  C   UNL     1     -11.207   8.444  70.331  1.00  0.00    -0.220 A  
HETATM   21  C   UNL     1     -12.097   7.975  71.318  1.00  0.00    -0.314 A  
HETATM   22  C   UNL     1      -9.999   6.345  70.551  1.00  0.00    -0.214 A  
HETATM   23  C   UNL     1     -10.889   5.901  71.524  1.00  0.00    -0.325 A  
HETATM   24  C   UNL     1     -11.946   6.714  71.901  1.00  0.00    -0.386 A  
BRANCH  20  25
HETATM   25  C   UNL     1     -11.392   9.804  69.796  1.00  0.00    -0.201 C  
HETATM   26  C   UNL     1     -11.777  10.844  70.553  1.00  0.00    -0.441 C  
BRANCH  26  27
HETATM   27  C   UNL     1     -11.870  12.236  70.070  1.00  0.00    -0.296 C  
HETATM   28  O   UNL     1     -11.810  13.180  70.844  1.00  0.00    -0.111 OA 
BRANCH  27  29
HETATM   29  O   UNL     1     -12.009  12.290  68.727  1.00  0.00    -0.302 OA 
HETATM   30  C   UNL     1     -11.137  13.135  67.932  1.00  0.00    -0.262 C  
HETATM   31  C   UNL     1     -11.232  14.607  68.344  1.00  0.00    -0.290 C  
HETATM   32  C   UNL     1      -9.693  12.622  67.981  1.00  0.00    -0.215 C  
HETATM   33  C   UNL     1     -11.663  12.995  66.494  1.00  0.00    -0.437 C  
ENDBRANCH  27  29
ENDBRANCH  26  27
ENDBRANCH  20  25
ENDBRANCH  13  19
ENDBRANCH   4   6
ENDBRANCH   3   4
ENDBRANCH   2   3
TORSDOF 10
ENDMDL
MODEL      122
REMARK 921   NORMALIZED FREE ENERGY PREDICTED BY IDOCK:   -3.36 KCAL/MOL
REMARK 922        TOTAL FREE ENERGY PREDICTED BY IDOCK:   -7.68 KCAL/MOL
REMARK 923 INTER-LIGAND FREE ENERGY PREDICTED BY IDOCK:   -5.45 KCAL/MOL
REMARK 924 INTRA-LIGAND FREE ENERGY PREDICTED BY IDOCK:   -2.23 KCAL/MOL
REMARK 927      BINDING AFFINITY PREDICTED BY RF-SCORE:    0.00 PKD
ROOT
HETATM    1  C   UNL     1      -8.056  14.477  68.227  1.00  0.00    -0.140 C  
HETATM    2  C   UNL     1      -7.095  13.306  68.167  1.00  0.00    -0.111 C  
ENDROOT
BRANCH   2   3
HETATM    3  O   UNL     1      -7.840  12.076  68.196  1.00  0.00    -0.127 OA 
BRANCH   3   4
HETATM    4  C   UNL     1      -7.300  11.097  68.962  1.00  0.00    -0.120 C  
HETATM    5  O   UNL     1      -6.781  11.270  70.056  1.00  0.00    -0.130 OA 
BRANCH   4   6
HETATM    6  C   UNL     1      -7.400   9.770  68.308  1.00  0.00    -0.079 C  
HETATM    7  C   UNL     1      -6.509   9.452  67.338  1.00  0.00    -0.063 C  
HETATM    8  C   UNL     1      -5.269  10.229  66.959  1.00  0.00    -0.041 C  
HETATM    9  N   UNL     1      -6.704   8.312  66.578  1.00  0.00    -0.062 NA 
HETATM   10  C   UNL     1      -7.876   7.574  66.562  1.00  0.00    -0.102 C  
HETATM   11  C   UNL     1      -8.014   6.620  65.399  1.00  0.00    -0.121 C  
HETATM   12  C   UNL     1      -8.799   7.746  67.544  1.00  0.00    -0.124 C  
HETATM   13  C   UNL     1      -8.548   8.796  68.649  1.00  0.00    -0.134 C  
BRANCH  12  14
HETATM   14  C   UNL     1     -10.041   6.917  67.517  1.00  0.00    -0.174 C  
HETATM   15  O   UNL     1     -11.013   7.163  66.818  1.00  0.00    -0.305 OA 
BRANCH  14  16
HETATM   16  O   UNL     1      -9.961   5.847  68.345  1.00  0.00    -0.134 OA 
BRANCH  16  17
HETATM   17  C   UNL     1      -9.831   4.574  67.684  1.00  0.00    -0.127 C  
HETATM   18  C   UNL     1      -9.397   3.470  68.639  1.00  0.00    -0.230 C  
ENDBRANCH  16  17
ENDBRANCH  14  16
ENDBRANCH  12  14
BRANCH  13  19
HETATM   19  C   UNL     1      -9.823   9.479  69.168  1.00  0.00    -0.176 A  
HETATM   20  C   UNL     1     -10.314   9.361  70.483  1.00  0.00    -0.341 A  
HETATM   21  C   UNL     1     -11.461  10.098  70.844  1.00  0.00    -0.444 A  
HETATM   22  C   UNL     1     -10.509  10.322  68.257  1.00  0.00    -0.230 A  
HETATM   23  C   UNL     1     -11.639  11.040  68.635  1.00  0.00    -0.385 A  
HETATM   24  C   UNL     1     -12.111  10.935  69.933  1.00  0.00    -0.428 A  
BRANCH  20  25
HETATM   25  C   UNL     1      -9.709   8.456  71.476  1.00  0.00    -0.276 C  
HETATM   26  C   UNL     1     -10.041   7.159  71.584  1.00  0.00    -0.197 C  
BRANCH  26  27
HETATM   27  C   UNL     1      -9.380   6.205  72.495  1.00  0.00    -0.140 C  
HETATM   28  O   UNL     1      -9.562   6.253  73.703  1.00  0.00    -0.146 OA 
BRANCH  27  29
HETATM   29  O   UNL     1      -8.608   5.324  71.822  1.00  0.00    -0.127 OA 
HETATM   30  C   UNL     1      -7.162   5.387  71.924  1.00  0.00    -0.086 C  
HETATM   31  C   UNL     1      -6.613   6.741  71.465  1.00  0.00    -0.053 C  
HETATM   32  C   UNL     1      -6.702   5.038  73.344  1.00  0.00    -0.069 C  
HETATM   33  C   UNL     1      -6.655   4.302  70.959  1.00  0.00    -0.030 C  
ENDBRANCH  27  29
ENDBRANCH  26  27
ENDBRANCH  20  25
ENDBRANCH  13  19
ENDBRANCH   4   6
ENDBRANCH   3   4
ENDBRANCH   2   3
TORSDOF 10
ENDMDL
MODEL      123
REMARK 921   NORMALIZED FREE ENERGY PREDICTED BY IDOCK:   -3.34 KCAL/MOL
REMARK 922        TOTAL FREE ENERGY PREDICTED BY IDOCK:   -7.65 KCAL/MOL
REMARK 923 INTER-LIGAND FREE ENERGY PREDICTED BY IDOCK:   -6.02 KCAL/MOL
REMARK 924 INTRA-LIGAND FREE ENERGY PREDICTED BY IDOCK:   -1.63 KCAL/MOL
REMARK 927      BINDING AFFINITY PREDICTED BY RF-SCORE:    0.00 PKD
ROOT
HETATM    1  C   UNL     1     -12.182  11.629  63.101  1.00  0.00    -0.150 C  
HETATM    2  C   UNL     1     -11.121  12.707  62.999  1.00  0.00     0.429 C  
ENDROOT
BRANCH   2   3
HETATM    3  O   UNL     1     -10.063  12.423  63.931  1.00  0.00    -0.376 OA 
BRANCH   3   4
HETATM    4  C   UNL     1     -10.125  13.114  65.095  1.00  0.00    -0.223 C  
HETATM    5  O   UNL     1      -9.776  14.278  65.239  1.00  0.00    -0.230 OA 
BRANCH   4   6
HETATM    6  C   UNL     1     -10.664  12.284  66.199  1.00  0.00    -0.296 C  
HETATM    7  C   UNL     1     -11.764  12.715  66.863  1.00  0.00    -0.383 C  
HETATM    8  C   UNL     1     -12.651  13.879  66.482  1.00  0.00    -0.245 C  
HETATM    9  N   UNL     1     -12.164  12.067  68.019  1.00  0.00    -0.360 NA 
HETATM   10  C   UNL     1     -11.393  11.142  68.701  1.00  0.00    -0.277 C  
HETATM   11  C   UNL     1     -11.842  10.856  70.115  1.00  0.00    -0.438 C  
HETATM   12  C   UNL     1     -10.319  10.573  68.094  1.00  0.00    -0.201 C  
HETATM   13  C   UNL     1      -9.944  10.998  66.657  1.00  0.00    -0.249 C  
BRANCH  12  14
HETATM   14  C   UNL     1      -9.521   9.558  68.845  1.00  0.00    -0.155 C  
HETATM   15  O   UNL     1      -8.683   9.835  69.691  1.00  0.00    -0.167 OA 
BRANCH  14  16
HETATM   16  O   UNL     1      -9.846   8.289  68.494  1.00  0.00    -0.166 OA 
BRANCH  16  17
HETATM   17  C   UNL     1      -8.858   7.294  68.823  1.00  0.00    -0.127 C  
HETATM   18  C   UNL     1      -7.800   7.151  67.737  1.00  0.00    -0.114 C  
ENDBRANCH  16  17
ENDBRANCH  14  16
ENDBRANCH  12  14
BRANCH  13  19
HETATM   19  C   UNL     1      -8.435  10.983  66.370  1.00  0.00    -0.164 A  
HETATM   20  C   UNL     1      -7.499  11.855  66.961  1.00  0.00    -0.126 A  
HETATM   21  C   UNL     1      -6.133  11.687  66.657  1.00  0.00    -0.094 A  
HETATM   22  C   UNL     1      -7.966   9.981  65.482  1.00  0.00    -0.139 A  
HETATM   23  C   UNL     1      -6.612   9.833  65.196  1.00  0.00    -0.100 A  
HETATM   24  C   UNL     1      -5.693  10.682  65.792  1.00  0.00    -0.139 A  
BRANCH  20  25
HETATM   25  C   UNL     1      -7.901  12.969  67.838  1.00  0.00    -0.149 C  
HETATM   26  C   UNL     1      -7.711  14.259  67.519  1.00  0.00    -0.208 C  
BRANCH  26  27
HETATM   27  C   UNL     1      -8.195  15.396  68.326  1.00  0.00    -0.145 C  
HETATM   28  O   UNL     1      -7.643  15.710  69.371  1.00  0.00    -0.209 OA 
BRANCH  27  29
HETATM   29  O   UNL     1      -9.261  15.997  67.755  1.00  0.00    -0.203 OA 
HETATM   30  C   UNL     1     -10.093  16.905  68.523  1.00  0.00    -0.297 C  
HETATM   31  C   UNL     1     -10.704  16.223  69.751  1.00  0.00    -0.345 C  
HETATM   32  C   UNL     1      -9.309  18.167  68.903  1.00  0.00    -0.188 C  
HETATM   33  C   UNL     1     -11.230  17.298  67.566  1.00  0.00     0.205 C  
ENDBRANCH  27  29
ENDBRANCH  26  27
ENDBRANCH  20  25
ENDBRANCH  13  19
ENDBRANCH   4   6
ENDBRANCH   3   4
ENDBRANCH   2   3
TORSDOF 10
ENDMDL
MODEL      124
REMARK 921   NORMALIZED FREE ENERGY PREDICTED BY IDOCK:   -3.32 KCAL/MOL
REMARK 922        TOTAL FREE ENERGY PREDICTED BY IDOCK:   -7.63 KCAL/MOL
REMARK 923 INTER-LIGAND FREE ENERGY PREDICTED BY IDOCK:   -6.00 KCAL/MOL
REMARK 924 INTRA-LIGAND FREE ENERGY PREDICTED BY IDOCK:   -1.63 KCAL/MOL
REMARK 927      BINDING AFFINITY PREDICTED BY RF-SCORE:    0.00 PKD
ROOT
HETATM    1  C   UNL     1     -11.233  13.528  65.028  1.00  0.00    -0.334 C  
HETATM    2  C   UNL     1     -11.728  12.118  65.285  1.00  0.00    -0.308 C  
ENDROOT
BRANCH   2   3
HETATM    3  O   UNL     1     -11.062  11.583  66.442  1.00  0.00    -0.296 OA 
BRANCH   3   4
HETATM    4  C   UNL     1      -9.743  11.325  66.274  1.00  0.00    -0.216 C  
HETATM    5  O   UNL     1      -9.212  11.056  65.205  1.00  0.00    -0.204 OA 
BRANCH   4   6
HETATM    6  C   UNL     1      -9.002  11.395  67.556  1.00  0.00    -0.150 C  
HETATM    7  C   UNL     1      -8.306  12.522  67.847  1.00  0.00    -0.167 C  
HETATM    8  C   UNL     1      -8.349  13.830  67.091  1.00  0.00    -0.153 C  
HETATM    9  N   UNL     1      -7.449  12.535  68.933  1.00  0.00    -0.045 NA 
HETATM   10  C   UNL     1      -7.052  11.406  69.629  1.00  0.00     0.037 C  
HETATM   11  C   UNL     1      -5.837  11.592  70.508  1.00  0.00    -0.129 C  
HETATM   12  C   UNL     1      -7.739  10.243  69.484  1.00  0.00    -0.167 C  
HETATM   13  C   UNL     1      -8.936  10.183  68.510  1.00  0.00    -0.127 C  
BRANCH  12  14
HETATM   14  C   UNL     1      -7.305   9.047  70.268  1.00  0.00    -0.076 C  
HETATM   15  O   UNL     1      -7.724   8.771  71.383  1.00  0.00    -0.118 OA 
BRANCH  14  16
HETATM   16  O   UNL     1      -6.406   8.291  69.593  1.00  0.00    -0.036 OA 
BRANCH  16  17
HETATM   17  C   UNL     1      -6.143   6.998  70.170  1.00  0.00    -0.024 C  
HETATM   18  C   UNL     1      -6.711   5.864  69.327  1.00  0.00    -0.060 C  
ENDBRANCH  16  17
ENDBRANCH  14  16
ENDBRANCH  12  14
BRANCH  13  19
HETATM   19  C   UNL     1      -9.115   8.824  67.816  1.00  0.00    -0.143 A  
HETATM   20  C   UNL     1     -10.077   7.861  68.179  1.00  0.00    -0.228 A  
HETATM   21  C   UNL     1     -10.175   6.682  67.412  1.00  0.00    -0.243 A  
HETATM   22  C   UNL     1      -8.275   8.562  66.703  1.00  0.00    -0.108 A  
HETATM   23  C   UNL     1      -8.389   7.392  65.960  1.00  0.00    -0.143 A  
HETATM   24  C   UNL     1      -9.347   6.454  66.309  1.00  0.00    -0.149 A  
BRANCH  20  25
HETATM   25  C   UNL     1     -10.943   8.014  69.361  1.00  0.00    -0.021 C  
HETATM   26  C   UNL     1     -11.180   7.018  70.230  1.00  0.00    -0.339 C  
BRANCH  26  27
HETATM   27  C   UNL     1     -11.957   7.170  71.476  1.00  0.00    -0.326 C  
HETATM   28  O   UNL     1     -13.179   7.150  71.467  1.00  0.00    -0.383 OA 
BRANCH  27  29
HETATM   29  O   UNL     1     -11.152   7.309  72.553  1.00  0.00    -0.258 OA 
HETATM   30  C   UNL     1     -10.364   6.188  73.031  1.00  0.00    -0.206 C  
HETATM   31  C   UNL     1     -11.241   4.992  73.414  1.00  0.00    -0.391 C  
HETATM   32  C   UNL     1      -9.292   5.802  72.006  1.00  0.00    -0.163 C  
HETATM   33  C   UNL     1      -9.671   6.712  74.299  1.00  0.00    -0.328 C  
ENDBRANCH  27  29
ENDBRANCH  26  27
ENDBRANCH  20  25
ENDBRANCH  13  19
ENDBRANCH   4   6
ENDBRANCH   3   4
ENDBRANCH   2   3
TORSDOF 10
ENDMDL
MODEL      125
REMARK 921   NORMALIZED FREE ENERGY PREDICTED BY IDOCK:   -3.32 KCAL/MOL
REMARK 922        TOTAL FREE ENERGY PREDICTED BY IDOCK:   -7.63 KCAL/MOL
REMARK 923 INTER-LIGAND FREE ENERGY PREDICTED BY IDOCK:   -6.31 KCAL/MOL
REMARK 924 INTRA-LIGAND FREE ENERGY PREDICTED BY IDOCK:   -1.32 KCAL/MOL
REMARK 927      BINDING AFFINITY PREDICTED BY RF-SCORE:    0.00 PKD
ROOT
HETATM    1  C   UNL     1     -11.670  10.576  69.009  1.00  0.00    -0.242 C  
HETATM    2  C   UNL     1     -11.974  11.521  70.156  1.00  0.00    -0.369 C  
ENDROOT
BRANCH   2   3
HETATM    3  O   UNL     1     -11.205  12.726  69.996  1.00  0.00     0.034 OA 
BRANCH   3   4
HETATM    4  C   UNL     1     -11.932  13.834  69.709  1.00  0.00    -0.344 C  
HETATM    5  O   UNL     1     -13.151  13.866  69.613  1.00  0.00     0.402 OA 
BRANCH   4   6
HETATM    6  C   UNL     1     -11.067  15.022  69.511  1.00  0.00    -0.292 C  
HETATM    7  C   UNL     1     -11.102  16.015  70.433  1.00  0.00    -0.364 C  
HETATM    8  C   UNL     1     -11.791  15.975  71.778  1.00  0.00    -0.599 C  
HETATM    9  N   UNL     1     -10.463  17.214  70.171  1.00  0.00     0.243 NA 
HETATM   10  C   UNL     1      -9.977  17.585  68.929  1.00  0.00    -0.313 C  
HETATM   11  C   UNL     1      -9.676  19.058  68.775  1.00  0.00    -0.473 C  
HETATM   12  C   UNL     1      -9.812  16.649  67.958  1.00  0.00    -0.245 C  
HETATM   13  C   UNL     1     -10.209  15.183  68.239  1.00  0.00    -0.223 C  
BRANCH  12  14
HETATM   14  C   UNL     1      -9.260  17.073  66.636  1.00  0.00    -0.256 C  
HETATM   15  O   UNL     1      -8.134  16.799  66.246  1.00  0.00    -0.299 OA 
BRANCH  14  16
HETATM   16  O   UNL     1     -10.157  17.782  65.909  1.00  0.00    -0.526 OA 
BRANCH  16  17
HETATM   17  C   UNL     1      -9.823  19.170  65.716  1.00  0.00     0.054 C  
HETATM   18  C   UNL     1     -11.032  20.002  65.309  1.00  0.00     0.170 C  
ENDBRANCH  16  17
ENDBRANCH  14  16
ENDBRANCH  12  14
BRANCH  13  19
HETATM   19  C   UNL     1     -10.751  14.432  67.013  1.00  0.00    -0.285 A  
HETATM   20  C   UNL     1     -10.201  13.242  66.496  1.00  0.00    -0.283 A  
HETATM   21  C   UNL     1     -10.841  12.623  65.403  1.00  0.00    -0.318 A  
HETATM   22  C   UNL     1     -11.916  14.965  66.404  1.00  0.00    -0.074 A  
HETATM   23  C   UNL     1     -12.531  14.337  65.326  1.00  0.00    -0.428 A  
HETATM   24  C   UNL     1     -11.997  13.158  64.831  1.00  0.00    -0.431 A  
BRANCH  20  25
HETATM   25  C   UNL     1      -8.955  12.655  67.017  1.00  0.00    -0.216 C  
HETATM   26  C   UNL     1      -8.777  11.334  67.175  1.00  0.00    -0.151 C  
BRANCH  26  27
HETATM   27  C   UNL     1      -7.507  10.709  67.596  1.00  0.00    -0.091 C  
HETATM   28  O   UNL     1      -7.159  10.711  68.767  1.00  0.00    -0.066 OA 
BRANCH  27  29
HETATM   29  O   UNL     1      -6.848  10.164  66.550  1.00  0.00    -0.083 OA 
HETATM   30  C   UNL     1      -6.477   8.761  66.566  1.00  0.00    -0.063 C  
HETATM   31  C   UNL     1      -5.572   8.420  67.753  1.00  0.00    -0.035 C  
HETATM   32  C   UNL     1      -7.724   7.870  66.526  1.00  0.00    -0.097 C  
HETATM   33  C   UNL     1      -5.680   8.554  65.268  1.00  0.00    -0.044 C  
ENDBRANCH  27  29
ENDBRANCH  26  27
ENDBRANCH  20  25
ENDBRANCH  13  19
ENDBRANCH   4   6
ENDBRANCH   3   4
ENDBRANCH   2   3
TORSDOF 10
ENDMDL
MODEL      126
REMARK 921   NORMALIZED FREE ENERGY PREDICTED BY IDOCK:   -3.31 KCAL/MOL
REMARK 922        TOTAL FREE ENERGY PREDICTED BY IDOCK:   -7.61 KCAL/MOL
REMARK 923 INTER-LIGAND FREE ENERGY PREDICTED BY IDOCK:   -5.97 KCAL/MOL
REMARK 924 INTRA-LIGAND FREE ENERGY PREDICTED BY IDOCK:   -1.64 KCAL/MOL
REMARK 927      BINDING AFFINITY PREDICTED BY RF-SCORE:    0.00 PKD
ROOT
HETATM    1  C   UNL     1     -11.462  10.665  69.864  1.00  0.00    -0.393 C  
HETATM    2  C   UNL     1     -12.171  11.670  68.976  1.00  0.00    -0.099 C  
ENDROOT
BRANCH   2   3
HETATM    3  O   UNL     1     -11.813  11.429  67.604  1.00  0.00    -0.609 OA 
BRANCH   3   4
HETATM    4  C   UNL     1     -11.165  12.451  66.994  1.00  0.00    -0.303 C  
HETATM    5  O   UNL     1     -11.167  13.612  67.380  1.00  0.00    -0.284 OA 
BRANCH   4   6
HETATM    6  C   UNL     1     -10.449  11.998  65.777  1.00  0.00    -0.290 C  
HETATM    7  C   UNL     1     -11.151  11.835  64.630  1.00  0.00    -0.303 C  
HETATM    8  C   UNL     1     -12.582  12.252  64.379  1.00  0.00    -0.447 C  
HETATM    9  N   UNL     1     -10.552  11.224  63.542  1.00  0.00    -0.385 NA 
HETATM   10  C   UNL     1      -9.348  10.541  63.595  1.00  0.00    -0.289 C  
HETATM   11  C   UNL     1      -9.075   9.638  62.415  1.00  0.00    -0.290 C  
HETATM   12  C   UNL     1      -8.521  10.706  64.659  1.00  0.00    -0.088 C  
HETATM   13  C   UNL     1      -8.951  11.627  65.823  1.00  0.00    -0.067 C  
BRANCH  12  14
HETATM   14  C   UNL     1      -7.216   9.979  64.677  1.00  0.00    -0.140 C  
HETATM   15  O   UNL     1      -6.130  10.524  64.815  1.00  0.00    -0.125 OA 
BRANCH  14  16
HETATM   16  O   UNL     1      -7.375   8.640  64.540  1.00  0.00    -0.093 OA 
BRANCH  16  17
HETATM   17  C   UNL     1      -6.161   7.905  64.287  1.00  0.00    -0.057 C  
HETATM   18  C   UNL     1      -5.918   7.691  62.799  1.00  0.00    -0.055 C  
ENDBRANCH  16  17
ENDBRANCH  14  16
ENDBRANCH  12  14
BRANCH  13  19
HETATM   19  C   UNL     1      -8.456  11.169  67.203  1.00  0.00    -0.137 A  
HETATM   20  C   UNL     1      -8.636   9.874  67.729  1.00  0.00    -0.121 A  
HETATM   21  C   UNL     1      -8.071   9.571  68.984  1.00  0.00    -0.101 A  
HETATM   22  C   UNL     1      -7.727  12.118  67.965  1.00  0.00    -0.134 A  
HETATM   23  C   UNL     1      -7.178  11.796  69.201  1.00  0.00    -0.043 A  
HETATM   24  C   UNL     1      -7.342  10.517  69.708  1.00  0.00    -0.139 A  
BRANCH  20  25
HETATM   25  C   UNL     1      -9.439   8.847  67.043  1.00  0.00    -0.215 C  
HETATM   26  C   UNL     1      -9.076   7.555  66.978  1.00  0.00    -0.156 C  
BRANCH  26  27
HETATM   27  C   UNL     1      -9.907   6.486  66.390  1.00  0.00    -0.052 C  
HETATM   28  O   UNL     1     -10.938   6.116  66.931  1.00  0.00    -0.343 OA 
BRANCH  27  29
HETATM   29  O   UNL     1      -9.385   6.028  65.231  1.00  0.00     0.151 OA 
HETATM   30  C   UNL     1      -9.064   4.621  65.076  1.00  0.00    -0.156 C  
HETATM   31  C   UNL     1      -8.048   4.145  66.119  1.00  0.00    -0.098 C  
HETATM   32  C   UNL     1     -10.338   3.769  65.092  1.00  0.00     0.008 C  
HETATM   33  C   UNL     1      -8.419   4.519  63.684  1.00  0.00    -0.118 C  
ENDBRANCH  27  29
ENDBRANCH  26  27
ENDBRANCH  20  25
ENDBRANCH  13  19
ENDBRANCH   4   6
ENDBRANCH   3   4
ENDBRANCH   2   3
TORSDOF 10
ENDMDL
MODEL      127
REMARK 921   NORMALIZED FREE ENERGY PREDICTED BY IDOCK:   -3.29 KCAL/MOL
REMARK 922        TOTAL FREE ENERGY PREDICTED BY IDOCK:   -7.58 KCAL/MOL
REMARK 923 INTER-LIGAND FREE ENERGY PREDICTED BY IDOCK:   -5.40 KCAL/MOL
REMARK 924 INTRA-LIGAND FREE ENERGY PREDICTED BY IDOCK:   -2.18 KCAL/MOL
REMARK 927      BINDING AFFINITY PREDICTED BY RF-SCORE:    0.00 PKD
ROOT
HETATM    1  C   UNL     1      -6.172   3.754  70.723  1.00  0.00    -0.019 C  
HETATM    2  C   UNL     1      -7.035   3.265  71.869  1.00  0.00    -0.030 C  
ENDROOT
BRANCH   2   3
HETATM    3  O   UNL     1      -8.275   3.994  71.876  1.00  0.00    -0.087 OA 
BRANCH   3   4
HETATM    4  C   UNL     1      -8.347   4.991  72.791  1.00  0.00    -0.112 C  
HETATM    5  O   UNL     1      -7.488   5.241  73.625  1.00  0.00    -0.092 OA 
BRANCH   4   6
HETATM    6  C   UNL     1      -9.613   5.754  72.672  1.00  0.00    -0.165 C  
HETATM    7  C   UNL     1     -10.784   5.117  72.918  1.00  0.00    -0.248 C  
HETATM    8  C   UNL     1     -10.955   3.733  73.502  1.00  0.00    -0.339 C  
HETATM    9  N   UNL     1     -11.980   5.746  72.619  1.00  0.00    -0.179 NA 
HETATM   10  C   UNL     1     -12.089   6.899  71.861  1.00  0.00    -0.333 C  
HETATM   11  C   UNL     1     -13.476   7.191  71.338  1.00  0.00    -0.374 C  
HETATM   12  C   UNL     1     -10.991   7.666  71.632  1.00  0.00    -0.267 C  
HETATM   13  C   UNL     1      -9.622   7.220  72.189  1.00  0.00    -0.162 C  
BRANCH  12  14
HETATM   14  C   UNL     1     -11.143   8.920  70.834  1.00  0.00    -0.271 C  
HETATM   15  O   UNL     1     -11.233  10.036  71.324  1.00  0.00    -0.341 OA 
BRANCH  14  16
HETATM   16  O   UNL     1     -11.151   8.680  69.500  1.00  0.00    -0.124 OA 
BRANCH  16  17
HETATM   17  C   UNL     1     -10.511   9.690  68.696  1.00  0.00    -0.210 C  
HETATM   18  C   UNL     1      -9.965   9.126  67.391  1.00  0.00    -0.262 C  
ENDBRANCH  16  17
ENDBRANCH  14  16
ENDBRANCH  12  14
BRANCH  13  19
HETATM   19  C   UNL     1      -8.428   7.597  71.298  1.00  0.00    -0.118 A  
HETATM   20  C   UNL     1      -8.187   7.067  70.016  1.00  0.00    -0.133 A  
HETATM   21  C   UNL     1      -7.087   7.552  69.280  1.00  0.00    -0.077 A  
HETATM   22  C   UNL     1      -7.546   8.588  71.802  1.00  0.00    -0.147 A  
HETATM   23  C   UNL     1      -6.466   9.053  71.059  1.00  0.00    -0.068 A  
HETATM   24  C   UNL     1      -6.242   8.541  69.791  1.00  0.00    -0.035 A  
BRANCH  20  25
HETATM   25  C   UNL     1      -9.006   5.986  69.441  1.00  0.00    -0.126 C  
HETATM   26  C   UNL     1      -8.568   5.173  68.465  1.00  0.00    -0.094 C  
BRANCH  26  27
HETATM   27  C   UNL     1      -9.324   4.019  67.942  1.00  0.00    -0.171 C  
HETATM   28  O   UNL     1      -9.565   3.049  68.645  1.00  0.00    -0.164 OA 
BRANCH  27  29
HETATM   29  O   UNL     1      -9.691   4.204  66.655  1.00  0.00    -0.199 OA 
HETATM   30  C   UNL     1      -8.937   3.586  65.580  1.00  0.00    -0.141 C  
HETATM   31  C   UNL     1      -7.469   4.026  65.582  1.00  0.00    -0.081 C  
HETATM   32  C   UNL     1      -9.074   2.060  65.628  1.00  0.00    -0.072 C  
HETATM   33  C   UNL     1      -9.599   4.102  64.292  1.00  0.00    -0.155 C  
ENDBRANCH  27  29
ENDBRANCH  26  27
ENDBRANCH  20  25
ENDBRANCH  13  19
ENDBRANCH   4   6
ENDBRANCH   3   4
ENDBRANCH   2   3
TORSDOF 10
ENDMDL
MODEL      128
REMARK 921   NORMALIZED FREE ENERGY PREDICTED BY IDOCK:   -3.27 KCAL/MOL
REMARK 922        TOTAL FREE ENERGY PREDICTED BY IDOCK:   -7.55 KCAL/MOL
REMARK 923 INTER-LIGAND FREE ENERGY PREDICTED BY IDOCK:   -5.36 KCAL/MOL
REMARK 924 INTRA-LIGAND FREE ENERGY PREDICTED BY IDOCK:   -2.19 KCAL/MOL
REMARK 927      BINDING AFFINITY PREDICTED BY RF-SCORE:    0.00 PKD
ROOT
HETATM    1  C   UNL     1     -13.295  10.599  72.116  1.00  0.00    -0.335 C  
HETATM    2  C   UNL     1     -13.401   9.142  71.709  1.00  0.00    -0.406 C  
ENDROOT
BRANCH   2   3
HETATM    3  O   UNL     1     -12.127   8.502  71.897  1.00  0.00    -0.304 OA 
BRANCH   3   4
HETATM    4  C   UNL     1     -11.688   7.781  70.837  1.00  0.00    -0.265 C  
HETATM    5  O   UNL     1     -12.341   6.929  70.249  1.00  0.00    -0.189 OA 
BRANCH   4   6
HETATM    6  C   UNL     1     -10.297   8.138  70.468  1.00  0.00    -0.211 C  
HETATM    7  C   UNL     1     -10.096   9.098  69.533  1.00  0.00    -0.197 C  
HETATM    8  C   UNL     1     -11.142  10.014  68.939  1.00  0.00    -0.219 C  
HETATM    9  N   UNL     1      -8.824   9.305  69.028  1.00  0.00    -0.133 NA 
HETATM   10  C   UNL     1      -7.756   8.447  69.225  1.00  0.00    -0.098 C  
HETATM   11  C   UNL     1      -6.591   8.652  68.285  1.00  0.00    -0.061 C  
HETATM   12  C   UNL     1      -7.814   7.505  70.202  1.00  0.00    -0.098 C  
HETATM   13  C   UNL     1      -9.092   7.375  71.059  1.00  0.00    -0.152 C  
BRANCH  12  14
HETATM   14  C   UNL     1      -6.636   6.610  70.410  1.00  0.00    -0.048 C  
HETATM   15  O   UNL     1      -5.880   6.685  71.369  1.00  0.00    -0.034 OA 
BRANCH  14  16
HETATM   16  O   UNL     1      -6.510   5.691  69.422  1.00  0.00    -0.041 OA 
BRANCH  16  17
HETATM   17  C   UNL     1      -5.529   4.664  69.667  1.00  0.00    -0.008 C  
HETATM   18  C   UNL     1      -6.164   3.356  70.120  1.00  0.00    -0.027 C  
ENDBRANCH  16  17
ENDBRANCH  14  16
ENDBRANCH  12  14
BRANCH  13  19
HETATM   19  C   UNL     1      -9.410   5.938  71.501  1.00  0.00    -0.160 A  
HETATM   20  C   UNL     1      -9.664   4.868  70.621  1.00  0.00    -0.271 A  
HETATM   21  C   UNL     1      -9.877   3.584  71.162  1.00  0.00    -0.185 A  
HETATM   22  C   UNL     1      -9.393   5.683  72.896  1.00  0.00    -0.144 A  
HETATM   23  C   UNL     1      -9.605   4.408  73.409  1.00  0.00    -0.139 A  
HETATM   24  C   UNL     1      -9.838   3.354  72.540  1.00  0.00    -0.218 A  
BRANCH  20  25
HETATM   25  C   UNL     1      -9.772   5.052  69.163  1.00  0.00    -0.243 C  
HETATM   26  C   UNL     1      -9.567   4.059  68.282  1.00  0.00    -0.188 C  
BRANCH  26  27
HETATM   27  C   UNL     1      -9.769   4.186  66.825  1.00  0.00    -0.210 C  
HETATM   28  O   UNL     1     -10.623   4.930  66.367  1.00  0.00    -0.297 OA 
BRANCH  27  29
HETATM   29  O   UNL     1      -8.907   3.409  66.132  1.00  0.00    -0.123 OA 
HETATM   30  C   UNL     1      -7.939   4.008  65.232  1.00  0.00    -0.097 C  
HETATM   31  C   UNL     1      -8.613   4.834  64.132  1.00  0.00    -0.137 C  
HETATM   32  C   UNL     1      -6.909   4.832  66.013  1.00  0.00    -0.058 C  
HETATM   33  C   UNL     1      -7.224   2.814  64.578  1.00  0.00    -0.058 C  
ENDBRANCH  27  29
ENDBRANCH  26  27
ENDBRANCH  20  25
ENDBRANCH  13  19
ENDBRANCH   4   6
ENDBRANCH   3   4
ENDBRANCH   2   3
TORSDOF 10
ENDMDL
MODEL      129
REMARK 921   NORMALIZED FREE ENERGY PREDICTED BY IDOCK:   -3.20 KCAL/MOL
REMARK 922        TOTAL FREE ENERGY PREDICTED BY IDOCK:   -7.44 KCAL/MOL
REMARK 923 INTER-LIGAND FREE ENERGY PREDICTED BY IDOCK:   -7.14 KCAL/MOL
REMARK 924 INTRA-LIGAND FREE ENERGY PREDICTED BY IDOCK:   -0.31 KCAL/MOL
REMARK 927      BINDING AFFINITY PREDICTED BY RF-SCORE:    0.00 PKD
ROOT
HETATM    1  C   UNL     1      -7.894  15.416  67.703  1.00  0.00    -0.175 C  
HETATM    2  C   UNL     1      -8.752  14.397  66.978  1.00  0.00    -0.223 C  
ENDROOT
BRANCH   2   3
HETATM    3  O   UNL     1      -8.663  13.132  67.656  1.00  0.00    -0.168 OA 
BRANCH   3   4
HETATM    4  C   UNL     1      -9.378  12.129  67.091  1.00  0.00    -0.193 C  
HETATM    5  O   UNL     1      -9.215  11.705  65.955  1.00  0.00    -0.224 OA 
BRANCH   4   6
HETATM    6  C   UNL     1     -10.408  11.600  68.017  1.00  0.00    -0.208 C  
HETATM    7  C   UNL     1     -11.466  12.386  68.334  1.00  0.00    -0.310 C  
HETATM    8  C   UNL     1     -11.837  13.703  67.692  1.00  0.00    -0.404 C  
HETATM    9  N   UNL     1     -12.327  11.998  69.345  1.00  0.00    -0.061 NA 
HETATM   10  C   UNL     1     -12.071  10.972  70.239  1.00  0.00    -0.362 C  
HETATM   11  C   UNL     1     -12.940  10.971  71.475  1.00  0.00    -0.553 C  
HETATM   12  C   UNL     1     -11.093  10.068  69.972  1.00  0.00    -0.350 C  
HETATM   13  C   UNL     1     -10.246  10.220  68.689  1.00  0.00    -0.196 C  
BRANCH  12  14
HETATM   14  C   UNL     1     -10.857   8.956  70.941  1.00  0.00    -0.248 C  
HETATM   15  O   UNL     1     -10.158   9.054  71.939  1.00  0.00    -0.339 OA 
BRANCH  14  16
HETATM   16  O   UNL     1     -11.522   7.826  70.595  1.00  0.00    -0.279 OA 
BRANCH  16  17
HETATM   17  C   UNL     1     -12.291   7.225  71.654  1.00  0.00    -0.352 C  
HETATM   18  C   UNL     1     -13.787   7.457  71.482  1.00  0.00    -0.483 C  
ENDBRANCH  16  17
ENDBRANCH  14  16
ENDBRANCH  12  14
BRANCH  13  19
HETATM   19  C   UNL     1      -8.789   9.758  68.839  1.00  0.00    -0.140 A  
HETATM   20  C   UNL     1      -8.277   8.547  68.334  1.00  0.00    -0.123 A  
HETATM   21  C   UNL     1      -6.901   8.279  68.486  1.00  0.00    -0.064 A  
HETATM   22  C   UNL     1      -7.902  10.652  69.493  1.00  0.00    -0.092 A  
HETATM   23  C   UNL     1      -6.548  10.368  69.632  1.00  0.00    -0.085 A  
HETATM   24  C   UNL     1      -6.044   9.183  69.119  1.00  0.00    -0.042 A  
BRANCH  20  25
HETATM   25  C   UNL     1      -9.134   7.528  67.704  1.00  0.00    -0.127 C  
HETATM   26  C   UNL     1      -9.048   6.218  67.990  1.00  0.00    -0.112 C  
BRANCH  26  27
HETATM   27  C   UNL     1      -9.960   5.188  67.456  1.00  0.00    -0.174 C  
HETATM   28  O   UNL     1     -10.791   5.460  66.603  1.00  0.00    -0.277 OA 
BRANCH  27  29
HETATM   29  O   UNL     1      -9.730   3.980  68.015  1.00  0.00    -0.154 OA 
HETATM   30  C   UNL     1      -9.064   3.879  69.300  1.00  0.00    -0.132 C  
HETATM   31  C   UNL     1      -7.670   4.512  69.275  1.00  0.00    -0.055 C  
HETATM   32  C   UNL     1      -9.939   4.471  70.412  1.00  0.00    -0.284 C  
HETATM   33  C   UNL     1      -8.911   2.369  69.543  1.00  0.00    -0.148 C  
ENDBRANCH  27  29
ENDBRANCH  26  27
ENDBRANCH  20  25
ENDBRANCH  13  19
ENDBRANCH   4   6
ENDBRANCH   3   4
ENDBRANCH   2   3
TORSDOF 10
ENDMDL
MODEL      130
REMARK 921   NORMALIZED FREE ENERGY PREDICTED BY IDOCK:   -3.20 KCAL/MOL
REMARK 922        TOTAL FREE ENERGY PREDICTED BY IDOCK:   -7.43 KCAL/MOL
REMARK 923 INTER-LIGAND FREE ENERGY PREDICTED BY IDOCK:   -7.14 KCAL/MOL
REMARK 924 INTRA-LIGAND FREE ENERGY PREDICTED BY IDOCK:   -0.30 KCAL/MOL
REMARK 927      BINDING AFFINITY PREDICTED BY RF-SCORE:    0.00 PKD
ROOT
HETATM    1  C   UNL     1     -11.009  10.830  66.915  1.00  0.00    -0.255 C  
HETATM    2  C   UNL     1     -11.106  11.806  65.759  1.00  0.00    -0.297 C  
ENDROOT
BRANCH   2   3
HETATM    3  O   UNL     1     -10.999  13.150  66.261  1.00  0.00    -0.277 OA 
BRANCH   3   4
HETATM    4  C   UNL     1     -10.170  13.958  65.558  1.00  0.00    -0.331 C  
HETATM    5  O   UNL     1      -9.291  13.572  64.800  1.00  0.00     0.529 OA 
BRANCH   4   6
HETATM    6  C   UNL     1     -10.445  15.391  65.822  1.00  0.00    -0.371 C  
HETATM    7  C   UNL     1     -11.160  16.097  64.912  1.00  0.00    -0.325 C  
HETATM    8  C   UNL     1     -11.897  15.542  63.715  1.00  0.00     0.469 C  
HETATM    9  N   UNL     1     -11.256  17.472  65.035  1.00  0.00    -0.499 NA 
HETATM   10  C   UNL     1     -10.480  18.236  65.890  1.00  0.00    -0.307 C  
HETATM   11  C   UNL     1     -10.470  19.717  65.592  1.00  0.00    -0.445 C  
HETATM   12  C   UNL     1      -9.795  17.639  66.900  1.00  0.00    -0.306 C  
HETATM   13  C   UNL     1      -9.857  16.104  67.059  1.00  0.00    -0.248 C  
BRANCH  12  14
HETATM   14  C   UNL     1      -8.988  18.491  67.825  1.00  0.00    -0.275 C  
HETATM   15  O   UNL     1      -9.149  18.528  69.036  1.00  0.00    -0.210 OA 
BRANCH  14  16
HETATM   16  O   UNL     1      -8.041  19.205  67.169  1.00  0.00    -0.255 OA 
BRANCH  16  17
HETATM   17  C   UNL     1      -6.816  19.406  67.898  1.00  0.00    -0.243 C  
HETATM   18  C   UNL     1      -6.361  20.859  67.871  1.00  0.00    -0.393 C  
ENDBRANCH  16  17
ENDBRANCH  14  16
ENDBRANCH  12  14
BRANCH  13  19
HETATM   19  C   UNL     1      -8.562  15.474  67.594  1.00  0.00    -0.175 A  
HETATM   20  C   UNL     1      -8.508  14.323  68.405  1.00  0.00    -0.166 A  
HETATM   21  C   UNL     1      -7.245  13.813  68.770  1.00  0.00    -0.106 A  
HETATM   22  C   UNL     1      -7.345  16.080  67.189  1.00  0.00    -0.257 A  
HETATM   23  C   UNL     1      -6.110  15.560  67.562  1.00  0.00    -0.119 A  
HETATM   24  C   UNL     1      -6.060  14.418  68.346  1.00  0.00    -0.102 A  
BRANCH  20  25
HETATM   25  C   UNL     1      -9.718  13.668  68.931  1.00  0.00     0.058 C  
HETATM   26  C   UNL     1     -10.722  14.343  69.514  1.00  0.00    -0.133 C  
BRANCH  26  27
HETATM   27  C   UNL     1     -11.990  13.730  69.956  1.00  0.00    -0.338 C  
HETATM   28  O   UNL     1     -12.242  12.557  69.720  1.00  0.00    -0.234 OA 
BRANCH  27  29
HETATM   29  O   UNL     1     -12.764  14.611  70.627  1.00  0.00    -0.335 OA 
HETATM   30  C   UNL     1     -13.158  14.348  71.998  1.00  0.00    -0.361 C  
HETATM   31  C   UNL     1     -13.941  13.039  72.130  1.00  0.00    -0.335 C  
HETATM   32  C   UNL     1     -11.938  14.378  72.927  1.00  0.00     0.135 C  
HETATM   33  C   UNL     1     -14.089  15.514  72.367  1.00  0.00    -0.627 C  
ENDBRANCH  27  29
ENDBRANCH  26  27
ENDBRANCH  20  25
ENDBRANCH  13  19
ENDBRANCH   4   6
ENDBRANCH   3   4
ENDBRANCH   2   3
TORSDOF 10
ENDMDL
MODEL      131
REMARK 921   NORMALIZED FREE ENERGY PREDICTED BY IDOCK:   -3.14 KCAL/MOL
REMARK 922        TOTAL FREE ENERGY PREDICTED BY IDOCK:   -7.34 KCAL/MOL
REMARK 923 INTER-LIGAND FREE ENERGY PREDICTED BY IDOCK:   -5.76 KCAL/MOL
REMARK 924 INTRA-LIGAND FREE ENERGY PREDICTED BY IDOCK:   -1.58 KCAL/MOL
REMARK 927      BINDING AFFINITY PREDICTED BY RF-SCORE:    0.00 PKD
ROOT
HETATM    1  C   UNL     1      -9.964   9.488  65.764  1.00  0.00    -0.316 C  
HETATM    2  C   UNL     1      -8.923   9.752  66.834  1.00  0.00    -0.138 C  
ENDROOT
BRANCH   2   3
HETATM    3  O   UNL     1      -9.121   8.838  67.926  1.00  0.00    -0.139 OA 
BRANCH   3   4
HETATM    4  C   UNL     1      -8.792   9.326  69.147  1.00  0.00    -0.141 C  
HETATM    5  O   UNL     1      -9.063  10.449  69.549  1.00  0.00    -0.183 OA 
BRANCH   4   6
HETATM    6  C   UNL     1      -8.044   8.331  69.953  1.00  0.00    -0.117 C  
HETATM    7  C   UNL     1      -6.840   7.900  69.503  1.00  0.00    -0.047 C  
HETATM    8  C   UNL     1      -6.053   8.467  68.344  1.00  0.00    -0.046 C  
HETATM    9  N   UNL     1      -6.220   6.831  70.126  1.00  0.00    -0.034 NA 
HETATM   10  C   UNL     1      -6.837   5.995  71.041  1.00  0.00    -0.066 C  
HETATM   11  C   UNL     1      -6.121   4.688  71.295  1.00  0.00    -0.018 C  
HETATM   12  C   UNL     1      -8.004   6.372  71.626  1.00  0.00    -0.102 C  
HETATM   13  C   UNL     1      -8.652   7.718  71.233  1.00  0.00    -0.127 C  
BRANCH  12  14
HETATM   14  C   UNL     1      -8.633   5.462  72.629  1.00  0.00    -0.120 C  
HETATM   15  O   UNL     1      -8.684   5.697  73.828  1.00  0.00    -0.122 OA 
BRANCH  14  16
HETATM   16  O   UNL     1      -9.160   4.353  72.056  1.00  0.00    -0.121 OA 
BRANCH  16  17
HETATM   17  C   UNL     1      -9.255   3.206  72.923  1.00  0.00    -0.091 C  
HETATM   18  C   UNL     1     -10.678   2.674  73.021  1.00  0.00    -0.231 C  
ENDBRANCH  16  17
ENDBRANCH  14  16
ENDBRANCH  12  14
BRANCH  13  19
HETATM   19  C   UNL     1     -10.188   7.708  71.259  1.00  0.00    -0.204 A  
HETATM   20  C   UNL     1     -10.997   6.868  70.469  1.00  0.00    -0.313 A  
HETATM   21  C   UNL     1     -12.395   6.917  70.643  1.00  0.00    -0.248 A  
HETATM   22  C   UNL     1     -10.814   8.579  72.188  1.00  0.00    -0.427 A  
HETATM   23  C   UNL     1     -12.195   8.611  72.344  1.00  0.00    -0.419 A  
HETATM   24  C   UNL     1     -12.987   7.772  71.577  1.00  0.00    -0.357 A  
BRANCH  20  25
HETATM   25  C   UNL     1     -10.441   5.984  69.430  1.00  0.00    -0.331 C  
HETATM   26  C   UNL     1     -10.873   5.983  68.159  1.00  0.00    -0.365 C  
BRANCH  26  27
HETATM   27  C   UNL     1     -10.267   5.186  67.075  1.00  0.00    -0.223 C  
HETATM   28  O   UNL     1     -10.070   5.668  65.969  1.00  0.00    -0.091 OA 
BRANCH  27  29
HETATM   29  O   UNL     1      -9.975   3.930  67.480  1.00  0.00    -0.095 OA 
HETATM   30  C   UNL     1      -8.876   3.200  66.877  1.00  0.00    -0.143 C  
HETATM   31  C   UNL     1      -9.058   3.035  65.365  1.00  0.00    -0.150 C  
HETATM   32  C   UNL     1      -7.534   3.857  67.221  1.00  0.00    -0.072 C  
HETATM   33  C   UNL     1      -8.927   1.809  67.530  1.00  0.00    -0.163 C  
ENDBRANCH  27  29
ENDBRANCH  26  27
ENDBRANCH  20  25
ENDBRANCH  13  19
ENDBRANCH   4   6
ENDBRANCH   3   4
ENDBRANCH   2   3
TORSDOF 10
ENDMDL
MODEL      132
REMARK 921   NORMALIZED FREE ENERGY PREDICTED BY IDOCK:   -3.10 KCAL/MOL
REMARK 922        TOTAL FREE ENERGY PREDICTED BY IDOCK:   -7.28 KCAL/MOL
REMARK 923 INTER-LIGAND FREE ENERGY PREDICTED BY IDOCK:   -5.30 KCAL/MOL
REMARK 924 INTRA-LIGAND FREE ENERGY PREDICTED BY IDOCK:   -1.98 KCAL/MOL
REMARK 927      BINDING AFFINITY PREDICTED BY RF-SCORE:    0.00 PKD
ROOT
HETATM    1  C   UNL     1      -5.144  10.812  65.818  1.00  0.00    -0.118 C  
HETATM    2  C   UNL     1      -5.432   9.484  65.145  1.00  0.00    -0.046 C  
ENDROOT
BRANCH   2   3
HETATM    3  O   UNL     1      -6.173   8.644  66.049  1.00  0.00    -0.051 OA 
BRANCH   3   4
HETATM    4  C   UNL     1      -7.493   8.935  66.147  1.00  0.00    -0.090 C  
HETATM    5  O   UNL     1      -8.109   9.663  65.381  1.00  0.00    -0.119 OA 
BRANCH   4   6
HETATM    6  C   UNL     1      -8.116   8.268  67.315  1.00  0.00    -0.109 C  
HETATM    7  C   UNL     1      -9.097   7.358  67.100  1.00  0.00    -0.130 C  
HETATM    8  C   UNL     1      -9.516   6.778  65.768  1.00  0.00     0.231 C  
HETATM    9  N   UNL     1      -9.829   6.875  68.171  1.00  0.00    -0.134 NA 
HETATM   10  C   UNL     1      -9.806   7.422  69.443  1.00  0.00    -0.168 C  
HETATM   11  C   UNL     1     -10.947   7.000  70.339  1.00  0.00    -0.301 C  
HETATM   12  C   UNL     1      -8.811   8.276  69.797  1.00  0.00    -0.142 C  
HETATM   13  C   UNL     1      -7.733   8.660  68.759  1.00  0.00    -0.097 C  
BRANCH  12  14
HETATM   14  C   UNL     1      -8.796   8.829  71.184  1.00  0.00    -0.219 C  
HETATM   15  O   UNL     1      -9.686   9.523  71.653  1.00  0.00    -0.173 OA 
BRANCH  14  16
HETATM   16  O   UNL     1      -7.688   8.459  71.871  1.00  0.00    -0.109 OA 
BRANCH  16  17
HETATM   17  C   UNL     1      -7.738   7.135  72.438  1.00  0.00    -0.092 C  
HETATM   18  C   UNL     1      -6.635   6.235  71.897  1.00  0.00    -0.062 C  
ENDBRANCH  16  17
ENDBRANCH  14  16
ENDBRANCH  12  14
BRANCH  13  19
HETATM   19  C   UNL     1      -7.204  10.095  68.903  1.00  0.00    -0.079 A  
HETATM   20  C   UNL     1      -7.978  11.256  68.713  1.00  0.00    -0.137 A  
HETATM   21  C   UNL     1      -7.379  12.512  68.944  1.00  0.00    -0.022 A  
HETATM   22  C   UNL     1      -5.851  10.236  69.306  1.00  0.00    -0.037 A  
HETATM   23  C   UNL     1      -5.281  11.485  69.528  1.00  0.00    -0.053 A  
HETATM   24  C   UNL     1      -6.049  12.625  69.356  1.00  0.00    -0.107 A  
BRANCH  20  25
HETATM   25  C   UNL     1      -9.368  11.210  68.228  1.00  0.00    -0.176 C  
HETATM   26  C   UNL     1     -10.016  12.286  67.754  1.00  0.00    -0.200 C  
BRANCH  26  27
HETATM   27  C   UNL     1     -11.369  12.250  67.166  1.00  0.00    -0.335 C  
HETATM   28  O   UNL     1     -12.132  11.322  67.389  1.00  0.00    -0.450 OA 
BRANCH  27  29
HETATM   29  O   UNL     1     -11.613  13.340  66.406  1.00  0.00    -0.317 OA 
HETATM   30  C   UNL     1     -11.630  13.239  64.958  1.00  0.00    -0.316 C  
HETATM   31  C   UNL     1     -10.296  12.729  64.404  1.00  0.00    -0.388 C  
HETATM   32  C   UNL     1     -12.809  12.379  64.489  1.00  0.00    -0.305 C  
HETATM   33  C   UNL     1     -11.843  14.681  64.469  1.00  0.00    -0.442 C  
ENDBRANCH  27  29
ENDBRANCH  26  27
ENDBRANCH  20  25
ENDBRANCH  13  19
ENDBRANCH   4   6
ENDBRANCH   3   4
ENDBRANCH   2   3
TORSDOF 10
ENDMDL
MODEL      133
REMARK 921   NORMALIZED FREE ENERGY PREDICTED BY IDOCK:   -3.10 KCAL/MOL
REMARK 922        TOTAL FREE ENERGY PREDICTED BY IDOCK:   -7.27 KCAL/MOL
REMARK 923 INTER-LIGAND FREE ENERGY PREDICTED BY IDOCK:   -5.42 KCAL/MOL
REMARK 924 INTRA-LIGAND FREE ENERGY PREDICTED BY IDOCK:   -1.85 KCAL/MOL
REMARK 927      BINDING AFFINITY PREDICTED BY RF-SCORE:    0.00 PKD
ROOT
HETATM    1  C   UNL     1     -12.304   6.915  70.593  1.00  0.00    -0.248 C  
HETATM    2  C   UNL     1     -12.310   6.566  72.068  1.00  0.00    -0.260 C  
ENDROOT
BRANCH   2   3
HETATM    3  O   UNL     1     -11.094   7.039  72.674  1.00  0.00    -0.257 OA 
BRANCH   3   4
HETATM    4  C   UNL     1     -10.288   6.070  73.171  1.00  0.00    -0.213 C  
HETATM    5  O   UNL     1      -9.900   6.006  74.329  1.00  0.00    -0.187 OA 
BRANCH   4   6
HETATM    6  C   UNL     1      -9.912   5.083  72.131  1.00  0.00    -0.236 C  
HETATM    7  C   UNL     1     -10.249   3.782  72.313  1.00  0.00    -0.131 C  
HETATM    8  C   UNL     1     -11.156   3.226  73.387  1.00  0.00    -0.282 C  
HETATM    9  N   UNL     1      -9.737   2.817  71.464  1.00  0.00    -0.155 NA 
HETATM   10  C   UNL     1      -8.705   3.035  70.566  1.00  0.00    -0.072 C  
HETATM   11  C   UNL     1      -8.052   1.782  70.030  1.00  0.00    -0.056 C  
HETATM   12  C   UNL     1      -8.347   4.303  70.238  1.00  0.00    -0.081 C  
HETATM   13  C   UNL     1      -9.071   5.494  70.903  1.00  0.00    -0.164 C  
BRANCH  12  14
HETATM   14  C   UNL     1      -7.249   4.508  69.246  1.00  0.00    -0.052 C  
HETATM   15  O   UNL     1      -6.073   4.258  69.467  1.00  0.00    -0.024 OA 
BRANCH  14  16
HETATM   16  O   UNL     1      -7.709   4.985  68.064  1.00  0.00    -0.082 OA 
BRANCH  16  17
HETATM   17  C   UNL     1      -6.703   5.553  67.204  1.00  0.00    -0.059 C  
HETATM   18  C   UNL     1      -6.603   7.065  67.355  1.00  0.00    -0.055 C  
ENDBRANCH  16  17
ENDBRANCH  14  16
ENDBRANCH  12  14
BRANCH  13  19
HETATM   19  C   UNL     1      -8.179   6.724  71.134  1.00  0.00    -0.119 A  
HETATM   20  C   UNL     1      -8.294   7.939  70.430  1.00  0.00    -0.121 A  
HETATM   21  C   UNL     1      -7.451   9.010  70.790  1.00  0.00    -0.121 A  
HETATM   22  C   UNL     1      -7.211   6.623  72.165  1.00  0.00    -0.081 A  
HETATM   23  C   UNL     1      -6.389   7.693  72.504  1.00  0.00    -0.055 A  
HETATM   24  C   UNL     1      -6.516   8.892  71.821  1.00  0.00    -0.065 A  
BRANCH  20  25
HETATM   25  C   UNL     1      -9.220   8.112  69.298  1.00  0.00    -0.151 C  
HETATM   26  C   UNL     1      -9.360   9.272  68.636  1.00  0.00    -0.139 C  
BRANCH  26  27
HETATM   27  C   UNL     1     -10.200   9.449  67.435  1.00  0.00    -0.239 C  
HETATM   28  O   UNL     1     -10.147   8.659  66.504  1.00  0.00    -0.273 OA 
BRANCH  27  29
HETATM   29  O   UNL     1     -10.990  10.541  67.534  1.00  0.00    -0.284 OA 
HETATM   30  C   UNL     1     -10.726  11.715  66.722  1.00  0.00    -0.260 C  
HETATM   31  C   UNL     1      -9.326  12.283  66.974  1.00  0.00    -0.205 C  
HETATM   32  C   UNL     1     -10.958  11.411  65.238  1.00  0.00    -0.251 C  
HETATM   33  C   UNL     1     -11.764  12.750  67.184  1.00  0.00    -0.443 C  
ENDBRANCH  27  29
ENDBRANCH  26  27
ENDBRANCH  20  25
ENDBRANCH  13  19
ENDBRANCH   4   6
ENDBRANCH   3   4
ENDBRANCH   2   3
TORSDOF 10
ENDMDL
MODEL      134
REMARK 921   NORMALIZED FREE ENERGY PREDICTED BY IDOCK:   -3.01 KCAL/MOL
REMARK 922        TOTAL FREE ENERGY PREDICTED BY IDOCK:   -7.13 KCAL/MOL
REMARK 923 INTER-LIGAND FREE ENERGY PREDICTED BY IDOCK:   -4.69 KCAL/MOL
REMARK 924 INTRA-LIGAND FREE ENERGY PREDICTED BY IDOCK:   -2.44 KCAL/MOL
REMARK 927      BINDING AFFINITY PREDICTED BY RF-SCORE:    0.00 PKD
ROOT
HETATM    1  C   UNL     1      -9.210   9.571  64.626  1.00  0.00    -0.247 C  
HETATM    2  C   UNL     1      -7.850   8.901  64.653  1.00  0.00    -0.124 C  
ENDROOT
BRANCH   2   3
HETATM    3  O   UNL     1      -7.643   8.295  65.941  1.00  0.00    -0.079 OA 
BRANCH   3   4
HETATM    4  C   UNL     1      -7.010   9.079  66.847  1.00  0.00    -0.078 C  
HETATM    5  O   UNL     1      -6.509  10.168  66.603  1.00  0.00    -0.068 OA 
BRANCH   4   6
HETATM    6  C   UNL     1      -6.981   8.453  68.190  1.00  0.00    -0.081 C  
HETATM    7  C   UNL     1      -6.179   7.380  68.393  1.00  0.00    -0.036 C  
HETATM    8  C   UNL     1      -5.132   6.842  67.444  1.00  0.00    -0.008 C  
HETATM    9  N   UNL     1      -6.286   6.658  69.569  1.00  0.00    -0.036 NA 
HETATM   10  C   UNL     1      -7.320   6.796  70.479  1.00  0.00    -0.081 C  
HETATM   11  C   UNL     1      -7.450   5.666  71.473  1.00  0.00    -0.096 C  
HETATM   12  C   UNL     1      -8.130   7.886  70.426  1.00  0.00    -0.114 C  
HETATM   13  C   UNL     1      -7.911   8.943  69.321  1.00  0.00    -0.104 C  
BRANCH  12  14
HETATM   14  C   UNL     1      -9.220   8.022  71.437  1.00  0.00    -0.144 C  
HETATM   15  O   UNL     1      -9.370   9.001  72.155  1.00  0.00    -0.356 OA 
BRANCH  14  16
HETATM   16  O   UNL     1     -10.039   6.942  71.457  1.00  0.00    -0.185 OA 
BRANCH  16  17
HETATM   17  C   UNL     1     -11.321   7.161  72.076  1.00  0.00    -0.258 C  
HETATM   18  C   UNL     1     -12.475   6.942  71.107  1.00  0.00    -0.398 C  
ENDBRANCH  16  17
ENDBRANCH  14  16
ENDBRANCH  12  14
BRANCH  13  19
HETATM   19  C   UNL     1      -9.203   9.615  68.829  1.00  0.00    -0.141 A  
HETATM   20  C   UNL     1     -10.316   8.925  68.311  1.00  0.00    -0.250 A  
HETATM   21  C   UNL     1     -11.464   9.664  67.958  1.00  0.00     0.443 A  
HETATM   22  C   UNL     1      -9.276  11.025  68.962  1.00  0.00    -0.077 A  
HETATM   23  C   UNL     1     -10.419  11.734  68.607  1.00  0.00    -0.242 A  
HETATM   24  C   UNL     1     -11.519  11.051  68.113  1.00  0.00    -0.374 A  
BRANCH  20  25
HETATM   25  C   UNL     1     -10.305   7.471  68.072  1.00  0.00    -0.254 C  
HETATM   26  C   UNL     1     -10.308   6.930  66.843  1.00  0.00    -0.332 C  
BRANCH  26  27
HETATM   27  C   UNL     1     -10.192   5.484  66.570  1.00  0.00    -0.228 C  
HETATM   28  O   UNL     1     -11.119   4.857  66.080  1.00  0.00    -0.154 OA 
BRANCH  27  29
HETATM   29  O   UNL     1      -8.975   5.007  66.913  1.00  0.00    -0.113 OA 
HETATM   30  C   UNL     1      -8.858   3.826  67.748  1.00  0.00    -0.114 C  
HETATM   31  C   UNL     1      -9.547   4.011  69.104  1.00  0.00    -0.233 C  
HETATM   32  C   UNL     1      -9.378   2.587  67.010  1.00  0.00    -0.064 C  
HETATM   33  C   UNL     1      -7.348   3.663  67.985  1.00  0.00    -0.061 C  
ENDBRANCH  27  29
ENDBRANCH  26  27
ENDBRANCH  20  25
ENDBRANCH  13  19
ENDBRANCH   4   6
ENDBRANCH   3   4
ENDBRANCH   2   3
TORSDOF 10
ENDMDL
MODEL      135
REMARK 921   NORMALIZED FREE ENERGY PREDICTED BY IDOCK:   -3.00 KCAL/MOL
REMARK 922        TOTAL FREE ENERGY PREDICTED BY IDOCK:   -7.12 KCAL/MOL
REMARK 923 INTER-LIGAND FREE ENERGY PREDICTED BY IDOCK:   -6.70 KCAL/MOL
REMARK 924 INTRA-LIGAND FREE ENERGY PREDICTED BY IDOCK:   -0.42 KCAL/MOL
REMARK 927      BINDING AFFINITY PREDICTED BY RF-SCORE:    0.00 PKD
ROOT
HETATM    1  C   UNL     1      -7.724  15.154  69.466  1.00  0.00    -0.197 C  
HETATM    2  C   UNL     1      -9.103  14.945  68.871  1.00  0.00    -0.191 C  
ENDROOT
BRANCH   2   3
HETATM    3  O   UNL     1      -9.800  13.939  69.628  1.00  0.00     0.486 OA 
BRANCH   3   4
HETATM    4  C   UNL     1     -11.035  13.628  69.165  1.00  0.00    -0.194 C  
HETATM    5  O   UNL     1     -11.713  14.345  68.441  1.00  0.00    -0.302 OA 
BRANCH   4   6
HETATM    6  C   UNL     1     -11.486  12.302  69.651  1.00  0.00    -0.285 C  
HETATM    7  C   UNL     1     -12.369  12.249  70.678  1.00  0.00    -0.286 C  
HETATM    8  C   UNL     1     -13.121  13.413  71.284  1.00  0.00    -0.317 C  
HETATM    9  N   UNL     1     -12.646  11.034  71.279  1.00  0.00    -0.406 NA 
HETATM   10  C   UNL     1     -11.916   9.876  71.074  1.00  0.00    -0.365 C  
HETATM   11  C   UNL     1     -12.140   8.790  72.101  1.00  0.00    -0.441 C  
HETATM   12  C   UNL     1     -11.069   9.786  70.016  1.00  0.00    -0.311 C  
HETATM   13  C   UNL     1     -10.901  10.997  69.071  1.00  0.00    -0.274 C  
BRANCH  12  14
HETATM   14  C   UNL     1     -10.314   8.515  69.804  1.00  0.00    -0.212 C  
HETATM   15  O   UNL     1     -10.507   7.752  68.868  1.00  0.00    -0.213 OA 
BRANCH  14  16
HETATM   16  O   UNL     1      -9.375   8.311  70.759  1.00  0.00    -0.154 OA 
BRANCH  16  17
HETATM   17  C   UNL     1      -8.635   7.082  70.633  1.00  0.00    -0.147 C  
HETATM   18  C   UNL     1      -7.240   7.305  70.063  1.00  0.00    -0.078 C  
ENDBRANCH  16  17
ENDBRANCH  14  16
ENDBRANCH  12  14
BRANCH  13  19
HETATM   19  C   UNL     1      -9.489  11.144  68.484  1.00  0.00    -0.193 A  
HETATM   20  C   UNL     1      -9.210  11.427  67.132  1.00  0.00    -0.170 A  
HETATM   21  C   UNL     1      -7.866  11.602  66.742  1.00  0.00    -0.130 A  
HETATM   22  C   UNL     1      -8.406  11.034  69.394  1.00  0.00     0.131 A  
HETATM   23  C   UNL     1      -7.088  11.211  68.987  1.00  0.00    -0.113 A  
HETATM   24  C   UNL     1      -6.818  11.505  67.661  1.00  0.00    -0.083 A  
BRANCH  20  25
HETATM   25  C   UNL     1     -10.263  11.489  66.104  1.00  0.00    -0.272 C  
HETATM   26  C   UNL     1     -10.141  12.199  64.971  1.00  0.00    -0.289 C  
BRANCH  26  27
HETATM   27  C   UNL     1     -11.132  12.198  63.877  1.00  0.00    -0.404 C  
HETATM   28  O   UNL     1     -11.472  11.158  63.333  1.00  0.00    -0.090 OA 
BRANCH  27  29
HETATM   29  O   UNL     1     -11.578  13.444  63.606  1.00  0.00    -0.370 OA 
HETATM   30  C   UNL     1     -11.875  14.369  64.684  1.00  0.00    -0.451 C  
HETATM   31  C   UNL     1     -12.948  13.822  65.630  1.00  0.00    -0.346 C  
HETATM   32  C   UNL     1     -10.596  14.755  65.436  1.00  0.00    -0.395 C  
HETATM   33  C   UNL     1     -12.433  15.619  63.983  1.00  0.00     0.364 C  
ENDBRANCH  27  29
ENDBRANCH  26  27
ENDBRANCH  20  25
ENDBRANCH  13  19
ENDBRANCH   4   6
ENDBRANCH   3   4
ENDBRANCH   2   3
TORSDOF 10
ENDMDL
MODEL      136
REMARK 921   NORMALIZED FREE ENERGY PREDICTED BY IDOCK:   -2.96 KCAL/MOL
REMARK 922        TOTAL FREE ENERGY PREDICTED BY IDOCK:   -7.05 KCAL/MOL
REMARK 923 INTER-LIGAND FREE ENERGY PREDICTED BY IDOCK:   -7.02 KCAL/MOL
REMARK 924 INTRA-LIGAND FREE ENERGY PREDICTED BY IDOCK:   -0.04 KCAL/MOL
REMARK 927      BINDING AFFINITY PREDICTED BY RF-SCORE:    0.00 PKD
ROOT
HETATM    1  C   UNL     1     -10.922   6.397  69.409  1.00  0.00    -0.421 C  
HETATM    2  C   UNL     1     -10.295   7.273  68.342  1.00  0.00    -0.185 C  
ENDROOT
BRANCH   2   3
HETATM    3  O   UNL     1      -9.894   8.525  68.928  1.00  0.00    -0.168 OA 
BRANCH   3   4
HETATM    4  C   UNL     1      -8.938   9.197  68.242  1.00  0.00    -0.129 C  
HETATM    5  O   UNL     1      -7.832   9.482  68.679  1.00  0.00    -0.083 OA 
BRANCH   4   6
HETATM    6  C   UNL     1      -9.395   9.563  66.880  1.00  0.00    -0.185 C  
HETATM    7  C   UNL     1      -8.679   9.131  65.813  1.00  0.00    -0.165 C  
HETATM    8  C   UNL     1      -7.547   8.130  65.831  1.00  0.00    -0.082 C  
HETATM    9  N   UNL     1      -8.965   9.624  64.552  1.00  0.00    -0.228 NA 
HETATM   10  C   UNL     1      -9.780  10.717  64.307  1.00  0.00    -0.314 C  
HETATM   11  C   UNL     1      -9.647  11.314  62.925  1.00  0.00    -0.377 C  
HETATM   12  C   UNL     1     -10.610  11.176  65.279  1.00  0.00    -0.303 C  
HETATM   13  C   UNL     1     -10.606  10.497  66.666  1.00  0.00    -0.263 C  
BRANCH  12  14
HETATM   14  C   UNL     1     -11.497  12.339  64.978  1.00  0.00    -0.336 C  
HETATM   15  O   UNL     1     -12.456  12.290  64.221  1.00  0.00    -0.446 OA 
BRANCH  14  16
HETATM   16  O   UNL     1     -11.129  13.454  65.656  1.00  0.00    -0.285 OA 
BRANCH  16  17
HETATM   17  C   UNL     1     -10.301  14.371  64.915  1.00  0.00    -0.389 C  
HETATM   18  C   UNL     1     -10.277  15.759  65.540  1.00  0.00    -0.407 C  
ENDBRANCH  16  17
ENDBRANCH  14  16
ENDBRANCH  12  14
BRANCH  13  19
HETATM   19  C   UNL     1     -10.877  11.455  67.837  1.00  0.00    -0.274 A  
HETATM   20  C   UNL     1     -10.028  12.512  68.220  1.00  0.00    -0.229 A  
HETATM   21  C   UNL     1     -10.434  13.356  69.273  1.00  0.00     0.130 A  
HETATM   22  C   UNL     1     -12.099  11.276  68.535  1.00  0.00    -0.161 A  
HETATM   23  C   UNL     1     -12.479  12.121  69.572  1.00  0.00     0.147 A  
HETATM   24  C   UNL     1     -11.649  13.170  69.935  1.00  0.00    -0.255 A  
BRANCH  20  25
HETATM   25  C   UNL     1      -8.710  12.731  67.600  1.00  0.00    -0.180 C  
HETATM   26  C   UNL     1      -7.658  13.228  68.270  1.00  0.00    -0.139 C  
BRANCH  26  27
HETATM   27  C   UNL     1      -6.300  13.362  67.707  1.00  0.00    -0.161 C  
HETATM   28  O   UNL     1      -5.837  12.510  66.962  1.00  0.00    -0.304 OA 
BRANCH  27  29
HETATM   29  O   UNL     1      -5.702  14.504  68.110  1.00  0.00    -0.110 OA 
HETATM   30  C   UNL     1      -6.476  15.721  68.274  1.00  0.00    -0.118 C  
HETATM   31  C   UNL     1      -7.170  16.139  66.974  1.00  0.00    -0.256 C  
HETATM   32  C   UNL     1      -7.473  15.577  69.430  1.00  0.00    -0.219 C  
HETATM   33  C   UNL     1      -5.441  16.795  68.644  1.00  0.00    -0.123 C  
ENDBRANCH  27  29
ENDBRANCH  26  27
ENDBRANCH  20  25
ENDBRANCH  13  19
ENDBRANCH   4   6
ENDBRANCH   3   4
ENDBRANCH   2   3
TORSDOF 10
ENDMDL
MODEL      137
REMARK 921   NORMALIZED FREE ENERGY PREDICTED BY IDOCK:   -2.91 KCAL/MOL
REMARK 922        TOTAL FREE ENERGY PREDICTED BY IDOCK:   -6.98 KCAL/MOL
REMARK 923 INTER-LIGAND FREE ENERGY PREDICTED BY IDOCK:   -5.39 KCAL/MOL
REMARK 924 INTRA-LIGAND FREE ENERGY PREDICTED BY IDOCK:   -1.59 KCAL/MOL
REMARK 927      BINDING AFFINITY PREDICTED BY RF-SCORE:    0.00 PKD
ROOT
HETATM    1  C   UNL     1     -12.320  12.878  70.786  1.00  0.00    -0.385 C  
HETATM    2  C   UNL     1     -11.975  13.349  69.386  1.00  0.00    -0.315 C  
ENDROOT
BRANCH   2   3
HETATM    3  O   UNL     1     -10.788  12.673  68.935  1.00  0.00    -0.237 OA 
BRANCH   3   4
HETATM    4  C   UNL     1      -9.990  13.402  68.118  1.00  0.00    -0.237 C  
HETATM    5  O   UNL     1      -9.681  14.571  68.301  1.00  0.00    -0.206 OA 
BRANCH   4   6
HETATM    6  C   UNL     1      -9.533  12.612  66.949  1.00  0.00    -0.229 C  
HETATM    7  C   UNL     1     -10.461  12.117  66.094  1.00  0.00    -0.248 C  
HETATM    8  C   UNL     1     -11.938  12.441  66.075  1.00  0.00    -0.419 C  
HETATM    9  N   UNL     1     -10.078  11.214  65.118  1.00  0.00    -0.264 NA 
HETATM   10  C   UNL     1      -8.849  10.578  65.081  1.00  0.00    -0.190 C  
HETATM   11  C   UNL     1      -8.784   9.367  64.179  1.00  0.00    -0.224 C  
HETATM   12  C   UNL     1      -7.818  11.049  65.829  1.00  0.00     0.011 C  
HETATM   13  C   UNL     1      -8.041  12.271  66.748  1.00  0.00    -0.025 C  
BRANCH  12  14
HETATM   14  C   UNL     1      -6.495  10.360  65.749  1.00  0.00    -0.123 C  
HETATM   15  O   UNL     1      -5.527  10.805  65.149  1.00  0.00    -0.147 OA 
BRANCH  14  16
HETATM   16  O   UNL     1      -6.484   9.191  66.435  1.00  0.00    -0.064 OA 
BRANCH  16  17
HETATM   17  C   UNL     1      -5.652   8.161  65.869  1.00  0.00    -0.036 C  
HETATM   18  C   UNL     1      -5.223   7.131  66.907  1.00  0.00    -0.021 C  
ENDBRANCH  16  17
ENDBRANCH  14  16
ENDBRANCH  12  14
BRANCH  13  19
HETATM   19  C   UNL     1      -7.220  12.240  68.046  1.00  0.00    -0.102 A  
HETATM   20  C   UNL     1      -7.381  11.288  69.072  1.00  0.00    -0.115 A  
HETATM   21  C   UNL     1      -6.513  11.338  70.182  1.00  0.00    -0.071 A  
HETATM   22  C   UNL     1      -6.201  13.218  68.178  1.00  0.00    -0.111 A  
HETATM   23  C   UNL     1      -5.356  13.248  69.282  1.00  0.00    -0.075 A  
HETATM   24  C   UNL     1      -5.506  12.301  70.282  1.00  0.00    -0.139 A  
BRANCH  20  25
HETATM   25  C   UNL     1      -8.457  10.281  69.055  1.00  0.00    -0.150 C  
HETATM   26  C   UNL     1      -8.241   8.974  69.274  1.00  0.00    -0.117 C  
BRANCH  26  27
HETATM   27  C   UNL     1      -9.308   7.959  69.367  1.00  0.00    -0.152 C  
HETATM   28  O   UNL     1     -10.400   8.230  69.844  1.00  0.00    -0.207 OA 
BRANCH  27  29
HETATM   29  O   UNL     1      -8.912   6.770  68.862  1.00  0.00    -0.131 OA 
HETATM   30  C   UNL     1      -9.584   6.200  67.709  1.00  0.00    -0.114 C  
HETATM   31  C   UNL     1     -11.078   5.980  67.966  1.00  0.00    -0.233 C  
HETATM   32  C   UNL     1      -9.341   7.058  66.461  1.00  0.00    -0.201 C  
HETATM   33  C   UNL     1      -8.916   4.831  67.505  1.00  0.00    -0.118 C  
ENDBRANCH  27  29
ENDBRANCH  26  27
ENDBRANCH  20  25
ENDBRANCH  13  19
ENDBRANCH   4   6
ENDBRANCH   3   4
ENDBRANCH   2   3
TORSDOF 10
ENDMDL
MODEL      138
REMARK 921   NORMALIZED FREE ENERGY PREDICTED BY IDOCK:   -2.84 KCAL/MOL
REMARK 922        TOTAL FREE ENERGY PREDICTED BY IDOCK:   -6.87 KCAL/MOL
REMARK 923 INTER-LIGAND FREE ENERGY PREDICTED BY IDOCK:   -5.01 KCAL/MOL
REMARK 924 INTRA-LIGAND FREE ENERGY PREDICTED BY IDOCK:   -1.87 KCAL/MOL
REMARK 927      BINDING AFFINITY PREDICTED BY RF-SCORE:    0.00 PKD
ROOT
HETATM    1  C   UNL     1      -6.182  15.973  68.883  1.00  0.00    -0.126 C  
HETATM    2  C   UNL     1      -6.366  14.632  68.200  1.00  0.00    -0.140 C  
ENDROOT
BRANCH   2   3
HETATM    3  O   UNL     1      -7.488  14.705  67.303  1.00  0.00    -0.194 OA 
BRANCH   3   4
HETATM    4  C   UNL     1      -8.550  13.938  67.650  1.00  0.00    -0.190 C  
HETATM    5  O   UNL     1      -8.857  13.645  68.798  1.00  0.00    -0.072 OA 
BRANCH   4   6
HETATM    6  C   UNL     1      -9.306  13.476  66.462  1.00  0.00    -0.227 C  
HETATM    7  C   UNL     1     -10.477  14.085  66.156  1.00  0.00    -0.297 C  
HETATM    8  C   UNL     1     -11.032  15.343  66.785  1.00  0.00    -0.282 C  
HETATM    9  N   UNL     1     -11.296  13.543  65.180  1.00  0.00    -0.296 NA 
HETATM   10  C   UNL     1     -11.133  12.280  64.637  1.00  0.00    -0.313 C  
HETATM   11  C   UNL     1     -12.335  11.747  63.893  1.00  0.00    -0.393 C  
HETATM   12  C   UNL     1      -9.960  11.616  64.802  1.00  0.00    -0.292 C  
HETATM   13  C   UNL     1      -8.829  12.264  65.632  1.00  0.00     0.428 C  
BRANCH  12  14
HETATM   14  C   UNL     1      -9.803  10.267  64.182  1.00  0.00    -0.250 C  
HETATM   15  O   UNL     1     -10.031   9.216  64.764  1.00  0.00     0.466 OA 
BRANCH  14  16
HETATM   16  O   UNL     1      -9.395  10.340  62.892  1.00  0.00    -0.274 OA 
BRANCH  16  17
HETATM   17  C   UNL     1      -8.386   9.383  62.516  1.00  0.00    -0.174 C  
HETATM   18  C   UNL     1      -6.982   9.857  62.867  1.00  0.00    -0.122 C  
ENDBRANCH  16  17
ENDBRANCH  14  16
ENDBRANCH  12  14
BRANCH  13  19
HETATM   19  C   UNL     1      -7.971  11.260  66.417  1.00  0.00    -0.125 A  
HETATM   20  C   UNL     1      -8.459  10.409  67.429  1.00  0.00    -0.121 A  
HETATM   21  C   UNL     1      -7.571   9.489  68.022  1.00  0.00    -0.086 A  
HETATM   22  C   UNL     1      -6.605  11.166  66.047  1.00  0.00     0.035 A  
HETATM   23  C   UNL     1      -5.747  10.249  66.646  1.00  0.00    -0.056 A  
HETATM   24  C   UNL     1      -6.233   9.402  67.629  1.00  0.00    -0.054 A  
BRANCH  20  25
HETATM   25  C   UNL     1      -9.842  10.486  67.927  1.00  0.00    -0.181 C  
HETATM   26  C   UNL     1     -10.167  10.317  69.219  1.00  0.00    -0.244 C  
BRANCH  26  27
HETATM   27  C   UNL     1     -11.528  10.490  69.765  1.00  0.00    -0.294 C  
HETATM   28  O   UNL     1     -12.409  11.028  69.110  1.00  0.00    -0.451 OA 
BRANCH  27  29
HETATM   29  O   UNL     1     -11.634   9.981  71.012  1.00  0.00    -0.343 OA 
HETATM   30  C   UNL     1     -12.368   8.750  71.243  1.00  0.00    -0.270 C  
HETATM   31  C   UNL     1     -13.828   8.859  70.793  1.00  0.00     0.337 C  
HETATM   32  C   UNL     1     -11.656   7.563  70.583  1.00  0.00    -0.272 C  
HETATM   33  C   UNL     1     -12.338   8.559  72.768  1.00  0.00    -0.133 C  
ENDBRANCH  27  29
ENDBRANCH  26  27
ENDBRANCH  20  25
ENDBRANCH  13  19
ENDBRANCH   4   6
ENDBRANCH   3   4
ENDBRANCH   2   3
TORSDOF 10
ENDMDL
MODEL      139
REMARK 921   NORMALIZED FREE ENERGY PREDICTED BY IDOCK:   -2.80 KCAL/MOL
REMARK 922        TOTAL FREE ENERGY PREDICTED BY IDOCK:   -6.80 KCAL/MOL
REMARK 923 INTER-LIGAND FREE ENERGY PREDICTED BY IDOCK:   -7.88 KCAL/MOL
REMARK 924 INTRA-LIGAND FREE ENERGY PREDICTED BY IDOCK:    1.08 KCAL/MOL
REMARK 927      BINDING AFFINITY PREDICTED BY RF-SCORE:    0.00 PKD
ROOT
HETATM    1  C   UNL     1      -7.385  16.438  70.037  1.00  0.00     0.766 C  
HETATM    2  C   UNL     1      -8.676  16.208  69.274  1.00  0.00    -0.190 C  
ENDROOT
BRANCH   2   3
HETATM    3  O   UNL     1      -9.601  15.491  70.110  1.00  0.00    -0.140 OA 
BRANCH   3   4
HETATM    4  C   UNL     1     -10.891  15.527  69.697  1.00  0.00    -0.283 C  
HETATM    5  O   UNL     1     -11.452  16.512  69.236  1.00  0.00    -0.221 OA 
BRANCH   4   6
HETATM    6  C   UNL     1     -11.563  14.218  69.879  1.00  0.00    -0.337 C  
HETATM    7  C   UNL     1     -12.381  14.048  70.946  1.00  0.00    -0.372 C  
HETATM    8  C   UNL     1     -12.859  15.121  71.899  1.00  0.00    -0.428 C  
HETATM    9  N   UNL     1     -12.856  12.784  71.250  1.00  0.00    -0.327 NA 
HETATM   10  C   UNL     1     -12.376  11.614  70.687  1.00  0.00    -0.344 C  
HETATM   11  C   UNL     1     -12.750  10.350  71.427  1.00  0.00    -0.551 C  
HETATM   12  C   UNL     1     -11.622  11.663  69.558  1.00  0.00    -0.397 C  
HETATM   13  C   UNL     1     -11.275  13.032  68.934  1.00  0.00    -0.326 C  
BRANCH  12  14
HETATM   14  C   UNL     1     -11.141  10.383  68.957  1.00  0.00    -0.248 C  
HETATM   15  O   UNL     1     -11.340  10.054  67.796  1.00  0.00    -0.209 OA 
BRANCH  14  16
HETATM   16  O   UNL     1     -10.440   9.633  69.843  1.00  0.00    -0.217 OA 
BRANCH  16  17
HETATM   17  C   UNL     1      -9.721   8.525  69.268  1.00  0.00    -0.173 C  
HETATM   18  C   UNL     1      -8.241   8.835  69.080  1.00  0.00    -0.117 C  
ENDBRANCH  16  17
ENDBRANCH  14  16
ENDBRANCH  12  14
BRANCH  13  19
HETATM   19  C   UNL     1      -9.895  13.084  68.260  1.00  0.00    -0.225 A  
HETATM   20  C   UNL     1      -9.614  13.776  67.065  1.00  0.00    -0.251 A  
HETATM   21  C   UNL     1      -8.286  13.795  66.592  1.00  0.00     0.240 A  
HETATM   22  C   UNL     1      -8.834  12.424  68.930  1.00  0.00     0.292 A  
HETATM   23  C   UNL     1      -7.530  12.456  68.446  1.00  0.00    -0.123 A  
HETATM   24  C   UNL     1      -7.254  13.151  67.279  1.00  0.00    -0.045 A  
BRANCH  20  25
HETATM   25  C   UNL     1     -10.664  14.429  66.264  1.00  0.00    -0.307 C  
HETATM   26  C   UNL     1     -10.574  14.597  64.935  1.00  0.00    -0.446 C  
BRANCH  26  27
HETATM   27  C   UNL     1     -11.651  15.153  64.092  1.00  0.00    -0.056 C  
HETATM   28  O   UNL     1     -11.774  16.359  63.935  1.00  0.00    -1.085 OA 
BRANCH  27  29
HETATM   29  O   UNL     1     -12.415  14.178  63.551  1.00  0.00    -0.817 OA 
HETATM   30  C   UNL     1     -12.116  12.782  63.807  1.00  0.00    -0.517 C  
HETATM   31  C   UNL     1     -10.705  12.404  63.345  1.00  0.00    -0.398 C  
HETATM   32  C   UNL     1     -12.341  12.441  65.284  1.00  0.00    -0.357 C  
HETATM   33  C   UNL     1     -13.133  12.002  62.958  1.00  0.00     0.334 C  
ENDBRANCH  27  29
ENDBRANCH  26  27
ENDBRANCH  20  25
ENDBRANCH  13  19
ENDBRANCH   4   6
ENDBRANCH   3   4
ENDBRANCH   2   3
TORSDOF 10
ENDMDL
MODEL      140
REMARK 921   NORMALIZED FREE ENERGY PREDICTED BY IDOCK:   -2.79 KCAL/MOL
REMARK 922        TOTAL FREE ENERGY PREDICTED BY IDOCK:   -6.78 KCAL/MOL
REMARK 923 INTER-LIGAND FREE ENERGY PREDICTED BY IDOCK:   -5.07 KCAL/MOL
REMARK 924 INTRA-LIGAND FREE ENERGY PREDICTED BY IDOCK:   -1.71 KCAL/MOL
REMARK 927      BINDING AFFINITY PREDICTED BY RF-SCORE:    0.00 PKD
ROOT
HETATM    1  C   UNL     1     -10.141  10.941  63.786  1.00  0.00    -0.413 C  
HETATM    2  C   UNL     1      -9.169   9.898  63.271  1.00  0.00    -0.238 C  
ENDROOT
BRANCH   2   3
HETATM    3  O   UNL     1      -8.500   9.280  64.385  1.00  0.00    -0.168 OA 
BRANCH   3   4
HETATM    4  C   UNL     1      -7.285   9.801  64.683  1.00  0.00    -0.131 C  
HETATM    5  O   UNL     1      -6.657  10.570  63.968  1.00  0.00    -0.052 OA 
BRANCH   4   6
HETATM    6  C   UNL     1      -6.787   9.319  65.994  1.00  0.00    -0.088 C  
HETATM    7  C   UNL     1      -6.045   8.185  66.032  1.00  0.00    -0.041 C  
HETATM    8  C   UNL     1      -5.484   7.431  64.848  1.00  0.00    -0.033 C  
HETATM    9  N   UNL     1      -5.743   7.607  67.253  1.00  0.00    -0.034 NA 
HETATM   10  C   UNL     1      -6.336   7.960  68.453  1.00  0.00    -0.049 C  
HETATM   11  C   UNL     1      -6.154   6.962  69.573  1.00  0.00    -0.033 C  
HETATM   12  C   UNL     1      -7.026   9.126  68.552  1.00  0.00    -0.067 C  
HETATM   13  C   UNL     1      -7.175  10.029  67.308  1.00  0.00    -0.086 C  
BRANCH  12  14
HETATM   14  C   UNL     1      -7.632   9.495  69.866  1.00  0.00    -0.123 C  
HETATM   15  O   UNL     1      -7.524  10.597  70.384  1.00  0.00    -0.064 OA 
BRANCH  14  16
HETATM   16  O   UNL     1      -8.334   8.472  70.411  1.00  0.00    -0.111 OA 
BRANCH  16  17
HETATM   17  C   UNL     1      -9.387   8.867  71.312  1.00  0.00    -0.266 C  
HETATM   18  C   UNL     1     -10.721   8.225  70.957  1.00  0.00    -0.256 C  
ENDBRANCH  16  17
ENDBRANCH  14  16
ENDBRANCH  12  14
BRANCH  13  19
HETATM   19  C   UNL     1      -8.505  10.795  67.242  1.00  0.00    -0.124 A  
HETATM   20  C   UNL     1      -9.775  10.209  67.414  1.00  0.00    -0.192 A  
HETATM   21  C   UNL     1     -10.912  11.042  67.394  1.00  0.00    -0.349 A  
HETATM   22  C   UNL     1      -8.424  12.197  67.042  1.00  0.00    -0.183 A  
HETATM   23  C   UNL     1      -9.559  13.001  67.027  1.00  0.00    -0.236 A  
HETATM   24  C   UNL     1     -10.805  12.424  67.213  1.00  0.00    -0.279 A  
BRANCH  20  25
HETATM   25  C   UNL     1      -9.962   8.755  67.556  1.00  0.00    -0.254 C  
HETATM   26  C   UNL     1     -10.105   7.928  66.508  1.00  0.00    -0.246 C  
BRANCH  26  27
HETATM   27  C   UNL     1     -10.189   6.458  66.613  1.00  0.00    -0.152 C  
HETATM   28  O   UNL     1     -11.267   5.892  66.714  1.00  0.00    -0.184 OA 
BRANCH  27  29
HETATM   29  O   UNL     1      -8.967   5.883  66.568  1.00  0.00    -0.123 OA 
HETATM   30  C   UNL     1      -8.695   4.676  67.327  1.00  0.00    -0.104 C  
HETATM   31  C   UNL     1      -8.921   4.878  68.828  1.00  0.00    -0.132 C  
HETATM   32  C   UNL     1      -9.510   3.497  66.782  1.00  0.00    -0.190 C  
HETATM   33  C   UNL     1      -7.202   4.395  67.091  1.00  0.00    -0.069 C  
ENDBRANCH  27  29
ENDBRANCH  26  27
ENDBRANCH  20  25
ENDBRANCH  13  19
ENDBRANCH   4   6
ENDBRANCH   3   4
ENDBRANCH   2   3
TORSDOF 10
ENDMDL
MODEL      141
REMARK 921   NORMALIZED FREE ENERGY PREDICTED BY IDOCK:   -2.78 KCAL/MOL
REMARK 922        TOTAL FREE ENERGY PREDICTED BY IDOCK:   -6.77 KCAL/MOL
REMARK 923 INTER-LIGAND FREE ENERGY PREDICTED BY IDOCK:   -5.35 KCAL/MOL
REMARK 924 INTRA-LIGAND FREE ENERGY PREDICTED BY IDOCK:   -1.42 KCAL/MOL
REMARK 927      BINDING AFFINITY PREDICTED BY RF-SCORE:    0.00 PKD
ROOT
HETATM    1  C   UNL     1     -10.345   6.141  73.935  1.00  0.00    -0.302 C  
HETATM    2  C   UNL     1      -9.870   7.520  73.521  1.00  0.00    -0.317 C  
ENDROOT
BRANCH   2   3
HETATM    3  O   UNL     1     -10.869   8.138  72.690  1.00  0.00    -0.337 OA 
BRANCH   3   4
HETATM    4  C   UNL     1     -10.410   8.630  71.514  1.00  0.00    -0.271 C  
HETATM    5  O   UNL     1     -10.188   9.811  71.286  1.00  0.00    -0.153 OA 
BRANCH   4   6
HETATM    6  C   UNL     1     -10.211   7.556  70.511  1.00  0.00    -0.201 C  
HETATM    7  C   UNL     1     -11.205   6.655  70.315  1.00  0.00    -0.353 C  
HETATM    8  C   UNL     1     -12.609   6.722  70.872  1.00  0.00    -0.199 C  
HETATM    9  N   UNL     1     -10.968   5.533  69.539  1.00  0.00    -0.203 NA 
HETATM   10  C   UNL     1      -9.713   5.121  69.125  1.00  0.00    -0.163 C  
HETATM   11  C   UNL     1      -9.640   3.695  68.632  1.00  0.00    -0.159 C  
HETATM   12  C   UNL     1      -8.661   5.979  69.189  1.00  0.00    -0.120 C  
HETATM   13  C   UNL     1      -8.870   7.397  69.763  1.00  0.00    -0.141 C  
BRANCH  12  14
HETATM   14  C   UNL     1      -7.324   5.516  68.709  1.00  0.00    -0.075 C  
HETATM   15  O   UNL     1      -6.671   4.636  69.250  1.00  0.00    -0.043 OA 
BRANCH  14  16
HETATM   16  O   UNL     1      -6.925   6.172  67.593  1.00  0.00    -0.064 OA 
BRANCH  16  17
HETATM   17  C   UNL     1      -7.589   5.769  66.379  1.00  0.00    -0.091 C  
HETATM   18  C   UNL     1      -7.139   4.394  65.905  1.00  0.00    -0.071 C  
ENDBRANCH  16  17
ENDBRANCH  14  16
ENDBRANCH  12  14
BRANCH  13  19
HETATM   19  C   UNL     1      -7.656   7.955  70.521  1.00  0.00    -0.081 A  
HETATM   20  C   UNL     1      -6.919   9.089  70.127  1.00  0.00    -0.047 A  
HETATM   21  C   UNL     1      -5.865   9.530  70.954  1.00  0.00    -0.065 A  
HETATM   22  C   UNL     1      -7.299   7.295  71.725  1.00  0.00    -0.080 A  
HETATM   23  C   UNL     1      -6.256   7.748  72.526  1.00  0.00    -0.052 A  
HETATM   24  C   UNL     1      -5.544   8.873  72.144  1.00  0.00    -0.062 A  
BRANCH  20  25
HETATM   25  C   UNL     1      -7.170   9.795  68.859  1.00  0.00    -0.072 C  
HETATM   26  C   UNL     1      -8.032  10.819  68.748  1.00  0.00    -0.136 C  
BRANCH  26  27
HETATM   27  C   UNL     1      -8.229  11.612  67.518  1.00  0.00    -0.148 C  
HETATM   28  O   UNL     1      -7.332  12.307  67.064  1.00  0.00    -0.132 OA 
BRANCH  27  29
HETATM   29  O   UNL     1      -9.468  11.442  67.007  1.00  0.00    -0.171 OA 
HETATM   30  C   UNL     1     -10.484  12.463  67.189  1.00  0.00    -0.219 C  
HETATM   31  C   UNL     1     -10.761  12.739  68.670  1.00  0.00    -0.273 C  
HETATM   32  C   UNL     1     -10.108  13.742  66.432  1.00  0.00    -0.297 C  
HETATM   33  C   UNL     1     -11.752  11.868  66.558  1.00  0.00    -0.247 C  
ENDBRANCH  27  29
ENDBRANCH  26  27
ENDBRANCH  20  25
ENDBRANCH  13  19
ENDBRANCH   4   6
ENDBRANCH   3   4
ENDBRANCH   2   3
TORSDOF 10
ENDMDL
MODEL      142
REMARK 921   NORMALIZED FREE ENERGY PREDICTED BY IDOCK:   -2.76 KCAL/MOL
REMARK 922        TOTAL FREE ENERGY PREDICTED BY IDOCK:   -6.74 KCAL/MOL
REMARK 923 INTER-LIGAND FREE ENERGY PREDICTED BY IDOCK:   -6.10 KCAL/MOL
REMARK 924 INTRA-LIGAND FREE ENERGY PREDICTED BY IDOCK:   -0.64 KCAL/MOL
REMARK 927      BINDING AFFINITY PREDICTED BY RF-SCORE:    0.00 PKD
ROOT
HETATM    1  C   UNL     1     -10.758   5.529  66.726  1.00  0.00    -0.329 C  
HETATM    2  C   UNL     1     -11.065   6.293  67.999  1.00  0.00    -0.265 C  
ENDROOT
BRANCH   2   3
HETATM    3  O   UNL     1     -10.531   7.625  67.895  1.00  0.00    -0.213 OA 
BRANCH   3   4
HETATM    4  C   UNL     1      -9.565   7.782  66.958  1.00  0.00    -0.184 C  
HETATM    5  O   UNL     1      -9.649   7.411  65.795  1.00  0.00     0.154 OA 
BRANCH   4   6
HETATM    6  C   UNL     1      -8.367   8.457  67.512  1.00  0.00    -0.129 C  
HETATM    7  C   UNL     1      -7.476   7.725  68.225  1.00  0.00    -0.104 C  
HETATM    8  C   UNL     1      -7.453   6.220  68.368  1.00  0.00    -0.088 C  
HETATM    9  N   UNL     1      -6.465   8.365  68.919  1.00  0.00    -0.048 NA 
HETATM   10  C   UNL     1      -6.415   9.730  69.146  1.00  0.00    -0.044 C  
HETATM   11  C   UNL     1      -5.459  10.162  70.233  1.00  0.00    -0.050 C  
HETATM   12  C   UNL     1      -7.199  10.568  68.419  1.00  0.00    -0.080 C  
HETATM   13  C   UNL     1      -8.170   9.982  67.370  1.00  0.00    -0.118 C  
BRANCH  12  14
HETATM   14  C   UNL     1      -7.105  12.038  68.665  1.00  0.00    -0.103 C  
HETATM   15  O   UNL     1      -7.279  12.561  69.757  1.00  0.00     0.342 OA 
BRANCH  14  16
HETATM   16  O   UNL     1      -6.784  12.726  67.543  1.00  0.00    -0.135 OA 
BRANCH  16  17
HETATM   17  C   UNL     1      -7.431  14.006  67.408  1.00  0.00    -0.127 C  
HETATM   18  C   UNL     1      -6.468  15.165  67.631  1.00  0.00    -0.180 C  
ENDBRANCH  16  17
ENDBRANCH  14  16
ENDBRANCH  12  14
BRANCH  13  19
HETATM   19  C   UNL     1      -9.477  10.775  67.211  1.00  0.00    -0.177 A  
HETATM   20  C   UNL     1     -10.411  10.992  68.243  1.00  0.00    -0.212 A  
HETATM   21  C   UNL     1     -11.538  11.796  67.975  1.00  0.00    -0.386 A  
HETATM   22  C   UNL     1      -9.715  11.361  65.942  1.00  0.00    -0.257 A  
HETATM   23  C   UNL     1     -10.834  12.151  65.699  1.00  0.00    -0.323 A  
HETATM   24  C   UNL     1     -11.742  12.377  66.721  1.00  0.00    -0.430 A  
BRANCH  20  25
HETATM   25  C   UNL     1     -10.284  10.366  69.570  1.00  0.00    -0.258 C  
HETATM   26  C   UNL     1     -11.338  10.091  70.356  1.00  0.00    -0.392 C  
BRANCH  26  27
HETATM   27  C   UNL     1     -11.252   9.372  71.642  1.00  0.00    -0.361 C  
HETATM   28  O   UNL     1     -12.258   8.994  72.224  1.00  0.00    -0.361 OA 
BRANCH  27  29
HETATM   29  O   UNL     1      -9.970   9.201  72.034  1.00  0.00    -0.263 OA 
HETATM   30  C   UNL     1      -9.494   7.891  72.440  1.00  0.00    -0.192 C  
HETATM   31  C   UNL     1     -10.290   7.333  73.624  1.00  0.00    -0.399 C  
HETATM   32  C   UNL     1      -9.489   6.924  71.250  1.00  0.00    -0.165 C  
HETATM   33  C   UNL     1      -8.044   8.126  72.893  1.00  0.00    -0.224 C  
ENDBRANCH  27  29
ENDBRANCH  26  27
ENDBRANCH  20  25
ENDBRANCH  13  19
ENDBRANCH   4   6
ENDBRANCH   3   4
ENDBRANCH   2   3
TORSDOF 10
ENDMDL
MODEL      143
REMARK 921   NORMALIZED FREE ENERGY PREDICTED BY IDOCK:   -2.76 KCAL/MOL
REMARK 922        TOTAL FREE ENERGY PREDICTED BY IDOCK:   -6.73 KCAL/MOL
REMARK 923 INTER-LIGAND FREE ENERGY PREDICTED BY IDOCK:   -6.45 KCAL/MOL
REMARK 924 INTRA-LIGAND FREE ENERGY PREDICTED BY IDOCK:   -0.28 KCAL/MOL
REMARK 927      BINDING AFFINITY PREDICTED BY RF-SCORE:    0.00 PKD
ROOT
HETATM    1  C   UNL     1      -5.178  12.137  70.512  1.00  0.00    -0.126 C  
HETATM    2  C   UNL     1      -5.994  13.385  70.238  1.00  0.00    -0.141 C  
ENDROOT
BRANCH   2   3
HETATM    3  O   UNL     1      -5.726  13.846  68.902  1.00  0.00    -0.079 OA 
BRANCH   3   4
HETATM    4  C   UNL     1      -6.673  13.529  67.987  1.00  0.00    -0.138 C  
HETATM    5  O   UNL     1      -6.452  13.013  66.899  1.00  0.00    -0.041 OA 
BRANCH   4   6
HETATM    6  C   UNL     1      -8.032  13.892  68.454  1.00  0.00    -0.144 C  
HETATM    7  C   UNL     1      -8.937  12.904  68.660  1.00  0.00     0.051 C  
HETATM    8  C   UNL     1      -8.667  11.417  68.656  1.00  0.00    -0.121 C  
HETATM    9  N   UNL     1     -10.261  13.229  68.898  1.00  0.00    -0.094 NA 
HETATM   10  C   UNL     1     -10.802  14.489  68.712  1.00  0.00    -0.248 C  
HETATM   11  C   UNL     1     -12.312  14.533  68.654  1.00  0.00    -0.040 C  
HETATM   12  C   UNL     1      -9.985  15.567  68.589  1.00  0.00    -0.208 C  
HETATM   13  C   UNL     1      -8.454  15.368  68.618  1.00  0.00    -0.170 C  
BRANCH  12  14
HETATM   14  C   UNL     1     -10.597  16.919  68.417  1.00  0.00    -0.365 C  
HETATM   15  O   UNL     1     -11.369  17.211  67.515  1.00  0.00     0.044 OA 
BRANCH  14  16
HETATM   16  O   UNL     1     -10.213  17.783  69.388  1.00  0.00    -0.253 OA 
BRANCH  16  17
HETATM   17  C   UNL     1      -9.966  19.130  68.942  1.00  0.00    -0.416 C  
HETATM   18  C   UNL     1      -8.494  19.508  69.038  1.00  0.00    -0.217 C  
ENDBRANCH  16  17
ENDBRANCH  14  16
ENDBRANCH  12  14
BRANCH  13  19
HETATM   19  C   UNL     1      -7.675  16.349  67.729  1.00  0.00    -0.162 A  
HETATM   20  C   UNL     1      -8.089  16.773  66.451  1.00  0.00    -0.355 A  
HETATM   21  C   UNL     1      -7.309  17.730  65.771  1.00  0.00    -0.126 A  
HETATM   22  C   UNL     1      -6.482  16.892  68.273  1.00  0.00    -0.142 A  
HETATM   23  C   UNL     1      -5.728  17.836  67.584  1.00  0.00    -0.145 A  
HETATM   24  C   UNL     1      -6.147  18.263  66.334  1.00  0.00    -0.208 A  
BRANCH  20  25
HETATM   25  C   UNL     1      -9.273  16.212  65.777  1.00  0.00    -0.183 C  
HETATM   26  C   UNL     1      -9.340  14.941  65.349  1.00  0.00     0.291 C  
BRANCH  26  27
HETATM   27  C   UNL     1     -10.546  14.322  64.766  1.00  0.00    -0.412 C  
HETATM   28  O   UNL     1     -11.653  14.813  64.931  1.00  0.00    -0.373 OA 
BRANCH  27  29
HETATM   29  O   UNL     1     -10.246  13.211  64.059  1.00  0.00    -0.369 OA 
HETATM   30  C   UNL     1     -11.002  11.988  64.254  1.00  0.00    -0.346 C  
HETATM   31  C   UNL     1     -10.936  11.497  65.704  1.00  0.00    -0.296 C  
HETATM   32  C   UNL     1     -12.449  12.163  63.778  1.00  0.00    -0.620 C  
HETATM   33  C   UNL     1     -10.308  10.951  63.355  1.00  0.00    -0.299 C  
ENDBRANCH  27  29
ENDBRANCH  26  27
ENDBRANCH  20  25
ENDBRANCH  13  19
ENDBRANCH   4   6
ENDBRANCH   3   4
ENDBRANCH   2   3
TORSDOF 10
ENDMDL
MODEL      144
REMARK 921   NORMALIZED FREE ENERGY PREDICTED BY IDOCK:   -2.72 KCAL/MOL
REMARK 922        TOTAL FREE ENERGY PREDICTED BY IDOCK:   -6.67 KCAL/MOL
REMARK 923 INTER-LIGAND FREE ENERGY PREDICTED BY IDOCK:   -5.76 KCAL/MOL
REMARK 924 INTRA-LIGAND FREE ENERGY PREDICTED BY IDOCK:   -0.91 KCAL/MOL
REMARK 927      BINDING AFFINITY PREDICTED BY RF-SCORE:    0.00 PKD
ROOT
HETATM    1  C   UNL     1      -5.385  11.396  68.351  1.00  0.00    -0.042 C  
HETATM    2  C   UNL     1      -6.365  10.340  68.825  1.00  0.00    -0.047 C  
ENDROOT
BRANCH   2   3
HETATM    3  O   UNL     1      -6.340  10.278  70.262  1.00  0.00    -0.093 OA 
BRANCH   3   4
HETATM    4  C   UNL     1      -6.191   9.034  70.778  1.00  0.00    -0.048 C  
HETATM    5  O   UNL     1      -5.243   8.293  70.560  1.00  0.00    -0.023 OA 
BRANCH   4   6
HETATM    6  C   UNL     1      -7.334   8.660  71.646  1.00  0.00    -0.117 C  
HETATM    7  C   UNL     1      -7.135   8.568  72.983  1.00  0.00    -0.010 C  
HETATM    8  C   UNL     1      -5.902   8.998  73.745  1.00  0.00    -0.060 C  
HETATM    9  N   UNL     1      -8.124   8.027  73.786  1.00  0.00    -0.203 NA 
HETATM   10  C   UNL     1      -9.230   7.345  73.310  1.00  0.00    -0.186 C  
HETATM   11  C   UNL     1      -9.962   6.518  74.342  1.00  0.00    -0.374 C  
HETATM   12  C   UNL     1      -9.578   7.444  72.001  1.00  0.00    -0.177 C  
HETATM   13  C   UNL     1      -8.707   8.289  71.045  1.00  0.00    -0.169 C  
BRANCH  12  14
HETATM   14  C   UNL     1     -10.792   6.719  71.521  1.00  0.00    -0.234 C  
HETATM   15  O   UNL     1     -11.805   7.272  71.118  1.00  0.00    -0.288 OA 
BRANCH  14  16
HETATM   16  O   UNL     1     -10.636   5.373  71.564  1.00  0.00    -0.233 OA 
BRANCH  16  17
HETATM   17  C   UNL     1      -9.804   4.823  70.525  1.00  0.00    -0.230 C  
HETATM   18  C   UNL     1     -10.533   4.730  69.191  1.00  0.00     0.156 C  
ENDBRANCH  16  17
ENDBRANCH  14  16
ENDBRANCH  12  14
BRANCH  13  19
HETATM   19  C   UNL     1      -8.641   7.746  69.609  1.00  0.00    -0.135 A  
HETATM   20  C   UNL     1      -9.402   8.240  68.531  1.00  0.00    -0.138 A  
HETATM   21  C   UNL     1      -9.192   7.691  67.250  1.00  0.00    -0.154 A  
HETATM   22  C   UNL     1      -7.705   6.708  69.364  1.00  0.00    -0.101 A  
HETATM   23  C   UNL     1      -7.515   6.182  68.090  1.00  0.00    -0.090 A  
HETATM   24  C   UNL     1      -8.253   6.681  67.029  1.00  0.00    -0.113 A  
BRANCH  20  25
HETATM   25  C   UNL     1     -10.445   9.265  68.704  1.00  0.00    -0.236 C  
HETATM   26  C   UNL     1     -10.791  10.130  67.737  1.00  0.00    -0.346 C  
BRANCH  26  27
HETATM   27  C   UNL     1     -11.901  11.097  67.844  1.00  0.00    -0.082 C  
HETATM   28  O   UNL     1     -12.697  11.047  68.770  1.00  0.00    -0.155 OA 
BRANCH  27  29
HETATM   29  O   UNL     1     -11.884  11.991  66.830  1.00  0.00    -0.580 OA 
HETATM   30  C   UNL     1     -11.252  13.285  67.002  1.00  0.00    -0.292 C  
HETATM   31  C   UNL     1     -11.881  14.083  68.149  1.00  0.00    -0.402 C  
HETATM   32  C   UNL     1      -9.737  13.130  67.180  1.00  0.00    -0.235 C  
HETATM   33  C   UNL     1     -11.521  14.029  65.684  1.00  0.00    -0.319 C  
ENDBRANCH  27  29
ENDBRANCH  26  27
ENDBRANCH  20  25
ENDBRANCH  13  19
ENDBRANCH   4   6
ENDBRANCH   3   4
ENDBRANCH   2   3
TORSDOF 10
ENDMDL
MODEL      145
REMARK 921   NORMALIZED FREE ENERGY PREDICTED BY IDOCK:   -2.67 KCAL/MOL
REMARK 922        TOTAL FREE ENERGY PREDICTED BY IDOCK:   -6.59 KCAL/MOL
REMARK 923 INTER-LIGAND FREE ENERGY PREDICTED BY IDOCK:   -5.06 KCAL/MOL
REMARK 924 INTRA-LIGAND FREE ENERGY PREDICTED BY IDOCK:   -1.53 KCAL/MOL
REMARK 927      BINDING AFFINITY PREDICTED BY RF-SCORE:    0.00 PKD
ROOT
HETATM    1  C   UNL     1      -9.701  15.937  66.991  1.00  0.00    -0.235 C  
HETATM    2  C   UNL     1      -8.297  15.377  67.121  1.00  0.00    -0.219 C  
ENDROOT
BRANCH   2   3
HETATM    3  O   UNL     1      -8.365  14.036  67.636  1.00  0.00    -0.160 OA 
BRANCH   3   4
HETATM    4  C   UNL     1      -7.167  13.421  67.788  1.00  0.00    -0.154 C  
HETATM    5  O   UNL     1      -6.123  13.779  67.262  1.00  0.00    -0.321 OA 
BRANCH   4   6
HETATM    6  C   UNL     1      -7.268  12.236  68.674  1.00  0.00    -0.105 C  
HETATM    7  C   UNL     1      -6.534  12.209  69.813  1.00  0.00    -0.050 C  
HETATM    8  C   UNL     1      -5.748  13.354  70.409  1.00  0.00    -0.164 C  
HETATM    9  N   UNL     1      -6.455  11.039  70.548  1.00  0.00    -0.307 NA 
HETATM   10  C   UNL     1      -6.876   9.801  70.093  1.00  0.00    -0.109 C  
HETATM   11  C   UNL     1      -6.352   8.620  70.877  1.00  0.00    -0.044 C  
HETATM   12  C   UNL     1      -7.694   9.718  69.012  1.00  0.00    -0.085 C  
HETATM   13  C   UNL     1      -8.114  11.008  68.274  1.00  0.00    -0.128 C  
BRANCH  12  14
HETATM   14  C   UNL     1      -8.156   8.371  68.560  1.00  0.00    -0.123 C  
HETATM   15  O   UNL     1      -7.527   7.652  67.797  1.00  0.00    -0.102 OA 
BRANCH  14  16
HETATM   16  O   UNL     1      -9.346   8.026  69.109  1.00  0.00    -0.151 OA 
BRANCH  16  17
HETATM   17  C   UNL     1     -10.366   7.649  68.164  1.00  0.00    -0.204 C  
HETATM   18  C   UNL     1     -10.668   6.157  68.208  1.00  0.00    -0.361 C  
ENDBRANCH  16  17
ENDBRANCH  14  16
ENDBRANCH  12  14
BRANCH  13  19
HETATM   19  C   UNL     1      -8.298  10.835  66.759  1.00  0.00    -0.136 A  
HETATM   20  C   UNL     1      -9.491  11.109  66.061  1.00  0.00    -0.234 A  
HETATM   21  C   UNL     1      -9.500  10.969  64.658  1.00  0.00    -0.270 A  
HETATM   22  C   UNL     1      -7.159  10.416  66.023  1.00  0.00    -0.133 A  
HETATM   23  C   UNL     1      -7.191  10.284  64.639  1.00  0.00    -0.082 A  
HETATM   24  C   UNL     1      -8.361  10.571  63.954  1.00  0.00    -0.093 A  
BRANCH  20  25
HETATM   25  C   UNL     1     -10.740  11.480  66.747  1.00  0.00    -0.311 C  
HETATM   26  C   UNL     1     -10.901  11.392  68.077  1.00  0.00    -0.264 C  
BRANCH  26  27
HETATM   27  C   UNL     1     -12.101  11.853  68.802  1.00  0.00    -0.124 C  
HETATM   28  O   UNL     1     -12.814  11.068  69.409  1.00  0.00    -0.190 OA 
BRANCH  27  29
HETATM   29  O   UNL     1     -12.262  13.191  68.703  1.00  0.00    -0.252 OA 
HETATM   30  C   UNL     1     -12.036  14.046  69.854  1.00  0.00    -0.345 C  
HETATM   31  C   UNL     1     -12.949  13.680  71.028  1.00  0.00    -0.303 C  
HETATM   32  C   UNL     1     -10.557  14.034  70.257  1.00  0.00     0.860 C  
HETATM   33  C   UNL     1     -12.405  15.458  69.370  1.00  0.00    -0.161 C  
ENDBRANCH  27  29
ENDBRANCH  26  27
ENDBRANCH  20  25
ENDBRANCH  13  19
ENDBRANCH   4   6
ENDBRANCH   3   4
ENDBRANCH   2   3
TORSDOF 10
ENDMDL
MODEL      146
REMARK 921   NORMALIZED FREE ENERGY PREDICTED BY IDOCK:   -2.66 KCAL/MOL
REMARK 922        TOTAL FREE ENERGY PREDICTED BY IDOCK:   -6.59 KCAL/MOL
REMARK 923 INTER-LIGAND FREE ENERGY PREDICTED BY IDOCK:   -5.21 KCAL/MOL
REMARK 924 INTRA-LIGAND FREE ENERGY PREDICTED BY IDOCK:   -1.37 KCAL/MOL
REMARK 927      BINDING AFFINITY PREDICTED BY RF-SCORE:    0.00 PKD
ROOT
HETATM    1  C   UNL     1     -10.883  18.023  65.608  1.00  0.00     0.068 C  
HETATM    2  C   UNL     1     -11.113  16.758  64.804  1.00  0.00    -0.016 C  
ENDROOT
BRANCH   2   3
HETATM    3  O   UNL     1     -10.328  15.690  65.362  1.00  0.00    -0.355 OA 
BRANCH   3   4
HETATM    4  C   UNL     1     -11.025  14.573  65.680  1.00  0.00    -0.323 C  
HETATM    5  O   UNL     1     -12.221  14.542  65.935  1.00  0.00    -0.349 OA 
BRANCH   4   6
HETATM    6  C   UNL     1     -10.158  13.370  65.695  1.00  0.00    -0.285 C  
HETATM    7  C   UNL     1     -10.660  12.198  65.234  1.00  0.00    -0.281 C  
HETATM    8  C   UNL     1     -11.970  12.001  64.506  1.00  0.00    -0.350 C  
HETATM    9  N   UNL     1      -9.947  11.027  65.424  1.00  0.00    -0.245 NA 
HETATM   10  C   UNL     1      -8.854  10.906  66.264  1.00  0.00    -0.179 C  
HETATM   11  C   UNL     1      -8.476   9.486  66.618  1.00  0.00    -0.136 C  
HETATM   12  C   UNL     1      -8.215  12.018  66.711  1.00  0.00    -0.110 C  
HETATM   13  C   UNL     1      -8.742  13.412  66.307  1.00  0.00     0.358 C  
BRANCH  12  14
HETATM   14  C   UNL     1      -7.021  11.856  67.594  1.00  0.00    -0.112 C  
HETATM   15  O   UNL     1      -5.868  11.825  67.188  1.00  0.00    -0.105 OA 
BRANCH  14  16
HETATM   16  O   UNL     1      -7.361  11.768  68.904  1.00  0.00    -0.112 OA 
BRANCH  16  17
HETATM   17  C   UNL     1      -6.258  11.855  69.826  1.00  0.00    -0.137 C  
HETATM   18  C   UNL     1      -5.933  13.295  70.201  1.00  0.00    -0.139 C  
ENDBRANCH  16  17
ENDBRANCH  14  16
ENDBRANCH  12  14
BRANCH  13  19
HETATM   19  C   UNL     1      -8.552  14.493  67.383  1.00  0.00    -0.213 A  
HETATM   20  C   UNL     1      -9.299  14.575  68.575  1.00  0.00    -0.203 A  
HETATM   21  C   UNL     1      -8.974  15.581  69.507  1.00  0.00    -0.244 A  
HETATM   22  C   UNL     1      -7.513  15.434  67.164  1.00  0.00    -0.224 A  
HETATM   23  C   UNL     1      -7.209  16.418  68.098  1.00  0.00    -0.148 A  
HETATM   24  C   UNL     1      -7.935  16.486  69.277  1.00  0.00    -0.104 A  
BRANCH  20  25
HETATM   25  C   UNL     1     -10.440  13.687  68.856  1.00  0.00    -0.167 C  
HETATM   26  C   UNL     1     -10.320  12.524  69.516  1.00  0.00     0.641 C  
BRANCH  26  27
HETATM   27  C   UNL     1     -11.456  11.665  69.903  1.00  0.00    -0.228 C  
HETATM   28  O   UNL     1     -12.337  12.076  70.644  1.00  0.00    -0.356 OA 
BRANCH  27  29
HETATM   29  O   UNL     1     -11.375  10.443  69.333  1.00  0.00    -0.239 OA 
HETATM   30  C   UNL     1     -10.827   9.321  70.074  1.00  0.00    -0.238 C  
HETATM   31  C   UNL     1      -9.388   9.582  70.527  1.00  0.00    -0.296 C  
HETATM   32  C   UNL     1     -11.737   8.953  71.251  1.00  0.00    -0.370 C  
HETATM   33  C   UNL     1     -10.821   8.156  69.070  1.00  0.00    -0.014 C  
ENDBRANCH  27  29
ENDBRANCH  26  27
ENDBRANCH  20  25
ENDBRANCH  13  19
ENDBRANCH   4   6
ENDBRANCH   3   4
ENDBRANCH   2   3
TORSDOF 10
ENDMDL
MODEL      147
REMARK 921   NORMALIZED FREE ENERGY PREDICTED BY IDOCK:   -2.63 KCAL/MOL
REMARK 922        TOTAL FREE ENERGY PREDICTED BY IDOCK:   -6.53 KCAL/MOL
REMARK 923 INTER-LIGAND FREE ENERGY PREDICTED BY IDOCK:   -5.05 KCAL/MOL
REMARK 924 INTRA-LIGAND FREE ENERGY PREDICTED BY IDOCK:   -1.48 KCAL/MOL
REMARK 927      BINDING AFFINITY PREDICTED BY RF-SCORE:    0.00 PKD
ROOT
HETATM    1  C   UNL     1      -9.549  10.365  64.639  1.00  0.00    -0.360 C  
HETATM    2  C   UNL     1      -8.747   9.112  64.932  1.00  0.00    -0.182 C  
ENDROOT
BRANCH   2   3
HETATM    3  O   UNL     1      -9.446   8.315  65.905  1.00  0.00    -0.163 OA 
BRANCH   3   4
HETATM    4  C   UNL     1      -8.670   7.808  66.893  1.00  0.00    -0.132 C  
HETATM    5  O   UNL     1      -7.453   7.692  66.839  1.00  0.00    -0.090 OA 
BRANCH   4   6
HETATM    6  C   UNL     1      -9.476   7.393  68.066  1.00  0.00    -0.146 C  
HETATM    7  C   UNL     1     -10.299   6.323  67.946  1.00  0.00    -0.193 C  
HETATM    8  C   UNL     1     -10.357   5.353  66.788  1.00  0.00    -0.321 C  
HETATM    9  N   UNL     1     -11.205   6.041  68.953  1.00  0.00    -0.292 NA 
HETATM   10  C   UNL     1     -11.515   6.905  69.989  1.00  0.00    -0.277 C  
HETATM   11  C   UNL     1     -12.785   6.573  70.739  1.00  0.00     0.278 C  
HETATM   12  C   UNL     1     -10.704   7.960  70.259  1.00  0.00    -0.236 C  
HETATM   13  C   UNL     1      -9.461   8.209  69.376  1.00  0.00    -0.162 C  
BRANCH  12  14
HETATM   14  C   UNL     1     -11.048   8.860  71.400  1.00  0.00    -0.306 C  
HETATM   15  O   UNL     1     -10.760   8.628  72.566  1.00  0.00    -0.307 OA 
BRANCH  14  16
HETATM   16  O   UNL     1     -11.701   9.976  70.994  1.00  0.00    -0.334 OA 
BRANCH  16  17
HETATM   17  C   UNL     1     -13.096  10.028  71.348  1.00  0.00    -0.417 C  
HETATM   18  C   UNL     1     -13.487  11.369  71.956  1.00  0.00    -0.289 C  
ENDBRANCH  16  17
ENDBRANCH  14  16
ENDBRANCH  12  14
BRANCH  13  19
HETATM   19  C   UNL     1      -9.106   9.692  69.192  1.00  0.00    -0.154 A  
HETATM   20  C   UNL     1      -7.922  10.296  69.659  1.00  0.00    -0.164 A  
HETATM   21  C   UNL     1      -7.695  11.655  69.362  1.00  0.00     0.280 A  
HETATM   22  C   UNL     1     -10.027  10.479  68.454  1.00  0.00    -0.177 A  
HETATM   23  C   UNL     1      -9.782  11.819  68.171  1.00  0.00    -0.192 A  
HETATM   24  C   UNL     1      -8.609  12.406  68.618  1.00  0.00     0.032 A  
BRANCH  20  25
HETATM   25  C   UNL     1      -6.944   9.578  70.493  1.00  0.00    -0.124 C  
HETATM   26  C   UNL     1      -7.292   8.639  71.388  1.00  0.00    -0.116 C  
BRANCH  26  27
HETATM   27  C   UNL     1      -6.330   7.830  72.162  1.00  0.00    -0.044 C  
HETATM   28  O   UNL     1      -5.152   7.769  71.842  1.00  0.00    -0.034 OA 
BRANCH  27  29
HETATM   29  O   UNL     1      -6.921   7.223  73.215  1.00  0.00    -0.071 OA 
HETATM   30  C   UNL     1      -7.373   5.848  73.111  1.00  0.00    -0.094 C  
HETATM   31  C   UNL     1      -8.402   5.665  71.991  1.00  0.00    -0.122 C  
HETATM   32  C   UNL     1      -6.182   4.896  72.951  1.00  0.00    -0.037 C  
HETATM   33  C   UNL     1      -8.059   5.560  74.457  1.00  0.00    -0.103 C  
ENDBRANCH  27  29
ENDBRANCH  26  27
ENDBRANCH  20  25
ENDBRANCH  13  19
ENDBRANCH   4   6
ENDBRANCH   3   4
ENDBRANCH   2   3
TORSDOF 10
ENDMDL
MODEL      148
REMARK 921   NORMALIZED FREE ENERGY PREDICTED BY IDOCK:   -2.59 KCAL/MOL
REMARK 922        TOTAL FREE ENERGY PREDICTED BY IDOCK:   -6.47 KCAL/MOL
REMARK 923 INTER-LIGAND FREE ENERGY PREDICTED BY IDOCK:   -3.95 KCAL/MOL
REMARK 924 INTRA-LIGAND FREE ENERGY PREDICTED BY IDOCK:   -2.51 KCAL/MOL
REMARK 927      BINDING AFFINITY PREDICTED BY RF-SCORE:    0.00 PKD
ROOT
HETATM    1  C   UNL     1     -11.250   6.653  69.493  1.00  0.00    -0.383 C  
HETATM    2  C   UNL     1     -11.682   6.848  70.934  1.00  0.00    -0.361 C  
ENDROOT
BRANCH   2   3
HETATM    3  O   UNL     1     -10.577   7.366  71.695  1.00  0.00    -0.206 OA 
BRANCH   3   4
HETATM    4  C   UNL     1     -10.271   6.661  72.812  1.00  0.00    -0.187 C  
HETATM    5  O   UNL     1     -10.500   7.027  73.956  1.00  0.00    -0.366 OA 
BRANCH   4   6
HETATM    6  C   UNL     1      -9.607   5.376  72.484  1.00  0.00    -0.169 C  
HETATM    7  C   UNL     1     -10.230   4.218  72.810  1.00  0.00    -0.167 C  
HETATM    8  C   UNL     1     -11.650   4.064  73.307  1.00  0.00    -0.102 C  
HETATM    9  N   UNL     1      -9.547   3.019  72.701  1.00  0.00    -0.109 NA 
HETATM   10  C   UNL     1      -8.180   2.914  72.506  1.00  0.00    -0.067 C  
HETATM   11  C   UNL     1      -7.596   1.553  72.803  1.00  0.00    -0.035 C  
HETATM   12  C   UNL     1      -7.469   3.994  72.087  1.00  0.00    -0.066 C  
HETATM   13  C   UNL     1      -8.191   5.342  71.871  1.00  0.00    -0.119 C  
BRANCH  12  14
HETATM   14  C   UNL     1      -6.001   3.844  71.859  1.00  0.00    -0.013 C  
HETATM   15  O   UNL     1      -5.192   3.603  72.744  1.00  0.00     0.000 OA 
BRANCH  14  16
HETATM   16  O   UNL     1      -5.668   3.989  70.554  1.00  0.00    -0.012 OA 
BRANCH  16  17
HETATM   17  C   UNL     1      -5.493   2.756  69.829  1.00  0.00    -0.016 C  
HETATM   18  C   UNL     1      -6.498   2.608  68.694  1.00  0.00    -0.029 C  
ENDBRANCH  16  17
ENDBRANCH  14  16
ENDBRANCH  12  14
BRANCH  13  19
HETATM   19  C   UNL     1      -7.332   6.574  72.196  1.00  0.00    -0.091 A  
HETATM   20  C   UNL     1      -7.043   7.611  71.286  1.00  0.00    -0.054 A  
HETATM   21  C   UNL     1      -6.296   8.717  71.738  1.00  0.00    -0.074 A  
HETATM   22  C   UNL     1      -6.848   6.679  73.525  1.00  0.00    -0.076 A  
HETATM   23  C   UNL     1      -6.112   7.781  73.950  1.00  0.00    -0.075 A  
HETATM   24  C   UNL     1      -5.844   8.806  73.057  1.00  0.00    -0.082 A  
BRANCH  20  25
HETATM   25  C   UNL     1      -7.443   7.554  69.869  1.00  0.00    -0.084 C  
HETATM   26  C   UNL     1      -6.714   6.938  68.925  1.00  0.00    -0.059 C  
BRANCH  26  27
HETATM   27  C   UNL     1      -7.138   6.774  67.521  1.00  0.00    -0.085 C  
HETATM   28  O   UNL     1      -6.424   6.207  66.707  1.00  0.00    -0.043 OA 
BRANCH  27  29
HETATM   29  O   UNL     1      -8.361   7.304  67.303  1.00  0.00    -0.117 OA 
HETATM   30  C   UNL     1      -8.535   8.388  66.354  1.00  0.00    -0.123 C  
HETATM   31  C   UNL     1      -7.694   9.614  66.722  1.00  0.00    -0.098 C  
HETATM   32  C   UNL     1      -8.248   7.909  64.926  1.00  0.00    -0.128 C  
HETATM   33  C   UNL     1     -10.021   8.766  66.460  1.00  0.00    -0.360 C  
ENDBRANCH  27  29
ENDBRANCH  26  27
ENDBRANCH  20  25
ENDBRANCH  13  19
ENDBRANCH   4   6
ENDBRANCH   3   4
ENDBRANCH   2   3
TORSDOF 10
ENDMDL
MODEL      149
REMARK 921   NORMALIZED FREE ENERGY PREDICTED BY IDOCK:   -2.50 KCAL/MOL
REMARK 922        TOTAL FREE ENERGY PREDICTED BY IDOCK:   -6.33 KCAL/MOL
REMARK 923 INTER-LIGAND FREE ENERGY PREDICTED BY IDOCK:   -6.47 KCAL/MOL
REMARK 924 INTRA-LIGAND FREE ENERGY PREDICTED BY IDOCK:    0.14 KCAL/MOL
REMARK 927      BINDING AFFINITY PREDICTED BY RF-SCORE:    0.00 PKD
ROOT
HETATM    1  C   UNL     1     -10.629   8.071  67.831  1.00  0.00    -0.210 C  
HETATM    2  C   UNL     1      -9.481   9.016  68.130  1.00  0.00    -0.142 C  
ENDROOT
BRANCH   2   3
HETATM    3  O   UNL     1      -9.656  10.230  67.378  1.00  0.00    -0.154 OA 
BRANCH   3   4
HETATM    4  C   UNL     1      -8.521  10.733  66.833  1.00  0.00    -0.131 C  
HETATM    5  O   UNL     1      -7.764  10.117  66.096  1.00  0.00    -0.104 OA 
BRANCH   4   6
HETATM    6  C   UNL     1      -8.290  12.138  67.248  1.00  0.00    -0.179 C  
HETATM    7  C   UNL     1      -7.617  12.376  68.400  1.00  0.00    -0.129 C  
HETATM    8  C   UNL     1      -6.883  11.359  69.244  1.00  0.00    -0.119 C  
HETATM    9  N   UNL     1      -7.565  13.662  68.909  1.00  0.00    -0.067 NA 
HETATM   10  C   UNL     1      -8.351  14.711  68.463  1.00  0.00    -0.162 C  
HETATM   11  C   UNL     1      -8.417  15.899  69.393  1.00  0.00    -0.191 C  
HETATM   12  C   UNL     1      -8.997  14.616  67.271  1.00  0.00    -0.216 C  
HETATM   13  C   UNL     1      -8.879  13.317  66.444  1.00  0.00     0.101 C  
BRANCH  12  14
HETATM   14  C   UNL     1      -9.815  15.774  66.801  1.00  0.00    -0.245 C  
HETATM   15  O   UNL     1     -10.955  15.676  66.370  1.00  0.00    -0.291 OA 
BRANCH  14  16
HETATM   16  O   UNL     1      -9.155  16.951  66.926  1.00  0.00    -0.215 OA 
BRANCH  16  17
HETATM   17  C   UNL     1      -8.272  17.273  65.834  1.00  0.00     0.008 C  
HETATM   18  C   UNL     1      -6.929  17.803  66.317  1.00  0.00    -0.315 C  
ENDBRANCH  16  17
ENDBRANCH  14  16
ENDBRANCH  12  14
BRANCH  13  19
HETATM   19  C   UNL     1     -10.142  12.965  65.642  1.00  0.00    -0.282 A  
HETATM   20  C   UNL     1     -11.421  12.784  66.204  1.00  0.00    -0.399 A  
HETATM   21  C   UNL     1     -12.507  12.529  65.342  1.00  0.00    -0.311 A  
HETATM   22  C   UNL     1      -9.996  12.870  64.235  1.00  0.00    -0.135 A  
HETATM   23  C   UNL     1     -11.082  12.618  63.402  1.00  0.00    -0.354 A  
HETATM   24  C   UNL     1     -12.342  12.456  63.956  1.00  0.00    -0.579 A  
BRANCH  20  25
HETATM   25  C   UNL     1     -11.655  12.794  67.658  1.00  0.00    -0.412 C  
HETATM   26  C   UNL     1     -11.692  11.677  68.403  1.00  0.00    -0.374 C  
BRANCH  26  27
HETATM   27  C   UNL     1     -11.820  11.661  69.873  1.00  0.00    -0.358 C  
HETATM   28  O   UNL     1     -12.127  12.669  70.493  1.00  0.00    -0.363 OA 
BRANCH  27  29
HETATM   29  O   UNL     1     -11.575  10.434  70.383  1.00  0.00    -0.287 OA 
HETATM   30  C   UNL     1     -12.565   9.770  71.210  1.00  0.00    -0.365 C  
HETATM   31  C   UNL     1     -12.918  10.591  72.454  1.00  0.00     0.066 C  
HETATM   32  C   UNL     1     -13.810   9.419  70.388  1.00  0.00     0.807 C  
HETATM   33  C   UNL     1     -11.886   8.466  71.661  1.00  0.00    -0.357 C  
ENDBRANCH  27  29
ENDBRANCH  26  27
ENDBRANCH  20  25
ENDBRANCH  13  19
ENDBRANCH   4   6
ENDBRANCH   3   4
ENDBRANCH   2   3
TORSDOF 10
ENDMDL
MODEL      150
REMARK 921   NORMALIZED FREE ENERGY PREDICTED BY IDOCK:   -2.48 KCAL/MOL
REMARK 922        TOTAL FREE ENERGY PREDICTED BY IDOCK:   -6.29 KCAL/MOL
REMARK 923 INTER-LIGAND FREE ENERGY PREDICTED BY IDOCK:   -5.39 KCAL/MOL
REMARK 924 INTRA-LIGAND FREE ENERGY PREDICTED BY IDOCK:   -0.90 KCAL/MOL
REMARK 927      BINDING AFFINITY PREDICTED BY RF-SCORE:    0.00 PKD
ROOT
HETATM    1  C   UNL     1      -9.829   7.856  73.191  1.00  0.00    -0.357 C  
HETATM    2  C   UNL     1      -9.019   7.243  72.065  1.00  0.00    -0.128 C  
ENDROOT
BRANCH   2   3
HETATM    3  O   UNL     1      -8.634   8.274  71.139  1.00  0.00    -0.123 OA 
BRANCH   3   4
HETATM    4  C   UNL     1      -9.663   8.882  70.500  1.00  0.00    -0.203 C  
HETATM    5  O   UNL     1     -10.251   9.875  70.904  1.00  0.00    -0.210 OA 
BRANCH   4   6
HETATM    6  C   UNL     1     -10.011   8.188  69.236  1.00  0.00    -0.188 C  
HETATM    7  C   UNL     1     -10.971   7.231  69.260  1.00  0.00    -0.098 C  
HETATM    8  C   UNL     1     -11.894   6.906  70.412  1.00  0.00    -0.351 C  
HETATM    9  N   UNL     1     -11.169   6.433  68.147  1.00  0.00    -0.268 NA 
HETATM   10  C   UNL     1     -10.303   6.367  67.069  1.00  0.00    -0.244 C  
HETATM   11  C   UNL     1     -10.500   5.173  66.164  1.00  0.00    -0.301 C  
HETATM   12  C   UNL     1      -9.360   7.329  66.896  1.00  0.00    -0.192 C  
HETATM   13  C   UNL     1      -9.239   8.470  67.930  1.00  0.00    -0.148 C  
BRANCH  12  14
HETATM   14  C   UNL     1      -8.457   7.248  65.709  1.00  0.00    -0.143 C  
HETATM   15  O   UNL     1      -7.741   6.289  65.459  1.00  0.00    -0.086 OA 
BRANCH  14  16
HETATM   16  O   UNL     1      -8.536   8.352  64.928  1.00  0.00    -0.167 OA 
BRANCH  16  17
HETATM   17  C   UNL     1      -7.975   8.207  63.609  1.00  0.00    -0.140 C  
HETATM   18  C   UNL     1      -7.069   9.373  63.236  1.00  0.00    -0.095 C  
ENDBRANCH  16  17
ENDBRANCH  14  16
ENDBRANCH  12  14
BRANCH  13  19
HETATM   19  C   UNL     1      -7.804   8.977  68.141  1.00  0.00    -0.100 A  
HETATM   20  C   UNL     1      -7.413  10.328  68.060  1.00  0.00    -0.087 A  
HETATM   21  C   UNL     1      -6.072  10.661  68.343  1.00  0.00    -0.046 A  
HETATM   22  C   UNL     1      -6.831   8.006  68.491  1.00  0.00    -0.067 A  
HETATM   23  C   UNL     1      -5.514   8.357  68.766  1.00  0.00    -0.036 A  
HETATM   24  C   UNL     1      -5.136   9.688  68.702  1.00  0.00    -0.033 A  
BRANCH  20  25
HETATM   25  C   UNL     1      -8.336  11.395  67.636  1.00  0.00    -0.129 C  
HETATM   26  C   UNL     1      -8.871  12.284  68.489  1.00  0.00    -0.068 C  
BRANCH  26  27
HETATM   27  C   UNL     1      -9.714  13.425  68.081  1.00  0.00    -0.226 C  
HETATM   28  O   UNL     1      -9.925  13.666  66.901  1.00  0.00    -0.249 OA 
BRANCH  27  29
HETATM   29  O   UNL     1     -10.190  14.101  69.149  1.00  0.00    -0.173 OA 
HETATM   30  C   UNL     1     -11.611  14.369  69.276  1.00  0.00    -0.304 C  
HETATM   31  C   UNL     1     -12.150  15.178  68.093  1.00  0.00    -0.009 C  
HETATM   32  C   UNL     1     -12.392  13.065  69.478  1.00  0.00    -0.067 C  
HETATM   33  C   UNL     1     -11.735  15.222  70.549  1.00  0.00    -0.355 C  
ENDBRANCH  27  29
ENDBRANCH  26  27
ENDBRANCH  20  25
ENDBRANCH  13  19
ENDBRANCH   4   6
ENDBRANCH   3   4
ENDBRANCH   2   3
TORSDOF 10
ENDMDL
MODEL      151
REMARK 921   NORMALIZED FREE ENERGY PREDICTED BY IDOCK:   -2.43 KCAL/MOL
REMARK 922        TOTAL FREE ENERGY PREDICTED BY IDOCK:   -6.21 KCAL/MOL
REMARK 923 INTER-LIGAND FREE ENERGY PREDICTED BY IDOCK:   -4.46 KCAL/MOL
REMARK 924 INTRA-LIGAND FREE ENERGY PREDICTED BY IDOCK:   -1.76 KCAL/MOL
REMARK 927      BINDING AFFINITY PREDICTED BY RF-SCORE:    0.00 PKD
ROOT
HETATM    1  C   UNL     1      -6.795   2.184  70.396  1.00  0.00    -0.033 C  
HETATM    2  C   UNL     1      -6.877   2.439  71.889  1.00  0.00    -0.022 C  
ENDROOT
BRANCH   2   3
HETATM    3  O   UNL     1      -6.959   3.856  72.125  1.00  0.00    -0.044 OA 
BRANCH   3   4
HETATM    4  C   UNL     1      -7.806   4.221  73.118  1.00  0.00    -0.086 C  
HETATM    5  O   UNL     1      -7.632   3.991  74.307  1.00  0.00    -0.072 OA 
BRANCH   4   6
HETATM    6  C   UNL     1      -8.994   4.936  72.592  1.00  0.00    -0.135 C  
HETATM    7  C   UNL     1      -9.994   4.213  72.032  1.00  0.00    -0.180 C  
HETATM    8  C   UNL     1     -10.141   2.708  72.049  1.00  0.00    -0.190 C  
HETATM    9  N   UNL     1     -11.012   4.863  71.356  1.00  0.00     0.138 NA 
HETATM   10  C   UNL     1     -10.980   6.199  70.993  1.00  0.00    -0.293 C  
HETATM   11  C   UNL     1     -11.992   6.600  69.945  1.00  0.00    -0.105 C  
HETATM   12  C   UNL     1     -10.076   7.036  71.565  1.00  0.00    -0.197 C  
HETATM   13  C   UNL     1      -9.064   6.478  72.590  1.00  0.00    -0.134 C  
BRANCH  12  14
HETATM   14  C   UNL     1     -10.082   8.478  71.175  1.00  0.00    -0.205 C  
HETATM   15  O   UNL     1      -9.535   8.918  70.174  1.00  0.00    -0.164 OA 
BRANCH  14  16
HETATM   16  O   UNL     1     -10.781   9.242  72.049  1.00  0.00    -0.295 OA 
BRANCH  16  17
HETATM   17  C   UNL     1     -12.178   9.403  71.736  1.00  0.00    -0.390 C  
HETATM   18  C   UNL     1     -12.449  10.679  70.949  1.00  0.00    -0.495 C  
ENDBRANCH  16  17
ENDBRANCH  14  16
ENDBRANCH  12  14
BRANCH  13  19
HETATM   19  C   UNL     1      -7.694   7.172  72.562  1.00  0.00    -0.092 A  
HETATM   20  C   UNL     1      -6.855   7.243  71.432  1.00  0.00    -0.051 A  
HETATM   21  C   UNL     1      -5.651   7.970  71.529  1.00  0.00    -0.034 A  
HETATM   22  C   UNL     1      -7.286   7.822  73.755  1.00  0.00    -0.145 A  
HETATM   23  C   UNL     1      -6.093   8.535  73.828  1.00  0.00    -0.132 A  
HETATM   24  C   UNL     1      -5.279   8.616  72.710  1.00  0.00    -0.049 A  
BRANCH  20  25
HETATM   25  C   UNL     1      -7.162   6.540  70.175  1.00  0.00    -0.080 C  
HETATM   26  C   UNL     1      -6.908   7.060  68.963  1.00  0.00    -0.065 C  
BRANCH  26  27
HETATM   27  C   UNL     1      -7.107   6.340  67.690  1.00  0.00    -0.081 C  
HETATM   28  O   UNL     1      -6.327   6.473  66.759  1.00  0.00    -0.038 OA 
BRANCH  27  29
HETATM   29  O   UNL     1      -8.207   5.555  67.726  1.00  0.00    -0.101 OA 
HETATM   30  C   UNL     1      -9.283   5.752  66.773  1.00  0.00    -0.131 C  
HETATM   31  C   UNL     1      -9.870   7.165  66.854  1.00  0.00    -0.271 C  
HETATM   32  C   UNL     1      -8.818   5.410  65.352  1.00  0.00    -0.144 C  
HETATM   33  C   UNL     1     -10.367   4.747  67.194  1.00  0.00    -0.140 C  
ENDBRANCH  27  29
ENDBRANCH  26  27
ENDBRANCH  20  25
ENDBRANCH  13  19
ENDBRANCH   4   6
ENDBRANCH   3   4
ENDBRANCH   2   3
TORSDOF 10
ENDMDL
MODEL      152
REMARK 921   NORMALIZED FREE ENERGY PREDICTED BY IDOCK:   -2.42 KCAL/MOL
REMARK 922        TOTAL FREE ENERGY PREDICTED BY IDOCK:   -6.19 KCAL/MOL
REMARK 923 INTER-LIGAND FREE ENERGY PREDICTED BY IDOCK:   -4.79 KCAL/MOL
REMARK 924 INTRA-LIGAND FREE ENERGY PREDICTED BY IDOCK:   -1.40 KCAL/MOL
REMARK 927      BINDING AFFINITY PREDICTED BY RF-SCORE:    0.00 PKD
ROOT
HETATM    1  C   UNL     1     -10.016  20.081  69.286  1.00  0.00    -0.201 C  
HETATM    2  C   UNL     1     -10.409  18.746  68.685  1.00  0.00    -0.207 C  
ENDROOT
BRANCH   2   3
HETATM    3  O   UNL     1      -9.504  18.420  67.615  1.00  0.00    -0.268 OA 
BRANCH   3   4
HETATM    4  C   UNL     1      -9.607  17.154  67.144  1.00  0.00    -0.255 C  
HETATM    5  O   UNL     1     -10.557  16.719  66.507  1.00  0.00    -0.287 OA 
BRANCH   4   6
HETATM    6  C   UNL     1      -8.423  16.336  67.502  1.00  0.00    -0.183 C  
HETATM    7  C   UNL     1      -7.277  16.506  66.800  1.00  0.00    -0.225 C  
HETATM    8  C   UNL     1      -6.988  17.595  65.791  1.00  0.00    -0.154 C  
HETATM    9  N   UNL     1      -6.228  15.621  66.978  1.00  0.00    -0.249 NA 
HETATM   10  C   UNL     1      -6.330  14.415  67.651  1.00  0.00    -0.106 C  
HETATM   11  C   UNL     1      -5.199  13.445  67.397  1.00  0.00     0.194 C  
HETATM   12  C   UNL     1      -7.395  14.177  68.460  1.00  0.00    -0.120 C  
HETATM   13  C   UNL     1      -8.506  15.243  68.588  1.00  0.00    -0.168 C  
BRANCH  12  14
HETATM   14  C   UNL     1      -7.465  12.879  69.195  1.00  0.00     0.201 C  
HETATM   15  O   UNL     1      -7.024  12.707  70.323  1.00  0.00     0.526 OA 
BRANCH  14  16
HETATM   16  O   UNL     1      -8.090  11.915  68.476  1.00  0.00    -0.148 OA 
BRANCH  16  17
HETATM   17  C   UNL     1      -8.467  10.744  69.225  1.00  0.00    -0.047 C  
HETATM   18  C   UNL     1      -9.720  10.083  68.668  1.00  0.00    -0.165 C  
ENDBRANCH  16  17
ENDBRANCH  14  16
ENDBRANCH  12  14
BRANCH  13  19
HETATM   19  C   UNL     1      -9.913  14.662  68.793  1.00  0.00    -0.235 A  
HETATM   20  C   UNL     1     -10.547  13.768  67.908  1.00  0.00    -0.257 A  
HETATM   21  C   UNL     1     -11.816  13.261  68.254  1.00  0.00    -0.389 A  
HETATM   22  C   UNL     1     -10.584  15.027  69.989  1.00  0.00    -0.178 A  
HETATM   23  C   UNL     1     -11.836  14.514  70.311  1.00  0.00    -0.373 A  
HETATM   24  C   UNL     1     -12.450  13.622  69.446  1.00  0.00    -0.036 A  
BRANCH  20  25
HETATM   25  C   UNL     1      -9.959  13.389  66.612  1.00  0.00    -0.277 C  
HETATM   26  C   UNL     1     -10.469  12.424  65.829  1.00  0.00    -0.288 C  
BRANCH  26  27
HETATM   27  C   UNL     1      -9.966  12.094  64.481  1.00  0.00    -0.205 C  
HETATM   28  O   UNL     1      -9.775  12.965  63.646  1.00  0.00    -0.078 OA 
BRANCH  27  29
HETATM   29  O   UNL     1      -9.755  10.767  64.339  1.00  0.00    -0.246 OA 
HETATM   30  C   UNL     1      -8.453  10.269  63.938  1.00  0.00    -0.179 C  
HETATM   31  C   UNL     1      -8.016  10.831  62.581  1.00  0.00    -0.130 C  
HETATM   32  C   UNL     1      -7.409  10.539  65.028  1.00  0.00    -0.003 C  
HETATM   33  C   UNL     1      -8.641   8.749  63.799  1.00  0.00    -0.061 C  
ENDBRANCH  27  29
ENDBRANCH  26  27
ENDBRANCH  20  25
ENDBRANCH  13  19
ENDBRANCH   4   6
ENDBRANCH   3   4
ENDBRANCH   2   3
TORSDOF 10
ENDMDL
MODEL      153
REMARK 921   NORMALIZED FREE ENERGY PREDICTED BY IDOCK:   -2.40 KCAL/MOL
REMARK 922        TOTAL FREE ENERGY PREDICTED BY IDOCK:   -6.17 KCAL/MOL
REMARK 923 INTER-LIGAND FREE ENERGY PREDICTED BY IDOCK:   -6.69 KCAL/MOL
REMARK 924 INTRA-LIGAND FREE ENERGY PREDICTED BY IDOCK:    0.52 KCAL/MOL
REMARK 927      BINDING AFFINITY PREDICTED BY RF-SCORE:    0.00 PKD
ROOT
HETATM    1  C   UNL     1      -5.418  10.399  65.591  1.00  0.00    -0.093 C  
HETATM    2  C   UNL     1      -6.649  10.045  64.780  1.00  0.00    -0.127 C  
ENDROOT
BRANCH   2   3
HETATM    3  O   UNL     1      -7.439   9.088  65.507  1.00  0.00    -0.085 OA 
BRANCH   3   4
HETATM    4  C   UNL     1      -8.555   8.663  64.866  1.00  0.00    -0.135 C  
HETATM    5  O   UNL     1      -8.728   7.532  64.434  1.00  0.00     0.231 OA 
BRANCH   4   6
HETATM    6  C   UNL     1      -9.559   9.747  64.736  1.00  0.00    -0.284 C  
HETATM    7  C   UNL     1      -9.563  10.502  63.610  1.00  0.00    -0.320 C  
HETATM    8  C   UNL     1      -8.770  10.245  62.349  1.00  0.00    -0.251 C  
HETATM    9  N   UNL     1     -10.348  11.639  63.552  1.00  0.00    -0.401 NA 
HETATM   10  C   UNL     1     -10.968  12.217  64.647  1.00  0.00    -0.306 C  
HETATM   11  C   UNL     1     -11.441  13.637  64.436  1.00  0.00    -0.410 C  
HETATM   12  C   UNL     1     -11.104  11.513  65.800  1.00  0.00    -0.272 C  
HETATM   13  C   UNL     1     -10.527  10.083  65.891  1.00  0.00    -0.115 C  
BRANCH  12  14
HETATM   14  C   UNL     1     -11.802  12.152  66.956  1.00  0.00    -0.216 C  
HETATM   15  O   UNL     1     -12.289  11.531  67.890  1.00  0.00    -0.390 OA 
BRANCH  14  16
HETATM   16  O   UNL     1     -11.816  13.504  66.862  1.00  0.00    -0.366 OA 
BRANCH  16  17
HETATM   17  C   UNL     1     -12.114  14.197  68.090  1.00  0.00    -0.262 C  
HETATM   18  C   UNL     1     -11.349  15.508  68.212  1.00  0.00    -0.360 C  
ENDBRANCH  16  17
ENDBRANCH  14  16
ENDBRANCH  12  14
BRANCH  13  19
HETATM   19  C   UNL     1     -10.003   9.704  67.284  1.00  0.00    -0.250 A  
HETATM   20  C   UNL     1      -9.152  10.510  68.066  1.00  0.00    -0.138 A  
HETATM   21  C   UNL     1      -8.801  10.067  69.357  1.00  0.00    -0.200 A  
HETATM   22  C   UNL     1     -10.460   8.474  67.823  1.00  0.00    -0.287 A  
HETATM   23  C   UNL     1     -10.101   8.056  69.100  1.00  0.00    -0.202 A  
HETATM   24  C   UNL     1      -9.277   8.859  69.873  1.00  0.00    -0.171 A  
BRANCH  20  25
HETATM   25  C   UNL     1      -8.572  11.767  67.563  1.00  0.00    -0.157 C  
HETATM   26  C   UNL     1      -8.487  12.884  68.304  1.00  0.00    -0.161 C  
BRANCH  26  27
HETATM   27  C   UNL     1      -7.819  14.125  67.866  1.00  0.00    -0.155 C  
HETATM   28  O   UNL     1      -8.089  14.643  66.793  1.00  0.00    -0.101 OA 
BRANCH  27  29
HETATM   29  O   UNL     1      -6.934  14.568  68.786  1.00  0.00    -0.093 OA 
HETATM   30  C   UNL     1      -6.374  15.903  68.684  1.00  0.00    -0.112 C  
HETATM   31  C   UNL     1      -5.626  16.113  67.364  1.00  0.00    -0.136 C  
HETATM   32  C   UNL     1      -7.460  16.964  68.898  1.00  0.00    -0.238 C  
HETATM   33  C   UNL     1      -5.363  15.991  69.839  1.00  0.00    -0.133 C  
ENDBRANCH  27  29
ENDBRANCH  26  27
ENDBRANCH  20  25
ENDBRANCH  13  19
ENDBRANCH   4   6
ENDBRANCH   3   4
ENDBRANCH   2   3
TORSDOF 10
ENDMDL
MODEL      154
REMARK 921   NORMALIZED FREE ENERGY PREDICTED BY IDOCK:   -2.35 KCAL/MOL
REMARK 922        TOTAL FREE ENERGY PREDICTED BY IDOCK:   -6.08 KCAL/MOL
REMARK 923 INTER-LIGAND FREE ENERGY PREDICTED BY IDOCK:   -6.97 KCAL/MOL
REMARK 924 INTRA-LIGAND FREE ENERGY PREDICTED BY IDOCK:    0.89 KCAL/MOL
REMARK 927      BINDING AFFINITY PREDICTED BY RF-SCORE:    0.00 PKD
ROOT
HETATM    1  C   UNL     1     -10.555  18.297  66.995  1.00  0.00    -0.375 C  
HETATM    2  C   UNL     1      -9.415  17.424  66.509  1.00  0.00    -0.273 C  
ENDROOT
BRANCH   2   3
HETATM    3  O   UNL     1      -9.738  16.042  66.746  1.00  0.00    -0.226 OA 
BRANCH   3   4
HETATM    4  C   UNL     1     -10.110  15.345  65.645  1.00  0.00    -0.376 C  
HETATM    5  O   UNL     1     -10.493  15.844  64.596  1.00  0.00    -0.474 OA 
BRANCH   4   6
HETATM    6  C   UNL     1     -10.009  13.882  65.862  1.00  0.00    -0.317 C  
HETATM    7  C   UNL     1     -11.061  13.098  65.522  1.00  0.00    -0.278 C  
HETATM    8  C   UNL     1     -12.289  13.520  64.748  1.00  0.00    -0.435 C  
HETATM    9  N   UNL     1     -11.072  11.767  65.899  1.00  0.00    -0.315 NA 
HETATM   10  C   UNL     1     -10.194  11.206  66.811  1.00  0.00    -0.232 C  
HETATM   11  C   UNL     1     -10.618   9.864  67.362  1.00  0.00    -0.338 C  
HETATM   12  C   UNL     1      -9.057  11.866  67.153  1.00  0.00    -0.178 C  
HETATM   13  C   UNL     1      -8.774  13.258  66.547  1.00  0.00     0.082 C  
BRANCH  12  14
HETATM   14  C   UNL     1      -8.115  11.225  68.118  1.00  0.00    -0.134 C  
HETATM   15  O   UNL     1      -8.074  11.489  69.312  1.00  0.00     0.058 OA 
BRANCH  14  16
HETATM   16  O   UNL     1      -7.321  10.301  67.524  1.00  0.00    -0.088 OA 
BRANCH  16  17
HETATM   17  C   UNL     1      -6.965   9.179  68.354  1.00  0.00    -0.068 C  
HETATM   18  C   UNL     1      -7.584   7.878  67.861  1.00  0.00    -0.109 C  
ENDBRANCH  16  17
ENDBRANCH  14  16
ENDBRANCH  12  14
BRANCH  13  19
HETATM   19  C   UNL     1      -8.025  14.213  67.489  1.00  0.00    -0.202 A  
HETATM   20  C   UNL     1      -8.571  14.773  68.661  1.00  0.00    -0.169 A  
HETATM   21  C   UNL     1      -7.747  15.583  69.469  1.00  0.00    -0.197 A  
HETATM   22  C   UNL     1      -6.674  14.500  67.162  1.00  0.00     0.430 A  
HETATM   23  C   UNL     1      -5.880  15.302  67.974  1.00  0.00    -0.152 A  
HETATM   24  C   UNL     1      -6.415  15.837  69.135  1.00  0.00    -0.143 A  
BRANCH  20  25
HETATM   25  C   UNL     1      -9.982  14.589  69.042  1.00  0.00    -0.162 C  
HETATM   26  C   UNL     1     -10.565  15.267  70.043  1.00  0.00    -0.288 C  
BRANCH  26  27
HETATM   27  C   UNL     1     -11.999  15.182  70.381  1.00  0.00    -0.320 C  
HETATM   28  O   UNL     1     -12.741  16.143  70.240  1.00  0.00    -0.168 OA 
BRANCH  27  29
HETATM   29  O   UNL     1     -12.335  13.951  70.827  1.00  0.00    -0.338 OA 
HETATM   30  C   UNL     1     -12.982  13.788  72.116  1.00  0.00    -0.343 C  
HETATM   31  C   UNL     1     -12.129  14.343  73.260  1.00  0.00     0.019 C  
HETATM   32  C   UNL     1     -14.386  14.404  72.100  1.00  0.00    -0.604 C  
HETATM   33  C   UNL     1     -13.112  12.267  72.297  1.00  0.00    -0.263 C  
ENDBRANCH  27  29
ENDBRANCH  26  27
ENDBRANCH  20  25
ENDBRANCH  13  19
ENDBRANCH   4   6
ENDBRANCH   3   4
ENDBRANCH   2   3
TORSDOF 10
ENDMDL
MODEL      155
REMARK 921   NORMALIZED FREE ENERGY PREDICTED BY IDOCK:   -2.32 KCAL/MOL
REMARK 922        TOTAL FREE ENERGY PREDICTED BY IDOCK:   -6.04 KCAL/MOL
REMARK 923 INTER-LIGAND FREE ENERGY PREDICTED BY IDOCK:   -5.20 KCAL/MOL
REMARK 924 INTRA-LIGAND FREE ENERGY PREDICTED BY IDOCK:   -0.84 KCAL/MOL
REMARK 927      BINDING AFFINITY PREDICTED BY RF-SCORE:    0.00 PKD
ROOT
HETATM    1  C   UNL     1      -6.758  17.950  65.682  1.00  0.00    -0.181 C  
HETATM    2  C   UNL     1      -5.942  17.877  66.958  1.00  0.00    -0.141 C  
ENDROOT
BRANCH   2   3
HETATM    3  O   UNL     1      -6.139  16.593  67.576  1.00  0.00    -0.127 OA 
BRANCH   3   4
HETATM    4  C   UNL     1      -7.168  16.534  68.457  1.00  0.00    -0.175 C  
HETATM    5  O   UNL     1      -7.164  17.034  69.573  1.00  0.00    -0.147 OA 
BRANCH   4   6
HETATM    6  C   UNL     1      -8.316  15.773  67.909  1.00  0.00    -0.154 C  
HETATM    7  C   UNL     1      -9.503  16.408  67.748  1.00  0.00    -0.222 C  
HETATM    8  C   UNL     1      -9.759  17.892  67.881  1.00  0.00    -0.288 C  
HETATM    9  N   UNL     1     -10.634  15.674  67.433  1.00  0.00    -0.296 NA 
HETATM   10  C   UNL     1     -10.712  14.294  67.497  1.00  0.00    -0.270 C  
HETATM   11  C   UNL     1     -12.115  13.733  67.493  1.00  0.00    -0.366 C  
HETATM   12  C   UNL     1      -9.576  13.552  67.565  1.00  0.00    -0.221 C  
HETATM   13  C   UNL     1      -8.205  14.262  67.611  1.00  0.00    -0.193 C  
BRANCH  12  14
HETATM   14  C   UNL     1      -9.689  12.063  67.605  1.00  0.00    -0.187 C  
HETATM   15  O   UNL     1      -9.691  11.350  66.611  1.00  0.00    -0.194 OA 
BRANCH  14  16
HETATM   16  O   UNL     1      -9.772  11.589  68.872  1.00  0.00    -0.161 OA 
BRANCH  16  17
HETATM   17  C   UNL     1     -10.844  10.655  69.104  1.00  0.00    -0.237 C  
HETATM   18  C   UNL     1     -10.845  10.122  70.531  1.00  0.00    -0.340 C  
ENDBRANCH  16  17
ENDBRANCH  14  16
ENDBRANCH  12  14
BRANCH  13  19
HETATM   19  C   UNL     1      -7.145  13.530  68.449  1.00  0.00    -0.107 A  
HETATM   20  C   UNL     1      -6.301  12.514  67.961  1.00  0.00    -0.087 A  
HETATM   21  C   UNL     1      -5.326  11.973  68.823  1.00  0.00    -0.050 A  
HETATM   22  C   UNL     1      -6.990  13.958  69.793  1.00  0.00     0.139 A  
HETATM   23  C   UNL     1      -6.021  13.410  70.627  1.00  0.00    -0.105 A  
HETATM   24  C   UNL     1      -5.181  12.423  70.138  1.00  0.00    -0.101 A  
BRANCH  20  25
HETATM   25  C   UNL     1      -6.436  11.958  66.603  1.00  0.00     0.065 C  
HETATM   26  C   UNL     1      -5.844  10.816  66.216  1.00  0.00    -0.122 C  
BRANCH  26  27
HETATM   27  C   UNL     1      -6.044  10.181  64.899  1.00  0.00    -0.125 C  
HETATM   28  O   UNL     1      -5.174   9.488  64.392  1.00  0.00    -0.055 OA 
BRANCH  27  29
HETATM   29  O   UNL     1      -7.264  10.460  64.390  1.00  0.00    -0.104 OA 
HETATM   30  C   UNL     1      -7.991   9.458  63.631  1.00  0.00    -0.142 C  
HETATM   31  C   UNL     1      -7.207   8.990  62.401  1.00  0.00    -0.097 C  
HETATM   32  C   UNL     1      -8.394   8.284  64.531  1.00  0.00    -0.097 C  
HETATM   33  C   UNL     1      -9.264  10.176  63.155  1.00  0.00    -0.316 C  
ENDBRANCH  27  29
ENDBRANCH  26  27
ENDBRANCH  20  25
ENDBRANCH  13  19
ENDBRANCH   4   6
ENDBRANCH   3   4
ENDBRANCH   2   3
TORSDOF 10
ENDMDL
MODEL      156
REMARK 921   NORMALIZED FREE ENERGY PREDICTED BY IDOCK:   -2.12 KCAL/MOL
REMARK 922        TOTAL FREE ENERGY PREDICTED BY IDOCK:   -5.72 KCAL/MOL
REMARK 923 INTER-LIGAND FREE ENERGY PREDICTED BY IDOCK:   -5.85 KCAL/MOL
REMARK 924 INTRA-LIGAND FREE ENERGY PREDICTED BY IDOCK:    0.13 KCAL/MOL
REMARK 927      BINDING AFFINITY PREDICTED BY RF-SCORE:    0.00 PKD
ROOT
HETATM    1  C   UNL     1      -8.986  13.947  66.573  1.00  0.00    -0.097 C  
HETATM    2  C   UNL     1     -10.084  13.105  65.952  1.00  0.00    -0.290 C  
ENDROOT
BRANCH   2   3
HETATM    3  O   UNL     1     -10.044  11.781  66.514  1.00  0.00    -0.198 OA 
BRANCH   3   4
HETATM    4  C   UNL     1     -11.152  11.421  67.206  1.00  0.00    -0.303 C  
HETATM    5  O   UNL     1     -12.229  12.000  67.157  1.00  0.00    -0.505 OA 
BRANCH   4   6
HETATM    6  C   UNL     1     -10.906  10.230  68.054  1.00  0.00    -0.325 C  
HETATM    7  C   UNL     1     -11.349  10.238  69.335  1.00  0.00    -0.221 C  
HETATM    8  C   UNL     1     -12.260  11.265  69.969  1.00  0.00    -0.389 C  
HETATM    9  N   UNL     1     -10.958   9.232  70.200  1.00  0.00    -0.241 NA 
HETATM   10  C   UNL     1      -9.947   8.324  69.937  1.00  0.00    -0.190 C  
HETATM   11  C   UNL     1      -9.428   7.578  71.144  1.00  0.00    -0.163 C  
HETATM   12  C   UNL     1      -9.491   8.166  68.667  1.00  0.00    -0.147 C  
HETATM   13  C   UNL     1     -10.080   9.034  67.533  1.00  0.00    -0.285 C  
BRANCH  12  14
HETATM   14  C   UNL     1      -8.418   7.159  68.407  1.00  0.00    -0.124 C  
HETATM   15  O   UNL     1      -7.229   7.360  68.606  1.00  0.00    -0.084 OA 
BRANCH  14  16
HETATM   16  O   UNL     1      -8.917   5.988  67.941  1.00  0.00    -0.120 OA 
BRANCH  16  17
HETATM   17  C   UNL     1      -8.212   5.430  66.816  1.00  0.00    -0.108 C  
HETATM   18  C   UNL     1      -8.310   3.911  66.769  1.00  0.00    -0.100 C  
ENDBRANCH  16  17
ENDBRANCH  14  16
ENDBRANCH  12  14
BRANCH  13  19
HETATM   19  C   UNL     1      -9.074   9.395  66.429  1.00  0.00    -0.199 A  
HETATM   20  C   UNL     1      -7.840  10.038  66.650  1.00  0.00    -0.111 A  
HETATM   21  C   UNL     1      -6.983  10.249  65.551  1.00  0.00    -0.138 A  
HETATM   22  C   UNL     1      -9.410   8.999  65.109  1.00  0.00    -0.099 A  
HETATM   23  C   UNL     1      -8.548   9.218  64.039  1.00  0.00    -0.204 A  
HETATM   24  C   UNL     1      -7.328   9.836  64.262  1.00  0.00    -0.129 A  
BRANCH  20  25
HETATM   25  C   UNL     1      -7.439  10.547  67.973  1.00  0.00    -0.090 C  
HETATM   26  C   UNL     1      -6.385  11.357  68.158  1.00  0.00    -0.049 C  
BRANCH  26  27
HETATM   27  C   UNL     1      -6.021  11.966  69.453  1.00  0.00    -0.084 C  
HETATM   28  O   UNL     1      -6.227  11.382  70.507  1.00  0.00    -0.295 OA 
BRANCH  27  29
HETATM   29  O   UNL     1      -5.451  13.180  69.291  1.00  0.00    -0.073 OA 
HETATM   30  C   UNL     1      -5.970  14.336  69.999  1.00  0.00    -0.141 C  
HETATM   31  C   UNL     1      -7.441  14.602  69.663  1.00  0.00    -0.029 C  
HETATM   32  C   UNL     1      -5.749  14.191  71.510  1.00  0.00    -0.215 C  
HETATM   33  C   UNL     1      -5.130  15.517  69.487  1.00  0.00    -0.098 C  
ENDBRANCH  27  29
ENDBRANCH  26  27
ENDBRANCH  20  25
ENDBRANCH  13  19
ENDBRANCH   4   6
ENDBRANCH   3   4
ENDBRANCH   2   3
TORSDOF 10
ENDMDL
MODEL      157
REMARK 921   NORMALIZED FREE ENERGY PREDICTED BY IDOCK:   -2.11 KCAL/MOL
REMARK 922        TOTAL FREE ENERGY PREDICTED BY IDOCK:   -5.72 KCAL/MOL
REMARK 923 INTER-LIGAND FREE ENERGY PREDICTED BY IDOCK:   -4.32 KCAL/MOL
REMARK 924 INTRA-LIGAND FREE ENERGY PREDICTED BY IDOCK:   -1.40 KCAL/MOL
REMARK 927      BINDING AFFINITY PREDICTED BY RF-SCORE:    0.00 PKD
ROOT
HETATM    1  C   UNL     1     -11.494  13.311  68.462  1.00  0.00    -0.347 C  
HETATM    2  C   UNL     1     -11.283  12.186  67.468  1.00  0.00    -0.297 C  
ENDROOT
BRANCH   2   3
HETATM    3  O   UNL     1     -10.019  11.550  67.730  1.00  0.00    -0.177 OA 
BRANCH   3   4
HETATM    4  C   UNL     1      -9.032  11.858  66.854  1.00  0.00    -0.196 C  
HETATM    5  O   UNL     1      -8.578  12.980  66.675  1.00  0.00    -0.108 OA 
BRANCH   4   6
HETATM    6  C   UNL     1      -8.561  10.662  66.115  1.00  0.00    -0.163 C  
HETATM    7  C   UNL     1      -9.293  10.212  65.068  1.00  0.00    -0.243 C  
HETATM    8  C   UNL     1     -10.466  10.912  64.419  1.00  0.00    -0.403 C  
HETATM    9  N   UNL     1      -8.988   8.990  64.494  1.00  0.00    -0.099 NA 
HETATM   10  C   UNL     1      -8.130   8.058  65.052  1.00  0.00    -0.145 C  
HETATM   11  C   UNL     1      -8.238   6.666  64.476  1.00  0.00    -0.014 C  
HETATM   12  C   UNL     1      -7.282   8.427  66.048  1.00  0.00    -0.073 C  
HETATM   13  C   UNL     1      -7.313   9.878  66.575  1.00  0.00    -0.099 C  
BRANCH  12  14
HETATM   14  C   UNL     1      -6.348   7.407  66.612  1.00  0.00    -0.045 C  
HETATM   15  O   UNL     1      -5.143   7.395  66.406  1.00  0.00    -0.022 OA 
BRANCH  14  16
HETATM   16  O   UNL     1      -6.987   6.505  67.397  1.00  0.00    -0.073 OA 
BRANCH  16  17
HETATM   17  C   UNL     1      -6.136   5.511  67.999  1.00  0.00    -0.022 C  
HETATM   18  C   UNL     1      -5.975   5.723  69.499  1.00  0.00    -0.024 C  
ENDBRANCH  16  17
ENDBRANCH  14  16
ENDBRANCH  12  14
BRANCH  13  19
HETATM   19  C   UNL     1      -7.002  10.009  68.074  1.00  0.00    -0.080 A  
HETATM   20  C   UNL     1      -7.723   9.367  69.100  1.00  0.00    -0.079 A  
HETATM   21  C   UNL     1      -7.287   9.523  70.431  1.00  0.00    -0.146 A  
HETATM   22  C   UNL     1      -5.876  10.798  68.424  1.00  0.00    -0.043 A  
HETATM   23  C   UNL     1      -5.463  10.938  69.745  1.00  0.00    -0.043 A  
HETATM   24  C   UNL     1      -6.164  10.292  70.750  1.00  0.00    -0.049 A  
BRANCH  20  25
HETATM   25  C   UNL     1      -8.946   8.588  68.839  1.00  0.00    -0.146 C  
HETATM   26  C   UNL     1      -9.727   8.100  69.816  1.00  0.00    -0.173 C  
BRANCH  26  27
HETATM   27  C   UNL     1     -11.010   7.407  69.587  1.00  0.00    -0.172 C  
HETATM   28  O   UNL     1     -11.043   6.256  69.177  1.00  0.00    -0.337 OA 
BRANCH  27  29
HETATM   29  O   UNL     1     -12.065   8.192  69.898  1.00  0.00     0.534 OA 
HETATM   30  C   UNL     1     -12.493   8.338  71.277  1.00  0.00    -0.245 C  
HETATM   31  C   UNL     1     -12.874   6.993  71.904  1.00  0.00    -0.296 C  
HETATM   32  C   UNL     1     -11.426   9.069  72.101  1.00  0.00    -0.328 C  
HETATM   33  C   UNL     1     -13.751   9.217  71.204  1.00  0.00    -0.165 C  
ENDBRANCH  27  29
ENDBRANCH  26  27
ENDBRANCH  20  25
ENDBRANCH  13  19
ENDBRANCH   4   6
ENDBRANCH   3   4
ENDBRANCH   2   3
TORSDOF 10
ENDMDL
MODEL      158
REMARK 921   NORMALIZED FREE ENERGY PREDICTED BY IDOCK:   -2.11 KCAL/MOL
REMARK 922        TOTAL FREE ENERGY PREDICTED BY IDOCK:   -5.71 KCAL/MOL
REMARK 923 INTER-LIGAND FREE ENERGY PREDICTED BY IDOCK:   -6.46 KCAL/MOL
REMARK 924 INTRA-LIGAND FREE ENERGY PREDICTED BY IDOCK:    0.76 KCAL/MOL
REMARK 927      BINDING AFFINITY PREDICTED BY RF-SCORE:    0.00 PKD
ROOT
HETATM    1  C   UNL     1     -11.002   6.690  66.938  1.00  0.00    -0.396 C  
HETATM    2  C   UNL     1      -9.960   7.786  66.819  1.00  0.00    -0.261 C  
ENDROOT
BRANCH   2   3
HETATM    3  O   UNL     1     -10.619   9.062  66.733  1.00  0.00    -0.228 OA 
BRANCH   3   4
HETATM    4  C   UNL     1     -10.333   9.778  65.619  1.00  0.00     0.034 C  
HETATM    5  O   UNL     1      -9.883   9.312  64.582  1.00  0.00     0.250 OA 
BRANCH   4   6
HETATM    6  C   UNL     1     -10.623  11.221  65.804  1.00  0.00    -0.306 C  
HETATM    7  C   UNL     1     -10.658  12.025  64.714  1.00  0.00    -0.297 C  
HETATM    8  C   UNL     1     -10.627  11.587  63.267  1.00  0.00    -0.405 C  
HETATM    9  N   UNL     1     -10.725  13.397  64.878  1.00  0.00    -0.347 NA 
HETATM   10  C   UNL     1     -10.521  14.051  66.081  1.00  0.00    -0.297 C  
HETATM   11  C   UNL     1     -10.256  15.534  65.965  1.00  0.00    -0.349 C  
HETATM   12  C   UNL     1     -10.559  13.354  67.247  1.00  0.00    -0.256 C  
HETATM   13  C   UNL     1     -10.792  11.828  67.214  1.00  0.00    -0.300 C  
BRANCH  12  14
HETATM   14  C   UNL     1     -10.363  14.090  68.532  1.00  0.00    -0.247 C  
HETATM   15  O   UNL     1      -9.286  14.525  68.914  1.00  0.00    -0.199 OA 
BRANCH  14  16
HETATM   16  O   UNL     1     -11.522  14.237  69.220  1.00  0.00    -0.256 OA 
BRANCH  16  17
HETATM   17  C   UNL     1     -11.879  15.599  69.526  1.00  0.00    -0.372 C  
HETATM   18  C   UNL     1     -12.066  15.824  71.020  1.00  0.00    -0.464 C  
ENDBRANCH  16  17
ENDBRANCH  14  16
ENDBRANCH  12  14
BRANCH  13  19
HETATM   19  C   UNL     1     -10.062  11.056  68.324  1.00  0.00    -0.191 A  
HETATM   20  C   UNL     1      -8.691  10.734  68.307  1.00  0.00    -0.136 A  
HETATM   21  C   UNL     1      -8.137  10.079  69.425  1.00  0.00    -0.150 A  
HETATM   22  C   UNL     1     -10.832  10.696  69.460  1.00  0.00    -0.303 A  
HETATM   23  C   UNL     1     -10.265  10.050  70.553  1.00  0.00    -0.160 A  
HETATM   24  C   UNL     1      -8.912   9.749  70.540  1.00  0.00    -0.052 A  
BRANCH  20  25
HETATM   25  C   UNL     1      -7.830  11.004  67.143  1.00  0.00    -0.135 C  
HETATM   26  C   UNL     1      -6.789  10.227  66.804  1.00  0.00    -0.088 C  
BRANCH  26  27
HETATM   27  C   UNL     1      -5.973  10.412  65.587  1.00  0.00    -0.118 C  
HETATM   28  O   UNL     1      -5.142  11.305  65.512  1.00  0.00    -0.281 OA 
BRANCH  27  29
HETATM   29  O   UNL     1      -6.266   9.489  64.644  1.00  0.00    -0.075 OA 
HETATM   30  C   UNL     1      -6.445   9.885  63.260  1.00  0.00    -0.125 C  
HETATM   31  C   UNL     1      -7.572  10.909  63.096  1.00  0.00     0.258 C  
HETATM   32  C   UNL     1      -5.125  10.392  62.666  1.00  0.00    -0.118 C  
HETATM   33  C   UNL     1      -6.850   8.592  62.533  1.00  0.00    -0.094 C  
ENDBRANCH  27  29
ENDBRANCH  26  27
ENDBRANCH  20  25
ENDBRANCH  13  19
ENDBRANCH   4   6
ENDBRANCH   3   4
ENDBRANCH   2   3
TORSDOF 10
ENDMDL
MODEL      159
REMARK 921   NORMALIZED FREE ENERGY PREDICTED BY IDOCK:   -2.01 KCAL/MOL
REMARK 922        TOTAL FREE ENERGY PREDICTED BY IDOCK:   -5.55 KCAL/MOL
REMARK 923 INTER-LIGAND FREE ENERGY PREDICTED BY IDOCK:   -4.43 KCAL/MOL
REMARK 924 INTRA-LIGAND FREE ENERGY PREDICTED BY IDOCK:   -1.13 KCAL/MOL
REMARK 927      BINDING AFFINITY PREDICTED BY RF-SCORE:    0.00 PKD
ROOT
HETATM    1  C   UNL     1     -12.569  10.364  71.949  1.00  0.00    -0.387 C  
HETATM    2  C   UNL     1     -11.919   9.604  70.810  1.00  0.00    -0.277 C  
ENDROOT
BRANCH   2   3
HETATM    3  O   UNL     1     -11.268   8.432  71.330  1.00  0.00    -0.242 OA 
BRANCH   3   4
HETATM    4  C   UNL     1      -9.934   8.370  71.101  1.00  0.00    -0.194 C  
HETATM    5  O   UNL     1      -9.256   9.285  70.652  1.00  0.00    -0.233 OA 
BRANCH   4   6
HETATM    6  C   UNL     1      -9.377   7.041  71.452  1.00  0.00    -0.155 C  
HETATM    7  C   UNL     1      -8.694   6.906  72.615  1.00  0.00    -0.120 C  
HETATM    8  C   UNL     1      -8.589   7.927  73.725  1.00  0.00    -0.323 C  
HETATM    9  N   UNL     1      -7.997   5.737  72.866  1.00  0.00    -0.107 NA 
HETATM   10  C   UNL     1      -7.737   4.763  71.918  1.00  0.00    -0.098 C  
HETATM   11  C   UNL     1      -6.651   3.781  72.293  1.00  0.00    -0.018 C  
HETATM   12  C   UNL     1      -8.434   4.748  70.752  1.00  0.00    -0.110 C  
HETATM   13  C   UNL     1      -9.484   5.847  70.479  1.00  0.00    -0.196 C  
BRANCH  12  14
HETATM   14  C   UNL     1      -8.152   3.669  69.758  1.00  0.00    -0.053 C  
HETATM   15  O   UNL     1      -8.880   2.705  69.570  1.00  0.00    -0.073 OA 
BRANCH  14  16
HETATM   16  O   UNL     1      -7.003   3.890  69.074  1.00  0.00    -0.045 OA 
BRANCH  16  17
HETATM   17  C   UNL     1      -6.361   2.706  68.564  1.00  0.00    -0.029 C  
HETATM   18  C   UNL     1      -5.648   1.921  69.658  1.00  0.00    -0.017 C  
ENDBRANCH  16  17
ENDBRANCH  14  16
ENDBRANCH  12  14
BRANCH  13  19
HETATM   19  C   UNL     1      -9.607   6.247  69.001  1.00  0.00    -0.138 A  
HETATM   20  C   UNL     1      -8.612   6.925  68.270  1.00  0.00    -0.125 A  
HETATM   21  C   UNL     1      -8.831   7.171  66.899  1.00  0.00    -0.132 A  
HETATM   22  C   UNL     1     -10.794   5.852  68.332  1.00  0.00    -0.322 A  
HETATM   23  C   UNL     1     -10.989   6.105  66.978  1.00  0.00    -0.414 A  
HETATM   24  C   UNL     1     -10.001   6.757  66.258  1.00  0.00     0.032 A  
BRANCH  20  25
HETATM   25  C   UNL     1      -7.381   7.436  68.896  1.00  0.00    -0.091 C  
HETATM   26  C   UNL     1      -6.862   8.642  68.617  1.00  0.00    -0.063 C  
BRANCH  26  27
HETATM   27  C   UNL     1      -5.691   9.223  69.303  1.00  0.00    -0.035 C  
HETATM   28  O   UNL     1      -5.233   8.714  70.316  1.00  0.00    -0.022 OA 
BRANCH  27  29
HETATM   29  O   UNL     1      -5.232  10.322  68.664  1.00  0.00    -0.039 OA 
HETATM   30  C   UNL     1      -5.869  11.610  68.869  1.00  0.00    -0.048 C  
HETATM   31  C   UNL     1      -7.351  11.585  68.483  1.00  0.00    -0.104 C  
HETATM   32  C   UNL     1      -5.664  12.093  70.309  1.00  0.00    -0.163 C  
HETATM   33  C   UNL     1      -5.132  12.566  67.917  1.00  0.00    -0.086 C  
ENDBRANCH  27  29
ENDBRANCH  26  27
ENDBRANCH  20  25
ENDBRANCH  13  19
ENDBRANCH   4   6
ENDBRANCH   3   4
ENDBRANCH   2   3
TORSDOF 10
ENDMDL
MODEL      160
REMARK 921   NORMALIZED FREE ENERGY PREDICTED BY IDOCK:   -1.97 KCAL/MOL
REMARK 922        TOTAL FREE ENERGY PREDICTED BY IDOCK:   -5.49 KCAL/MOL
REMARK 923 INTER-LIGAND FREE ENERGY PREDICTED BY IDOCK:   -4.21 KCAL/MOL
REMARK 924 INTRA-LIGAND FREE ENERGY PREDICTED BY IDOCK:   -1.28 KCAL/MOL
REMARK 927      BINDING AFFINITY PREDICTED BY RF-SCORE:    0.00 PKD
ROOT
HETATM    1  C   UNL     1     -11.117   9.784  68.525  1.00  0.00    -0.138 C  
HETATM    2  C   UNL     1     -11.494  10.318  69.893  1.00  0.00    -0.273 C  
ENDROOT
BRANCH   2   3
HETATM    3  O   UNL     1     -10.955  11.642  70.052  1.00  0.00     0.018 OA 
BRANCH   3   4
HETATM    4  C   UNL     1     -11.785  12.646  69.678  1.00  0.00    -0.303 C  
HETATM    5  O   UNL     1     -12.933  12.496  69.284  1.00  0.00     0.972 OA 
BRANCH   4   6
HETATM    6  C   UNL     1     -11.130  13.972  69.793  1.00  0.00    -0.101 C  
HETATM    7  C   UNL     1     -11.632  14.873  70.672  1.00  0.00    -0.291 C  
HETATM    8  C   UNL     1     -12.691  14.620  71.721  1.00  0.00    -0.405 C  
HETATM    9  N   UNL     1     -11.169  16.177  70.653  1.00  0.00    -0.371 NA 
HETATM   10  C   UNL     1     -10.391  16.715  69.642  1.00  0.00    -0.193 C  
HETATM   11  C   UNL     1     -10.326  18.225  69.621  1.00  0.00     0.583 C  
HETATM   12  C   UNL     1      -9.763  15.895  68.760  1.00  0.00    -0.216 C  
HETATM   13  C   UNL     1      -9.958  14.367  68.870  1.00  0.00    -0.183 C  
BRANCH  12  14
HETATM   14  C   UNL     1      -8.907  16.502  67.696  1.00  0.00    -0.192 C  
HETATM   15  O   UNL     1      -7.688  16.413  67.666  1.00  0.00    -0.137 OA 
BRANCH  14  16
HETATM   16  O   UNL     1      -9.639  17.147  66.756  1.00  0.00    -0.250 OA 
BRANCH  16  17
HETATM   17  C   UNL     1      -9.488  18.580  66.745  1.00  0.00    -0.301 C  
HETATM   18  C   UNL     1      -8.189  19.018  66.082  1.00  0.00    -0.246 C  
ENDBRANCH  16  17
ENDBRANCH  14  16
ENDBRANCH  12  14
BRANCH  13  19
HETATM   19  C   UNL     1      -9.941  13.632  67.521  1.00  0.00    -0.230 A  
HETATM   20  C   UNL     1      -8.938  12.730  67.114  1.00  0.00    -0.214 A  
HETATM   21  C   UNL     1      -9.083  12.074  65.875  1.00  0.00    -0.042 A  
HETATM   22  C   UNL     1     -11.048  13.853  66.662  1.00  0.00    -0.310 A  
HETATM   23  C   UNL     1     -11.170  13.195  65.443  1.00  0.00    -0.315 A  
HETATM   24  C   UNL     1     -10.191  12.296  65.053  1.00  0.00    -0.312 A  
BRANCH  20  25
HETATM   25  C   UNL     1      -7.720  12.491  67.907  1.00  0.00    -0.138 C  
HETATM   26  C   UNL     1      -7.622  11.517  68.826  1.00  0.00    -0.129 C  
BRANCH  26  27
HETATM   27  C   UNL     1      -6.385  11.186  69.560  1.00  0.00    -0.101 C  
HETATM   28  O   UNL     1      -5.709  12.059  70.086  1.00  0.00    -0.120 OA 
BRANCH  27  29
HETATM   29  O   UNL     1      -6.147   9.856  69.566  1.00  0.00    -0.042 OA 
HETATM   30  C   UNL     1      -6.213   9.103  70.805  1.00  0.00    -0.053 C  
HETATM   31  C   UNL     1      -5.225   9.630  71.850  1.00  0.00    -0.077 C  
HETATM   32  C   UNL     1      -7.648   9.071  71.344  1.00  0.00    -0.078 C  
HETATM   33  C   UNL     1      -5.798   7.675  70.416  1.00  0.00    -0.026 C  
ENDBRANCH  27  29
ENDBRANCH  26  27
ENDBRANCH  20  25
ENDBRANCH  13  19
ENDBRANCH   4   6
ENDBRANCH   3   4
ENDBRANCH   2   3
TORSDOF 10
ENDMDL
MODEL      161
REMARK 921   NORMALIZED FREE ENERGY PREDICTED BY IDOCK:   -1.97 KCAL/MOL
REMARK 922        TOTAL FREE ENERGY PREDICTED BY IDOCK:   -5.48 KCAL/MOL
REMARK 923 INTER-LIGAND FREE ENERGY PREDICTED BY IDOCK:   -5.95 KCAL/MOL
REMARK 924 INTRA-LIGAND FREE ENERGY PREDICTED BY IDOCK:    0.47 KCAL/MOL
REMARK 927      BINDING AFFINITY PREDICTED BY RF-SCORE:    0.00 PKD
ROOT
HETATM    1  C   UNL     1      -5.126  12.262  70.494  1.00  0.00    -0.112 C  
HETATM    2  C   UNL     1      -6.060  13.444  70.325  1.00  0.00    -0.099 C  
ENDROOT
BRANCH   2   3
HETATM    3  O   UNL     1      -6.031  13.882  68.954  1.00  0.00    -0.079 OA 
BRANCH   3   4
HETATM    4  C   UNL     1      -6.644  13.051  68.076  1.00  0.00    -0.116 C  
HETATM    5  O   UNL     1      -6.153  12.654  67.028  1.00  0.00    -0.281 OA 
BRANCH   4   6
HETATM    6  C   UNL     1      -8.004  12.677  68.531  1.00  0.00    -0.093 C  
HETATM    7  C   UNL     1      -8.289  11.367  68.729  1.00  0.00    -0.096 C  
HETATM    8  C   UNL     1      -7.307  10.218  68.728  1.00  0.00    -0.086 C  
HETATM    9  N   UNL     1      -9.598  10.978  68.955  1.00  0.00    -0.189 NA 
HETATM   10  C   UNL     1     -10.700  11.795  68.763  1.00  0.00    -0.221 C  
HETATM   11  C   UNL     1     -12.025  11.072  68.691  1.00  0.00    -0.247 C  
HETATM   12  C   UNL     1     -10.537  13.139  68.648  1.00  0.00    -0.259 C  
HETATM   13  C   UNL     1      -9.114  13.739  68.691  1.00  0.00    -0.063 C  
BRANCH  12  14
HETATM   14  C   UNL     1     -11.745  13.998  68.469  1.00  0.00    -0.352 C  
HETATM   15  O   UNL     1     -12.550  13.867  67.558  1.00  0.00    -0.026 OA 
BRANCH  14  16
HETATM   16  O   UNL     1     -11.859  14.931  69.445  1.00  0.00    -0.298 OA 
BRANCH  16  17
HETATM   17  C   UNL     1     -12.622  14.520  70.595  1.00  0.00    -0.352 C  
HETATM   18  C   UNL     1     -11.982  14.967  71.903  1.00  0.00    -0.454 C  
ENDBRANCH  16  17
ENDBRANCH  14  16
ENDBRANCH  12  14
BRANCH  13  19
HETATM   19  C   UNL     1      -8.929  14.982  67.808  1.00  0.00    -0.179 A  
HETATM   20  C   UNL     1      -9.476  15.138  66.519  1.00  0.00    -0.308 A  
HETATM   21  C   UNL     1      -9.282  16.361  65.846  1.00  0.00    -0.234 A  
HETATM   22  C   UNL     1      -8.193  16.057  68.370  1.00  0.00    -0.165 A  
HETATM   23  C   UNL     1      -8.014  17.256  67.687  1.00  0.00    -0.195 A  
HETATM   24  C   UNL     1      -8.567  17.412  66.427  1.00  0.00    -0.282 A  
BRANCH  20  25
HETATM   25  C   UNL     1     -10.193  14.052  65.829  1.00  0.00    -0.343 C  
HETATM   26  C   UNL     1      -9.572  12.996  65.279  1.00  0.00     0.121 C  
BRANCH  26  27
HETATM   27  C   UNL     1     -10.267  11.844  64.673  1.00  0.00    -0.278 C  
HETATM   28  O   UNL     1     -11.421  11.572  64.972  1.00  0.00    -0.171 OA 
BRANCH  27  29
HETATM   29  O   UNL     1      -9.480  11.194  63.788  1.00  0.00    -0.224 OA 
HETATM   30  C   UNL     1      -8.505  10.223  64.247  1.00  0.00    -0.179 C  
HETATM   31  C   UNL     1      -7.491  10.841  65.215  1.00  0.00     0.094 C  
HETATM   32  C   UNL     1      -9.201   9.001  64.857  1.00  0.00    -0.056 C  
HETATM   33  C   UNL     1      -7.761   9.784  62.975  1.00  0.00    -0.133 C  
ENDBRANCH  27  29
ENDBRANCH  26  27
ENDBRANCH  20  25
ENDBRANCH  13  19
ENDBRANCH   4   6
ENDBRANCH   3   4
ENDBRANCH   2   3
TORSDOF 10
ENDMDL
MODEL      162
REMARK 921   NORMALIZED FREE ENERGY PREDICTED BY IDOCK:   -1.95 KCAL/MOL
REMARK 922        TOTAL FREE ENERGY PREDICTED BY IDOCK:   -5.45 KCAL/MOL
REMARK 923 INTER-LIGAND FREE ENERGY PREDICTED BY IDOCK:   -5.70 KCAL/MOL
REMARK 924 INTRA-LIGAND FREE ENERGY PREDICTED BY IDOCK:    0.25 KCAL/MOL
REMARK 927      BINDING AFFINITY PREDICTED BY RF-SCORE:    0.00 PKD
ROOT
HETATM    1  C   UNL     1     -12.220   9.462  71.251  1.00  0.00    -0.425 C  
HETATM    2  C   UNL     1     -11.681   8.097  70.865  1.00  0.00    -0.244 C  
ENDROOT
BRANCH   2   3
HETATM    3  O   UNL     1     -10.405   8.255  70.221  1.00  0.00    -0.201 OA 
BRANCH   3   4
HETATM    4  C   UNL     1     -10.463   8.627  68.919  1.00  0.00    -0.192 C  
HETATM    5  O   UNL     1     -11.175   9.518  68.477  1.00  0.00    -0.055 OA 
BRANCH   4   6
HETATM    6  C   UNL     1      -9.559   7.812  68.073  1.00  0.00    -0.166 C  
HETATM    7  C   UNL     1      -9.640   6.461  68.146  1.00  0.00    -0.115 C  
HETATM    8  C   UNL     1     -10.700   5.656  68.863  1.00  0.00    -0.280 C  
HETATM    9  N   UNL     1      -8.677   5.684  67.525  1.00  0.00    -0.108 NA 
HETATM   10  C   UNL     1      -7.485   6.173  67.020  1.00  0.00    -0.087 C  
HETATM   11  C   UNL     1      -6.431   5.126  66.745  1.00  0.00    -0.041 C  
HETATM   12  C   UNL     1      -7.330   7.507  66.817  1.00  0.00    -0.092 C  
HETATM   13  C   UNL     1      -8.477   8.472  67.192  1.00  0.00    -0.118 C  
BRANCH  12  14
HETATM   14  C   UNL     1      -6.043   8.005  66.245  1.00  0.00    -0.045 C  
HETATM   15  O   UNL     1      -5.165   8.544  66.904  1.00  0.00    -0.034 OA 
BRANCH  14  16
HETATM   16  O   UNL     1      -5.950   7.772  64.913  1.00  0.00    -0.038 OA 
BRANCH  16  17
HETATM   17  C   UNL     1      -6.710   8.672  64.084  1.00  0.00    -0.075 C  
HETATM   18  C   UNL     1      -7.221   7.997  62.818  1.00  0.00    -0.094 C  
ENDBRANCH  16  17
ENDBRANCH  14  16
ENDBRANCH  12  14
BRANCH  13  19
HETATM   19  C   UNL     1      -8.006   9.845  67.693  1.00  0.00    -0.109 A  
HETATM   20  C   UNL     1      -8.261  11.067  67.040  1.00  0.00    -0.138 A  
HETATM   21  C   UNL     1      -7.826  12.262  67.647  1.00  0.00    -0.156 A  
HETATM   22  C   UNL     1      -7.309   9.867  68.929  1.00  0.00    -0.078 A  
HETATM   23  C   UNL     1      -6.888  11.058  69.510  1.00  0.00    -0.133 A  
HETATM   24  C   UNL     1      -7.156  12.259  68.873  1.00  0.00    -0.088 A  
BRANCH  20  25
HETATM   25  C   UNL     1      -8.915  11.136  65.721  1.00  0.00    -0.207 C  
HETATM   26  C   UNL     1     -10.234  11.332  65.565  1.00  0.00    -0.312 C  
BRANCH  26  27
HETATM   27  C   UNL     1     -10.901  11.510  64.261  1.00  0.00    -0.359 C  
HETATM   28  O   UNL     1     -10.579  10.841  63.289  1.00  0.00    -0.156 OA 
BRANCH  27  29
HETATM   29  O   UNL     1     -11.864  12.455  64.317  1.00  0.00    -0.351 OA 
HETATM   30  C   UNL     1     -11.815  13.496  65.327  1.00  0.00    -0.352 C  
HETATM   31  C   UNL     1     -11.821  12.919  66.746  1.00  0.00    -0.452 C  
HETATM   32  C   UNL     1     -10.614  14.421  65.094  1.00  0.00    -0.429 C  
HETATM   33  C   UNL     1     -13.108  14.302  65.121  1.00  0.00     0.029 C  
ENDBRANCH  27  29
ENDBRANCH  26  27
ENDBRANCH  20  25
ENDBRANCH  13  19
ENDBRANCH   4   6
ENDBRANCH   3   4
ENDBRANCH   2   3
TORSDOF 10
ENDMDL
MODEL      163
REMARK 921   NORMALIZED FREE ENERGY PREDICTED BY IDOCK:   -1.89 KCAL/MOL
REMARK 922        TOTAL FREE ENERGY PREDICTED BY IDOCK:   -5.37 KCAL/MOL
REMARK 923 INTER-LIGAND FREE ENERGY PREDICTED BY IDOCK:   -4.02 KCAL/MOL
REMARK 924 INTRA-LIGAND FREE ENERGY PREDICTED BY IDOCK:   -1.35 KCAL/MOL
REMARK 927      BINDING AFFINITY PREDICTED BY RF-SCORE:    0.00 PKD
ROOT
HETATM    1  C   UNL     1     -11.645   1.796  72.293  1.00  0.00     1.049 C  
HETATM    2  C   UNL     1     -10.182   2.185  72.210  1.00  0.00    -0.149 C  
ENDROOT
BRANCH   2   3
HETATM    3  O   UNL     1     -10.057   3.607  72.383  1.00  0.00    -0.158 OA 
BRANCH   3   4
HETATM    4  C   UNL     1      -9.465   4.259  71.352  1.00  0.00    -0.158 C  
HETATM    5  O   UNL     1      -9.848   4.226  70.190  1.00  0.00    -0.209 OA 
BRANCH   4   6
HETATM    6  C   UNL     1      -8.275   5.022  71.796  1.00  0.00    -0.116 C  
HETATM    7  C   UNL     1      -7.231   4.347  72.337  1.00  0.00    -0.067 C  
HETATM    8  C   UNL     1      -7.045   2.847  72.369  1.00  0.00    -0.031 C  
HETATM    9  N   UNL     1      -6.202   5.048  72.940  1.00  0.00    -0.036 NA 
HETATM   10  C   UNL     1      -6.253   6.395  73.254  1.00  0.00    -0.063 C  
HETATM   11  C   UNL     1      -5.206   6.862  74.239  1.00  0.00    -0.046 C  
HETATM   12  C   UNL     1      -7.204   7.187  72.693  1.00  0.00    -0.072 C  
HETATM   13  C   UNL     1      -8.246   6.565  71.737  1.00  0.00    -0.112 C  
BRANCH  12  14
HETATM   14  C   UNL     1      -7.219   8.643  73.028  1.00  0.00     0.093 C  
HETATM   15  O   UNL     1      -7.268   9.082  74.168  1.00  0.00    -0.397 OA 
BRANCH  14  16
HETATM   16  O   UNL     1      -7.153   9.424  71.923  1.00  0.00    -0.308 OA 
BRANCH  16  17
HETATM   17  C   UNL     1      -5.821   9.692  71.445  1.00  0.00    -0.050 C  
HETATM   18  C   UNL     1      -5.824  10.383  70.087  1.00  0.00    -0.074 C  
ENDBRANCH  16  17
ENDBRANCH  14  16
ENDBRANCH  12  14
BRANCH  13  19
HETATM   19  C   UNL     1      -9.632   7.225  71.802  1.00  0.00    -0.163 A  
HETATM   20  C   UNL     1     -10.241   7.912  70.733  1.00  0.00    -0.202 A  
HETATM   21  C   UNL     1     -11.547   8.412  70.910  1.00  0.00    -0.288 A  
HETATM   22  C   UNL     1     -10.351   7.077  73.015  1.00  0.00    -0.291 A  
HETATM   23  C   UNL     1     -11.639   7.579  73.167  1.00  0.00    -0.008 A  
HETATM   24  C   UNL     1     -12.242   8.240  72.109  1.00  0.00    -0.418 A  
BRANCH  20  25
HETATM   25  C   UNL     1      -9.544   8.175  69.463  1.00  0.00    -0.168 C  
HETATM   26  C   UNL     1      -9.908   7.616  68.297  1.00  0.00    -0.181 C  
BRANCH  26  27
HETATM   27  C   UNL     1      -9.297   7.939  66.993  1.00  0.00    -0.160 C  
HETATM   28  O   UNL     1      -9.357   7.158  66.055  1.00  0.00    -0.094 OA 
BRANCH  27  29
HETATM   29  O   UNL     1      -8.715   9.158  67.002  1.00  0.00    -0.122 OA 
HETATM   30  C   UNL     1      -9.383  10.297  66.400  1.00  0.00    -0.165 C  
HETATM   31  C   UNL     1      -9.676  10.071  64.914  1.00  0.00    -0.377 C  
HETATM   32  C   UNL     1     -10.652  10.656  67.182  1.00  0.00    -0.312 C  
HETATM   33  C   UNL     1      -8.379  11.453  66.530  1.00  0.00    -0.164 C  
ENDBRANCH  27  29
ENDBRANCH  26  27
ENDBRANCH  20  25
ENDBRANCH  13  19
ENDBRANCH   4   6
ENDBRANCH   3   4
ENDBRANCH   2   3
TORSDOF 10
ENDMDL
MODEL      164
REMARK 921   NORMALIZED FREE ENERGY PREDICTED BY IDOCK:   -1.87 KCAL/MOL
REMARK 922        TOTAL FREE ENERGY PREDICTED BY IDOCK:   -5.33 KCAL/MOL
REMARK 923 INTER-LIGAND FREE ENERGY PREDICTED BY IDOCK:   -6.87 KCAL/MOL
REMARK 924 INTRA-LIGAND FREE ENERGY PREDICTED BY IDOCK:    1.54 KCAL/MOL
REMARK 927      BINDING AFFINITY PREDICTED BY RF-SCORE:    0.00 PKD
ROOT
HETATM    1  C   UNL     1     -12.273  14.712  64.225  1.00  0.00    -0.432 C  
HETATM    2  C   UNL     1     -11.333  15.900  64.161  1.00  0.00    -0.010 C  
ENDROOT
BRANCH   2   3
HETATM    3  O   UNL     1     -10.766  16.129  65.464  1.00  0.00    -0.366 OA 
BRANCH   3   4
HETATM    4  C   UNL     1     -10.424  15.007  66.143  1.00  0.00    -0.305 C  
HETATM    5  O   UNL     1     -11.180  14.078  66.388  1.00  0.00    -0.308 OA 
BRANCH   4   6
HETATM    6  C   UNL     1      -9.005  15.039  66.574  1.00  0.00    -0.310 C  
HETATM    7  C   UNL     1      -8.387  13.869  66.868  1.00  0.00    -0.004 C  
HETATM    8  C   UNL     1      -8.922  12.477  66.621  1.00  0.00    -0.174 C  
HETATM    9  N   UNL     1      -7.137  13.887  67.463  1.00  0.00    -0.179 NA 
HETATM   10  C   UNL     1      -6.548  15.014  68.008  1.00  0.00    -0.145 C  
HETATM   11  C   UNL     1      -5.384  14.742  68.933  1.00  0.00    -0.088 C  
HETATM   12  C   UNL     1      -7.030  16.247  67.703  1.00  0.00    -0.168 C  
HETATM   13  C   UNL     1      -8.261  16.375  66.780  1.00  0.00    -0.286 C  
BRANCH  12  14
HETATM   14  C   UNL     1      -6.357  17.448  68.284  1.00  0.00    -0.170 C  
HETATM   15  O   UNL     1      -6.467  17.796  69.451  1.00  0.00    -0.247 OA 
BRANCH  14  16
HETATM   16  O   UNL     1      -5.593  18.098  67.373  1.00  0.00    -0.135 OA 
BRANCH  16  17
HETATM   17  C   UNL     1      -5.153  19.410  67.772  1.00  0.00    -0.170 C  
HETATM   18  C   UNL     1      -6.283  20.430  67.744  1.00  0.00    -0.285 C  
ENDBRANCH  16  17
ENDBRANCH  14  16
ENDBRANCH  12  14
BRANCH  13  19
HETATM   19  C   UNL     1      -9.177  17.563  67.114  1.00  0.00    -0.245 A  
HETATM   20  C   UNL     1     -10.087  17.594  68.189  1.00  0.00    -0.347 A  
HETATM   21  C   UNL     1     -10.820  18.776  68.419  1.00  0.00     0.233 A  
HETATM   22  C   UNL     1      -9.045  18.717  66.299  1.00  0.00    -0.236 A  
HETATM   23  C   UNL     1      -9.778  19.873  66.546  1.00  0.00    -0.547 A  
HETATM   24  C   UNL     1     -10.660  19.906  67.614  1.00  0.00    -0.483 A  
BRANCH  20  25
HETATM   25  C   UNL     1     -10.342  16.421  69.043  1.00  0.00    -0.278 C  
HETATM   26  C   UNL     1     -11.577  16.004  69.367  1.00  0.00    -0.320 C  
BRANCH  26  27
HETATM   27  C   UNL     1     -11.867  14.776  70.132  1.00  0.00    -0.307 C  
HETATM   28  O   UNL     1     -11.730  14.739  71.346  1.00  0.00    -0.327 OA 
BRANCH  27  29
HETATM   29  O   UNL     1     -12.290  13.775  69.329  1.00  0.00    -0.312 OA 
HETATM   30  C   UNL     1     -11.730  12.442  69.458  1.00  0.00    -0.322 C  
HETATM   31  C   UNL     1     -10.214  12.434  69.242  1.00  0.00     0.351 C  
HETATM   32  C   UNL     1     -12.117  11.819  70.804  1.00  0.00    -0.352 C  
HETATM   33  C   UNL     1     -12.389  11.631  68.330  1.00  0.00     0.408 C  
ENDBRANCH  27  29
ENDBRANCH  26  27
ENDBRANCH  20  25
ENDBRANCH  13  19
ENDBRANCH   4   6
ENDBRANCH   3   4
ENDBRANCH   2   3
TORSDOF 10
ENDMDL
MODEL      165
REMARK 921   NORMALIZED FREE ENERGY PREDICTED BY IDOCK:   -1.76 KCAL/MOL
REMARK 922        TOTAL FREE ENERGY PREDICTED BY IDOCK:   -5.16 KCAL/MOL
REMARK 923 INTER-LIGAND FREE ENERGY PREDICTED BY IDOCK:   -3.98 KCAL/MOL
REMARK 924 INTRA-LIGAND FREE ENERGY PREDICTED BY IDOCK:   -1.18 KCAL/MOL
REMARK 927      BINDING AFFINITY PREDICTED BY RF-SCORE:    0.00 PKD
ROOT
HETATM    1  C   UNL     1     -12.458  12.108  69.180  1.00  0.00     0.325 C  
HETATM    2  C   UNL     1     -11.530  11.504  68.144  1.00  0.00    -0.315 C  
ENDROOT
BRANCH   2   3
HETATM    3  O   UNL     1     -11.118  10.196  68.579  1.00  0.00    -0.245 OA 
BRANCH   3   4
HETATM    4  C   UNL     1      -9.780  10.035  68.718  1.00  0.00    -0.171 C  
HETATM    5  O   UNL     1      -9.035  10.816  69.295  1.00  0.00    -0.136 OA 
BRANCH   4   6
HETATM    6  C   UNL     1      -9.307   8.787  68.072  1.00  0.00    -0.153 C  
HETATM    7  C   UNL     1      -9.169   8.762  66.724  1.00  0.00    -0.169 C  
HETATM    8  C   UNL     1      -9.256   9.944  65.785  1.00  0.00    -0.228 C  
HETATM    9  N   UNL     1      -8.928   7.560  66.083  1.00  0.00    -0.166 NA 
HETATM   10  C   UNL     1      -9.047   6.317  66.682  1.00  0.00    -0.144 C  
HETATM   11  C   UNL     1      -9.120   5.151  65.724  1.00  0.00    -0.158 C  
HETATM   12  C   UNL     1      -9.098   6.219  68.036  1.00  0.00    -0.112 C  
HETATM   13  C   UNL     1      -9.063   7.503  68.894  1.00  0.00    -0.140 C  
BRANCH  12  14
HETATM   14  C   UNL     1      -9.199   4.864  68.656  1.00  0.00    -0.120 C  
HETATM   15  O   UNL     1     -10.227   4.202  68.692  1.00  0.00     0.128 OA 
BRANCH  14  16
HETATM   16  O   UNL     1      -8.014   4.441  69.160  1.00  0.00    -0.068 OA 
BRANCH  16  17
HETATM   17  C   UNL     1      -7.467   3.268  68.528  1.00  0.00    -0.049 C  
HETATM   18  C   UNL     1      -7.196   2.150  69.526  1.00  0.00    -0.043 C  
ENDBRANCH  16  17
ENDBRANCH  14  16
ENDBRANCH  12  14
BRANCH  13  19
HETATM   19  C   UNL     1      -9.885   7.417  70.189  1.00  0.00    -0.180 A  
HETATM   20  C   UNL     1      -9.357   7.578  71.484  1.00  0.00    -0.154 A  
HETATM   21  C   UNL     1     -10.239   7.540  72.583  1.00  0.00    -0.297 A  
HETATM   22  C   UNL     1     -11.281   7.209  70.043  1.00  0.00    -0.271 A  
HETATM   23  C   UNL     1     -12.134   7.175  71.142  1.00  0.00    -0.397 A  
HETATM   24  C   UNL     1     -11.613   7.350  72.414  1.00  0.00    -0.327 A  
BRANCH  20  25
HETATM   25  C   UNL     1      -7.913   7.726  71.737  1.00  0.00    -0.104 C  
HETATM   26  C   UNL     1      -7.294   7.185  72.798  1.00  0.00    -0.076 C  
BRANCH  26  27
HETATM   27  C   UNL     1      -5.836   7.228  73.023  1.00  0.00    -0.045 C  
HETATM   28  O   UNL     1      -5.180   8.217  72.730  1.00  0.00    -0.036 OA 
BRANCH  27  29
HETATM   29  O   UNL     1      -5.382   6.083  73.578  1.00  0.00    -0.033 OA 
HETATM   30  C   UNL     1      -5.783   4.796  73.041  1.00  0.00    -0.013 C  
HETATM   31  C   UNL     1      -7.303   4.610  73.072  1.00  0.00    -0.081 C  
HETATM   32  C   UNL     1      -5.214   4.596  71.631  1.00  0.00    -0.004 C  
HETATM   33  C   UNL     1      -5.145   3.763  73.984  1.00  0.00     0.000 C  
ENDBRANCH  27  29
ENDBRANCH  26  27
ENDBRANCH  20  25
ENDBRANCH  13  19
ENDBRANCH   4   6
ENDBRANCH   3   4
ENDBRANCH   2   3
TORSDOF 10
ENDMDL
MODEL      166
REMARK 921   NORMALIZED FREE ENERGY PREDICTED BY IDOCK:   -1.66 KCAL/MOL
REMARK 922        TOTAL FREE ENERGY PREDICTED BY IDOCK:   -4.99 KCAL/MOL
REMARK 923 INTER-LIGAND FREE ENERGY PREDICTED BY IDOCK:   -4.94 KCAL/MOL
REMARK 924 INTRA-LIGAND FREE ENERGY PREDICTED BY IDOCK:   -0.05 KCAL/MOL
REMARK 927      BINDING AFFINITY PREDICTED BY RF-SCORE:    0.00 PKD
ROOT
HETATM    1  C   UNL     1     -10.578   7.874  70.650  1.00  0.00    -0.221 C  
HETATM    2  C   UNL     1      -9.356   7.835  69.753  1.00  0.00    -0.153 C  
ENDROOT
BRANCH   2   3
HETATM    3  O   UNL     1      -9.759   7.500  68.414  1.00  0.00    -0.151 OA 
BRANCH   3   4
HETATM    4  C   UNL     1     -10.129   8.555  67.648  1.00  0.00    -0.213 C  
HETATM    5  O   UNL     1     -10.918   8.502  66.715  1.00  0.00    -0.019 OA 
BRANCH   4   6
HETATM    6  C   UNL     1      -9.447   9.804  68.067  1.00  0.00    -0.144 C  
HETATM    7  C   UNL     1     -10.193  10.814  68.579  1.00  0.00    -0.178 C  
HETATM    8  C   UNL     1     -11.653  10.753  68.964  1.00  0.00    -0.370 C  
HETATM    9  N   UNL     1      -9.614  12.053  68.786  1.00  0.00    -0.059 NA 
HETATM   10  C   UNL     1      -8.377  12.430  68.294  1.00  0.00    -0.169 C  
HETATM   11  C   UNL     1      -8.113  13.918  68.302  1.00  0.00    -0.150 C  
HETATM   12  C   UNL     1      -7.510  11.487  67.842  1.00  0.00    -0.103 C  
HETATM   13  C   UNL     1      -7.932  10.001  67.847  1.00  0.00    -0.105 C  
BRANCH  12  14
HETATM   14  C   UNL     1      -6.171  11.920  67.341  1.00  0.00    -0.125 C  
HETATM   15  O   UNL     1      -5.993  12.506  66.283  1.00  0.00     0.576 OA 
BRANCH  14  16
HETATM   16  O   UNL     1      -5.174  11.605  68.204  1.00  0.00    -0.043 OA 
BRANCH  16  17
HETATM   17  C   UNL     1      -5.521  11.709  69.599  1.00  0.00    -0.069 C  
HETATM   18  C   UNL     1      -5.316  13.118  70.140  1.00  0.00    -0.107 C  
ENDBRANCH  16  17
ENDBRANCH  14  16
ENDBRANCH  12  14
BRANCH  13  19
HETATM   19  C   UNL     1      -7.351   9.178  66.686  1.00  0.00    -0.086 A  
HETATM   20  C   UNL     1      -7.569   9.454  65.322  1.00  0.00    -0.107 A  
HETATM   21  C   UNL     1      -6.920   8.655  64.360  1.00  0.00    -0.081 A  
HETATM   22  C   UNL     1      -6.498   8.100  67.036  1.00  0.00    -0.057 A  
HETATM   23  C   UNL     1      -5.867   7.325  66.069  1.00  0.00    -0.036 A  
HETATM   24  C   UNL     1      -6.070   7.608  64.728  1.00  0.00    -0.038 A  
BRANCH  20  25
HETATM   25  C   UNL     1      -8.493  10.507  64.866  1.00  0.00    -0.161 C  
HETATM   26  C   UNL     1      -9.828  10.411  64.981  1.00  0.00    -0.384 C  
BRANCH  26  27
HETATM   27  C   UNL     1     -10.772  11.490  64.629  1.00  0.00    -0.319 C  
HETATM   28  O   UNL     1     -11.833  11.246  64.073  1.00  0.00    -0.031 OA 
BRANCH  27  29
HETATM   29  O   UNL     1     -10.311  12.702  65.009  1.00  0.00    -0.289 OA 
HETATM   30  C   UNL     1     -11.232  13.795  65.255  1.00  0.00    -0.307 C  
HETATM   31  C   UNL     1     -12.076  14.124  64.019  1.00  0.00    -0.382 C  
HETATM   32  C   UNL     1     -12.106  13.502  66.480  1.00  0.00    -0.460 C  
HETATM   33  C   UNL     1     -10.332  15.002  65.567  1.00  0.00    -0.397 C  
ENDBRANCH  27  29
ENDBRANCH  26  27
ENDBRANCH  20  25
ENDBRANCH  13  19
ENDBRANCH   4   6
ENDBRANCH   3   4
ENDBRANCH   2   3
TORSDOF 10
ENDMDL
MODEL      167
REMARK 921   NORMALIZED FREE ENERGY PREDICTED BY IDOCK:   -1.57 KCAL/MOL
REMARK 922        TOTAL FREE ENERGY PREDICTED BY IDOCK:   -4.85 KCAL/MOL
REMARK 923 INTER-LIGAND FREE ENERGY PREDICTED BY IDOCK:   -5.42 KCAL/MOL
REMARK 924 INTRA-LIGAND FREE ENERGY PREDICTED BY IDOCK:    0.57 KCAL/MOL
REMARK 927      BINDING AFFINITY PREDICTED BY RF-SCORE:    0.00 PKD
ROOT
HETATM    1  C   UNL     1     -10.775  15.868  67.577  1.00  0.00    -0.318 C  
HETATM    2  C   UNL     1     -12.076  15.162  67.247  1.00  0.00     0.232 C  
ENDROOT
BRANCH   2   3
HETATM    3  O   UNL     1     -11.941  13.758  67.532  1.00  0.00    -0.372 OA 
BRANCH   3   4
HETATM    4  C   UNL     1     -12.196  13.408  68.816  1.00  0.00    -0.115 C  
HETATM    5  O   UNL     1     -12.570  14.177  69.691  1.00  0.00    -0.262 OA 
BRANCH   4   6
HETATM    6  C   UNL     1     -11.958  11.964  69.049  1.00  0.00    -0.321 C  
HETATM    7  C   UNL     1     -11.929  11.505  70.325  1.00  0.00    -0.368 C  
HETATM    8  C   UNL     1     -12.311  12.272  71.570  1.00  0.00     0.058 C  
HETATM    9  N   UNL     1     -11.510  10.210  70.576  1.00  0.00    -0.313 NA 
HETATM   10  C   UNL     1     -10.883   9.397  69.647  1.00  0.00    -0.228 C  
HETATM   11  C   UNL     1     -10.173   8.196  70.226  1.00  0.00    -0.200 C  
HETATM   12  C   UNL     1     -10.931   9.714  68.326  1.00  0.00    -0.172 C  
HETATM   13  C   UNL     1     -11.653  11.004  67.879  1.00  0.00    -0.306 C  
BRANCH  12  14
HETATM   14  C   UNL     1     -10.270   8.804  67.343  1.00  0.00    -0.252 C  
HETATM   15  O   UNL     1     -10.872   8.020  66.624  1.00  0.00    -0.115 OA 
BRANCH  14  16
HETATM   16  O   UNL     1      -8.924   8.961  67.325  1.00  0.00    -0.127 OA 
BRANCH  16  17
HETATM   17  C   UNL     1      -8.299   8.712  66.051  1.00  0.00    -0.131 C  
HETATM   18  C   UNL     1      -7.058   7.838  66.179  1.00  0.00    -0.069 C  
ENDBRANCH  16  17
ENDBRANCH  14  16
ENDBRANCH  12  14
BRANCH  13  19
HETATM   19  C   UNL     1     -11.025  11.684  66.653  1.00  0.00    -0.349 A  
HETATM   20  C   UNL     1      -9.693  12.138  66.585  1.00  0.00    -0.228 A  
HETATM   21  C   UNL     1      -9.227  12.685  65.372  1.00  0.00     0.393 A  
HETATM   22  C   UNL     1     -11.846  11.808  65.503  1.00  0.00     0.007 A  
HETATM   23  C   UNL     1     -11.366  12.351  64.316  1.00  0.00    -0.420 A  
HETATM   24  C   UNL     1     -10.051  12.782  64.248  1.00  0.00    -0.277 A  
BRANCH  20  25
HETATM   25  C   UNL     1      -8.789  12.115  67.748  1.00  0.00    -0.172 C  
HETATM   26  C   UNL     1      -7.509  12.516  67.690  1.00  0.00    -0.139 C  
BRANCH  26  27
HETATM   27  C   UNL     1      -6.610  12.603  68.858  1.00  0.00    -0.095 C  
HETATM   28  O   UNL     1      -6.547  11.697  69.677  1.00  0.00    -0.121 OA 
BRANCH  27  29
HETATM   29  O   UNL     1      -5.910  13.758  68.865  1.00  0.00    -0.078 OA 
HETATM   30  C   UNL     1      -6.175  14.772  69.868  1.00  0.00    -0.150 C  
HETATM   31  C   UNL     1      -7.628  15.255  69.827  1.00  0.00    -0.101 C  
HETATM   32  C   UNL     1      -5.781  14.271  71.263  1.00  0.00    -0.205 C  
HETATM   33  C   UNL     1      -5.258  15.947  69.488  1.00  0.00    -0.109 C  
ENDBRANCH  27  29
ENDBRANCH  26  27
ENDBRANCH  20  25
ENDBRANCH  13  19
ENDBRANCH   4   6
ENDBRANCH   3   4
ENDBRANCH   2   3
TORSDOF 10
ENDMDL
MODEL      168
REMARK 921   NORMALIZED FREE ENERGY PREDICTED BY IDOCK:   -1.55 KCAL/MOL
REMARK 922        TOTAL FREE ENERGY PREDICTED BY IDOCK:   -4.82 KCAL/MOL
REMARK 923 INTER-LIGAND FREE ENERGY PREDICTED BY IDOCK:   -3.47 KCAL/MOL
REMARK 924 INTRA-LIGAND FREE ENERGY PREDICTED BY IDOCK:   -1.36 KCAL/MOL
REMARK 927      BINDING AFFINITY PREDICTED BY RF-SCORE:    0.00 PKD
ROOT
HETATM    1  C   UNL     1      -6.296   8.316  74.149  1.00  0.00    -0.139 C  
HETATM    2  C   UNL     1      -7.541   7.508  74.459  1.00  0.00    -0.148 C  
ENDROOT
BRANCH   2   3
HETATM    3  O   UNL     1      -8.220   7.191  73.231  1.00  0.00    -0.105 OA 
BRANCH   3   4
HETATM    4  C   UNL     1      -8.476   5.874  73.042  1.00  0.00    -0.117 C  
HETATM    5  O   UNL     1      -8.972   5.129  73.876  1.00  0.00    -0.117 OA 
BRANCH   4   6
HETATM    6  C   UNL     1      -8.068   5.424  71.689  1.00  0.00    -0.117 C  
HETATM    7  C   UNL     1      -6.781   5.054  71.485  1.00  0.00    -0.040 C  
HETATM    8  C   UNL     1      -5.719   4.853  72.543  1.00  0.00    -0.009 C  
HETATM    9  N   UNL     1      -6.330   4.827  70.196  1.00  0.00    -0.025 NA 
HETATM   10  C   UNL     1      -7.028   5.175  69.053  1.00  0.00    -0.056 C  
HETATM   11  C   UNL     1      -6.205   5.196  67.785  1.00  0.00    -0.038 C  
HETATM   12  C   UNL     1      -8.351   5.474  69.129  1.00  0.00    -0.098 C  
HETATM   13  C   UNL     1      -9.056   5.461  70.503  1.00  0.00    -0.171 C  
BRANCH  12  14
HETATM   14  C   UNL     1      -9.085   5.821  67.875  1.00  0.00    -0.109 C  
HETATM   15  O   UNL     1      -8.935   6.868  67.261  1.00  0.00    -0.117 OA 
BRANCH  14  16
HETATM   16  O   UNL     1      -9.924   4.831  67.482  1.00  0.00    -0.174 OA 
BRANCH  16  17
HETATM   17  C   UNL     1     -10.695   5.120  66.300  1.00  0.00    -0.209 C  
HETATM   18  C   UNL     1     -10.270   4.266  65.113  1.00  0.00    -0.228 C  
ENDBRANCH  16  17
ENDBRANCH  14  16
ENDBRANCH  12  14
BRANCH  13  19
HETATM   19  C   UNL     1     -10.175   6.503  70.646  1.00  0.00    -0.220 A  
HETATM   20  C   UNL     1     -10.012   7.887  70.437  1.00  0.00    -0.192 A  
HETATM   21  C   UNL     1     -11.142   8.723  70.538  1.00  0.00    -0.278 A  
HETATM   22  C   UNL     1     -11.467   6.010  70.964  1.00  0.00    -0.236 A  
HETATM   23  C   UNL     1     -12.569   6.854  71.058  1.00  0.00    -0.319 A  
HETATM   24  C   UNL     1     -12.408   8.212  70.836  1.00  0.00    -0.058 A  
BRANCH  20  25
HETATM   25  C   UNL     1      -8.697   8.497  70.173  1.00  0.00    -0.137 C  
HETATM   26  C   UNL     1      -8.479   9.367  69.174  1.00  0.00    -0.134 C  
BRANCH  26  27
HETATM   27  C   UNL     1      -7.203  10.073  68.948  1.00  0.00    -0.077 C  
HETATM   28  O   UNL     1      -6.179   9.726  69.518  1.00  0.00    -0.042 OA 
BRANCH  27  29
HETATM   29  O   UNL     1      -7.340  11.083  68.062  1.00  0.00    -0.084 OA 
HETATM   30  C   UNL     1      -7.909  12.352  68.477  1.00  0.00    -0.112 C  
HETATM   31  C   UNL     1      -9.327  12.192  69.033  1.00  0.00     0.338 C  
HETATM   32  C   UNL     1      -6.984  13.061  69.473  1.00  0.00     0.184 C  
HETATM   33  C   UNL     1      -7.981  13.188  67.188  1.00  0.00    -0.083 C  
ENDBRANCH  27  29
ENDBRANCH  26  27
ENDBRANCH  20  25
ENDBRANCH  13  19
ENDBRANCH   4   6
ENDBRANCH   3   4
ENDBRANCH   2   3
TORSDOF 10
ENDMDL
MODEL      169
REMARK 921   NORMALIZED FREE ENERGY PREDICTED BY IDOCK:   -1.34 KCAL/MOL
REMARK 922        TOTAL FREE ENERGY PREDICTED BY IDOCK:   -4.49 KCAL/MOL
REMARK 923 INTER-LIGAND FREE ENERGY PREDICTED BY IDOCK:   -5.52 KCAL/MOL
REMARK 924 INTRA-LIGAND FREE ENERGY PREDICTED BY IDOCK:    1.03 KCAL/MOL
REMARK 927      BINDING AFFINITY PREDICTED BY RF-SCORE:    0.00 PKD
ROOT
HETATM    1  C   UNL     1      -5.125   8.322  64.594  1.00  0.00    -0.036 C  
HETATM    2  C   UNL     1      -6.133   7.306  65.095  1.00  0.00    -0.038 C  
ENDROOT
BRANCH   2   3
HETATM    3  O   UNL     1      -7.442   7.901  65.110  1.00  0.00    -0.074 OA 
BRANCH   3   4
HETATM    4  C   UNL     1      -7.562   8.999  65.896  1.00  0.00    -0.094 C  
HETATM    5  O   UNL     1      -6.759   9.337  66.755  1.00  0.00    -0.074 OA 
BRANCH   4   6
HETATM    6  C   UNL     1      -8.803   9.753  65.600  1.00  0.00    -0.182 C  
HETATM    7  C   UNL     1      -9.293   9.733  64.337  1.00  0.00    -0.215 C  
HETATM    8  C   UNL     1      -8.824   8.855  63.199  1.00  0.00     0.040 C  
HETATM    9  N   UNL     1     -10.327  10.586  63.990  1.00  0.00    -0.202 NA 
HETATM   10  C   UNL     1     -10.761  11.644  64.770  1.00  0.00    -0.309 C  
HETATM   11  C   UNL     1     -11.615  12.661  64.048  1.00  0.00    -0.486 C  
HETATM   12  C   UNL     1     -10.406  11.712  66.080  1.00  0.00    -0.283 C  
HETATM   13  C   UNL     1      -9.485  10.626  66.676  1.00  0.00    -0.195 C  
BRANCH  12  14
HETATM   14  C   UNL     1     -10.912  12.851  66.904  1.00  0.00    -0.266 C  
HETATM   15  O   UNL     1     -11.826  12.758  67.710  1.00  0.00    -0.348 OA 
BRANCH  14  16
HETATM   16  O   UNL     1     -10.227  13.997  66.670  1.00  0.00    -0.265 OA 
BRANCH  16  17
HETATM   17  C   UNL     1     -10.920  15.206  67.037  1.00  0.00    -0.322 C  
HETATM   18  C   UNL     1      -9.969  16.283  67.542  1.00  0.00    -0.248 C  
ENDBRANCH  16  17
ENDBRANCH  14  16
ENDBRANCH  12  14
BRANCH  13  19
HETATM   19  C   UNL     1      -8.534  11.138  67.769  1.00  0.00    -0.124 A  
HETATM   20  C   UNL     1      -8.262  10.461  68.974  1.00  0.00    -0.141 A  
HETATM   21  C   UNL     1      -7.316  11.014  69.860  1.00  0.00     0.168 A  
HETATM   22  C   UNL     1      -7.854  12.354  67.502  1.00  0.00    -0.169 A  
HETATM   23  C   UNL     1      -6.924  12.882  68.391  1.00  0.00    -0.096 A  
HETATM   24  C   UNL     1      -6.647  12.205  69.568  1.00  0.00    -0.065 A  
BRANCH  20  25
HETATM   25  C   UNL     1      -8.971   9.231  69.368  1.00  0.00    -0.147 C  
HETATM   26  C   UNL     1      -8.392   8.020  69.369  1.00  0.00    -0.131 C  
BRANCH  26  27
HETATM   27  C   UNL     1      -9.042   6.787  69.856  1.00  0.00    -0.144 C  
HETATM   28  O   UNL     1      -8.792   5.700  69.357  1.00  0.00    -0.111 OA 
BRANCH  27  29
HETATM   29  O   UNL     1      -9.888   7.039  70.879  1.00  0.00    -0.185 OA 
HETATM   30  C   UNL     1      -9.523   6.687  72.239  1.00  0.00    -0.145 C  
HETATM   31  C   UNL     1      -9.245   5.188  72.388  1.00  0.00    -0.148 C  
HETATM   32  C   UNL     1      -8.340   7.536  72.720  1.00  0.00    -0.150 C  
HETATM   33  C   UNL     1     -10.760   7.040  73.080  1.00  0.00    -0.337 C  
ENDBRANCH  27  29
ENDBRANCH  26  27
ENDBRANCH  20  25
ENDBRANCH  13  19
ENDBRANCH   4   6
ENDBRANCH   3   4
ENDBRANCH   2   3
TORSDOF 10
ENDMDL
MODEL      170
REMARK 921   NORMALIZED FREE ENERGY PREDICTED BY IDOCK:   -1.32 KCAL/MOL
REMARK 922        TOTAL FREE ENERGY PREDICTED BY IDOCK:   -4.45 KCAL/MOL
REMARK 923 INTER-LIGAND FREE ENERGY PREDICTED BY IDOCK:   -4.68 KCAL/MOL
REMARK 924 INTRA-LIGAND FREE ENERGY PREDICTED BY IDOCK:    0.23 KCAL/MOL
REMARK 927      BINDING AFFINITY PREDICTED BY RF-SCORE:    0.00 PKD
ROOT
HETATM    1  C   UNL     1      -7.338   6.000  64.658  1.00  0.00    -0.071 C  
HETATM    2  C   UNL     1      -7.513   7.272  65.464  1.00  0.00    -0.085 C  
ENDROOT
BRANCH   2   3
HETATM    3  O   UNL     1      -8.473   8.122  64.811  1.00  0.00    -0.138 OA 
BRANCH   3   4
HETATM    4  C   UNL     1      -8.290   9.449  65.010  1.00  0.00    -0.150 C  
HETATM    5  O   UNL     1      -7.208  10.020  64.982  1.00  0.00    -0.129 OA 
BRANCH   4   6
HETATM    6  C   UNL     1      -9.571  10.146  65.279  1.00  0.00    -0.338 C  
HETATM    7  C   UNL     1     -10.131  10.887  64.292  1.00  0.00    -0.351 C  
HETATM    8  C   UNL     1      -9.697  10.940  62.845  1.00  0.00    -0.349 C  
HETATM    9  N   UNL     1     -11.210  11.704  64.579  1.00  0.00    -0.299 NA 
HETATM   10  C   UNL     1     -11.635  12.017  65.859  1.00  0.00    -0.300 C  
HETATM   11  C   UNL     1     -12.561  13.207  65.951  1.00  0.00    -0.271 C  
HETATM   12  C   UNL     1     -11.209  11.277  66.915  1.00  0.00    -0.300 C  
HETATM   13  C   UNL     1     -10.219  10.114  66.680  1.00  0.00    -0.287 C  
BRANCH  12  14
HETATM   14  C   UNL     1     -11.704  11.620  68.282  1.00  0.00    -0.304 C  
HETATM   15  O   UNL     1     -11.484  12.684  68.843  1.00  0.00    -0.264 OA 
BRANCH  14  16
HETATM   16  O   UNL     1     -12.444  10.621  68.824  1.00  0.00    -0.278 OA 
BRANCH  16  17
HETATM   17  C   UNL     1     -12.420  10.559  70.263  1.00  0.00    -0.271 C  
HETATM   18  C   UNL     1     -12.669  11.917  70.904  1.00  0.00    -0.301 C  
ENDBRANCH  16  17
ENDBRANCH  14  16
ENDBRANCH  12  14
BRANCH  13  19
HETATM   19  C   UNL     1      -9.225   9.891  67.830  1.00  0.00    -0.138 A  
HETATM   20  C   UNL     1      -8.330  10.865  68.314  1.00  0.00    -0.129 A  
HETATM   21  C   UNL     1      -7.518  10.545  69.421  1.00  0.00    -0.141 A  
HETATM   22  C   UNL     1      -9.264   8.624  68.468  1.00  0.00    -0.138 A  
HETATM   23  C   UNL     1      -8.454   8.330  69.559  1.00  0.00    -0.125 A  
HETATM   24  C   UNL     1      -7.586   9.296  70.043  1.00  0.00    -0.099 A  
BRANCH  20  25
HETATM   25  C   UNL     1      -8.170  12.181  67.672  1.00  0.00    -0.163 C  
HETATM   26  C   UNL     1      -8.125  13.333  68.361  1.00  0.00    -0.134 C  
BRANCH  26  27
HETATM   27  C   UNL     1      -7.862  14.654  67.757  1.00  0.00    -0.154 C  
HETATM   28  O   UNL     1      -8.101  14.869  66.578  1.00  0.00     0.027 OA 
BRANCH  27  29
HETATM   29  O   UNL     1      -7.364  15.526  68.660  1.00  0.00    -0.116 OA 
HETATM   30  C   UNL     1      -6.466  15.069  69.705  1.00  0.00    -0.163 C  
HETATM   31  C   UNL     1      -7.111  13.996  70.588  1.00  0.00     1.005 C  
HETATM   32  C   UNL     1      -5.137  14.591  69.107  1.00  0.00    -0.079 C  
HETATM   33  C   UNL     1      -6.201  16.315  70.565  1.00  0.00     0.354 C  
ENDBRANCH  27  29
ENDBRANCH  26  27
ENDBRANCH  20  25
ENDBRANCH  13  19
ENDBRANCH   4   6
ENDBRANCH   3   4
ENDBRANCH   2   3
TORSDOF 10
ENDMDL
MODEL      171
REMARK 921   NORMALIZED FREE ENERGY PREDICTED BY IDOCK:   -1.30 KCAL/MOL
REMARK 922        TOTAL FREE ENERGY PREDICTED BY IDOCK:   -4.43 KCAL/MOL
REMARK 923 INTER-LIGAND FREE ENERGY PREDICTED BY IDOCK:   -4.14 KCAL/MOL
REMARK 924 INTRA-LIGAND FREE ENERGY PREDICTED BY IDOCK:   -0.28 KCAL/MOL
REMARK 927      BINDING AFFINITY PREDICTED BY RF-SCORE:    0.00 PKD
ROOT
HETATM    1  C   UNL     1      -8.681  10.120  65.060  1.00  0.00    -0.190 C  
HETATM    2  C   UNL     1      -8.350   8.641  65.020  1.00  0.00    -0.171 C  
ENDROOT
BRANCH   2   3
HETATM    3  O   UNL     1      -9.228   7.932  65.912  1.00  0.00    -0.142 OA 
BRANCH   3   4
HETATM    4  C   UNL     1      -8.611   7.076  66.762  1.00  0.00    -0.120 C  
HETATM    5  O   UNL     1      -7.504   6.588  66.583  1.00  0.00    -0.077 OA 
BRANCH   4   6
HETATM    6  C   UNL     1      -9.448   6.784  67.950  1.00  0.00    -0.118 C  
HETATM    7  C   UNL     1     -10.643   6.170  67.771  1.00  0.00    -0.269 C  
HETATM    8  C   UNL     1     -11.161   5.555  66.491  1.00  0.00     0.050 C  
HETATM    9  N   UNL     1     -11.526   6.070  68.832  1.00  0.00    -0.041 NA 
HETATM   10  C   UNL     1     -11.394   6.759  70.026  1.00  0.00    -0.342 C  
HETATM   11  C   UNL     1     -12.643   6.808  70.876  1.00  0.00    -0.199 C  
HETATM   12  C   UNL     1     -10.207   7.333  70.350  1.00  0.00    -0.200 C  
HETATM   13  C   UNL     1      -9.024   7.246  69.361  1.00  0.00    -0.139 C  
BRANCH  12  14
HETATM   14  C   UNL     1     -10.085   8.047  71.657  1.00  0.00    -0.184 C  
HETATM   15  O   UNL     1      -9.779   7.501  72.708  1.00  0.00    -0.158 OA 
BRANCH  14  16
HETATM   16  O   UNL     1     -10.334   9.374  71.542  1.00  0.00    -0.327 OA 
BRANCH  16  17
HETATM   17  C   UNL     1     -11.621   9.706  70.988  1.00  0.00    -0.359 C  
HETATM   18  C   UNL     1     -12.631  10.084  72.063  1.00  0.00    -0.379 C  
ENDBRANCH  16  17
ENDBRANCH  14  16
ENDBRANCH  12  14
BRANCH  13  19
HETATM   19  C   UNL     1      -8.103   8.476  69.371  1.00  0.00    -0.112 A  
HETATM   20  C   UNL     1      -6.836   8.522  69.985  1.00  0.00    -0.042 A  
HETATM   21  C   UNL     1      -6.067   9.697  69.861  1.00  0.00    -0.043 A  
HETATM   22  C   UNL     1      -8.559   9.618  68.665  1.00  0.00    -0.120 A  
HETATM   23  C   UNL     1      -7.783  10.768  68.554  1.00  0.00    -0.118 A  
HETATM   24  C   UNL     1      -6.531  10.803  69.145  1.00  0.00    -0.059 A  
BRANCH  20  25
HETATM   25  C   UNL     1      -6.311   7.411  70.798  1.00  0.00    -0.039 C  
HETATM   26  C   UNL     1      -6.873   6.192  70.825  1.00  0.00    -0.062 C  
BRANCH  26  27
HETATM   27  C   UNL     1      -6.312   5.033  71.547  1.00  0.00    -0.030 C  
HETATM   28  O   UNL     1      -5.332   5.150  72.267  1.00  0.00    -0.008 OA 
BRANCH  27  29
HETATM   29  O   UNL     1      -7.018   3.906  71.307  1.00  0.00    -0.031 OA 
HETATM   30  C   UNL     1      -6.577   2.963  70.296  1.00  0.00    -0.033 C  
HETATM   31  C   UNL     1      -6.485   3.608  68.910  1.00  0.00    -0.033 C  
HETATM   32  C   UNL     1      -5.253   2.307  70.708  1.00  0.00    -0.004 C  
HETATM   33  C   UNL     1      -7.673   1.886  70.262  1.00  0.00    -0.043 C  
ENDBRANCH  27  29
ENDBRANCH  26  27
ENDBRANCH  20  25
ENDBRANCH  13  19
ENDBRANCH   4   6
ENDBRANCH   3   4
ENDBRANCH   2   3
TORSDOF 10
ENDMDL
MODEL      172
REMARK 921   NORMALIZED FREE ENERGY PREDICTED BY IDOCK:   -1.22 KCAL/MOL
REMARK 922        TOTAL FREE ENERGY PREDICTED BY IDOCK:   -4.30 KCAL/MOL
REMARK 923 INTER-LIGAND FREE ENERGY PREDICTED BY IDOCK:   -2.93 KCAL/MOL
REMARK 924 INTRA-LIGAND FREE ENERGY PREDICTED BY IDOCK:   -1.37 KCAL/MOL
REMARK 927      BINDING AFFINITY PREDICTED BY RF-SCORE:    0.00 PKD
ROOT
HETATM    1  C   UNL     1      -5.128  11.886  67.057  1.00  0.00    -0.097 C  
HETATM    2  C   UNL     1      -5.709  11.215  65.827  1.00  0.00    -0.005 C  
ENDROOT
BRANCH   2   3
HETATM    3  O   UNL     1      -6.165   9.896  66.175  1.00  0.00    -0.066 OA 
BRANCH   3   4
HETATM    4  C   UNL     1      -7.465   9.646  65.888  1.00  0.00    -0.099 C  
HETATM    5  O   UNL     1      -8.207  10.404  65.279  1.00  0.00    -0.157 OA 
BRANCH   4   6
HETATM    6  C   UNL     1      -7.900   8.330  66.415  1.00  0.00    -0.095 C  
HETATM    7  C   UNL     1      -8.807   7.612  65.709  1.00  0.00    -0.100 C  
HETATM    8  C   UNL     1      -9.303   7.907  64.311  1.00  0.00     1.831 C  
HETATM    9  N   UNL     1      -9.377   6.485  66.274  1.00  0.00    -0.143 NA 
HETATM   10  C   UNL     1      -9.277   6.146  67.612  1.00  0.00    -0.107 C  
HETATM   11  C   UNL     1     -10.275   5.115  68.087  1.00  0.00    -0.177 C  
HETATM   12  C   UNL     1      -8.336   6.738  68.393  1.00  0.00    -0.123 C  
HETATM   13  C   UNL     1      -7.411   7.815  67.786  1.00  0.00    -0.095 C  
BRANCH  12  14
HETATM   14  C   UNL     1      -8.232   6.333  69.828  1.00  0.00    -0.125 C  
HETATM   15  O   UNL     1      -7.473   5.469  70.241  1.00  0.00    -0.072 OA 
BRANCH  14  16
HETATM   16  O   UNL     1      -9.064   7.049  70.623  1.00  0.00    -0.156 OA 
BRANCH  16  17
HETATM   17  C   UNL     1      -8.557   7.322  71.944  1.00  0.00    -0.114 C  
HETATM   18  C   UNL     1      -9.453   8.281  72.717  1.00  0.00    -0.343 C  
ENDBRANCH  16  17
ENDBRANCH  14  16
ENDBRANCH  12  14
BRANCH  13  19
HETATM   19  C   UNL     1      -7.008   8.925  68.769  1.00  0.00    -0.063 A  
HETATM   20  C   UNL     1      -7.881   9.915  69.260  1.00  0.00    -0.117 A  
HETATM   21  C   UNL     1      -7.393  10.835  70.211  1.00  0.00     0.483 A  
HETATM   22  C   UNL     1      -5.670   8.902  69.240  1.00  0.00    -0.035 A  
HETATM   23  C   UNL     1      -5.209   9.820  70.179  1.00  0.00    -0.036 A  
HETATM   24  C   UNL     1      -6.075  10.782  70.672  1.00  0.00    -0.066 A  
BRANCH  20  25
HETATM   25  C   UNL     1      -9.265  10.060  68.776  1.00  0.00    -0.159 C  
HETATM   26  C   UNL     1      -9.867  11.250  68.622  1.00  0.00    -0.208 C  
BRANCH  26  27
HETATM   27  C   UNL     1     -11.212  11.433  68.042  1.00  0.00    -0.281 C  
HETATM   28  O   UNL     1     -12.219  11.174  68.685  1.00  0.00    -0.582 OA 
BRANCH  27  29
HETATM   29  O   UNL     1     -11.151  11.911  66.780  1.00  0.00    -0.276 OA 
HETATM   30  C   UNL     1     -10.925  13.324  66.539  1.00  0.00    -0.286 C  
HETATM   31  C   UNL     1     -12.008  14.196  67.182  1.00  0.00    -0.460 C  
HETATM   32  C   UNL     1      -9.519  13.733  66.995  1.00  0.00    -0.255 C  
HETATM   33  C   UNL     1     -11.014  13.479  65.012  1.00  0.00    -0.342 C  
ENDBRANCH  27  29
ENDBRANCH  26  27
ENDBRANCH  20  25
ENDBRANCH  13  19
ENDBRANCH   4   6
ENDBRANCH   3   4
ENDBRANCH   2   3
TORSDOF 10
ENDMDL
MODEL      173
REMARK 921   NORMALIZED FREE ENERGY PREDICTED BY IDOCK:   -1.13 KCAL/MOL
REMARK 922        TOTAL FREE ENERGY PREDICTED BY IDOCK:   -4.15 KCAL/MOL
REMARK 923 INTER-LIGAND FREE ENERGY PREDICTED BY IDOCK:   -4.27 KCAL/MOL
REMARK 924 INTRA-LIGAND FREE ENERGY PREDICTED BY IDOCK:    0.12 KCAL/MOL
REMARK 927      BINDING AFFINITY PREDICTED BY RF-SCORE:    0.00 PKD
ROOT
HETATM    1  C   UNL     1      -8.233   2.194  66.872  1.00  0.00    -0.081 C  
HETATM    2  C   UNL     1      -8.548   3.645  67.178  1.00  0.00    -0.108 C  
ENDROOT
BRANCH   2   3
HETATM    3  O   UNL     1      -7.908   4.021  68.411  1.00  0.00    -0.069 OA 
BRANCH   3   4
HETATM    4  C   UNL     1      -8.754   4.325  69.425  1.00  0.00    -0.087 C  
HETATM    5  O   UNL     1      -9.906   3.926  69.520  1.00  0.00    -0.177 OA 
BRANCH   4   6
HETATM    6  C   UNL     1      -8.118   5.222  70.419  1.00  0.00    -0.096 C  
HETATM    7  C   UNL     1      -8.550   5.183  71.704  1.00  0.00    -0.129 C  
HETATM    8  C   UNL     1      -9.498   4.171  72.307  1.00  0.00    -0.186 C  
HETATM    9  N   UNL     1      -8.119   6.144  72.600  1.00  0.00    -0.104 NA 
HETATM   10  C   UNL     1      -7.453   7.304  72.242  1.00  0.00    -0.083 C  
HETATM   11  C   UNL     1      -7.422   8.377  73.306  1.00  0.00    -0.111 C  
HETATM   12  C   UNL     1      -6.897   7.413  71.007  1.00  0.00    -0.054 C  
HETATM   13  C   UNL     1      -7.049   6.253  69.999  1.00  0.00    -0.072 C  
BRANCH  12  14
HETATM   14  C   UNL     1      -6.162   8.665  70.657  1.00  0.00    -0.037 C  
HETATM   15  O   UNL     1      -5.192   9.084  71.274  1.00  0.00    -0.032 OA 
BRANCH  14  16
HETATM   16  O   UNL     1      -6.681   9.276  69.564  1.00  0.00    -0.046 OA 
BRANCH  16  17
HETATM   17  C   UNL     1      -7.164  10.615  69.787  1.00  0.00    -0.131 C  
HETATM   18  C   UNL     1      -7.169  11.445  68.510  1.00  0.00    -0.093 C  
ENDBRANCH  16  17
ENDBRANCH  14  16
ENDBRANCH  12  14
BRANCH  13  19
HETATM   19  C   UNL     1      -7.149   6.703  68.533  1.00  0.00    -0.083 A  
HETATM   20  C   UNL     1      -8.263   7.356  67.970  1.00  0.00    -0.124 A  
HETATM   21  C   UNL     1      -8.193   7.772  66.625  1.00  0.00    -0.123 A  
HETATM   22  C   UNL     1      -6.007   6.479  67.720  1.00  0.00    -0.017 A  
HETATM   23  C   UNL     1      -5.960   6.900  66.395  1.00  0.00    -0.034 A  
HETATM   24  C   UNL     1      -7.051   7.556  65.849  1.00  0.00    -0.065 A  
BRANCH  20  25
HETATM   25  C   UNL     1      -9.516   7.567  68.716  1.00  0.00    -0.148 C  
HETATM   26  C   UNL     1      -9.809   8.715  69.346  1.00  0.00    -0.184 C  
BRANCH  26  27
HETATM   27  C   UNL     1     -11.097   8.994  70.012  1.00  0.00    -0.182 C  
HETATM   28  O   UNL     1     -11.542  10.130  70.080  1.00  0.00    -0.258 OA 
BRANCH  27  29
HETATM   29  O   UNL     1     -11.668   7.865  70.486  1.00  0.00    -0.213 OA 
HETATM   30  C   UNL     1     -12.210   7.825  71.832  1.00  0.00    -0.306 C  
HETATM   31  C   UNL     1     -11.146   8.138  72.888  1.00  0.00    -0.310 C  
HETATM   32  C   UNL     1     -13.425   8.752  71.955  1.00  0.00    -0.461 C  
HETATM   33  C   UNL     1     -12.675   6.372  72.022  1.00  0.00    -0.070 C  
ENDBRANCH  27  29
ENDBRANCH  26  27
ENDBRANCH  20  25
ENDBRANCH  13  19
ENDBRANCH   4   6
ENDBRANCH   3   4
ENDBRANCH   2   3
TORSDOF 10
ENDMDL
MODEL      174
REMARK 921   NORMALIZED FREE ENERGY PREDICTED BY IDOCK:   -1.08 KCAL/MOL
REMARK 922        TOTAL FREE ENERGY PREDICTED BY IDOCK:   -4.08 KCAL/MOL
REMARK 923 INTER-LIGAND FREE ENERGY PREDICTED BY IDOCK:   -6.42 KCAL/MOL
REMARK 924 INTRA-LIGAND FREE ENERGY PREDICTED BY IDOCK:    2.34 KCAL/MOL
REMARK 927      BINDING AFFINITY PREDICTED BY RF-SCORE:    0.00 PKD
ROOT
HETATM    1  C   UNL     1      -5.218  11.610  67.151  1.00  0.00    -0.096 C  
HETATM    2  C   UNL     1      -6.020  10.750  66.194  1.00  0.00    -0.134 C  
ENDROOT
BRANCH   2   3
HETATM    3  O   UNL     1      -5.722   9.363  66.437  1.00  0.00    -0.051 OA 
BRANCH   3   4
HETATM    4  C   UNL     1      -6.671   8.492  66.014  1.00  0.00    -0.057 C  
HETATM    5  O   UNL     1      -6.626   7.279  66.165  1.00  0.00    -0.050 OA 
BRANCH   4   6
HETATM    6  C   UNL     1      -7.786   9.186  65.326  1.00  0.00    -0.099 C  
HETATM    7  C   UNL     1      -7.565   9.715  64.097  1.00  0.00    -0.128 C  
HETATM    8  C   UNL     1      -6.341   9.514  63.233  1.00  0.00    -0.100 C  
HETATM    9  N   UNL     1      -8.520  10.537  63.525  1.00  0.00    -0.163 NA 
HETATM   10  C   UNL     1      -9.603  11.067  64.206  1.00  0.00    -0.262 C  
HETATM   11  C   UNL     1     -10.287  12.225  63.515  1.00  0.00    -0.443 C  
HETATM   12  C   UNL     1      -9.971  10.548  65.406  1.00  0.00    -0.353 C  
HETATM   13  C   UNL     1      -9.149   9.393  66.019  1.00  0.00    -0.228 C  
BRANCH  12  14
HETATM   14  C   UNL     1     -11.161  11.121  66.104  1.00  0.00    -0.085 C  
HETATM   15  O   UNL     1     -11.628  10.670  67.140  1.00  0.00    -0.321 OA 
BRANCH  14  16
HETATM   16  O   UNL     1     -11.653  12.212  65.468  1.00  0.00    -0.359 OA 
BRANCH  16  17
HETATM   17  C   UNL     1     -12.001  13.313  66.328  1.00  0.00    -0.417 C  
HETATM   18  C   UNL     1     -11.728  14.662  65.676  1.00  0.00    -0.304 C  
ENDBRANCH  16  17
ENDBRANCH  14  16
ENDBRANCH  12  14
BRANCH  13  19
HETATM   19  C   UNL     1      -9.079   9.417  67.554  1.00  0.00    -0.136 A  
HETATM   20  C   UNL     1      -8.863  10.574  68.327  1.00  0.00    -0.139 A  
HETATM   21  C   UNL     1      -8.889  10.462  69.732  1.00  0.00     0.036 A  
HETATM   22  C   UNL     1      -9.300   8.184  68.220  1.00  0.00    -0.137 A  
HETATM   23  C   UNL     1      -9.321   8.096  69.608  1.00  0.00    -0.159 A  
HETATM   24  C   UNL     1      -9.125   9.239  70.366  1.00  0.00    -0.288 A  
BRANCH  20  25
HETATM   25  C   UNL     1      -8.555  11.882  67.724  1.00  0.00    -0.154 C  
HETATM   26  C   UNL     1      -8.971  13.047  68.246  1.00  0.00    -0.177 C  
BRANCH  26  27
HETATM   27  C   UNL     1      -8.593  14.375  67.725  1.00  0.00    -0.171 C  
HETATM   28  O   UNL     1      -7.628  14.515  66.989  1.00  0.00    -0.091 OA 
BRANCH  27  29
HETATM   29  O   UNL     1      -9.438  15.339  68.154  1.00  0.00    -0.199 OA 
HETATM   30  C   UNL     1      -9.086  16.740  68.014  1.00  0.00    -0.228 C  
HETATM   31  C   UNL     1      -7.782  17.080  68.743  1.00  0.00    -0.249 C  
HETATM   32  C   UNL     1      -9.032  17.140  66.535  1.00  0.00    -0.300 C  
HETATM   33  C   UNL     1     -10.237  17.501  68.690  1.00  0.00    -0.373 C  
ENDBRANCH  27  29
ENDBRANCH  26  27
ENDBRANCH  20  25
ENDBRANCH  13  19
ENDBRANCH   4   6
ENDBRANCH   3   4
ENDBRANCH   2   3
TORSDOF 10
ENDMDL
MODEL      175
REMARK 921   NORMALIZED FREE ENERGY PREDICTED BY IDOCK:   -1.05 KCAL/MOL
REMARK 922        TOTAL FREE ENERGY PREDICTED BY IDOCK:   -4.04 KCAL/MOL
REMARK 923 INTER-LIGAND FREE ENERGY PREDICTED BY IDOCK:   -4.39 KCAL/MOL
REMARK 924 INTRA-LIGAND FREE ENERGY PREDICTED BY IDOCK:    0.36 KCAL/MOL
REMARK 927      BINDING AFFINITY PREDICTED BY RF-SCORE:    0.00 PKD
ROOT
HETATM    1  C   UNL     1     -10.256  18.244  67.605  1.00  0.00    -0.397 C  
HETATM    2  C   UNL     1     -10.905  17.160  66.766  1.00  0.00     0.022 C  
ENDROOT
BRANCH   2   3
HETATM    3  O   UNL     1     -10.008  16.040  66.660  1.00  0.00    -0.247 OA 
BRANCH   3   4
HETATM    4  C   UNL     1     -10.042  15.179  67.705  1.00  0.00    -0.230 C  
HETATM    5  O   UNL     1     -10.984  15.048  68.476  1.00  0.00    -0.239 OA 
BRANCH   4   6
HETATM    6  C   UNL     1      -8.783  14.405  67.820  1.00  0.00    -0.180 C  
HETATM    7  C   UNL     1      -7.670  14.875  67.206  1.00  0.00    -0.197 C  
HETATM    8  C   UNL     1      -7.500  16.231  66.558  1.00  0.00    -0.169 C  
HETATM    9  N   UNL     1      -6.542  14.076  67.128  1.00  0.00    -0.056 NA 
HETATM   10  C   UNL     1      -6.522  12.724  67.422  1.00  0.00    -0.137 C  
HETATM   11  C   UNL     1      -5.313  11.977  66.906  1.00  0.00    -0.049 C  
HETATM   12  C   UNL     1      -7.545  12.165  68.119  1.00  0.00    -0.125 C  
HETATM   13  C   UNL     1      -8.745  13.041  68.542  1.00  0.00    -0.042 C  
BRANCH  12  14
HETATM   14  C   UNL     1      -7.483  10.709  68.446  1.00  0.00    -0.093 C  
HETATM   15  O   UNL     1      -7.223   9.835  67.632  1.00  0.00    -0.087 OA 
BRANCH  14  16
HETATM   16  O   UNL     1      -7.731  10.467  69.757  1.00  0.00    -0.149 OA 
BRANCH  16  17
HETATM   17  C   UNL     1      -8.391   9.217  70.031  1.00  0.00    -0.150 C  
HETATM   18  C   UNL     1      -8.570   8.975  71.524  1.00  0.00    -0.111 C  
ENDBRANCH  16  17
ENDBRANCH  14  16
ENDBRANCH  12  14
BRANCH  13  19
HETATM   19  C   UNL     1     -10.090  12.299  68.560  1.00  0.00    -0.192 A  
HETATM   20  C   UNL     1     -10.709  11.737  67.426  1.00  0.00    -0.277 A  
HETATM   21  C   UNL     1     -11.913  11.024  67.597  1.00  0.00     0.322 A  
HETATM   22  C   UNL     1     -10.711  12.137  69.825  1.00  0.00     0.493 A  
HETATM   23  C   UNL     1     -11.900  11.430  69.971  1.00  0.00    -0.440 A  
HETATM   24  C   UNL     1     -12.497  10.864  68.856  1.00  0.00     0.380 A  
BRANCH  20  25
HETATM   25  C   UNL     1     -10.175  11.914  66.064  1.00  0.00    -0.262 C  
HETATM   26  C   UNL     1     -10.666  11.269  64.994  1.00  0.00    -0.322 C  
BRANCH  26  27
HETATM   27  C   UNL     1     -10.223  11.503  63.606  1.00  0.00    -0.405 C  
HETATM   28  O   UNL     1     -10.210  12.627  63.127  1.00  0.00    -0.202 OA 
BRANCH  27  29
HETATM   29  O   UNL     1      -9.850  10.354  63.000  1.00  0.00    -0.293 OA 
HETATM   30  C   UNL     1      -8.557   9.760  63.285  1.00  0.00    -0.200 C  
HETATM   31  C   UNL     1      -7.403  10.711  62.953  1.00  0.00     0.005 C  
HETATM   32  C   UNL     1      -8.493   9.272  64.737  1.00  0.00    -0.189 C  
HETATM   33  C   UNL     1      -8.472   8.543  62.350  1.00  0.00    -0.174 C  
ENDBRANCH  27  29
ENDBRANCH  26  27
ENDBRANCH  20  25
ENDBRANCH  13  19
ENDBRANCH   4   6
ENDBRANCH   3   4
ENDBRANCH   2   3
TORSDOF 10
ENDMDL
MODEL      176
REMARK 921   NORMALIZED FREE ENERGY PREDICTED BY IDOCK:   -1.01 KCAL/MOL
REMARK 922        TOTAL FREE ENERGY PREDICTED BY IDOCK:   -3.97 KCAL/MOL
REMARK 923 INTER-LIGAND FREE ENERGY PREDICTED BY IDOCK:   -3.75 KCAL/MOL
REMARK 924 INTRA-LIGAND FREE ENERGY PREDICTED BY IDOCK:   -0.22 KCAL/MOL
REMARK 927      BINDING AFFINITY PREDICTED BY RF-SCORE:    0.00 PKD
ROOT
HETATM    1  C   UNL     1     -10.026  10.225  62.764  1.00  0.00     0.152 C  
HETATM    2  C   UNL     1      -8.945  11.251  63.042  1.00  0.00    -0.173 C  
ENDROOT
BRANCH   2   3
HETATM    3  O   UNL     1      -8.747  11.361  64.463  1.00  0.00     0.157 OA 
BRANCH   3   4
HETATM    4  C   UNL     1      -9.068  10.252  65.172  1.00  0.00    -0.197 C  
HETATM    5  O   UNL     1     -10.153   9.689  65.141  1.00  0.00    -0.193 OA 
BRANCH   4   6
HETATM    6  C   UNL     1      -7.937   9.794  66.015  1.00  0.00    -0.111 C  
HETATM    7  C   UNL     1      -7.168   8.769  65.574  1.00  0.00    -0.084 C  
HETATM    8  C   UNL     1      -7.202   8.140  64.200  1.00  0.00    -0.086 C  
HETATM    9  N   UNL     1      -6.241   8.193  66.426  1.00  0.00    -0.045 NA 
HETATM   10  C   UNL     1      -6.187   8.421  67.790  1.00  0.00    -0.052 C  
HETATM   11  C   UNL     1      -5.372   7.417  68.573  1.00  0.00    -0.022 C  
HETATM   12  C   UNL     1      -6.846   9.480  68.328  1.00  0.00    -0.062 C  
HETATM   13  C   UNL     1      -7.685  10.399  67.413  1.00  0.00    -0.095 C  
BRANCH  12  14
HETATM   14  C   UNL     1      -6.748   9.717  69.800  1.00  0.00    -0.069 C  
HETATM   15  O   UNL     1      -7.545   9.280  70.618  1.00  0.00    -0.120 OA 
BRANCH  14  16
HETATM   16  O   UNL     1      -5.663  10.459  70.128  1.00  0.00    -0.047 OA 
BRANCH  16  17
HETATM   17  C   UNL     1      -5.928  11.574  71.000  1.00  0.00     0.305 C  
HETATM   18  C   UNL     1      -5.786  12.911  70.286  1.00  0.00    -0.162 C  
ENDBRANCH  16  17
ENDBRANCH  14  16
ENDBRANCH  12  14
BRANCH  13  19
HETATM   19  C   UNL     1      -8.938  10.981  68.084  1.00  0.00    -0.152 A  
HETATM   20  C   UNL     1      -9.869  10.230  68.828  1.00  0.00    -0.184 A  
HETATM   21  C   UNL     1     -10.941  10.905  69.446  1.00  0.00    -0.304 A  
HETATM   22  C   UNL     1      -9.125  12.383  67.976  1.00  0.00    -0.195 A  
HETATM   23  C   UNL     1     -10.191  13.029  68.595  1.00  0.00    -0.173 A  
HETATM   24  C   UNL     1     -11.095  12.289  69.339  1.00  0.00    -0.166 A  
BRANCH  20  25
HETATM   25  C   UNL     1      -9.796   8.762  68.936  1.00  0.00    -0.183 C  
HETATM   26  C   UNL     1     -10.208   7.934  67.962  1.00  0.00    -0.256 C  
BRANCH  26  27
HETATM   27  C   UNL     1     -10.052   6.467  67.997  1.00  0.00    -0.148 C  
HETATM   28  O   UNL     1     -10.845   5.732  67.426  1.00  0.00    -0.268 OA 
BRANCH  27  29
HETATM   29  O   UNL     1      -8.960   6.097  68.702  1.00  0.00    -0.126 OA 
HETATM   30  C   UNL     1      -9.075   5.142  69.789  1.00  0.00    -0.116 C  
HETATM   31  C   UNL     1     -10.036   5.627  70.879  1.00  0.00    -0.251 C  
HETATM   32  C   UNL     1      -9.470   3.760  69.257  1.00  0.00    -0.252 C  
HETATM   33  C   UNL     1      -7.661   5.058  70.386  1.00  0.00    -0.070 C  
ENDBRANCH  27  29
ENDBRANCH  26  27
ENDBRANCH  20  25
ENDBRANCH  13  19
ENDBRANCH   4   6
ENDBRANCH   3   4
ENDBRANCH   2   3
TORSDOF 10
ENDMDL
MODEL      177
REMARK 921   NORMALIZED FREE ENERGY PREDICTED BY IDOCK:   -0.98 KCAL/MOL
REMARK 922        TOTAL FREE ENERGY PREDICTED BY IDOCK:   -3.92 KCAL/MOL
REMARK 923 INTER-LIGAND FREE ENERGY PREDICTED BY IDOCK:   -4.52 KCAL/MOL
REMARK 924 INTRA-LIGAND FREE ENERGY PREDICTED BY IDOCK:    0.60 KCAL/MOL
REMARK 927      BINDING AFFINITY PREDICTED BY RF-SCORE:    0.00 PKD
ROOT
HETATM    1  C   UNL     1      -7.989   9.929  66.347  1.00  0.00    -0.111 C  
HETATM    2  C   UNL     1      -7.739   8.841  67.373  1.00  0.00    -0.097 C  
ENDROOT
BRANCH   2   3
HETATM    3  O   UNL     1      -8.813   8.834  68.330  1.00  0.00    -0.137 OA 
BRANCH   3   4
HETATM    4  C   UNL     1      -8.702   9.752  69.321  1.00  0.00    -0.164 C  
HETATM    5  O   UNL     1      -9.145  10.891  69.273  1.00  0.00    -0.110 OA 
BRANCH   4   6
HETATM    6  C   UNL     1      -7.960   9.214  70.487  1.00  0.00    -0.170 C  
HETATM    7  C   UNL     1      -6.607   9.165  70.432  1.00  0.00    -0.054 C  
HETATM    8  C   UNL     1      -5.722   9.785  69.375  1.00  0.00    -0.034 C  
HETATM    9  N   UNL     1      -5.908   8.486  71.415  1.00  0.00    -0.037 NA 
HETATM   10  C   UNL     1      -6.488   7.638  72.342  1.00  0.00    -0.056 C  
HETATM   11  C   UNL     1      -5.525   6.717  73.055  1.00  0.00    -0.038 C  
HETATM   12  C   UNL     1      -7.831   7.672  72.546  1.00  0.00    -0.119 C  
HETATM   13  C   UNL     1      -8.703   8.632  71.708  1.00  0.00    -0.266 C  
BRANCH  12  14
HETATM   14  C   UNL     1      -8.426   6.765  73.573  1.00  0.00    -0.121 C  
HETATM   15  O   UNL     1      -9.037   7.154  74.558  1.00  0.00    -0.211 OA 
BRANCH  14  16
HETATM   16  O   UNL     1      -8.229   5.457  73.277  1.00  0.00    -0.114 OA 
BRANCH  16  17
HETATM   17  C   UNL     1      -7.741   4.653  74.368  1.00  0.00    -0.088 C  
HETATM   18  C   UNL     1      -7.655   3.177  74.003  1.00  0.00    -0.060 C  
ENDBRANCH  16  17
ENDBRANCH  14  16
ENDBRANCH  12  14
BRANCH  13  19
HETATM   19  C   UNL     1     -10.108   8.093  71.394  1.00  0.00    -0.248 A  
HETATM   20  C   UNL     1     -10.372   6.836  70.818  1.00  0.00    -0.227 A  
HETATM   21  C   UNL     1     -11.714   6.441  70.645  1.00  0.00    -0.377 A  
HETATM   22  C   UNL     1     -11.202   8.917  71.765  1.00  0.00    -0.432 A  
HETATM   23  C   UNL     1     -12.519   8.506  71.586  1.00  0.00    -0.370 A  
HETATM   24  C   UNL     1     -12.776   7.262  71.034  1.00  0.00    -0.284 A  
BRANCH  20  25
HETATM   25  C   UNL     1      -9.302   5.945  70.337  1.00  0.00    -0.181 C  
HETATM   26  C   UNL     1      -8.620   6.164  69.201  1.00  0.00    -0.119 C  
BRANCH  26  27
HETATM   27  C   UNL     1      -7.475   5.350  68.748  1.00  0.00    -0.075 C  
HETATM   28  O   UNL     1      -6.572   5.841  68.087  1.00  0.00    -0.045 OA 
BRANCH  27  29
HETATM   29  O   UNL     1      -7.577   4.069  69.165  1.00  0.00    -0.054 OA 
HETATM   30  C   UNL     1      -6.617   3.074  68.724  1.00  0.00    -0.036 C  
HETATM   31  C   UNL     1      -6.595   2.934  67.199  1.00  0.00    -0.037 C  
HETATM   32  C   UNL     1      -5.224   3.377  69.288  1.00  0.00    -0.011 C  
HETATM   33  C   UNL     1      -7.118   1.752  69.329  1.00  0.00    -0.036 C  
ENDBRANCH  27  29
ENDBRANCH  26  27
ENDBRANCH  20  25
ENDBRANCH  13  19
ENDBRANCH   4   6
ENDBRANCH   3   4
ENDBRANCH   2   3
TORSDOF 10
ENDMDL
MODEL      178
REMARK 921   NORMALIZED FREE ENERGY PREDICTED BY IDOCK:   -0.96 KCAL/MOL
REMARK 922        TOTAL FREE ENERGY PREDICTED BY IDOCK:   -3.89 KCAL/MOL
REMARK 923 INTER-LIGAND FREE ENERGY PREDICTED BY IDOCK:   -4.54 KCAL/MOL
REMARK 924 INTRA-LIGAND FREE ENERGY PREDICTED BY IDOCK:    0.65 KCAL/MOL
REMARK 927      BINDING AFFINITY PREDICTED BY RF-SCORE:    0.00 PKD
ROOT
HETATM    1  C   UNL     1     -13.236  13.329  70.947  1.00  0.00     0.030 C  
HETATM    2  C   UNL     1     -11.787  13.150  70.537  1.00  0.00    -0.101 C  
ENDROOT
BRANCH   2   3
HETATM    3  O   UNL     1     -11.186  14.441  70.335  1.00  0.00    -0.155 OA 
BRANCH   3   4
HETATM    4  C   UNL     1     -10.072  14.438  69.563  1.00  0.00     0.163 C  
HETATM    5  O   UNL     1      -8.949  14.725  69.953  1.00  0.00     0.203 OA 
BRANCH   4   6
HETATM    6  C   UNL     1     -10.375  14.053  68.164  1.00  0.00    -0.241 C  
HETATM    7  C   UNL     1     -11.374  14.696  67.511  1.00  0.00    -0.348 C  
HETATM    8  C   UNL     1     -12.115  15.927  67.982  1.00  0.00     0.462 C  
HETATM    9  N   UNL     1     -11.808  14.220  66.286  1.00  0.00    -0.395 NA 
HETATM   10  C   UNL     1     -11.465  12.986  65.761  1.00  0.00    -0.332 C  
HETATM   11  C   UNL     1     -12.338  12.512  64.622  1.00  0.00    -0.547 C  
HETATM   12  C   UNL     1     -10.416  12.296  66.279  1.00  0.00    -0.266 C  
HETATM   13  C   UNL     1      -9.640  12.880  67.480  1.00  0.00    -0.200 C  
BRANCH  12  14
HETATM   14  C   UNL     1     -10.051  10.979  65.676  1.00  0.00    -0.256 C  
HETATM   15  O   UNL     1     -10.623   9.928  65.929  1.00  0.00    -0.079 OA 
BRANCH  14  16
HETATM   16  O   UNL     1      -9.024  11.085  64.798  1.00  0.00    -0.175 OA 
BRANCH  16  17
HETATM   17  C   UNL     1      -9.314  10.625  63.463  1.00  0.00    -0.290 C  
HETATM   18  C   UNL     1      -8.096  10.698  62.552  1.00  0.00    -0.205 C  
ENDBRANCH  16  17
ENDBRANCH  14  16
ENDBRANCH  12  14
BRANCH  13  19
HETATM   19  C   UNL     1      -9.097  11.822  68.453  1.00  0.00    -0.176 A  
HETATM   20  C   UNL     1      -7.796  11.824  68.993  1.00  0.00     0.064 A  
HETATM   21  C   UNL     1      -7.452  10.827  69.928  1.00  0.00     0.060 A  
HETATM   22  C   UNL     1     -10.003  10.810  68.862  1.00  0.00    -0.213 A  
HETATM   23  C   UNL     1      -9.642   9.836  69.787  1.00  0.00    -0.256 A  
HETATM   24  C   UNL     1      -8.366   9.850  70.328  1.00  0.00    -0.085 A  
BRANCH  20  25
HETATM   25  C   UNL     1      -6.767  12.792  68.574  1.00  0.00    -0.090 C  
HETATM   26  C   UNL     1      -7.060  14.014  68.102  1.00  0.00    -0.125 C  
BRANCH  26  27
HETATM   27  C   UNL     1      -6.053  15.042  67.773  1.00  0.00    -0.135 C  
HETATM   28  O   UNL     1      -5.134  14.805  67.002  1.00  0.00     0.106 OA 
BRANCH  27  29
HETATM   29  O   UNL     1      -6.303  16.208  68.408  1.00  0.00    -0.108 OA 
HETATM   30  C   UNL     1      -6.451  17.439  67.654  1.00  0.00    -0.150 C  
HETATM   31  C   UNL     1      -5.200  17.761  66.831  1.00  0.00    -0.163 C  
HETATM   32  C   UNL     1      -7.710  17.392  66.781  1.00  0.00    -0.273 C  
HETATM   33  C   UNL     1      -6.629  18.532  68.720  1.00  0.00    -0.267 C  
ENDBRANCH  27  29
ENDBRANCH  26  27
ENDBRANCH  20  25
ENDBRANCH  13  19
ENDBRANCH   4   6
ENDBRANCH   3   4
ENDBRANCH   2   3
TORSDOF 10
ENDMDL
MODEL      179
REMARK 921   NORMALIZED FREE ENERGY PREDICTED BY IDOCK:   -0.94 KCAL/MOL
REMARK 922        TOTAL FREE ENERGY PREDICTED BY IDOCK:   -3.86 KCAL/MOL
REMARK 923 INTER-LIGAND FREE ENERGY PREDICTED BY IDOCK:   -3.87 KCAL/MOL
REMARK 924 INTRA-LIGAND FREE ENERGY PREDICTED BY IDOCK:    0.01 KCAL/MOL
REMARK 927      BINDING AFFINITY PREDICTED BY RF-SCORE:    0.00 PKD
ROOT
HETATM    1  C   UNL     1     -10.795   5.135  66.320  1.00  0.00    -0.180 C  
HETATM    2  C   UNL     1     -11.024   5.049  67.817  1.00  0.00     0.834 C  
ENDROOT
BRANCH   2   3
HETATM    3  O   UNL     1     -10.692   6.311  68.422  1.00  0.00    -0.230 OA 
BRANCH   3   4
HETATM    4  C   UNL     1     -10.463   7.322  67.549  1.00  0.00    -0.266 C  
HETATM    5  O   UNL     1     -11.247   7.693  66.686  1.00  0.00     0.355 OA 
BRANCH   4   6
HETATM    6  C   UNL     1      -9.128   7.933  67.754  1.00  0.00    -0.138 C  
HETATM    7  C   UNL     1      -8.028   7.237  67.377  1.00  0.00    -0.112 C  
HETATM    8  C   UNL     1      -7.999   5.957  66.573  1.00  0.00    -0.102 C  
HETATM    9  N   UNL     1      -6.773   7.694  67.740  1.00  0.00    -0.065 NA 
HETATM   10  C   UNL     1      -6.544   8.693  68.671  1.00  0.00    -0.055 C  
HETATM   11  C   UNL     1      -5.129   8.763  69.196  1.00  0.00    -0.036 C  
HETATM   12  C   UNL     1      -7.559   9.512  69.051  1.00  0.00    -0.075 C  
HETATM   13  C   UNL     1      -8.972   9.293  68.467  1.00  0.00    -0.129 C  
BRANCH  12  14
HETATM   14  C   UNL     1      -7.277  10.599  70.036  1.00  0.00    -0.033 C  
HETATM   15  O   UNL     1      -6.785  10.411  71.139  1.00  0.00    -0.274 OA 
BRANCH  14  16
HETATM   16  O   UNL     1      -7.612  11.822  69.559  1.00  0.00     0.166 OA 
BRANCH  16  17
HETATM   17  C   UNL     1      -6.748  12.330  68.524  1.00  0.00    -0.076 C  
HETATM   18  C   UNL     1      -6.872  13.839  68.358  1.00  0.00    -0.101 C  
ENDBRANCH  16  17
ENDBRANCH  14  16
ENDBRANCH  12  14
BRANCH  13  19
HETATM   19  C   UNL     1     -10.113   9.631  69.439  1.00  0.00    -0.213 A  
HETATM   20  C   UNL     1     -10.275   9.054  70.714  1.00  0.00    -0.305 A  
HETATM   21  C   UNL     1     -11.332   9.506  71.530  1.00  0.00    -0.456 A  
HETATM   22  C   UNL     1     -11.028  10.631  69.023  1.00  0.00    -0.295 A  
HETATM   23  C   UNL     1     -12.064  11.062  69.845  1.00  0.00    -0.435 A  
HETATM   24  C   UNL     1     -12.211  10.505  71.105  1.00  0.00    -0.496 A  
BRANCH  20  25
HETATM   25  C   UNL     1      -9.417   7.960  71.202  1.00  0.00    -0.180 C  
HETATM   26  C   UNL     1      -8.629   8.073  72.283  1.00  0.00    -0.212 C  
BRANCH  26  27
HETATM   27  C   UNL     1      -7.840   6.965  72.857  1.00  0.00    -0.093 C  
HETATM   28  O   UNL     1      -7.025   7.162  73.746  1.00  0.00    -0.076 OA 
BRANCH  27  29
HETATM   29  O   UNL     1      -8.154   5.781  72.286  1.00  0.00    -0.106 OA 
HETATM   30  C   UNL     1      -8.639   4.679  73.098  1.00  0.00    -0.102 C  
HETATM   31  C   UNL     1      -7.633   4.279  74.182  1.00  0.00    -0.080 C  
HETATM   32  C   UNL     1     -10.014   5.007  73.690  1.00  0.00    -0.185 C  
HETATM   33  C   UNL     1      -8.790   3.507  72.115  1.00  0.00    -0.122 C  
ENDBRANCH  27  29
ENDBRANCH  26  27
ENDBRANCH  20  25
ENDBRANCH  13  19
ENDBRANCH   4   6
ENDBRANCH   3   4
ENDBRANCH   2   3
TORSDOF 10
ENDMDL
MODEL      180
REMARK 921   NORMALIZED FREE ENERGY PREDICTED BY IDOCK:   -0.77 KCAL/MOL
REMARK 922        TOTAL FREE ENERGY PREDICTED BY IDOCK:   -3.58 KCAL/MOL
REMARK 923 INTER-LIGAND FREE ENERGY PREDICTED BY IDOCK:   -3.78 KCAL/MOL
REMARK 924 INTRA-LIGAND FREE ENERGY PREDICTED BY IDOCK:    0.20 KCAL/MOL
REMARK 927      BINDING AFFINITY PREDICTED BY RF-SCORE:    0.00 PKD
ROOT
HETATM    1  C   UNL     1     -10.832  12.376  66.281  1.00  0.00    -0.299 C  
HETATM    2  C   UNL     1     -11.874  11.433  66.853  1.00  0.00     0.359 C  
ENDROOT
BRANCH   2   3
HETATM    3  O   UNL     1     -11.214  10.343  67.520  1.00  0.00    -0.314 OA 
BRANCH   3   4
HETATM    4  C   UNL     1     -10.014   9.994  66.997  1.00  0.00    -0.205 C  
HETATM    5  O   UNL     1      -9.772   9.899  65.801  1.00  0.00    -0.226 OA 
BRANCH   4   6
HETATM    6  C   UNL     1      -9.011   9.725  68.054  1.00  0.00    -0.118 C  
HETATM    7  C   UNL     1      -8.328  10.768  68.587  1.00  0.00    -0.141 C  
HETATM    8  C   UNL     1      -8.607  12.238  68.365  1.00  0.00    -0.136 C  
HETATM    9  N   UNL     1      -7.252  10.526  69.422  1.00  0.00    -0.102 NA 
HETATM   10  C   UNL     1      -6.651   9.290  69.584  1.00  0.00    -0.043 C  
HETATM   11  C   UNL     1      -5.282   9.324  70.223  1.00  0.00    -0.027 C  
HETATM   12  C   UNL     1      -7.291   8.165  69.171  1.00  0.00    -0.082 C  
HETATM   13  C   UNL     1      -8.671   8.283  68.486  1.00  0.00    -0.133 C  
BRANCH  12  14
HETATM   14  C   UNL     1      -6.631   6.842  69.383  1.00  0.00    -0.048 C  
HETATM   15  O   UNL     1      -6.695   6.205  70.425  1.00  0.00    -0.049 OA 
BRANCH  14  16
HETATM   16  O   UNL     1      -5.968   6.417  68.280  1.00  0.00    -0.015 OA 
BRANCH  16  17
HETATM   17  C   UNL     1      -5.655   5.011  68.262  1.00  0.00    -0.016 C  
HETATM   18  C   UNL     1      -5.126   4.557  66.908  1.00  0.00    -0.008 C  
ENDBRANCH  16  17
ENDBRANCH  14  16
ENDBRANCH  12  14
BRANCH  13  19
HETATM   19  C   UNL     1      -8.928   7.223  67.404  1.00  0.00    -0.122 A  
HETATM   20  C   UNL     1     -10.077   6.409  67.338  1.00  0.00    -0.198 A  
HETATM   21  C   UNL     1     -10.214   5.523  66.250  1.00  0.00    -0.200 A  
HETATM   22  C   UNL     1      -7.951   7.106  66.382  1.00  0.00    -0.112 A  
HETATM   23  C   UNL     1      -8.108   6.225  65.318  1.00  0.00    -0.132 A  
HETATM   24  C   UNL     1      -9.246   5.438  65.247  1.00  0.00    -0.009 A  
BRANCH  20  25
HETATM   25  C   UNL     1     -11.108   6.410  68.389  1.00  0.00    -0.374 C  
HETATM   26  C   UNL     1     -10.865   6.035  69.655  1.00  0.00    -0.439 C  
BRANCH  26  27
HETATM   27  C   UNL     1     -11.848   6.123  70.753  1.00  0.00     0.006 C  
HETATM   28  O   UNL     1     -12.640   7.052  70.820  1.00  0.00    -0.314 OA 
BRANCH  27  29
HETATM   29  O   UNL     1     -11.744   5.078  71.602  1.00  0.00     0.625 OA 
HETATM   30  C   UNL     1     -10.646   5.005  72.548  1.00  0.00    -0.219 C  
HETATM   31  C   UNL     1      -9.284   5.011  71.848  1.00  0.00    -0.164 C  
HETATM   32  C   UNL     1     -10.755   6.123  73.592  1.00  0.00    -0.234 C  
HETATM   33  C   UNL     1     -10.827   3.651  73.253  1.00  0.00    -0.290 C  
ENDBRANCH  27  29
ENDBRANCH  26  27
ENDBRANCH  20  25
ENDBRANCH  13  19
ENDBRANCH   4   6
ENDBRANCH   3   4
ENDBRANCH   2   3
TORSDOF 10
ENDMDL
MODEL      181
REMARK 921   NORMALIZED FREE ENERGY PREDICTED BY IDOCK:   -0.75 KCAL/MOL
REMARK 922        TOTAL FREE ENERGY PREDICTED BY IDOCK:   -3.55 KCAL/MOL
REMARK 923 INTER-LIGAND FREE ENERGY PREDICTED BY IDOCK:   -5.39 KCAL/MOL
REMARK 924 INTRA-LIGAND FREE ENERGY PREDICTED BY IDOCK:    1.83 KCAL/MOL
REMARK 927      BINDING AFFINITY PREDICTED BY RF-SCORE:    0.00 PKD
ROOT
HETATM    1  C   UNL     1      -5.264  16.093  70.376  1.00  0.00    -0.178 C  
HETATM    2  C   UNL     1      -5.341  14.585  70.237  1.00  0.00    -0.105 C  
ENDROOT
BRANCH   2   3
HETATM    3  O   UNL     1      -6.168  14.253  69.108  1.00  0.00    -0.090 OA 
BRANCH   3   4
HETATM    4  C   UNL     1      -6.884  13.110  69.240  1.00  0.00    -0.024 C  
HETATM    5  O   UNL     1      -6.684  12.252  70.088  1.00  0.00     0.107 OA 
BRANCH   4   6
HETATM    6  C   UNL     1      -7.950  13.009  68.214  1.00  0.00    -0.151 C  
HETATM    7  C   UNL     1      -9.026  13.826  68.309  1.00  0.00    -0.186 C  
HETATM    8  C   UNL     1      -9.191  14.998  69.251  1.00  0.00    -0.159 C  
HETATM    9  N   UNL     1     -10.121  13.614  67.489  1.00  0.00    -0.235 NA 
HETATM   10  C   UNL     1     -10.315  12.477  66.724  1.00  0.00    -0.226 C  
HETATM   11  C   UNL     1     -11.726  12.280  66.221  1.00  0.00    -0.431 C  
HETATM   12  C   UNL     1      -9.277  11.634  66.486  1.00  0.00    -0.205 C  
HETATM   13  C   UNL     1      -7.895  11.934  67.107  1.00  0.00    -0.168 C  
BRANCH  12  14
HETATM   14  C   UNL     1      -9.509  10.428  65.635  1.00  0.00    -0.211 C  
HETATM   15  O   UNL     1      -8.756  10.066  64.742  1.00  0.00    -0.160 OA 
BRANCH  14  16
HETATM   16  O   UNL     1     -10.642   9.769  65.978  1.00  0.00    -0.082 OA 
BRANCH  16  17
HETATM   17  C   UNL     1     -10.523   8.912  67.130  1.00  0.00    -0.274 C  
HETATM   18  C   UNL     1     -10.159   7.483  66.750  1.00  0.00    -0.313 C  
ENDBRANCH  16  17
ENDBRANCH  14  16
ENDBRANCH  12  14
BRANCH  13  19
HETATM   19  C   UNL     1      -7.088  10.681  67.483  1.00  0.00    -0.089 A  
HETATM   20  C   UNL     1      -7.470   9.750  68.469  1.00  0.00    -0.079 A  
HETATM   21  C   UNL     1      -6.667   8.608  68.665  1.00  0.00    -0.059 A  
HETATM   22  C   UNL     1      -5.906  10.439  66.738  1.00  0.00    -0.058 A  
HETATM   23  C   UNL     1      -5.129   9.305  66.948  1.00  0.00    -0.035 A  
HETATM   24  C   UNL     1      -5.515   8.383  67.907  1.00  0.00    -0.035 A  
BRANCH  20  25
HETATM   25  C   UNL     1      -8.641   9.954  69.338  1.00  0.00    -0.180 C  
HETATM   26  C   UNL     1      -9.295   8.946  69.937  1.00  0.00    -0.172 C  
BRANCH  26  27
HETATM   27  C   UNL     1     -10.404   9.125  70.894  1.00  0.00    -0.280 C  
HETATM   28  O   UNL     1     -10.936  10.214  71.050  1.00  0.00    -0.291 OA 
BRANCH  27  29
HETATM   29  O   UNL     1     -10.721   7.967  71.514  1.00  0.00    -0.222 OA 
HETATM   30  C   UNL     1      -9.993   6.748  71.212  1.00  0.00    -0.176 C  
HETATM   31  C   UNL     1     -10.085   6.377  69.729  1.00  0.00    -0.211 C  
HETATM   32  C   UNL     1      -8.538   6.856  71.682  1.00  0.00    -0.117 C  
HETATM   33  C   UNL     1     -10.699   5.658  72.034  1.00  0.00    -0.291 C  
ENDBRANCH  27  29
ENDBRANCH  26  27
ENDBRANCH  20  25
ENDBRANCH  13  19
ENDBRANCH   4   6
ENDBRANCH   3   4
ENDBRANCH   2   3
TORSDOF 10
ENDMDL
MODEL      182
REMARK 921   NORMALIZED FREE ENERGY PREDICTED BY IDOCK:   -0.65 KCAL/MOL
REMARK 922        TOTAL FREE ENERGY PREDICTED BY IDOCK:   -3.40 KCAL/MOL
REMARK 923 INTER-LIGAND FREE ENERGY PREDICTED BY IDOCK:   -4.67 KCAL/MOL
REMARK 924 INTRA-LIGAND FREE ENERGY PREDICTED BY IDOCK:    1.27 KCAL/MOL
REMARK 927      BINDING AFFINITY PREDICTED BY RF-SCORE:    0.00 PKD
ROOT
HETATM    1  C   UNL     1      -5.216   8.353  64.792  1.00  0.00    -0.036 C  
HETATM    2  C   UNL     1      -5.980   7.146  65.301  1.00  0.00    -0.037 C  
ENDROOT
BRANCH   2   3
HETATM    3  O   UNL     1      -7.322   7.538  65.636  1.00  0.00    -0.064 OA 
BRANCH   3   4
HETATM    4  C   UNL     1      -7.444   8.230  66.794  1.00  0.00    -0.087 C  
HETATM    5  O   UNL     1      -6.571   8.331  67.645  1.00  0.00    -0.056 OA 
BRANCH   4   6
HETATM    6  C   UNL     1      -8.783   8.854  66.923  1.00  0.00    -0.128 C  
HETATM    7  C   UNL     1      -9.383   9.346  65.811  1.00  0.00    -0.239 C  
HETATM    8  C   UNL     1      -8.928   9.161  64.382  1.00  0.00    -0.104 C  
HETATM    9  N   UNL     1     -10.531  10.109  65.935  1.00  0.00    -0.135 NA 
HETATM   10  C   UNL     1     -11.004  10.621  67.131  1.00  0.00    -0.247 C  
HETATM   11  C   UNL     1     -12.027  11.725  66.992  1.00  0.00     0.066 C  
HETATM   12  C   UNL     1     -10.539  10.132  68.310  1.00  0.00    -0.262 C  
HETATM   13  C   UNL     1      -9.453   9.033  68.302  1.00  0.00    -0.156 C  
BRANCH  12  14
HETATM   14  C   UNL     1     -11.087  10.684  69.585  1.00  0.00    -0.284 C  
HETATM   15  O   UNL     1     -11.091  10.078  70.647  1.00  0.00    -0.298 OA 
BRANCH  14  16
HETATM   16  O   UNL     1     -11.564  11.943  69.435  1.00  0.00    -0.279 OA 
BRANCH  16  17
HETATM   17  C   UNL     1     -12.447  12.389  70.482  1.00  0.00    -0.187 C  
HETATM   18  C   UNL     1     -12.273  13.869  70.792  1.00  0.00    -0.441 C  
ENDBRANCH  16  17
ENDBRANCH  14  16
ENDBRANCH  12  14
BRANCH  13  19
HETATM   19  C   UNL     1      -8.466   9.116  69.477  1.00  0.00    -0.128 A  
HETATM   20  C   UNL     1      -8.222   8.073  70.391  1.00  0.00    -0.118 A  
HETATM   21  C   UNL     1      -7.239   8.262  71.384  1.00  0.00    -0.080 A  
HETATM   22  C   UNL     1      -7.724  10.319  69.601  1.00  0.00    -0.166 A  
HETATM   23  C   UNL     1      -6.758  10.483  70.589  1.00  0.00     0.145 A  
HETATM   24  C   UNL     1      -6.509   9.449  71.477  1.00  0.00     0.042 A  
BRANCH  20  25
HETATM   25  C   UNL     1      -8.993   6.818  70.384  1.00  0.00    -0.152 C  
HETATM   26  C   UNL     1      -8.488   5.649  69.956  1.00  0.00    -0.122 C  
BRANCH  26  27
HETATM   27  C   UNL     1      -9.198   4.358  70.033  1.00  0.00    -0.131 C  
HETATM   28  O   UNL     1      -9.020   3.487  69.194  1.00  0.00    -0.095 OA 
BRANCH  27  29
HETATM   29  O   UNL     1     -10.009   4.297  71.112  1.00  0.00    -0.189 OA 
HETATM   30  C   UNL     1      -9.658   3.466  72.249  1.00  0.00    -0.135 C  
HETATM   31  C   UNL     1      -9.503   1.993  71.857  1.00  0.00    -0.180 C  
HETATM   32  C   UNL     1      -8.405   4.004  72.948  1.00  0.00    -0.096 C  
HETATM   33  C   UNL     1     -10.853   3.592  73.208  1.00  0.00    -0.290 C  
ENDBRANCH  27  29
ENDBRANCH  26  27
ENDBRANCH  20  25
ENDBRANCH  13  19
ENDBRANCH   4   6
ENDBRANCH   3   4
ENDBRANCH   2   3
TORSDOF 10
ENDMDL
MODEL      183
REMARK 921   NORMALIZED FREE ENERGY PREDICTED BY IDOCK:   -0.60 KCAL/MOL
REMARK 922        TOTAL FREE ENERGY PREDICTED BY IDOCK:   -3.32 KCAL/MOL
REMARK 923 INTER-LIGAND FREE ENERGY PREDICTED BY IDOCK:   -2.49 KCAL/MOL
REMARK 924 INTRA-LIGAND FREE ENERGY PREDICTED BY IDOCK:   -0.83 KCAL/MOL
REMARK 927      BINDING AFFINITY PREDICTED BY RF-SCORE:    0.00 PKD
ROOT
HETATM    1  C   UNL     1     -12.182  12.485  67.096  1.00  0.00     0.087 C  
HETATM    2  C   UNL     1     -11.588  12.329  68.482  1.00  0.00    -0.310 C  
ENDROOT
BRANCH   2   3
HETATM    3  O   UNL     1     -10.917  13.546  68.852  1.00  0.00    -0.251 OA 
BRANCH   3   4
HETATM    4  C   UNL     1     -11.713  14.493  69.406  1.00  0.00    -0.318 C  
HETATM    5  O   UNL     1     -12.866  14.313  69.771  1.00  0.00    -0.121 OA 
BRANCH   4   6
HETATM    6  C   UNL     1     -11.019  15.799  69.513  1.00  0.00    -0.295 C  
HETATM    7  C   UNL     1     -11.360  16.638  70.522  1.00  0.00     0.123 C  
HETATM    8  C   UNL     1     -12.249  16.318  71.701  1.00  0.00    -0.264 C  
HETATM    9  N   UNL     1     -10.878  17.935  70.525  1.00  0.00     1.488 NA 
HETATM   10  C   UNL     1     -10.253  18.539  69.447  1.00  0.00     0.229 C  
HETATM   11  C   UNL     1     -10.161  20.045  69.525  1.00  0.00    -0.046 C  
HETATM   12  C   UNL     1      -9.787  17.781  68.420  1.00  0.00    -0.347 C  
HETATM   13  C   UNL     1      -9.995  16.251  68.449  1.00  0.00    -0.234 C  
BRANCH  12  14
HETATM   14  C   UNL     1      -9.093  18.456  67.283  1.00  0.00    -0.266 C  
HETATM   15  O   UNL     1      -9.673  19.008  66.358  1.00  0.00    -0.340 OA 
BRANCH  14  16
HETATM   16  O   UNL     1      -7.744  18.405  67.403  1.00  0.00    -0.220 OA 
BRANCH  16  17
HETATM   17  C   UNL     1      -7.013  18.846  66.243  1.00  0.00    -0.233 C  
HETATM   18  C   UNL     1      -6.184  17.727  65.625  1.00  0.00    -0.142 C  
ENDBRANCH  16  17
ENDBRANCH  14  16
ENDBRANCH  12  14
BRANCH  13  19
HETATM   19  C   UNL     1     -10.203  15.618  67.065  1.00  0.00    -0.274 A  
HETATM   20  C   UNL     1      -9.338  14.673  66.479  1.00  0.00    -0.313 A  
HETATM   21  C   UNL     1      -9.685  14.124  65.228  1.00  0.00    -0.060 A  
HETATM   22  C   UNL     1     -11.381  15.988  66.366  1.00  0.00     0.301 A  
HETATM   23  C   UNL     1     -11.705  15.433  65.133  1.00  0.00    -0.037 A  
HETATM   24  C   UNL     1     -10.860  14.492  64.566  1.00  0.00    -0.239 A  
BRANCH  20  25
HETATM   25  C   UNL     1      -8.059  14.282  67.096  1.00  0.00    -0.154 C  
HETATM   26  C   UNL     1      -7.478  13.090  66.889  1.00  0.00     0.302 C  
BRANCH  26  27
HETATM   27  C   UNL     1      -6.150  12.709  67.408  1.00  0.00    -0.141 C  
HETATM   28  O   UNL     1      -5.482  13.490  68.069  1.00  0.00    -0.101 OA 
BRANCH  27  29
HETATM   29  O   UNL     1      -5.825  11.442  67.068  1.00  0.00    -0.078 OA 
HETATM   30  C   UNL     1      -6.263  10.326  67.887  1.00  0.00    -0.059 C  
HETATM   31  C   UNL     1      -5.750  10.435  69.326  1.00  0.00    -0.037 C  
HETATM   32  C   UNL     1      -7.788  10.181  67.835  1.00  0.00    -0.101 C  
HETATM   33  C   UNL     1      -5.625   9.089  67.233  1.00  0.00    -0.042 C  
ENDBRANCH  27  29
ENDBRANCH  26  27
ENDBRANCH  20  25
ENDBRANCH  13  19
ENDBRANCH   4   6
ENDBRANCH   3   4
ENDBRANCH   2   3
TORSDOF 10
ENDMDL
MODEL      184
REMARK 921   NORMALIZED FREE ENERGY PREDICTED BY IDOCK:   -0.44 KCAL/MOL
REMARK 922        TOTAL FREE ENERGY PREDICTED BY IDOCK:   -3.06 KCAL/MOL
REMARK 923 INTER-LIGAND FREE ENERGY PREDICTED BY IDOCK:   -1.95 KCAL/MOL
REMARK 924 INTRA-LIGAND FREE ENERGY PREDICTED BY IDOCK:   -1.11 KCAL/MOL
REMARK 927      BINDING AFFINITY PREDICTED BY RF-SCORE:    0.00 PKD
ROOT
HETATM    1  C   UNL     1      -6.479   9.721  72.921  1.00  0.00     1.135 C  
HETATM    2  C   UNL     1      -6.551   8.207  72.966  1.00  0.00    -0.090 C  
ENDROOT
BRANCH   2   3
HETATM    3  O   UNL     1      -6.845   7.705  71.651  1.00  0.00    -0.052 OA 
BRANCH   3   4
HETATM    4  C   UNL     1      -8.027   8.117  71.132  1.00  0.00    -0.099 C  
HETATM    5  O   UNL     1      -8.863   8.780  71.732  1.00  0.00    -0.225 OA 
BRANCH   4   6
HETATM    6  C   UNL     1      -8.203   7.659  69.733  1.00  0.00    -0.131 C  
HETATM    7  C   UNL     1      -8.311   6.330  69.491  1.00  0.00    -0.118 C  
HETATM    8  C   UNL     1      -8.472   5.234  70.520  1.00  0.00    -0.120 C  
HETATM    9  N   UNL     1      -8.272   5.867  68.188  1.00  0.00    -0.108 NA 
HETATM   10  C   UNL     1      -7.892   6.632  67.098  1.00  0.00    -0.105 C  
HETATM   11  C   UNL     1      -7.549   5.845  65.855  1.00  0.00    -0.086 C  
HETATM   12  C   UNL     1      -7.841   7.985  67.203  1.00  0.00    -0.105 C  
HETATM   13  C   UNL     1      -8.171   8.656  68.555  1.00  0.00    -0.122 C  
BRANCH  12  14
HETATM   14  C   UNL     1      -7.454   8.787  66.004  1.00  0.00    -0.089 C  
HETATM   15  O   UNL     1      -6.300   9.058  65.706  1.00  0.00    -0.059 OA 
BRANCH  14  16
HETATM   16  O   UNL     1      -8.530   9.164  65.271  1.00  0.00    -0.136 OA 
BRANCH  16  17
HETATM   17  C   UNL     1      -9.410  10.102  65.920  1.00  0.00    -0.175 C  
HETATM   18  C   UNL     1     -10.878   9.783  65.668  1.00  0.00     0.884 C  
ENDBRANCH  16  17
ENDBRANCH  14  16
ENDBRANCH  12  14
BRANCH  13  19
HETATM   19  C   UNL     1      -7.370   9.937  68.834  1.00  0.00    -0.078 A  
HETATM   20  C   UNL     1      -7.941  11.208  69.042  1.00  0.00    -0.087 A  
HETATM   21  C   UNL     1      -7.090  12.287  69.354  1.00  0.00     0.133 A  
HETATM   22  C   UNL     1      -5.962   9.798  68.933  1.00  0.00    -0.038 A  
HETATM   23  C   UNL     1      -5.141  10.877  69.243  1.00  0.00    -0.041 A  
HETATM   24  C   UNL     1      -5.707  12.122  69.464  1.00  0.00    -0.087 A  
BRANCH  20  25
HETATM   25  C   UNL     1      -9.384  11.461  68.889  1.00  0.00    -0.044 C  
HETATM   26  C   UNL     1      -9.879  12.447  68.123  1.00  0.00    -0.213 C  
BRANCH  26  27
HETATM   27  C   UNL     1     -11.317  12.661  67.868  1.00  0.00    -0.288 C  
HETATM   28  O   UNL     1     -12.146  11.815  68.168  1.00  0.00    -0.556 OA 
BRANCH  27  29
HETATM   29  O   UNL     1     -11.550  13.865  67.300  1.00  0.00    -0.325 OA 
HETATM   30  C   UNL     1     -11.730  13.979  65.865  1.00  0.00    -0.366 C  
HETATM   31  C   UNL     1     -10.511  13.468  65.091  1.00  0.00    -0.375 C  
HETATM   32  C   UNL     1     -13.020  13.277  65.423  1.00  0.00    -0.171 C  
HETATM   33  C   UNL     1     -11.875  15.487  65.608  1.00  0.00     0.389 C  
ENDBRANCH  27  29
ENDBRANCH  26  27
ENDBRANCH  20  25
ENDBRANCH  13  19
ENDBRANCH   4   6
ENDBRANCH   3   4
ENDBRANCH   2   3
TORSDOF 10
ENDMDL
MODEL      185
REMARK 921   NORMALIZED FREE ENERGY PREDICTED BY IDOCK:   -0.27 KCAL/MOL
REMARK 922        TOTAL FREE ENERGY PREDICTED BY IDOCK:   -2.79 KCAL/MOL
REMARK 923 INTER-LIGAND FREE ENERGY PREDICTED BY IDOCK:   -3.35 KCAL/MOL
REMARK 924 INTRA-LIGAND FREE ENERGY PREDICTED BY IDOCK:    0.57 KCAL/MOL
REMARK 927      BINDING AFFINITY PREDICTED BY RF-SCORE:    0.00 PKD
ROOT
HETATM    1  C   UNL     1     -11.483  16.126  71.039  1.00  0.00    -0.424 C  
HETATM    2  C   UNL     1     -11.118  14.732  70.568  1.00  0.00    -0.092 C  
ENDROOT
BRANCH   2   3
HETATM    3  O   UNL     1     -10.291  14.826  69.395  1.00  0.00    -0.217 OA 
BRANCH   3   4
HETATM    4  C   UNL     1     -10.648  14.009  68.376  1.00  0.00    -0.254 C  
HETATM    5  O   UNL     1     -10.935  14.381  67.246  1.00  0.00    -0.285 OA 
BRANCH   4   6
HETATM    6  C   UNL     1     -10.664  12.586  68.793  1.00  0.00    -0.235 C  
HETATM    7  C   UNL     1     -11.724  12.125  69.501  1.00  0.00    -0.336 C  
HETATM    8  C   UNL     1     -13.022  12.855  69.762  1.00  0.00     0.921 C  
HETATM    9  N   UNL     1     -11.669  10.866  70.072  1.00  0.00    -0.313 NA 
HETATM   10  C   UNL     1     -10.515  10.109  70.185  1.00  0.00    -0.255 C  
HETATM   11  C   UNL     1     -10.597   8.963  71.167  1.00  0.00    -0.335 C  
HETATM   12  C   UNL     1      -9.420  10.426  69.447  1.00  0.00    -0.204 C  
HETATM   13  C   UNL     1      -9.461  11.658  68.516  1.00  0.00    -0.175 C  
BRANCH  12  14
HETATM   14  C   UNL     1      -8.199   9.575  69.567  1.00  0.00    -0.134 C  
HETATM   15  O   UNL     1      -7.296   9.783  70.366  1.00  0.00    -0.134 OA 
BRANCH  14  16
HETATM   16  O   UNL     1      -8.213   8.533  68.702  1.00  0.00    -0.119 OA 
BRANCH  16  17
HETATM   17  C   UNL     1      -7.362   7.428  69.064  1.00  0.00    -0.091 C  
HETATM   18  C   UNL     1      -8.043   6.469  70.032  1.00  0.00    -0.121 C  
ENDBRANCH  16  17
ENDBRANCH  14  16
ENDBRANCH  12  14
BRANCH  13  19
HETATM   19  C   UNL     1      -8.117  12.390  68.381  1.00  0.00    -0.143 A  
HETATM   20  C   UNL     1      -7.181  12.161  67.354  1.00  0.00    -0.147 A  
HETATM   21  C   UNL     1      -6.015  12.953  67.315  1.00  0.00     0.025 A  
HETATM   22  C   UNL     1      -7.843  13.398  69.341  1.00  0.00     0.595 A  
HETATM   23  C   UNL     1      -6.686  14.168  69.283  1.00  0.00    -0.122 A  
HETATM   24  C   UNL     1      -5.774  13.951  68.262  1.00  0.00    -0.111 A  
BRANCH  20  25
HETATM   25  C   UNL     1      -7.347  11.090  66.357  1.00  0.00    -0.128 C  
HETATM   26  C   UNL     1      -6.376  10.725  65.504  1.00  0.00    -0.026 C  
BRANCH  26  27
HETATM   27  C   UNL     1      -6.476   9.589  64.566  1.00  0.00    -0.093 C  
HETATM   28  O   UNL     1      -6.400   9.757  63.358  1.00  0.00    -0.103 OA 
BRANCH  27  29
HETATM   29  O   UNL     1      -6.639   8.417  65.218  1.00  0.00    -0.055 OA 
HETATM   30  C   UNL     1      -6.666   7.165  64.483  1.00  0.00    -0.046 C  
HETATM   31  C   UNL     1      -7.788   7.135  63.441  1.00  0.00    -0.104 C  
HETATM   32  C   UNL     1      -5.297   6.876  63.855  1.00  0.00    -0.028 C  
HETATM   33  C   UNL     1      -6.958   6.094  65.547  1.00  0.00    -0.060 C  
ENDBRANCH  27  29
ENDBRANCH  26  27
ENDBRANCH  20  25
ENDBRANCH  13  19
ENDBRANCH   4   6
ENDBRANCH   3   4
ENDBRANCH   2   3
TORSDOF 10
ENDMDL
MODEL      186
REMARK 921   NORMALIZED FREE ENERGY PREDICTED BY IDOCK:   -0.20 KCAL/MOL
REMARK 922        TOTAL FREE ENERGY PREDICTED BY IDOCK:   -2.68 KCAL/MOL
REMARK 923 INTER-LIGAND FREE ENERGY PREDICTED BY IDOCK:   -2.67 KCAL/MOL
REMARK 924 INTRA-LIGAND FREE ENERGY PREDICTED BY IDOCK:   -0.01 KCAL/MOL
REMARK 927      BINDING AFFINITY PREDICTED BY RF-SCORE:    0.00 PKD
ROOT
HETATM    1  C   UNL     1     -12.370  10.808  71.677  1.00  0.00    -0.292 C  
HETATM    2  C   UNL     1     -11.549  10.464  70.450  1.00  0.00    -0.337 C  
ENDROOT
BRANCH   2   3
HETATM    3  O   UNL     1     -10.383   9.723  70.849  1.00  0.00    -0.286 OA 
BRANCH   3   4
HETATM    4  C   UNL     1      -9.275   9.955  70.104  1.00  0.00    -0.135 C  
HETATM    5  O   UNL     1      -9.153  10.862  69.293  1.00  0.00    -0.110 OA 
BRANCH   4   6
HETATM    6  C   UNL     1      -8.210   8.961  70.381  1.00  0.00    -0.146 C  
HETATM    7  C   UNL     1      -6.945   9.230  69.974  1.00  0.00    -0.060 C  
HETATM    8  C   UNL     1      -6.432  10.542  69.426  1.00  0.00    -0.062 C  
HETATM    9  N   UNL     1      -5.981   8.239  70.037  1.00  0.00    -0.025 NA 
HETATM   10  C   UNL     1      -6.251   6.900  70.267  1.00  0.00    -0.031 C  
HETATM   11  C   UNL     1      -5.127   5.954  69.914  1.00  0.00    -0.005 C  
HETATM   12  C   UNL     1      -7.458   6.527  70.766  1.00  0.00    -0.087 C  
HETATM   13  C   UNL     1      -8.535   7.600  71.034  1.00  0.00    -0.116 C  
BRANCH  12  14
HETATM   14  C   UNL     1      -7.711   5.079  71.029  1.00  0.00    -0.087 C  
HETATM   15  O   UNL     1      -7.824   4.233  70.153  1.00  0.00    -0.052 OA 
BRANCH  14  16
HETATM   16  O   UNL     1      -7.783   4.804  72.355  1.00  0.00    -0.087 OA 
BRANCH  16  17
HETATM   17  C   UNL     1      -9.047   4.274  72.799  1.00  0.00    -0.113 C  
HETATM   18  C   UNL     1      -8.877   3.183  73.847  1.00  0.00    -0.076 C  
ENDBRANCH  16  17
ENDBRANCH  14  16
ENDBRANCH  12  14
BRANCH  13  19
HETATM   19  C   UNL     1      -9.975   7.118  70.803  1.00  0.00    -0.194 A  
HETATM   20  C   UNL     1     -10.510   6.767  69.548  1.00  0.00    -0.248 A  
HETATM   21  C   UNL     1     -11.830   6.276  69.489  1.00  0.00     0.273 A  
HETATM   22  C   UNL     1     -10.791   6.975  71.955  1.00  0.00    -0.253 A  
HETATM   23  C   UNL     1     -12.092   6.488  71.874  1.00  0.00    -0.388 A  
HETATM   24  C   UNL     1     -12.609   6.129  70.640  1.00  0.00     1.109 A  
BRANCH  20  25
HETATM   25  C   UNL     1      -9.763   6.948  68.291  1.00  0.00    -0.132 C  
HETATM   26  C   UNL     1      -9.175   5.935  67.635  1.00  0.00    -0.104 C  
BRANCH  26  27
HETATM   27  C   UNL     1      -8.510   6.068  66.324  1.00  0.00    -0.130 C  
HETATM   28  O   UNL     1      -8.396   7.156  65.779  1.00  0.00    -0.132 OA 
BRANCH  27  29
HETATM   29  O   UNL     1      -8.067   4.877  65.865  1.00  0.00    -0.106 OA 
HETATM   30  C   UNL     1      -8.829   4.141  64.874  1.00  0.00    -0.133 C  
HETATM   31  C   UNL     1     -10.243   3.813  65.365  1.00  0.00     0.031 C  
HETATM   32  C   UNL     1      -8.851   4.894  63.538  1.00  0.00    -0.074 C  
HETATM   33  C   UNL     1      -8.059   2.824  64.687  1.00  0.00    -0.086 C  
ENDBRANCH  27  29
ENDBRANCH  26  27
ENDBRANCH  20  25
ENDBRANCH  13  19
ENDBRANCH   4   6
ENDBRANCH   3   4
ENDBRANCH   2   3
TORSDOF 10
ENDMDL
MODEL      187
REMARK 921   NORMALIZED FREE ENERGY PREDICTED BY IDOCK:   -0.11 KCAL/MOL
REMARK 922        TOTAL FREE ENERGY PREDICTED BY IDOCK:   -2.54 KCAL/MOL
REMARK 923 INTER-LIGAND FREE ENERGY PREDICTED BY IDOCK:   -4.86 KCAL/MOL
REMARK 924 INTRA-LIGAND FREE ENERGY PREDICTED BY IDOCK:    2.32 KCAL/MOL
REMARK 927      BINDING AFFINITY PREDICTED BY RF-SCORE:    0.00 PKD
ROOT
HETATM    1  C   UNL     1     -11.043  14.854  70.182  1.00  0.00    -0.247 C  
HETATM    2  C   UNL     1     -10.138  14.976  68.972  1.00  0.00    -0.241 C  
ENDROOT
BRANCH   2   3
HETATM    3  O   UNL     1      -8.887  14.319  69.245  1.00  0.00     0.083 OA 
BRANCH   3   4
HETATM    4  C   UNL     1      -8.060  14.198  68.179  1.00  0.00    -0.148 C  
HETATM    5  O   UNL     1      -6.912  13.778  68.226  1.00  0.00    -0.086 OA 
BRANCH   4   6
HETATM    6  C   UNL     1      -8.711  14.650  66.925  1.00  0.00    -0.251 C  
HETATM    7  C   UNL     1      -8.837  15.981  66.699  1.00  0.00    -0.272 C  
HETATM    8  C   UNL     1      -8.207  17.097  67.501  1.00  0.00    -0.196 C  
HETATM    9  N   UNL     1      -9.615  16.424  65.644  1.00  0.00    -0.507 NA 
HETATM   10  C   UNL     1     -10.482  15.622  64.922  1.00  0.00    -0.229 C  
HETATM   11  C   UNL     1     -11.500  16.369  64.092  1.00  0.00     0.307 C  
HETATM   12  C   UNL     1     -10.381  14.270  65.001  1.00  0.00    -0.448 C  
HETATM   13  C   UNL     1      -9.322  13.639  65.931  1.00  0.00     0.046 C  
BRANCH  12  14
HETATM   14  C   UNL     1     -11.312  13.430  64.189  1.00  0.00    -0.364 C  
HETATM   15  O   UNL     1     -10.984  12.397  63.623  1.00  0.00    -0.410 OA 
BRANCH  14  16
HETATM   16  O   UNL     1     -12.570  13.933  64.168  1.00  0.00    -0.675 OA 
BRANCH  16  17
HETATM   17  C   UNL     1     -13.381  13.594  65.310  1.00  0.00     0.372 C  
HETATM   18  C   UNL     1     -12.920  14.305  66.575  1.00  0.00     0.702 C  
ENDBRANCH  16  17
ENDBRANCH  14  16
ENDBRANCH  12  14
BRANCH  13  19
HETATM   19  C   UNL     1      -9.755  12.311  66.569  1.00  0.00    -0.242 A  
HETATM   20  C   UNL     1      -9.043  11.100  66.459  1.00  0.00    -0.193 A  
HETATM   21  C   UNL     1      -9.522   9.970  67.152  1.00  0.00    -0.184 A  
HETATM   22  C   UNL     1     -10.932  12.339  67.361  1.00  0.00    -0.298 A  
HETATM   23  C   UNL     1     -11.386  11.211  68.036  1.00  0.00    -0.380 A  
HETATM   24  C   UNL     1     -10.674  10.026  67.939  1.00  0.00    -0.322 A  
BRANCH  20  25
HETATM   25  C   UNL     1      -7.853  10.958  65.603  1.00  0.00    -0.011 C  
HETATM   26  C   UNL     1      -7.537   9.817  64.969  1.00  0.00    -0.127 C  
BRANCH  26  27
HETATM   27  C   UNL     1      -6.412   9.674  64.024  1.00  0.00    -0.111 C  
HETATM   28  O   UNL     1      -5.555  10.540  63.925  1.00  0.00    -0.149 OA 
BRANCH  27  29
HETATM   29  O   UNL     1      -6.473   8.507  63.347  1.00  0.00    -0.084 OA 
HETATM   30  C   UNL     1      -6.728   7.262  64.049  1.00  0.00    -0.048 C  
HETATM   31  C   UNL     1      -5.669   6.980  65.120  1.00  0.00    -0.032 C  
HETATM   32  C   UNL     1      -8.145   7.250  64.634  1.00  0.00    -0.081 C  
HETATM   33  C   UNL     1      -6.630   6.176  62.966  1.00  0.00    -0.039 C  
ENDBRANCH  27  29
ENDBRANCH  26  27
ENDBRANCH  20  25
ENDBRANCH  13  19
ENDBRANCH   4   6
ENDBRANCH   3   4
ENDBRANCH   2   3
TORSDOF 10
ENDMDL
MODEL      188
REMARK 921   NORMALIZED FREE ENERGY PREDICTED BY IDOCK:   -0.06 KCAL/MOL
REMARK 922        TOTAL FREE ENERGY PREDICTED BY IDOCK:   -2.46 KCAL/MOL
REMARK 923 INTER-LIGAND FREE ENERGY PREDICTED BY IDOCK:   -4.36 KCAL/MOL
REMARK 924 INTRA-LIGAND FREE ENERGY PREDICTED BY IDOCK:    1.90 KCAL/MOL
REMARK 927      BINDING AFFINITY PREDICTED BY RF-SCORE:    0.00 PKD
ROOT
HETATM    1  C   UNL     1      -5.132  12.208  66.988  1.00  0.00    -0.032 C  
HETATM    2  C   UNL     1      -5.362  10.852  66.349  1.00  0.00    -0.099 C  
ENDROOT
BRANCH   2   3
HETATM    3  O   UNL     1      -6.193  10.054  67.210  1.00  0.00    -0.061 OA 
BRANCH   3   4
HETATM    4  C   UNL     1      -6.966   9.141  66.573  1.00  0.00    -0.080 C  
HETATM    5  O   UNL     1      -6.923   8.900  65.375  1.00  0.00    -0.078 OA 
BRANCH   4   6
HETATM    6  C   UNL     1      -7.894   8.460  67.508  1.00  0.00    -0.099 C  
HETATM    7  C   UNL     1      -8.795   7.580  67.007  1.00  0.00    -0.128 C  
HETATM    8  C   UNL     1      -8.847   7.046  65.594  1.00  0.00    -0.037 C  
HETATM    9  N   UNL     1      -9.799   7.089  67.824  1.00  0.00    -0.134 NA 
HETATM   10  C   UNL     1     -10.112   7.603  69.071  1.00  0.00    -0.198 C  
HETATM   11  C   UNL     1     -11.460   7.186  69.612  1.00  0.00    -0.047 C  
HETATM   12  C   UNL     1      -9.235   8.422  69.708  1.00  0.00    -0.157 C  
HETATM   13  C   UNL     1      -7.910   8.805  69.013  1.00  0.00    -0.096 C  
BRANCH  12  14
HETATM   14  C   UNL     1      -9.587   8.939  71.064  1.00  0.00    -0.255 C  
HETATM   15  O   UNL     1      -8.993   8.633  72.088  1.00  0.00    -0.243 OA 
BRANCH  14  16
HETATM   16  O   UNL     1     -10.631   9.803  71.028  1.00  0.00    -0.314 OA 
BRANCH  16  17
HETATM   17  C   UNL     1     -11.602   9.628  72.077  1.00  0.00     0.090 C  
HETATM   18  C   UNL     1     -12.907  10.355  71.781  1.00  0.00    -0.561 C  
ENDBRANCH  16  17
ENDBRANCH  14  16
ENDBRANCH  12  14
BRANCH  13  19
HETATM   19  C   UNL     1      -7.414  10.222  69.340  1.00  0.00    -0.128 A  
HETATM   20  C   UNL     1      -7.939  11.403  68.778  1.00  0.00    -0.122 A  
HETATM   21  C   UNL     1      -7.433  12.643  69.220  1.00  0.00     0.304 A  
HETATM   22  C   UNL     1      -6.390  10.328  70.316  1.00  0.00    -0.123 A  
HETATM   23  C   UNL     1      -5.907  11.563  70.737  1.00  0.00    -0.021 A  
HETATM   24  C   UNL     1      -6.436  12.723  70.195  1.00  0.00     0.176 A  
BRANCH  20  25
HETATM   25  C   UNL     1      -8.952  11.388  67.709  1.00  0.00    -0.147 C  
HETATM   26  C   UNL     1      -8.864  12.147  66.605  1.00  0.00    -0.182 C  
BRANCH  26  27
HETATM   27  C   UNL     1      -9.806  12.078  65.470  1.00  0.00    -0.229 C  
HETATM   28  O   UNL     1      -9.986  11.035  64.860  1.00  0.00    -0.245 OA 
BRANCH  27  29
HETATM   29  O   UNL     1     -10.403  13.268  65.244  1.00  0.00    -0.298 OA 
HETATM   30  C   UNL     1     -11.632  13.340  64.476  1.00  0.00    -0.369 C  
HETATM   31  C   UNL     1     -11.460  12.772  63.064  1.00  0.00     0.192 C  
HETATM   32  C   UNL     1     -12.782  12.659  65.228  1.00  0.00    -0.229 C  
HETATM   33  C   UNL     1     -11.936  14.843  64.364  1.00  0.00    -0.408 C  
ENDBRANCH  27  29
ENDBRANCH  26  27
ENDBRANCH  20  25
ENDBRANCH  13  19
ENDBRANCH   4   6
ENDBRANCH   3   4
ENDBRANCH   2   3
TORSDOF 10
ENDMDL
MODEL      189
REMARK 921   NORMALIZED FREE ENERGY PREDICTED BY IDOCK:   -0.02 KCAL/MOL
REMARK 922        TOTAL FREE ENERGY PREDICTED BY IDOCK:   -2.40 KCAL/MOL
REMARK 923 INTER-LIGAND FREE ENERGY PREDICTED BY IDOCK:   -3.64 KCAL/MOL
REMARK 924 INTRA-LIGAND FREE ENERGY PREDICTED BY IDOCK:    1.24 KCAL/MOL
REMARK 927      BINDING AFFINITY PREDICTED BY RF-SCORE:    0.00 PKD
ROOT
HETATM    1  C   UNL     1      -8.095  14.843  66.337  1.00  0.00     0.532 C  
HETATM    2  C   UNL     1      -8.303  15.591  67.639  1.00  0.00    -0.155 C  
ENDROOT
BRANCH   2   3
HETATM    3  O   UNL     1      -8.879  14.701  68.612  1.00  0.00    -0.177 OA 
BRANCH   3   4
HETATM    4  C   UNL     1      -8.475  13.411  68.516  1.00  0.00    -0.079 C  
HETATM    5  O   UNL     1      -7.318  13.048  68.354  1.00  0.00    -0.101 OA 
BRANCH   4   6
HETATM    6  C   UNL     1      -9.616  12.470  68.622  1.00  0.00    -0.029 C  
HETATM    7  C   UNL     1     -10.845  12.964  68.910  1.00  0.00    -0.200 C  
HETATM    8  C   UNL     1     -11.247  14.421  68.949  1.00  0.00    -0.284 C  
HETATM    9  N   UNL     1     -11.878  12.094  69.213  1.00  0.00    -0.318 NA 
HETATM   10  C   UNL     1     -11.712  10.747  69.481  1.00  0.00    -0.312 C  
HETATM   11  C   UNL     1     -12.888  10.080  70.156  1.00  0.00     0.131 C  
HETATM   12  C   UNL     1     -10.550  10.126  69.146  1.00  0.00    -0.247 C  
HETATM   13  C   UNL     1      -9.409  10.944  68.503  1.00  0.00    -0.181 C  
BRANCH  12  14
HETATM   14  C   UNL     1     -10.409   8.665  69.423  1.00  0.00    -0.218 C  
HETATM   15  O   UNL     1     -10.642   7.788  68.603  1.00  0.00    -0.192 OA 
BRANCH  14  16
HETATM   16  O   UNL     1      -9.973   8.422  70.683  1.00  0.00    -0.181 OA 
BRANCH  16  17
HETATM   17  C   UNL     1      -9.019   7.349  70.801  1.00  0.00    -0.151 C  
HETATM   18  C   UNL     1      -9.542   6.205  71.660  1.00  0.00    -0.166 C  
ENDBRANCH  16  17
ENDBRANCH  14  16
ENDBRANCH  12  14
BRANCH  13  19
HETATM   19  C   UNL     1      -8.000  10.468  68.887  1.00  0.00    -0.128 A  
HETATM   20  C   UNL     1      -7.042   9.985  67.974  1.00  0.00    -0.081 A  
HETATM   21  C   UNL     1      -5.762   9.642  68.456  1.00  0.00    -0.039 A  
HETATM   22  C   UNL     1      -7.642  10.576  70.256  1.00  0.00     0.371 A  
HETATM   23  C   UNL     1      -6.373  10.232  70.709  1.00  0.00    -0.030 A  
HETATM   24  C   UNL     1      -5.428   9.774  69.806  1.00  0.00    -0.033 A  
BRANCH  20  25
HETATM   25  C   UNL     1      -7.346   9.772  66.548  1.00  0.00    -0.095 C  
HETATM   26  C   UNL     1      -8.580   9.504  66.094  1.00  0.00    -0.143 C  
BRANCH  26  27
HETATM   27  C   UNL     1      -8.934   9.388  64.665  1.00  0.00    -0.187 C  
HETATM   28  O   UNL     1      -8.172   8.866  63.865  1.00  0.00    -0.159 OA 
BRANCH  27  29
HETATM   29  O   UNL     1     -10.156   9.905  64.410  1.00  0.00    -0.092 OA 
HETATM   30  C   UNL     1     -10.290  11.251  63.882  1.00  0.00    -0.381 C  
HETATM   31  C   UNL     1      -9.665  12.296  64.812  1.00  0.00    -0.033 C  
HETATM   32  C   UNL     1      -9.716  11.336  62.463  1.00  0.00    -0.046 C  
HETATM   33  C   UNL     1     -11.806  11.496  63.819  1.00  0.00    -0.237 C  
ENDBRANCH  27  29
ENDBRANCH  26  27
ENDBRANCH  20  25
ENDBRANCH  13  19
ENDBRANCH   4   6
ENDBRANCH   3   4
ENDBRANCH   2   3
TORSDOF 10
ENDMDL
MODEL      190
REMARK 921   NORMALIZED FREE ENERGY PREDICTED BY IDOCK:    0.06 KCAL/MOL
REMARK 922        TOTAL FREE ENERGY PREDICTED BY IDOCK:   -2.27 KCAL/MOL
REMARK 923 INTER-LIGAND FREE ENERGY PREDICTED BY IDOCK:   -3.51 KCAL/MOL
REMARK 924 INTRA-LIGAND FREE ENERGY PREDICTED BY IDOCK:    1.24 KCAL/MOL
REMARK 927      BINDING AFFINITY PREDICTED BY RF-SCORE:    0.00 PKD
ROOT
HETATM    1  C   UNL     1     -10.247   9.941  67.542  1.00  0.00    -0.265 C  
HETATM    2  C   UNL     1      -9.059   9.108  67.981  1.00  0.00    -0.131 C  
ENDROOT
BRANCH   2   3
HETATM    3  O   UNL     1      -7.933   9.972  68.217  1.00  0.00    -0.095 OA 
BRANCH   3   4
HETATM    4  C   UNL     1      -6.741   9.487  67.790  1.00  0.00    -0.067 C  
HETATM    5  O   UNL     1      -5.753  10.168  67.553  1.00  0.00    -0.045 OA 
BRANCH   4   6
HETATM    6  C   UNL     1      -6.773   8.014  67.631  1.00  0.00    -0.069 C  
HETATM    7  C   UNL     1      -7.314   7.491  66.503  1.00  0.00    -0.084 C  
HETATM    8  C   UNL     1      -7.729   8.252  65.264  1.00  0.00    -0.106 C  
HETATM    9  N   UNL     1      -7.539   6.128  66.420  1.00  0.00    -0.093 NA 
HETATM   10  C   UNL     1      -7.475   5.259  67.496  1.00  0.00    -0.084 C  
HETATM   11  C   UNL     1      -8.124   3.914  67.268  1.00  0.00    -0.091 C  
HETATM   12  C   UNL     1      -6.868   5.648  68.647  1.00  0.00    -0.059 C  
HETATM   13  C   UNL     1      -6.290   7.076  68.757  1.00  0.00    -0.028 C  
BRANCH  12  14
HETATM   14  C   UNL     1      -6.790   4.680  69.782  1.00  0.00    -0.044 C  
HETATM   15  O   UNL     1      -6.037   4.806  70.737  1.00  0.00    -0.017 OA 
BRANCH  14  16
HETATM   16  O   UNL     1      -7.663   3.654  69.642  1.00  0.00    -0.051 OA 
BRANCH  16  17
HETATM   17  C   UNL     1      -8.043   3.005  70.871  1.00  0.00    -0.053 C  
HETATM   18  C   UNL     1      -9.457   3.369  71.302  1.00  0.00    -0.224 C  
ENDBRANCH  16  17
ENDBRANCH  14  16
ENDBRANCH  12  14
BRANCH  13  19
HETATM   19  C   UNL     1      -6.379   7.684  70.166  1.00  0.00    -0.034 A  
HETATM   20  C   UNL     1      -7.542   7.693  70.961  1.00  0.00    -0.083 A  
HETATM   21  C   UNL     1      -7.465   8.227  72.264  1.00  0.00    -0.149 A  
HETATM   22  C   UNL     1      -5.182   8.224  70.703  1.00  0.00    -0.022 A  
HETATM   23  C   UNL     1      -5.129   8.745  71.991  1.00  0.00    -0.041 A  
HETATM   24  C   UNL     1      -6.270   8.738  72.777  1.00  0.00    -0.039 A  
BRANCH  20  25
HETATM   25  C   UNL     1      -8.845   7.220  70.462  1.00  0.00    -0.153 C  
HETATM   26  C   UNL     1     -10.000   7.435  71.111  1.00  0.00    -0.188 C  
BRANCH  26  27
HETATM   27  C   UNL     1     -11.330   7.065  70.588  1.00  0.00    -0.307 C  
HETATM   28  O   UNL     1     -11.620   5.899  70.363  1.00  0.00    -0.183 OA 
BRANCH  27  29
HETATM   29  O   UNL     1     -12.121   8.148  70.423  1.00  0.00     0.042 OA 
HETATM   30  C   UNL     1     -13.110   8.496  71.426  1.00  0.00    -0.230 C  
HETATM   31  C   UNL     1     -14.121   7.368  71.651  1.00  0.00    -0.552 C  
HETATM   32  C   UNL     1     -12.429   8.920  72.733  1.00  0.00    -0.068 C  
HETATM   33  C   UNL     1     -13.852   9.708  70.839  1.00  0.00     0.100 C  
ENDBRANCH  27  29
ENDBRANCH  26  27
ENDBRANCH  20  25
ENDBRANCH  13  19
ENDBRANCH   4   6
ENDBRANCH   3   4
ENDBRANCH   2   3
TORSDOF 10
ENDMDL
MODEL      191
REMARK 921   NORMALIZED FREE ENERGY PREDICTED BY IDOCK:    0.26 KCAL/MOL
REMARK 922        TOTAL FREE ENERGY PREDICTED BY IDOCK:   -1.96 KCAL/MOL
REMARK 923 INTER-LIGAND FREE ENERGY PREDICTED BY IDOCK:   -2.62 KCAL/MOL
REMARK 924 INTRA-LIGAND FREE ENERGY PREDICTED BY IDOCK:    0.66 KCAL/MOL
REMARK 927      BINDING AFFINITY PREDICTED BY RF-SCORE:    0.00 PKD
ROOT
HETATM    1  C   UNL     1     -12.448  10.833  71.848  1.00  0.00    -0.130 C  
HETATM    2  C   UNL     1     -11.448  10.352  70.815  1.00  0.00    -0.332 C  
ENDROOT
BRANCH   2   3
HETATM    3  O   UNL     1     -10.469   9.513  71.454  1.00  0.00    -0.317 OA 
BRANCH   3   4
HETATM    4  C   UNL     1      -9.195   9.700  71.034  1.00  0.00     0.251 C  
HETATM    5  O   UNL     1      -8.805  10.657  70.380  1.00  0.00     0.703 OA 
BRANCH   4   6
HETATM    6  C   UNL     1      -8.309   8.587  71.456  1.00  0.00    -0.210 C  
HETATM    7  C   UNL     1      -6.975   8.702  71.250  1.00  0.00    -0.082 C  
HETATM    8  C   UNL     1      -6.232   9.941  70.804  1.00  0.00    -0.093 C  
HETATM    9  N   UNL     1      -6.156   7.603  71.446  1.00  0.00    -0.035 NA 
HETATM   10  C   UNL     1      -6.614   6.308  71.614  1.00  0.00    -0.055 C  
HETATM   11  C   UNL     1      -5.570   5.232  71.424  1.00  0.00    -0.009 C  
HETATM   12  C   UNL     1      -7.919   6.083  71.918  1.00  0.00    -0.107 C  
HETATM   13  C   UNL     1      -8.889   7.279  72.034  1.00  0.00    -0.138 C  
BRANCH  12  14
HETATM   14  C   UNL     1      -8.379   4.676  72.121  1.00  0.00    -0.117 C  
HETATM   15  O   UNL     1      -8.355   3.817  71.252  1.00  0.00    -0.070 OA 
BRANCH  14  16
HETATM   16  O   UNL     1      -8.811   4.456  73.386  1.00  0.00    -0.102 OA 
BRANCH  16  17
HETATM   17  C   UNL     1     -10.220   4.184  73.511  1.00  0.00    -0.153 C  
HETATM   18  C   UNL     1     -10.510   3.110  74.551  1.00  0.00    -0.215 C  
ENDBRANCH  16  17
ENDBRANCH  14  16
ENDBRANCH  12  14
BRANCH  13  19
HETATM   19  C   UNL     1     -10.325   6.970  71.580  1.00  0.00    -0.216 A  
HETATM   20  C   UNL     1     -10.699   6.679  70.253  1.00  0.00    -0.294 A  
HETATM   21  C   UNL     1     -12.044   6.348  69.989  1.00  0.00     0.205 A  
HETATM   22  C   UNL     1     -11.318   6.933  72.592  1.00  0.00    -0.272 A  
HETATM   23  C   UNL     1     -12.639   6.604  72.308  1.00  0.00    -0.058 A  
HETATM   24  C   UNL     1     -13.001   6.301  71.005  1.00  0.00     0.867 A  
BRANCH  20  25
HETATM   25  C   UNL     1      -9.752   6.762  69.128  1.00  0.00    -0.147 C  
HETATM   26  C   UNL     1     -10.020   7.427  67.993  1.00  0.00    -0.195 C  
BRANCH  26  27
HETATM   27  C   UNL     1      -9.054   7.616  66.892  1.00  0.00    -0.144 C  
HETATM   28  O   UNL     1      -7.943   7.109  66.931  1.00  0.00    -0.111 OA 
BRANCH  27  29
HETATM   29  O   UNL     1      -9.569   8.375  65.900  1.00  0.00    -0.173 OA 
HETATM   30  C   UNL     1      -9.311   9.803  65.857  1.00  0.00    -0.205 C  
HETATM   31  C   UNL     1      -9.804  10.513  67.122  1.00  0.00    -0.213 C  
HETATM   32  C   UNL     1      -7.826  10.077  65.592  1.00  0.00    -0.138 C  
HETATM   33  C   UNL     1     -10.129  10.312  64.660  1.00  0.00    -0.317 C  
ENDBRANCH  27  29
ENDBRANCH  26  27
ENDBRANCH  20  25
ENDBRANCH  13  19
ENDBRANCH   4   6
ENDBRANCH   3   4
ENDBRANCH   2   3
TORSDOF 10
ENDMDL
MODEL      192
REMARK 921   NORMALIZED FREE ENERGY PREDICTED BY IDOCK:    0.26 KCAL/MOL
REMARK 922        TOTAL FREE ENERGY PREDICTED BY IDOCK:   -1.96 KCAL/MOL
REMARK 923 INTER-LIGAND FREE ENERGY PREDICTED BY IDOCK:   -1.31 KCAL/MOL
REMARK 924 INTRA-LIGAND FREE ENERGY PREDICTED BY IDOCK:   -0.64 KCAL/MOL
REMARK 927      BINDING AFFINITY PREDICTED BY RF-SCORE:    0.00 PKD
ROOT
HETATM    1  C   UNL     1      -9.841   8.522  69.473  1.00  0.00    -0.187 C  
HETATM    2  C   UNL     1     -11.112   7.704  69.347  1.00  0.00     0.027 C  
ENDROOT
BRANCH   2   3
HETATM    3  O   UNL     1     -10.899   6.635  68.408  1.00  0.00    -0.239 OA 
BRANCH   3   4
HETATM    4  C   UNL     1     -10.219   6.984  67.289  1.00  0.00    -0.234 C  
HETATM    5  O   UNL     1     -10.162   8.116  66.827  1.00  0.00    -0.280 OA 
BRANCH   4   6
HETATM    6  C   UNL     1      -9.547   5.817  66.669  1.00  0.00    -0.168 C  
HETATM    7  C   UNL     1     -10.304   4.894  66.026  1.00  0.00    -0.271 C  
HETATM    8  C   UNL     1     -11.773   5.007  65.687  1.00  0.00     1.542 C  
HETATM    9  N   UNL     1      -9.729   3.703  65.619  1.00  0.00    -0.144 NA 
HETATM   10  C   UNL     1      -8.481   3.260  66.021  1.00  0.00    -0.111 C  
HETATM   11  C   UNL     1      -8.217   1.791  65.781  1.00  0.00    -0.084 C  
HETATM   12  C   UNL     1      -7.604   4.127  66.592  1.00  0.00    -0.089 C  
HETATM   13  C   UNL     1      -8.027   5.594  66.823  1.00  0.00    -0.102 C  
BRANCH  12  14
HETATM   14  C   UNL     1      -6.254   3.628  66.991  1.00  0.00    -0.035 C  
HETATM   15  O   UNL     1      -5.866   3.555  68.148  1.00  0.00    -0.024 OA 
BRANCH  14  16
HETATM   16  O   UNL     1      -5.512   3.246  65.923  1.00  0.00    -0.015 OA 
BRANCH  16  17
HETATM   17  C   UNL     1      -5.269   4.280  64.950  1.00  0.00    -0.009 C  
HETATM   18  C   UNL     1      -5.332   3.754  63.522  1.00  0.00    -0.009 C  
ENDBRANCH  16  17
ENDBRANCH  14  16
ENDBRANCH  12  14
BRANCH  13  19
HETATM   19  C   UNL     1      -7.421   6.233  68.082  1.00  0.00    -0.090 A  
HETATM   20  C   UNL     1      -7.586   5.736  69.390  1.00  0.00    -0.088 A  
HETATM   21  C   UNL     1      -6.917   6.385  70.448  1.00  0.00    -0.063 A  
HETATM   22  C   UNL     1      -6.600   7.373  67.885  1.00  0.00    -0.054 A  
HETATM   23  C   UNL     1      -5.949   7.997  68.944  1.00  0.00    -0.039 A  
HETATM   24  C   UNL     1      -6.100   7.496  70.227  1.00  0.00    -0.027 A  
BRANCH  20  25
HETATM   25  C   UNL     1      -8.474   4.602  69.699  1.00  0.00    -0.088 C  
HETATM   26  C   UNL     1      -8.103   3.570  70.473  1.00  0.00    -0.063 C  
BRANCH  26  27
HETATM   27  C   UNL     1      -9.001   2.473  70.885  1.00  0.00    -0.092 C  
HETATM   28  O   UNL     1      -9.617   1.815  70.060  1.00  0.00    -0.090 OA 
BRANCH  27  29
HETATM   29  O   UNL     1      -9.020   2.320  72.228  1.00  0.00    -0.071 OA 
HETATM   30  C   UNL     1      -9.960   3.070  73.040  1.00  0.00    -0.125 C  
HETATM   31  C   UNL     1      -9.786   4.582  72.872  1.00  0.00    -0.172 C  
HETATM   32  C   UNL     1     -11.399   2.627  72.751  1.00  0.00     0.307 C  
HETATM   33  C   UNL     1      -9.609   2.695  74.489  1.00  0.00    -0.125 C  
ENDBRANCH  27  29
ENDBRANCH  26  27
ENDBRANCH  20  25
ENDBRANCH  13  19
ENDBRANCH   4   6
ENDBRANCH   3   4
ENDBRANCH   2   3
TORSDOF 10
ENDMDL
MODEL      193
REMARK 921   NORMALIZED FREE ENERGY PREDICTED BY IDOCK:    0.27 KCAL/MOL
REMARK 922        TOTAL FREE ENERGY PREDICTED BY IDOCK:   -1.93 KCAL/MOL
REMARK 923 INTER-LIGAND FREE ENERGY PREDICTED BY IDOCK:   -2.83 KCAL/MOL
REMARK 924 INTRA-LIGAND FREE ENERGY PREDICTED BY IDOCK:    0.90 KCAL/MOL
REMARK 927      BINDING AFFINITY PREDICTED BY RF-SCORE:    0.00 PKD
ROOT
HETATM    1  C   UNL     1     -12.368  10.811  71.678  1.00  0.00    -0.292 C  
HETATM    2  C   UNL     1     -11.542  10.444  70.460  1.00  0.00    -0.344 C  
ENDROOT
BRANCH   2   3
HETATM    3  O   UNL     1     -10.381   9.705  70.877  1.00  0.00    -0.300 OA 
BRANCH   3   4
HETATM    4  C   UNL     1      -9.271   9.915  70.129  1.00  0.00    -0.135 C  
HETATM    5  O   UNL     1      -9.146  10.799  69.293  1.00  0.00    -0.143 OA 
BRANCH   4   6
HETATM    6  C   UNL     1      -8.207   8.928  70.436  1.00  0.00    -0.146 C  
HETATM    7  C   UNL     1      -6.943   9.180  70.016  1.00  0.00    -0.054 C  
HETATM    8  C   UNL     1      -6.428  10.471  69.422  1.00  0.00    -0.062 C  
HETATM    9  N   UNL     1      -5.982   8.189  70.110  1.00  0.00    -0.025 NA 
HETATM   10  C   UNL     1      -6.254   6.860  70.386  1.00  0.00    -0.027 C  
HETATM   11  C   UNL     1      -5.134   5.899  70.063  1.00  0.00    -0.008 C  
HETATM   12  C   UNL     1      -7.460   6.507  70.901  1.00  0.00    -0.084 C  
HETATM   13  C   UNL     1      -8.534   7.592  71.136  1.00  0.00    -0.116 C  
BRANCH  12  14
HETATM   14  C   UNL     1      -7.717   5.069  71.215  1.00  0.00    -0.092 C  
HETATM   15  O   UNL     1      -8.539   4.684  72.034  1.00  0.00    -0.115 OA 
BRANCH  14  16
HETATM   16  O   UNL     1      -6.946   4.237  70.473  1.00  0.00    -0.033 OA 
BRANCH  16  17
HETATM   17  C   UNL     1      -7.669   3.382  69.568  1.00  0.00    -0.050 C  
HETATM   18  C   UNL     1      -6.799   2.893  68.418  1.00  0.00    -0.048 C  
ENDBRANCH  16  17
ENDBRANCH  14  16
ENDBRANCH  12  14
BRANCH  13  19
HETATM   19  C   UNL     1      -9.976   7.106  70.926  1.00  0.00    -0.193 A  
HETATM   20  C   UNL     1     -10.525   6.744  69.681  1.00  0.00    -0.243 A  
HETATM   21  C   UNL     1     -11.845   6.251  69.642  1.00  0.00     0.164 A  
HETATM   22  C   UNL     1     -10.778   6.973  72.089  1.00  0.00    -0.247 A  
HETATM   23  C   UNL     1     -12.079   6.484  72.028  1.00  0.00    -0.358 A  
HETATM   24  C   UNL     1     -12.611   6.113  70.803  1.00  0.00     0.968 A  
BRANCH  20  25
HETATM   25  C   UNL     1      -9.793   6.915  68.414  1.00  0.00    -0.143 C  
HETATM   26  C   UNL     1      -9.214   5.896  67.758  1.00  0.00    -0.108 C  
BRANCH  26  27
HETATM   27  C   UNL     1      -8.565   6.017  66.438  1.00  0.00    -0.129 C  
HETATM   28  O   UNL     1      -9.086   5.559  65.432  1.00  0.00    -0.141 OA 
BRANCH  27  29
HETATM   29  O   UNL     1      -7.392   6.683  66.518  1.00  0.00    -0.071 OA 
HETATM   30  C   UNL     1      -7.056   7.700  65.539  1.00  0.00    -0.063 C  
HETATM   31  C   UNL     1      -7.032   7.138  64.114  1.00  0.00    -0.056 C  
HETATM   32  C   UNL     1      -7.998   8.903  65.661  1.00  0.00    -0.098 C  
HETATM   33  C   UNL     1      -5.632   8.146  65.912  1.00  0.00    -0.036 C  
ENDBRANCH  27  29
ENDBRANCH  26  27
ENDBRANCH  20  25
ENDBRANCH  13  19
ENDBRANCH   4   6
ENDBRANCH   3   4
ENDBRANCH   2   3
TORSDOF 10
ENDMDL
MODEL      194
REMARK 921   NORMALIZED FREE ENERGY PREDICTED BY IDOCK:    0.33 KCAL/MOL
REMARK 922        TOTAL FREE ENERGY PREDICTED BY IDOCK:   -1.83 KCAL/MOL
REMARK 923 INTER-LIGAND FREE ENERGY PREDICTED BY IDOCK:   -4.10 KCAL/MOL
REMARK 924 INTRA-LIGAND FREE ENERGY PREDICTED BY IDOCK:    2.26 KCAL/MOL
REMARK 927      BINDING AFFINITY PREDICTED BY RF-SCORE:    0.00 PKD
ROOT
HETATM    1  C   UNL     1      -8.293  18.222  68.861  1.00  0.00    -0.165 C  
HETATM    2  C   UNL     1      -9.768  18.234  68.509  1.00  0.00    -0.362 C  
ENDROOT
BRANCH   2   3
HETATM    3  O   UNL     1     -10.458  17.265  69.318  1.00  0.00    -0.338 OA 
BRANCH   3   4
HETATM    4  C   UNL     1      -9.919  16.022  69.305  1.00  0.00    -0.252 C  
HETATM    5  O   UNL     1      -9.047  15.628  70.066  1.00  0.00    -0.051 OA 
BRANCH   4   6
HETATM    6  C   UNL     1     -10.510  15.179  68.237  1.00  0.00    -0.241 C  
HETATM    7  C   UNL     1     -11.775  14.720  68.393  1.00  0.00    -0.314 C  
HETATM    8  C   UNL     1     -12.759  15.130  69.465  1.00  0.00     0.095 C  
HETATM    9  N   UNL     1     -12.272  13.773  67.515  1.00  0.00    -0.308 NA 
HETATM   10  C   UNL     1     -11.500  13.065  66.610  1.00  0.00    -0.336 C  
HETATM   11  C   UNL     1     -12.158  11.832  66.036  1.00  0.00     0.449 C  
HETATM   12  C   UNL     1     -10.246  13.493  66.307  1.00  0.00    -0.299 C  
HETATM   13  C   UNL     1      -9.680  14.746  67.009  1.00  0.00    -0.242 C  
BRANCH  12  14
HETATM   14  C   UNL     1      -9.446  12.725  65.306  1.00  0.00     0.238 C  
HETATM   15  O   UNL     1      -8.552  11.944  65.600  1.00  0.00     0.160 OA 
BRANCH  14  16
HETATM   16  O   UNL     1      -9.836  12.980  64.034  1.00  0.00    -0.232 OA 
BRANCH  16  17
HETATM   17  C   UNL     1      -9.542  11.936  63.086  1.00  0.00    -0.106 C  
HETATM   18  C   UNL     1     -10.189  10.612  63.469  1.00  0.00    -0.201 C  
ENDBRANCH  16  17
ENDBRANCH  14  16
ENDBRANCH  12  14
BRANCH  13  19
HETATM   19  C   UNL     1      -8.164  14.698  67.257  1.00  0.00    -0.235 A  
HETATM   20  C   UNL     1      -7.459  13.554  67.678  1.00  0.00    -0.187 A  
HETATM   21  C   UNL     1      -6.057  13.633  67.803  1.00  0.00    -0.143 A  
HETATM   22  C   UNL     1      -7.438  15.886  66.989  1.00  0.00    -0.254 A  
HETATM   23  C   UNL     1      -6.054  15.942  67.119  1.00  0.00     0.022 A  
HETATM   24  C   UNL     1      -5.361  14.810  67.517  1.00  0.00     0.177 A  
BRANCH  20  25
HETATM   25  C   UNL     1      -8.136  12.298  68.046  1.00  0.00    -0.156 C  
HETATM   26  C   UNL     1      -9.124  12.237  68.953  1.00  0.00     0.265 C  
BRANCH  26  27
HETATM   27  C   UNL     1      -9.891  11.015  69.267  1.00  0.00    -0.035 C  
HETATM   28  O   UNL     1     -11.073  11.070  69.571  1.00  0.00    -0.238 OA 
BRANCH  27  29
HETATM   29  O   UNL     1      -9.128   9.905  69.157  1.00  0.00    -0.151 OA 
HETATM   30  C   UNL     1      -9.665   8.701  68.550  1.00  0.00    -0.163 C  
HETATM   31  C   UNL     1     -10.906   8.190  69.288  1.00  0.00    -0.064 C  
HETATM   32  C   UNL     1      -9.942   8.923  67.058  1.00  0.00    -0.300 C  
HETATM   33  C   UNL     1      -8.545   7.658  68.695  1.00  0.00    -0.129 C  
ENDBRANCH  27  29
ENDBRANCH  26  27
ENDBRANCH  20  25
ENDBRANCH  13  19
ENDBRANCH   4   6
ENDBRANCH   3   4
ENDBRANCH   2   3
TORSDOF 10
ENDMDL
MODEL      195
REMARK 921   NORMALIZED FREE ENERGY PREDICTED BY IDOCK:    0.35 KCAL/MOL
REMARK 922        TOTAL FREE ENERGY PREDICTED BY IDOCK:   -1.81 KCAL/MOL
REMARK 923 INTER-LIGAND FREE ENERGY PREDICTED BY IDOCK:   -2.46 KCAL/MOL
REMARK 924 INTRA-LIGAND FREE ENERGY PREDICTED BY IDOCK:    0.64 KCAL/MOL
REMARK 927      BINDING AFFINITY PREDICTED BY RF-SCORE:    0.00 PKD
ROOT
HETATM    1  C   UNL     1     -12.778   8.781  70.584  1.00  0.00     0.339 C  
HETATM    2  C   UNL     1     -11.602   7.856  70.833  1.00  0.00    -0.273 C  
ENDROOT
BRANCH   2   3
HETATM    3  O   UNL     1     -10.888   7.652  69.601  1.00  0.00    -0.242 OA 
BRANCH   3   4
HETATM    4  C   UNL     1      -9.654   7.110  69.738  1.00  0.00    -0.155 C  
HETATM    5  O   UNL     1      -9.352   6.253  70.557  1.00  0.00    -0.160 OA 
BRANCH   4   6
HETATM    6  C   UNL     1      -8.689   7.691  68.774  1.00  0.00    -0.128 C  
HETATM    7  C   UNL     1      -8.634   9.039  68.637  1.00  0.00    -0.129 C  
HETATM    8  C   UNL     1      -9.320  10.064  69.511  1.00  0.00    -0.247 C  
HETATM    9  N   UNL     1      -7.894   9.592  67.607  1.00  0.00    -0.101 NA 
HETATM   10  C   UNL     1      -7.380   8.874  66.541  1.00  0.00    -0.085 C  
HETATM   11  C   UNL     1      -6.952   9.709  65.356  1.00  0.00    -0.095 C  
HETATM   12  C   UNL     1      -7.301   7.519  66.610  1.00  0.00    -0.091 C  
HETATM   13  C   UNL     1      -7.824   6.790  67.867  1.00  0.00    -0.113 C  
BRANCH  12  14
HETATM   14  C   UNL     1      -6.717   6.772  65.456  1.00  0.00    -0.051 C  
HETATM   15  O   UNL     1      -6.781   7.149  64.294  1.00  0.00    -0.042 OA 
BRANCH  14  16
HETATM   16  O   UNL     1      -6.090   5.636  65.846  1.00  0.00    -0.027 OA 
BRANCH  16  17
HETATM   17  C   UNL     1      -5.589   4.818  64.771  1.00  0.00    -0.014 C  
HETATM   18  C   UNL     1      -6.528   3.667  64.436  1.00  0.00    -0.034 C  
ENDBRANCH  16  17
ENDBRANCH  14  16
ENDBRANCH  12  14
BRANCH  13  19
HETATM   19  C   UNL     1      -8.433   5.408  67.585  1.00  0.00    -0.105 A  
HETATM   20  C   UNL     1      -8.099   4.229  68.281  1.00  0.00    -0.081 A  
HETATM   21  C   UNL     1      -8.785   3.040  67.962  1.00  0.00    -0.137 A  
HETATM   22  C   UNL     1      -9.435   5.347  66.584  1.00  0.00    -0.151 A  
HETATM   23  C   UNL     1     -10.100   4.162  66.286  1.00  0.00    -0.126 A  
HETATM   24  C   UNL     1      -9.781   3.008  66.983  1.00  0.00     0.187 A  
BRANCH  20  25
HETATM   25  C   UNL     1      -7.022   4.182  69.285  1.00  0.00    -0.046 C  
HETATM   26  C   UNL     1      -7.248   3.982  70.593  1.00  0.00    -0.038 C  
BRANCH  26  27
HETATM   27  C   UNL     1      -6.186   3.825  71.607  1.00  0.00    -0.014 C  
HETATM   28  O   UNL     1      -5.148   4.467  71.540  1.00  0.00     0.000 OA 
BRANCH  27  29
HETATM   29  O   UNL     1      -6.533   2.932  72.559  1.00  0.00    -0.013 OA 
HETATM   30  C   UNL     1      -7.920   2.782  72.958  1.00  0.00    -0.055 C  
HETATM   31  C   UNL     1      -8.508   4.092  73.490  1.00  0.00    -0.093 C  
HETATM   32  C   UNL     1      -8.756   2.209  71.807  1.00  0.00    -0.101 C  
HETATM   33  C   UNL     1      -7.889   1.759  74.105  1.00  0.00    -0.037 C  
ENDBRANCH  27  29
ENDBRANCH  26  27
ENDBRANCH  20  25
ENDBRANCH  13  19
ENDBRANCH   4   6
ENDBRANCH   3   4
ENDBRANCH   2   3
TORSDOF 10
ENDMDL
MODEL      196
REMARK 921   NORMALIZED FREE ENERGY PREDICTED BY IDOCK:    0.35 KCAL/MOL
REMARK 922        TOTAL FREE ENERGY PREDICTED BY IDOCK:   -1.81 KCAL/MOL
REMARK 923 INTER-LIGAND FREE ENERGY PREDICTED BY IDOCK:   -2.42 KCAL/MOL
REMARK 924 INTRA-LIGAND FREE ENERGY PREDICTED BY IDOCK:    0.61 KCAL/MOL
REMARK 927      BINDING AFFINITY PREDICTED BY RF-SCORE:    0.00 PKD
ROOT
HETATM    1  C   UNL     1     -11.577  12.476  67.133  1.00  0.00    -0.437 C  
HETATM    2  C   UNL     1     -11.195  13.866  66.664  1.00  0.00    -0.320 C  
ENDROOT
BRANCH   2   3
HETATM    3  O   UNL     1     -10.047  14.320  67.403  1.00  0.00    -0.243 OA 
BRANCH   3   4
HETATM    4  C   UNL     1      -9.441  15.421  66.898  1.00  0.00    -0.230 C  
HETATM    5  O   UNL     1      -8.825  15.460  65.841  1.00  0.00    -0.212 OA 
BRANCH   4   6
HETATM    6  C   UNL     1      -9.600  16.594  67.791  1.00  0.00    -0.236 C  
HETATM    7  C   UNL     1     -10.849  16.969  68.159  1.00  0.00    -0.338 C  
HETATM    8  C   UNL     1     -12.130  16.201  67.921  1.00  0.00     0.755 C  
HETATM    9  N   UNL     1     -11.036  18.170  68.820  1.00  0.00     0.455 NA 
HETATM   10  C   UNL     1     -10.071  19.155  68.938  1.00  0.00    -0.354 C  
HETATM   11  C   UNL     1     -10.592  20.514  69.345  1.00  0.00     0.487 C  
HETATM   12  C   UNL     1      -8.768  18.863  68.684  1.00  0.00    -0.374 C  
HETATM   13  C   UNL     1      -8.384  17.439  68.226  1.00  0.00    -0.248 C  
BRANCH  12  14
HETATM   14  C   UNL     1      -7.744  19.939  68.845  1.00  0.00    -0.138 C  
HETATM   15  O   UNL     1      -7.782  21.012  68.261  1.00  0.00     0.276 OA 
BRANCH  14  16
HETATM   16  O   UNL     1      -6.776  19.596  69.729  1.00  0.00    -0.324 OA 
BRANCH  16  17
HETATM   17  C   UNL     1      -5.881  20.663  70.096  1.00  0.00    -0.211 C  
HETATM   18  C   UNL     1      -5.288  20.466  71.485  1.00  0.00    -0.341 C  
ENDBRANCH  16  17
ENDBRANCH  14  16
ENDBRANCH  12  14
BRANCH  13  19
HETATM   19  C   UNL     1      -7.200  17.392  67.247  1.00  0.00    -0.192 A  
HETATM   20  C   UNL     1      -6.116  16.497  67.345  1.00  0.00    -0.192 A  
HETATM   21  C   UNL     1      -5.129  16.518  66.339  1.00  0.00     0.546 A  
HETATM   22  C   UNL     1      -7.247  18.287  66.147  1.00  0.00    -0.301 A  
HETATM   23  C   UNL     1      -6.262  18.290  65.165  1.00  0.00    -0.124 A  
HETATM   24  C   UNL     1      -5.206  17.398  65.256  1.00  0.00     0.688 A  
BRANCH  20  25
HETATM   25  C   UNL     1      -5.947  15.582  68.488  1.00  0.00    -0.097 C  
HETATM   26  C   UNL     1      -5.873  14.248  68.354  1.00  0.00    -0.105 C  
BRANCH  26  27
HETATM   27  C   UNL     1      -5.600  13.315  69.465  1.00  0.00    -0.087 C  
HETATM   28  O   UNL     1      -5.785  13.643  70.627  1.00  0.00    -0.157 OA 
BRANCH  27  29
HETATM   29  O   UNL     1      -5.158  12.119  69.015  1.00  0.00    -0.055 OA 
HETATM   30  C   UNL     1      -6.091  11.035  68.771  1.00  0.00    -0.043 C  
HETATM   31  C   UNL     1      -6.874  10.657  70.032  1.00  0.00    -0.150 C  
HETATM   32  C   UNL     1      -7.024  11.376  67.602  1.00  0.00    -0.081 C  
HETATM   33  C   UNL     1      -5.208   9.843  68.368  1.00  0.00    -0.036 C  
ENDBRANCH  27  29
ENDBRANCH  26  27
ENDBRANCH  20  25
ENDBRANCH  13  19
ENDBRANCH   4   6
ENDBRANCH   3   4
ENDBRANCH   2   3
TORSDOF 10
ENDMDL
MODEL      197
REMARK 921   NORMALIZED FREE ENERGY PREDICTED BY IDOCK:    0.62 KCAL/MOL
REMARK 922        TOTAL FREE ENERGY PREDICTED BY IDOCK:   -1.39 KCAL/MOL
REMARK 923 INTER-LIGAND FREE ENERGY PREDICTED BY IDOCK:   -4.30 KCAL/MOL
REMARK 924 INTRA-LIGAND FREE ENERGY PREDICTED BY IDOCK:    2.91 KCAL/MOL
REMARK 927      BINDING AFFINITY PREDICTED BY RF-SCORE:    0.00 PKD
ROOT
HETATM    1  C   UNL     1     -10.584  12.365  63.877  1.00  0.00    -0.470 C  
HETATM    2  C   UNL     1      -9.588  13.217  64.641  1.00  0.00     0.378 C  
ENDROOT
BRANCH   2   3
HETATM    3  O   UNL     1      -9.792  13.036  66.053  1.00  0.00    -0.272 OA 
BRANCH   3   4
HETATM    4  C   UNL     1     -10.637  13.926  66.627  1.00  0.00    -0.274 C  
HETATM    5  O   UNL     1     -10.775  15.090  66.275  1.00  0.00    -0.307 OA 
BRANCH   4   6
HETATM    6  C   UNL     1     -11.383  13.324  67.758  1.00  0.00    -0.327 C  
HETATM    7  C   UNL     1     -12.073  14.140  68.593  1.00  0.00    -0.285 C  
HETATM    8  C   UNL     1     -12.342  15.615  68.397  1.00  0.00     0.457 C  
HETATM    9  N   UNL     1     -12.605  13.629  69.764  1.00  0.00    -0.122 NA 
HETATM   10  C   UNL     1     -12.294  12.385  70.285  1.00  0.00    -0.188 C  
HETATM   11  C   UNL     1     -12.672  12.188  71.735  1.00  0.00    -0.265 C  
HETATM   12  C   UNL     1     -11.685  11.454  69.505  1.00  0.00    -0.417 C  
HETATM   13  C   UNL     1     -11.310  11.810  68.049  1.00  0.00    -0.355 C  
BRANCH  12  14
HETATM   14  C   UNL     1     -11.386  10.111  70.086  1.00  0.00    -0.303 C  
HETATM   15  O   UNL     1     -12.170   9.173  70.080  1.00  0.00     0.197 OA 
BRANCH  14  16
HETATM   16  O   UNL     1     -10.136  10.045  70.606  1.00  0.00    -0.177 OA 
BRANCH  16  17
HETATM   17  C   UNL     1      -9.398   8.855  70.268  1.00  0.00    -0.185 C  
HETATM   18  C   UNL     1      -7.972   8.890  70.801  1.00  0.00    -0.150 C  
ENDBRANCH  16  17
ENDBRANCH  14  16
ENDBRANCH  12  14
BRANCH  13  19
HETATM   19  C   UNL     1     -10.026  11.133  67.547  1.00  0.00    -0.204 A  
HETATM   20  C   UNL     1      -8.728  11.447  67.996  1.00  0.00    -0.148 A  
HETATM   21  C   UNL     1      -7.642  10.699  67.498  1.00  0.00    -0.093 A  
HETATM   22  C   UNL     1     -10.185  10.087  66.602  1.00  0.00    -0.288 A  
HETATM   23  C   UNL     1      -9.099   9.361  66.124  1.00  0.00    -0.214 A  
HETATM   24  C   UNL     1      -7.826   9.662  66.580  1.00  0.00    -0.108 A  
BRANCH  20  25
HETATM   25  C   UNL     1      -8.458  12.561  68.920  1.00  0.00     0.285 C  
HETATM   26  C   UNL     1      -8.345  13.837  68.517  1.00  0.00    -0.120 C  
BRANCH  26  27
HETATM   27  C   UNL     1      -8.180  14.986  69.429  1.00  0.00    -0.147 C  
HETATM   28  O   UNL     1      -9.006  15.230  70.297  1.00  0.00     0.250 OA 
BRANCH  27  29
HETATM   29  O   UNL     1      -7.041  15.667  69.174  1.00  0.00    -0.142 OA 
HETATM   30  C   UNL     1      -6.457  15.650  67.846  1.00  0.00    -0.149 C  
HETATM   31  C   UNL     1      -6.114  14.229  67.387  1.00  0.00     0.224 C  
HETATM   32  C   UNL     1      -7.368  16.368  66.843  1.00  0.00    -0.269 C  
HETATM   33  C   UNL     1      -5.149  16.447  67.984  1.00  0.00    -0.116 C  
ENDBRANCH  27  29
ENDBRANCH  26  27
ENDBRANCH  20  25
ENDBRANCH  13  19
ENDBRANCH   4   6
ENDBRANCH   3   4
ENDBRANCH   2   3
TORSDOF 10
ENDMDL
MODEL      198
REMARK 921   NORMALIZED FREE ENERGY PREDICTED BY IDOCK:    0.66 KCAL/MOL
REMARK 922        TOTAL FREE ENERGY PREDICTED BY IDOCK:   -1.32 KCAL/MOL
REMARK 923 INTER-LIGAND FREE ENERGY PREDICTED BY IDOCK:   -3.13 KCAL/MOL
REMARK 924 INTRA-LIGAND FREE ENERGY PREDICTED BY IDOCK:    1.81 KCAL/MOL
REMARK 927      BINDING AFFINITY PREDICTED BY RF-SCORE:    0.00 PKD
ROOT
HETATM    1  C   UNL     1      -7.036  15.115  67.696  1.00  0.00    -0.206 C  
HETATM    2  C   UNL     1      -6.568  13.689  67.481  1.00  0.00    -0.107 C  
ENDROOT
BRANCH   2   3
HETATM    3  O   UNL     1      -7.706  12.809  67.484  1.00  0.00    -0.146 OA 
BRANCH   3   4
HETATM    4  C   UNL     1      -8.041  12.313  68.699  1.00  0.00    -0.029 C  
HETATM    5  O   UNL     1      -8.658  12.924  69.560  1.00  0.00     1.034 OA 
BRANCH   4   6
HETATM    6  C   UNL     1      -7.558  10.922  68.877  1.00  0.00    -0.128 C  
HETATM    7  C   UNL     1      -6.428  10.537  68.234  1.00  0.00    -0.055 C  
HETATM    8  C   UNL     1      -5.464  11.431  67.488  1.00  0.00    -0.051 C  
HETATM    9  N   UNL     1      -6.071   9.200  68.220  1.00  0.00    -0.052 NA 
HETATM   10  C   UNL     1      -6.903   8.166  68.614  1.00  0.00    -0.067 C  
HETATM   11  C   UNL     1      -6.469   6.791  68.160  1.00  0.00    -0.053 C  
HETATM   12  C   UNL     1      -8.016   8.431  69.346  1.00  0.00    -0.112 C  
HETATM   13  C   UNL     1      -8.365   9.894  69.698  1.00  0.00    -0.181 C  
BRANCH  12  14
HETATM   14  C   UNL     1      -8.880   7.292  69.781  1.00  0.00    -0.142 C  
HETATM   15  O   UNL     1      -9.749   6.788  69.084  1.00  0.00    -0.146 OA 
BRANCH  14  16
HETATM   16  O   UNL     1      -8.578   6.868  71.032  1.00  0.00    -0.133 OA 
BRANCH  16  17
HETATM   17  C   UNL     1      -9.289   5.693  71.465  1.00  0.00    -0.146 C  
HETATM   18  C   UNL     1      -8.834   4.440  70.730  1.00  0.00    -0.139 C  
ENDBRANCH  16  17
ENDBRANCH  14  16
ENDBRANCH  12  14
BRANCH  13  19
HETATM   19  C   UNL     1      -9.872  10.182  69.764  1.00  0.00    -0.245 A  
HETATM   20  C   UNL     1     -10.693  10.414  68.643  1.00  0.00    -0.250 A  
HETATM   21  C   UNL     1     -12.075  10.601  68.845  1.00  0.00    -0.014 A  
HETATM   22  C   UNL     1     -10.468  10.160  71.052  1.00  0.00     0.326 A  
HETATM   23  C   UNL     1     -11.835  10.347  71.228  1.00  0.00    -0.381 A  
HETATM   24  C   UNL     1     -12.642  10.558  70.122  1.00  0.00    -0.246 A  
BRANCH  20  25
HETATM   25  C   UNL     1     -10.153  10.525  67.277  1.00  0.00    -0.242 C  
HETATM   26  C   UNL     1      -9.880   9.459  66.507  1.00  0.00    -0.325 C  
BRANCH  26  27
HETATM   27  C   UNL     1      -9.438   9.540  65.101  1.00  0.00    -0.236 C  
HETATM   28  O   UNL     1      -8.407   8.997  64.730  1.00  0.00    -0.154 OA 
BRANCH  27  29
HETATM   29  O   UNL     1     -10.304  10.249  64.345  1.00  0.00    -0.235 OA 
HETATM   30  C   UNL     1      -9.864  11.444  63.649  1.00  0.00    -0.348 C  
HETATM   31  C   UNL     1      -9.312  12.499  64.613  1.00  0.00     0.503 C  
HETATM   32  C   UNL     1      -8.854  11.092  62.551  1.00  0.00    -0.358 C  
HETATM   33  C   UNL     1     -11.136  12.003  62.991  1.00  0.00    -0.069 C  
ENDBRANCH  27  29
ENDBRANCH  26  27
ENDBRANCH  20  25
ENDBRANCH  13  19
ENDBRANCH   4   6
ENDBRANCH   3   4
ENDBRANCH   2   3
TORSDOF 10
ENDMDL
MODEL      199
REMARK 921   NORMALIZED FREE ENERGY PREDICTED BY IDOCK:    0.69 KCAL/MOL
REMARK 922        TOTAL FREE ENERGY PREDICTED BY IDOCK:   -1.27 KCAL/MOL
REMARK 923 INTER-LIGAND FREE ENERGY PREDICTED BY IDOCK:   -0.81 KCAL/MOL
REMARK 924 INTRA-LIGAND FREE ENERGY PREDICTED BY IDOCK:   -0.46 KCAL/MOL
REMARK 927      BINDING AFFINITY PREDICTED BY RF-SCORE:    0.00 PKD
ROOT
HETATM    1  C   UNL     1     -12.269  11.345  66.399  1.00  0.00     1.607 C  
HETATM    2  C   UNL     1     -12.012  12.744  65.872  1.00  0.00    -0.449 C  
ENDROOT
BRANCH   2   3
HETATM    3  O   UNL     1     -10.766  13.231  66.401  1.00  0.00    -0.282 OA 
BRANCH   3   4
HETATM    4  C   UNL     1     -10.057  14.020  65.558  1.00  0.00    -0.320 C  
HETATM    5  O   UNL     1      -9.294  13.614  64.692  1.00  0.00     0.593 OA 
BRANCH   4   6
HETATM    6  C   UNL     1     -10.305  15.459  65.815  1.00  0.00    -0.381 C  
HETATM    7  C   UNL     1     -11.048  16.162  64.926  1.00  0.00    -0.325 C  
HETATM    8  C   UNL     1     -11.840  15.601  63.767  1.00  0.00     0.505 C  
HETATM    9  N   UNL     1     -11.123  17.540  65.035  1.00  0.00    -0.662 NA 
HETATM   10  C   UNL     1     -10.305  18.305  65.849  1.00  0.00    -0.284 C  
HETATM   11  C   UNL     1     -10.290  19.782  65.531  1.00  0.00    -0.272 C  
HETATM   12  C   UNL     1      -9.586  17.712  66.838  1.00  0.00    -0.286 C  
HETATM   13  C   UNL     1      -9.659  16.180  67.018  1.00  0.00    -0.233 C  
BRANCH  12  14
HETATM   14  C   UNL     1      -8.732  18.566  67.718  1.00  0.00    -0.275 C  
HETATM   15  O   UNL     1      -7.698  19.105  67.352  1.00  0.00    -0.236 OA 
BRANCH  14  16
HETATM   16  O   UNL     1      -9.247  18.690  68.965  1.00  0.00    -0.246 OA 
BRANCH  16  17
HETATM   17  C   UNL     1      -9.563  20.038  69.362  1.00  0.00     0.148 C  
HETATM   18  C   UNL     1      -9.984  20.125  70.823  1.00  0.00     1.487 C  
ENDBRANCH  16  17
ENDBRANCH  14  16
ENDBRANCH  12  14
BRANCH  13  19
HETATM   19  C   UNL     1      -8.350  15.541  67.508  1.00  0.00    -0.190 A  
HETATM   20  C   UNL     1      -8.276  14.459  68.407  1.00  0.00    -0.145 A  
HETATM   21  C   UNL     1      -7.008  13.928  68.720  1.00  0.00    -0.108 A  
HETATM   22  C   UNL     1      -7.147  16.061  66.967  1.00  0.00    -0.233 A  
HETATM   23  C   UNL     1      -5.906  15.521  67.290  1.00  0.00     0.158 A  
HETATM   24  C   UNL     1      -5.837  14.446  68.162  1.00  0.00    -0.135 A  
BRANCH  20  25
HETATM   25  C   UNL     1      -9.465  13.901  69.072  1.00  0.00     0.154 C  
HETATM   26  C   UNL     1      -9.834  12.614  68.958  1.00  0.00     0.276 C  
BRANCH  26  27
HETATM   27  C   UNL     1     -10.957  12.002  69.694  1.00  0.00     0.098 C  
HETATM   28  O   UNL     1     -12.090  12.453  69.609  1.00  0.00    -0.276 OA 
BRANCH  27  29
HETATM   29  O   UNL     1     -10.559  10.931  70.415  1.00  0.00     0.155 OA 
HETATM   30  C   UNL     1     -11.197   9.641  70.229  1.00  0.00    -0.271 C  
HETATM   31  C   UNL     1     -12.701   9.699  70.510  1.00  0.00     0.025 C  
HETATM   32  C   UNL     1     -10.900   9.086  68.830  1.00  0.00    -0.075 C  
HETATM   33  C   UNL     1     -10.539   8.726  71.274  1.00  0.00    -0.332 C  
ENDBRANCH  27  29
ENDBRANCH  26  27
ENDBRANCH  20  25
ENDBRANCH  13  19
ENDBRANCH   4   6
ENDBRANCH   3   4
ENDBRANCH   2   3
TORSDOF 10
ENDMDL
MODEL      200
REMARK 921   NORMALIZED FREE ENERGY PREDICTED BY IDOCK:    0.79 KCAL/MOL
REMARK 922        TOTAL FREE ENERGY PREDICTED BY IDOCK:   -1.11 KCAL/MOL
REMARK 923 INTER-LIGAND FREE ENERGY PREDICTED BY IDOCK:   -2.25 KCAL/MOL
REMARK 924 INTRA-LIGAND FREE ENERGY PREDICTED BY IDOCK:    1.13 KCAL/MOL
REMARK 927      BINDING AFFINITY PREDICTED BY RF-SCORE:    0.00 PKD
ROOT
HETATM    1  C   UNL     1     -10.936   8.763  70.392  1.00  0.00    -0.262 C  
HETATM    2  C   UNL     1     -11.785   7.574  69.983  1.00  0.00     0.140 C  
ENDROOT
BRANCH   2   3
HETATM    3  O   UNL     1     -11.066   6.785  69.019  1.00  0.00    -0.240 OA 
BRANCH   3   4
HETATM    4  C   UNL     1     -10.643   7.465  67.925  1.00  0.00    -0.190 C  
HETATM    5  O   UNL     1     -10.996   8.597  67.624  1.00  0.00    -0.096 OA 
BRANCH   4   6
HETATM    6  C   UNL     1      -9.693   6.665  67.115  1.00  0.00    -0.178 C  
HETATM    7  C   UNL     1     -10.166   5.604  66.416  1.00  0.00    -0.171 C  
HETATM    8  C   UNL     1     -11.617   5.238  66.199  1.00  0.00     1.333 C  
HETATM    9  N   UNL     1      -9.277   4.727  65.819  1.00  0.00    -0.143 NA 
HETATM   10  C   UNL     1      -7.916   4.703  66.072  1.00  0.00    -0.103 C  
HETATM   11  C   UNL     1      -7.207   3.445  65.627  1.00  0.00    -0.067 C  
HETATM   12  C   UNL     1      -7.320   5.759  66.685  1.00  0.00    -0.082 C  
HETATM   13  C   UNL     1      -8.179   6.962  67.131  1.00  0.00    -0.118 C  
BRANCH  12  14
HETATM   14  C   UNL     1      -5.846   5.717  66.920  1.00  0.00    -0.018 C  
HETATM   15  O   UNL     1      -5.325   5.822  68.021  1.00  0.00    -0.004 OA 
BRANCH  14  16
HETATM   16  O   UNL     1      -5.149   5.532  65.772  1.00  0.00    -0.008 OA 
BRANCH  16  17
HETATM   17  C   UNL     1      -5.154   6.653  64.868  1.00  0.00    -0.025 C  
HETATM   18  C   UNL     1      -5.276   7.983  65.600  1.00  0.00    -0.028 C  
ENDBRANCH  16  17
ENDBRANCH  14  16
ENDBRANCH  12  14
BRANCH  13  19
HETATM   19  C   UNL     1      -7.684   7.646  68.415  1.00  0.00    -0.119 A  
HETATM   20  C   UNL     1      -7.694   9.038  68.635  1.00  0.00    -0.096 A  
HETATM   21  C   UNL     1      -7.271   9.526  69.888  1.00  0.00    -0.093 A  
HETATM   22  C   UNL     1      -7.236   6.795  69.457  1.00  0.00    -0.081 A  
HETATM   23  C   UNL     1      -6.823   7.299  70.686  1.00  0.00    -0.053 A  
HETATM   24  C   UNL     1      -6.850   8.667  70.906  1.00  0.00    -0.061 A  
BRANCH  20  25
HETATM   25  C   UNL     1      -8.074  10.001  67.588  1.00  0.00    -0.110 C  
HETATM   26  C   UNL     1      -9.229  10.687  67.606  1.00  0.00    -0.153 C  
BRANCH  26  27
HETATM   27  C   UNL     1      -9.592  11.732  66.629  1.00  0.00    -0.205 C  
HETATM   28  O   UNL     1      -9.403  11.573  65.432  1.00  0.00    -0.217 OA 
BRANCH  27  29
HETATM   29  O   UNL     1     -10.139  12.811  67.232  1.00  0.00    -0.222 OA 
HETATM   30  C   UNL     1      -9.302  13.911  67.672  1.00  0.00    -0.205 C  
HETATM   31  C   UNL     1      -8.242  13.459  68.681  1.00  0.00    -0.024 C  
HETATM   32  C   UNL     1      -8.675  14.629  66.470  1.00  0.00    -0.115 C  
HETATM   33  C   UNL     1     -10.267  14.878  68.377  1.00  0.00    -0.231 C  
ENDBRANCH  27  29
ENDBRANCH  26  27
ENDBRANCH  20  25
ENDBRANCH  13  19
ENDBRANCH   4   6
ENDBRANCH   3   4
ENDBRANCH   2   3
TORSDOF 10
ENDMDL
MODEL      201
REMARK 921   NORMALIZED FREE ENERGY PREDICTED BY IDOCK:    0.91 KCAL/MOL
REMARK 922        TOTAL FREE ENERGY PREDICTED BY IDOCK:   -0.93 KCAL/MOL
REMARK 923 INTER-LIGAND FREE ENERGY PREDICTED BY IDOCK:   -4.44 KCAL/MOL
REMARK 924 INTRA-LIGAND FREE ENERGY PREDICTED BY IDOCK:    3.51 KCAL/MOL
REMARK 927      BINDING AFFINITY PREDICTED BY RF-SCORE:    0.00 PKD
ROOT
HETATM    1  C   UNL     1     -10.656   8.356  67.385  1.00  0.00    -0.313 C  
HETATM    2  C   UNL     1     -10.391   8.231  68.873  1.00  0.00    -0.215 C  
ENDROOT
BRANCH   2   3
HETATM    3  O   UNL     1      -9.133   8.855  69.186  1.00  0.00    -0.139 OA 
BRANCH   3   4
HETATM    4  C   UNL     1      -8.051   8.287  68.600  1.00  0.00    -0.120 C  
HETATM    5  O   UNL     1      -6.917   8.746  68.627  1.00  0.00    -0.062 OA 
BRANCH   4   6
HETATM    6  C   UNL     1      -8.404   7.029  67.899  1.00  0.00    -0.118 C  
HETATM    7  C   UNL     1      -8.623   5.912  68.635  1.00  0.00    -0.110 C  
HETATM    8  C   UNL     1      -8.744   5.831  70.140  1.00  0.00    -0.140 C  
HETATM    9  N   UNL     1      -8.752   4.689  68.000  1.00  0.00    -0.102 NA 
HETATM   10  C   UNL     1      -8.441   4.463  66.671  1.00  0.00    -0.105 C  
HETATM   11  C   UNL     1      -8.284   3.008  66.291  1.00  0.00    -0.091 C  
HETATM   12  C   UNL     1      -8.292   5.511  65.820  1.00  0.00    -0.129 C  
HETATM   13  C   UNL     1      -8.433   6.952  66.358  1.00  0.00    -0.130 C  
BRANCH  12  14
HETATM   14  C   UNL     1      -7.983   5.236  64.385  1.00  0.00    -0.114 C  
HETATM   15  O   UNL     1      -6.870   4.950  63.967  1.00  0.00    -0.045 OA 
BRANCH  14  16
HETATM   16  O   UNL     1      -9.084   5.323  63.598  1.00  0.00     0.084 OA 
BRANCH  16  17
HETATM   17  C   UNL     1      -9.435   4.109  62.907  1.00  0.00    -0.136 C  
HETATM   18  C   UNL     1      -8.239   3.184  62.724  1.00  0.00    -0.073 C  
ENDBRANCH  16  17
ENDBRANCH  14  16
ENDBRANCH  12  14
BRANCH  13  19
HETATM   19  C   UNL     1      -7.525   7.976  65.658  1.00  0.00    -0.081 A  
HETATM   20  C   UNL     1      -7.919   9.280  65.298  1.00  0.00    -0.107 A  
HETATM   21  C   UNL     1      -6.963  10.139  64.720  1.00  0.00    -0.126 A  
HETATM   22  C   UNL     1      -6.187   7.576  65.412  1.00  0.00    -0.038 A  
HETATM   23  C   UNL     1      -5.259   8.441  64.841  1.00  0.00    -0.035 A  
HETATM   24  C   UNL     1      -5.645   9.728  64.503  1.00  0.00    -0.080 A  
BRANCH  20  25
HETATM   25  C   UNL     1      -9.304   9.758  65.449  1.00  0.00    -0.311 C  
HETATM   26  C   UNL     1      -9.647  11.053  65.363  1.00  0.00    -0.267 C  
BRANCH  26  27
HETATM   27  C   UNL     1     -11.036  11.552  65.407  1.00  0.00    -0.226 C  
HETATM   28  O   UNL     1     -11.915  11.033  64.736  1.00  0.00     0.556 OA 
BRANCH  27  29
HETATM   29  O   UNL     1     -11.167  12.591  66.260  1.00  0.00    -0.286 OA 
HETATM   30  C   UNL     1     -11.366  13.937  65.753  1.00  0.00    -0.307 C  
HETATM   31  C   UNL     1     -10.216  14.384  64.845  1.00  0.00    -0.357 C  
HETATM   32  C   UNL     1     -12.724  14.057  65.053  1.00  0.00    -0.359 C  
HETATM   33  C   UNL     1     -11.374  14.828  67.006  1.00  0.00    -0.358 C  
ENDBRANCH  27  29
ENDBRANCH  26  27
ENDBRANCH  20  25
ENDBRANCH  13  19
ENDBRANCH   4   6
ENDBRANCH   3   4
ENDBRANCH   2   3
TORSDOF 10
ENDMDL
MODEL      202
REMARK 921   NORMALIZED FREE ENERGY PREDICTED BY IDOCK:    0.99 KCAL/MOL
REMARK 922        TOTAL FREE ENERGY PREDICTED BY IDOCK:   -0.80 KCAL/MOL
REMARK 923 INTER-LIGAND FREE ENERGY PREDICTED BY IDOCK:   -1.58 KCAL/MOL
REMARK 924 INTRA-LIGAND FREE ENERGY PREDICTED BY IDOCK:    0.79 KCAL/MOL
REMARK 927      BINDING AFFINITY PREDICTED BY RF-SCORE:    0.00 PKD
ROOT
HETATM    1  C   UNL     1      -8.446  11.510  69.732  1.00  0.00     1.372 C  
HETATM    2  C   UNL     1      -8.840  12.877  69.208  1.00  0.00     0.982 C  
ENDROOT
BRANCH   2   3
HETATM    3  O   UNL     1      -8.843  12.854  67.770  1.00  0.00    -0.167 OA 
BRANCH   3   4
HETATM    4  C   UNL     1      -7.657  12.527  67.202  1.00  0.00    -0.085 C  
HETATM    5  O   UNL     1      -6.929  13.305  66.602  1.00  0.00     0.522 OA 
BRANCH   4   6
HETATM    6  C   UNL     1      -7.339  11.090  67.383  1.00  0.00    -0.105 C  
HETATM    7  C   UNL     1      -6.143  10.749  67.922  1.00  0.00    -0.046 C  
HETATM    8  C   UNL     1      -5.140  11.684  68.559  1.00  0.00    -0.039 C  
HETATM    9  N   UNL     1      -5.742   9.425  67.914  1.00  0.00    -0.041 NA 
HETATM   10  C   UNL     1      -6.360   8.426  67.182  1.00  0.00    -0.057 C  
HETATM   11  C   UNL     1      -5.546   7.164  67.010  1.00  0.00    -0.022 C  
HETATM   12  C   UNL     1      -7.604   8.627  66.674  1.00  0.00    -0.089 C  
HETATM   13  C   UNL     1      -8.300   9.989  66.885  1.00  0.00    -0.125 C  
BRANCH  12  14
HETATM   14  C   UNL     1      -8.258   7.522  65.911  1.00  0.00    -0.134 C  
HETATM   15  O   UNL     1      -8.020   7.264  64.740  1.00  0.00    -0.121 OA 
BRANCH  14  16
HETATM   16  O   UNL     1      -9.134   6.823  66.673  1.00  0.00    -0.136 OA 
BRANCH  16  17
HETATM   17  C   UNL     1      -9.902   5.832  65.963  1.00  0.00     0.024 C  
HETATM   18  C   UNL     1      -9.420   4.416  66.249  1.00  0.00    -0.178 C  
ENDBRANCH  16  17
ENDBRANCH  14  16
ENDBRANCH  12  14
BRANCH  13  19
HETATM   19  C   UNL     1      -9.205  10.421  65.721  1.00  0.00    -0.210 A  
HETATM   20  C   UNL     1     -10.504  10.946  65.869  1.00  0.00    -0.285 A  
HETATM   21  C   UNL     1     -11.198  11.364  64.715  1.00  0.00    -0.197 A  
HETATM   22  C   UNL     1      -8.655  10.321  64.417  1.00  0.00    -0.195 A  
HETATM   23  C   UNL     1      -9.358  10.740  63.292  1.00  0.00    -0.324 A  
HETATM   24  C   UNL     1     -10.629  11.271  63.443  1.00  0.00    -0.393 A  
BRANCH  20  25
HETATM   25  C   UNL     1     -11.183  11.021  67.174  1.00  0.00    -0.290 C  
HETATM   26  C   UNL     1     -11.301   9.970  68.001  1.00  0.00    -0.069 C  
BRANCH  26  27
HETATM   27  C   UNL     1     -11.882  10.039  69.356  1.00  0.00     0.133 C  
HETATM   28  O   UNL     1     -13.018  10.451  69.537  1.00  0.00     0.025 OA 
BRANCH  27  29
HETATM   29  O   UNL     1     -11.018   9.591  70.293  1.00  0.00    -0.237 OA 
HETATM   30  C   UNL     1     -11.046   8.203  70.716  1.00  0.00    -0.259 C  
HETATM   31  C   UNL     1     -12.409   7.806  71.292  1.00  0.00    -0.314 C  
HETATM   32  C   UNL     1     -10.622   7.278  69.569  1.00  0.00    -0.244 C  
HETATM   33  C   UNL     1      -9.997   8.115  71.836  1.00  0.00    -0.277 C  
ENDBRANCH  27  29
ENDBRANCH  26  27
ENDBRANCH  20  25
ENDBRANCH  13  19
ENDBRANCH   4   6
ENDBRANCH   3   4
ENDBRANCH   2   3
TORSDOF 10
ENDMDL
MODEL      203
REMARK 921   NORMALIZED FREE ENERGY PREDICTED BY IDOCK:    1.03 KCAL/MOL
REMARK 922        TOTAL FREE ENERGY PREDICTED BY IDOCK:   -0.74 KCAL/MOL
REMARK 923 INTER-LIGAND FREE ENERGY PREDICTED BY IDOCK:   -0.89 KCAL/MOL
REMARK 924 INTRA-LIGAND FREE ENERGY PREDICTED BY IDOCK:    0.15 KCAL/MOL
REMARK 927      BINDING AFFINITY PREDICTED BY RF-SCORE:    0.00 PKD
ROOT
HETATM    1  C   UNL     1     -12.526  10.506  71.286  1.00  0.00    -0.524 C  
HETATM    2  C   UNL     1     -13.103   9.698  70.140  1.00  0.00     0.694 C  
ENDROOT
BRANCH   2   3
HETATM    3  O   UNL     1     -12.250   8.569  69.877  1.00  0.00     0.671 OA 
BRANCH   3   4
HETATM    4  C   UNL     1     -10.922   8.838  69.899  1.00  0.00    -0.179 C  
HETATM    5  O   UNL     1     -10.401   9.834  69.417  1.00  0.00    -0.191 OA 
BRANCH   4   6
HETATM    6  C   UNL     1     -10.156   7.765  70.577  1.00  0.00    -0.192 C  
HETATM    7  C   UNL     1      -9.879   7.895  71.898  1.00  0.00    -0.178 C  
HETATM    8  C   UNL     1     -10.437   8.939  72.839  1.00  0.00     0.833 C  
HETATM    9  N   UNL     1      -8.999   7.015  72.502  1.00  0.00    -0.128 NA 
HETATM   10  C   UNL     1      -8.179   6.136  71.816  1.00  0.00    -0.114 C  
HETATM   11  C   UNL     1      -7.042   5.559  72.627  1.00  0.00    -0.088 C  
HETATM   12  C   UNL     1      -8.423   5.860  70.508  1.00  0.00    -0.128 C  
HETATM   13  C   UNL     1      -9.595   6.562  69.789  1.00  0.00    -0.161 C  
BRANCH  12  14
HETATM   14  C   UNL     1      -7.538   4.887  69.800  1.00  0.00    -0.056 C  
HETATM   15  O   UNL     1      -6.770   5.191  68.899  1.00  0.00    -0.046 OA 
BRANCH  14  16
HETATM   16  O   UNL     1      -7.670   3.628  70.285  1.00  0.00    -0.047 OA 
BRANCH  16  17
HETATM   17  C   UNL     1      -7.949   2.620  69.293  1.00  0.00    -0.044 C  
HETATM   18  C   UNL     1      -8.337   3.224  67.951  1.00  0.00    -0.096 C  
ENDBRANCH  16  17
ENDBRANCH  14  16
ENDBRANCH  12  14
BRANCH  13  19
HETATM   19  C   UNL     1      -9.340   6.847  68.301  1.00  0.00    -0.125 A  
HETATM   20  C   UNL     1      -8.289   7.646  67.808  1.00  0.00    -0.118 A  
HETATM   21  C   UNL     1      -8.132   7.769  66.412  1.00  0.00    -0.109 A  
HETATM   22  C   UNL     1     -10.204   6.211  67.373  1.00  0.00    -0.226 A  
HETATM   23  C   UNL     1     -10.030   6.347  66.000  1.00  0.00     0.209 A  
HETATM   24  C   UNL     1      -8.986   7.119  65.518  1.00  0.00     0.092 A  
BRANCH  20  25
HETATM   25  C   UNL     1      -7.386   8.401  68.694  1.00  0.00    -0.088 C  
HETATM   26  C   UNL     1      -6.690   9.475  68.290  1.00  0.00    -0.058 C  
BRANCH  26  27
HETATM   27  C   UNL     1      -5.860  10.312  69.179  1.00  0.00    -0.037 C  
HETATM   28  O   UNL     1      -5.619   9.969  70.327  1.00  0.00    -0.042 OA 
BRANCH  27  29
HETATM   29  O   UNL     1      -5.432  11.431  68.555  1.00  0.00    -0.043 OA 
HETATM   30  C   UNL     1      -5.976  12.727  68.915  1.00  0.00    -0.075 C  
HETATM   31  C   UNL     1      -7.494  12.787  68.718  1.00  0.00    -0.048 C  
HETATM   32  C   UNL     1      -5.572  13.107  70.344  1.00  0.00    -0.158 C  
HETATM   33  C   UNL     1      -5.317  13.713  67.936  1.00  0.00    -0.090 C  
ENDBRANCH  27  29
ENDBRANCH  26  27
ENDBRANCH  20  25
ENDBRANCH  13  19
ENDBRANCH   4   6
ENDBRANCH   3   4
ENDBRANCH   2   3
TORSDOF 10
ENDMDL
MODEL      204
REMARK 921   NORMALIZED FREE ENERGY PREDICTED BY IDOCK:    1.05 KCAL/MOL
REMARK 922        TOTAL FREE ENERGY PREDICTED BY IDOCK:   -0.70 KCAL/MOL
REMARK 923 INTER-LIGAND FREE ENERGY PREDICTED BY IDOCK:   -3.09 KCAL/MOL
REMARK 924 INTRA-LIGAND FREE ENERGY PREDICTED BY IDOCK:    2.39 KCAL/MOL
REMARK 927      BINDING AFFINITY PREDICTED BY RF-SCORE:    0.00 PKD
ROOT
HETATM    1  C   UNL     1     -11.123   1.548  71.638  1.00  0.00     1.041 C  
HETATM    2  C   UNL     1      -9.910   2.457  71.670  1.00  0.00    -0.146 C  
ENDROOT
BRANCH   2   3
HETATM    3  O   UNL     1     -10.304   3.762  72.131  1.00  0.00    -0.149 OA 
BRANCH   3   4
HETATM    4  C   UNL     1      -9.884   4.792  71.358  1.00  0.00    -0.187 C  
HETATM    5  O   UNL     1     -10.454   5.192  70.352  1.00  0.00    -0.267 OA 
BRANCH   4   6
HETATM    6  C   UNL     1      -8.626   5.386  71.871  1.00  0.00    -0.131 C  
HETATM    7  C   UNL     1      -7.741   4.585  72.513  1.00  0.00    -0.086 C  
HETATM    8  C   UNL     1      -7.789   3.077  72.605  1.00  0.00    -0.059 C  
HETATM    9  N   UNL     1      -6.663   5.148  73.174  1.00  0.00    -0.070 NA 
HETATM   10  C   UNL     1      -6.531   6.500  73.442  1.00  0.00    -0.065 C  
HETATM   11  C   UNL     1      -5.500   6.844  74.491  1.00  0.00    -0.062 C  
HETATM   12  C   UNL     1      -7.305   7.401  72.784  1.00  0.00    -0.084 C  
HETATM   13  C   UNL     1      -8.357   6.903  71.769  1.00  0.00    -0.108 C  
BRANCH  12  14
HETATM   14  C   UNL     1      -7.122   8.855  73.073  1.00  0.00     0.312 C  
HETATM   15  O   UNL     1      -7.071   9.328  74.200  1.00  0.00    -0.256 OA 
BRANCH  14  16
HETATM   16  O   UNL     1      -7.000   9.591  71.942  1.00  0.00    -0.285 OA 
BRANCH  16  17
HETATM   17  C   UNL     1      -5.666   9.660  71.401  1.00  0.00    -0.067 C  
HETATM   18  C   UNL     1      -5.215   8.330  70.811  1.00  0.00    -0.025 C  
ENDBRANCH  16  17
ENDBRANCH  14  16
ENDBRANCH  12  14
BRANCH  13  19
HETATM   19  C   UNL     1      -9.627   7.766  71.704  1.00  0.00    -0.191 A  
HETATM   20  C   UNL     1     -10.062   8.464  70.560  1.00  0.00    -0.211 A  
HETATM   21  C   UNL     1     -11.284   9.165  70.622  1.00  0.00    -0.322 A  
HETATM   22  C   UNL     1     -10.428   7.808  72.874  1.00  0.00    -0.412 A  
HETATM   23  C   UNL     1     -11.630   8.506  72.912  1.00  0.00     0.079 A  
HETATM   24  C   UNL     1     -12.064   9.178  71.780  1.00  0.00    -0.446 A  
BRANCH  20  25
HETATM   25  C   UNL     1      -9.262   8.535  69.325  1.00  0.00    -0.153 C  
HETATM   26  C   UNL     1      -8.181   7.770  69.107  1.00  0.00    -0.129 C  
BRANCH  26  27
HETATM   27  C   UNL     1      -7.422   7.744  67.841  1.00  0.00    -0.104 C  
HETATM   28  O   UNL     1      -7.286   8.753  67.164  1.00  0.00    -0.078 OA 
BRANCH  27  29
HETATM   29  O   UNL     1      -6.928   6.514  67.580  1.00  0.00    -0.073 OA 
HETATM   30  C   UNL     1      -7.678   5.578  66.763  1.00  0.00    -0.100 C  
HETATM   31  C   UNL     1      -9.055   5.272  67.360  1.00  0.00    -0.112 C  
HETATM   32  C   UNL     1      -7.782   6.082  65.319  1.00  0.00    -0.093 C  
HETATM   33  C   UNL     1      -6.841   4.289  66.778  1.00  0.00    -0.052 C  
ENDBRANCH  27  29
ENDBRANCH  26  27
ENDBRANCH  20  25
ENDBRANCH  13  19
ENDBRANCH   4   6
ENDBRANCH   3   4
ENDBRANCH   2   3
TORSDOF 10
ENDMDL
MODEL      205
REMARK 921   NORMALIZED FREE ENERGY PREDICTED BY IDOCK:    1.49 KCAL/MOL
REMARK 922        TOTAL FREE ENERGY PREDICTED BY IDOCK:    0.00 KCAL/MOL
REMARK 923 INTER-LIGAND FREE ENERGY PREDICTED BY IDOCK:   -1.39 KCAL/MOL
REMARK 924 INTRA-LIGAND FREE ENERGY PREDICTED BY IDOCK:    1.39 KCAL/MOL
REMARK 927      BINDING AFFINITY PREDICTED BY RF-SCORE:    0.00 PKD
ROOT
HETATM    1  C   UNL     1     -11.897  10.877  64.491  1.00  0.00     1.395 C  
HETATM    2  C   UNL     1     -11.052   9.924  65.313  1.00  0.00     2.027 C  
ENDROOT
BRANCH   2   3
HETATM    3  O   UNL     1     -10.282  10.674  66.269  1.00  0.00    -0.233 OA 
BRANCH   3   4
HETATM    4  C   UNL     1      -9.958  11.931  65.881  1.00  0.00    -0.234 C  
HETATM    5  O   UNL     1     -10.625  12.626  65.126  1.00  0.00    -0.284 OA 
BRANCH   4   6
HETATM    6  C   UNL     1      -8.675  12.376  66.477  1.00  0.00    -0.059 C  
HETATM    7  C   UNL     1      -7.599  11.556  66.395  1.00  0.00     0.027 C  
HETATM    8  C   UNL     1      -7.490  10.287  65.579  1.00  0.00    -0.149 C  
HETATM    9  N   UNL     1      -6.455  11.855  67.113  1.00  0.00    -0.140 NA 
HETATM   10  C   UNL     1      -6.387  12.813  68.111  1.00  0.00    -0.088 C  
HETATM   11  C   UNL     1      -5.180  12.709  69.014  1.00  0.00    -0.067 C  
HETATM   12  C   UNL     1      -7.368  13.745  68.224  1.00  0.00    -0.118 C  
HETATM   13  C   UNL     1      -8.574  13.702  67.260  1.00  0.00    -0.220 C  
BRANCH  12  14
HETATM   14  C   UNL     1      -7.255  14.783  69.293  1.00  0.00    -0.167 C  
HETATM   15  O   UNL     1      -7.735  14.668  70.412  1.00  0.00     0.464 OA 
BRANCH  14  16
HETATM   16  O   UNL     1      -6.543  15.862  68.886  1.00  0.00    -0.115 OA 
BRANCH  16  17
HETATM   17  C   UNL     1      -7.140  17.137  69.193  1.00  0.00    -0.213 C  
HETATM   18  C   UNL     1      -8.456  17.349  68.456  1.00  0.00    -0.274 C  
ENDBRANCH  16  17
ENDBRANCH  14  16
ENDBRANCH  12  14
BRANCH  13  19
HETATM   19  C   UNL     1      -9.897  14.168  67.886  1.00  0.00    -0.224 A  
HETATM   20  C   UNL     1     -10.605  13.461  68.878  1.00  0.00    -0.181 A  
HETATM   21  C   UNL     1     -11.775  14.038  69.413  1.00  0.00    -0.365 A  
HETATM   22  C   UNL     1     -10.398  15.423  67.456  1.00  0.00    -0.264 A  
HETATM   23  C   UNL     1     -11.555  15.974  67.998  1.00  0.00    -0.119 A  
HETATM   24  C   UNL     1     -12.239  15.284  68.985  1.00  0.00    -0.158 A  
BRANCH  20  25
HETATM   25  C   UNL     1     -10.200  12.120  69.335  1.00  0.00     0.455 C  
HETATM   26  C   UNL     1     -10.971  11.031  69.186  1.00  0.00    -0.289 C  
BRANCH  26  27
HETATM   27  C   UNL     1     -10.552   9.660  69.538  1.00  0.00    -0.229 C  
HETATM   28  O   UNL     1     -10.029   8.927  68.712  1.00  0.00    -0.173 OA 
BRANCH  27  29
HETATM   29  O   UNL     1     -10.811   9.376  70.833  1.00  0.00    -0.267 OA 
HETATM   30  C   UNL     1     -10.828   8.000  71.294  1.00  0.00    -0.232 C  
HETATM   31  C   UNL     1     -11.866   7.157  70.547  1.00  0.00    -0.286 C  
HETATM   32  C   UNL     1      -9.427   7.382  71.211  1.00  0.00    -0.159 C  
HETATM   33  C   UNL     1     -11.243   8.088  72.772  1.00  0.00    -0.448 C  
ENDBRANCH  27  29
ENDBRANCH  26  27
ENDBRANCH  20  25
ENDBRANCH  13  19
ENDBRANCH   4   6
ENDBRANCH   3   4
ENDBRANCH   2   3
TORSDOF 10
ENDMDL
MODEL      206
REMARK 921   NORMALIZED FREE ENERGY PREDICTED BY IDOCK:    1.53 KCAL/MOL
REMARK 922        TOTAL FREE ENERGY PREDICTED BY IDOCK:    0.06 KCAL/MOL
REMARK 923 INTER-LIGAND FREE ENERGY PREDICTED BY IDOCK:   -2.22 KCAL/MOL
REMARK 924 INTRA-LIGAND FREE ENERGY PREDICTED BY IDOCK:    2.28 KCAL/MOL
REMARK 927      BINDING AFFINITY PREDICTED BY RF-SCORE:    0.00 PKD
ROOT
HETATM    1  C   UNL     1     -10.888  17.102  69.059  1.00  0.00    -0.129 C  
HETATM    2  C   UNL     1     -11.255  15.672  68.713  1.00  0.00    -0.332 C  
ENDROOT
BRANCH   2   3
HETATM    3  O   UNL     1     -10.063  14.868  68.685  1.00  0.00    -0.223 OA 
BRANCH   3   4
HETATM    4  C   UNL     1     -10.120  13.735  69.426  1.00  0.00     0.402 C  
HETATM    5  O   UNL     1     -10.789  13.593  70.440  1.00  0.00     0.600 OA 
BRANCH   4   6
HETATM    6  C   UNL     1      -9.256  12.668  68.865  1.00  0.00     0.296 C  
HETATM    7  C   UNL     1      -8.365  12.992  67.896  1.00  0.00    -0.170 C  
HETATM    8  C   UNL     1      -7.998  14.384  67.436  1.00  0.00    -0.220 C  
HETATM    9  N   UNL     1      -7.696  11.988  67.219  1.00  0.00    -0.160 NA 
HETATM   10  C   UNL     1      -8.031  10.646  67.282  1.00  0.00    -0.116 C  
HETATM   11  C   UNL     1      -7.437   9.788  66.188  1.00  0.00    -0.101 C  
HETATM   12  C   UNL     1      -8.843  10.195  68.273  1.00  0.00    -0.124 C  
HETATM   13  C   UNL     1      -9.420  11.196  69.298  1.00  0.00     0.095 C  
BRANCH  12  14
HETATM   14  C   UNL     1      -9.165   8.738  68.333  1.00  0.00    -0.137 C  
HETATM   15  O   UNL     1      -8.536   7.924  68.994  1.00  0.00    -0.133 OA 
BRANCH  14  16
HETATM   16  O   UNL     1     -10.249   8.421  67.582  1.00  0.00    -0.204 OA 
BRANCH  16  17
HETATM   17  C   UNL     1     -10.429   7.013  67.336  1.00  0.00    -0.273 C  
HETATM   18  C   UNL     1      -9.932   6.601  65.957  1.00  0.00     0.281 C  
ENDBRANCH  16  17
ENDBRANCH  14  16
ENDBRANCH  12  14
BRANCH  13  19
HETATM   19  C   UNL     1     -10.827  10.839  69.803  1.00  0.00    -0.284 A  
HETATM   20  C   UNL     1     -12.004  10.955  69.038  1.00  0.00    -0.322 A  
HETATM   21  C   UNL     1     -13.222  10.529  69.605  1.00  0.00     0.972 A  
HETATM   22  C   UNL     1     -10.917  10.311  71.116  1.00  0.00     0.155 A  
HETATM   23  C   UNL     1     -12.130   9.896  71.656  1.00  0.00    -0.457 A  
HETATM   24  C   UNL     1     -13.284   9.997  70.895  1.00  0.00    -0.336 A  
BRANCH  20  25
HETATM   25  C   UNL     1     -12.018  11.557  67.694  1.00  0.00    -0.054 C  
HETATM   26  C   UNL     1     -12.085  12.881  67.483  1.00  0.00    -0.251 C  
BRANCH  26  27
HETATM   27  C   UNL     1     -11.995  13.519  66.155  1.00  0.00    -0.412 C  
HETATM   28  O   UNL     1     -11.392  14.570  65.996  1.00  0.00    -0.333 OA 
BRANCH  27  29
HETATM   29  O   UNL     1     -12.633  12.794  65.209  1.00  0.00    -0.575 OA 
HETATM   30  C   UNL     1     -11.878  12.001  64.258  1.00  0.00    -0.346 C  
HETATM   31  C   UNL     1     -10.911  12.858  63.435  1.00  0.00    -0.017 C  
HETATM   32  C   UNL     1     -11.156  10.848  64.965  1.00  0.00     0.090 C  
HETATM   33  C   UNL     1     -12.937  11.414  63.311  1.00  0.00     0.597 C  
ENDBRANCH  27  29
ENDBRANCH  26  27
ENDBRANCH  20  25
ENDBRANCH  13  19
ENDBRANCH   4   6
ENDBRANCH   3   4
ENDBRANCH   2   3
TORSDOF 10
ENDMDL
MODEL      207
REMARK 921   NORMALIZED FREE ENERGY PREDICTED BY IDOCK:    1.61 KCAL/MOL
REMARK 922        TOTAL FREE ENERGY PREDICTED BY IDOCK:    0.19 KCAL/MOL
REMARK 923 INTER-LIGAND FREE ENERGY PREDICTED BY IDOCK:   -3.29 KCAL/MOL
REMARK 924 INTRA-LIGAND FREE ENERGY PREDICTED BY IDOCK:    3.48 KCAL/MOL
REMARK 927      BINDING AFFINITY PREDICTED BY RF-SCORE:    0.00 PKD
ROOT
HETATM    1  C   UNL     1     -12.392  12.490  66.549  1.00  0.00     0.198 C  
HETATM    2  C   UNL     1     -11.017  12.013  66.121  1.00  0.00    -0.302 C  
ENDROOT
BRANCH   2   3
HETATM    3  O   UNL     1     -10.016  12.678  66.911  1.00  0.00    -0.223 OA 
BRANCH   3   4
HETATM    4  C   UNL     1     -10.346  12.868  68.211  1.00  0.00    -0.244 C  
HETATM    5  O   UNL     1     -10.961  12.067  68.902  1.00  0.00    -0.221 OA 
BRANCH   4   6
HETATM    6  C   UNL     1      -9.879  14.183  68.710  1.00  0.00    -0.168 C  
HETATM    7  C   UNL     1     -10.746  15.225  68.713  1.00  0.00    -0.241 C  
HETATM    8  C   UNL     1     -12.232  15.165  68.442  1.00  0.00     0.036 C  
HETATM    9  N   UNL     1     -10.281  16.501  68.980  1.00  0.00    -0.267 NA 
HETATM   10  C   UNL     1      -8.943  16.853  69.017  1.00  0.00    -0.167 C  
HETATM   11  C   UNL     1      -8.671  18.337  68.938  1.00  0.00    -0.141 C  
HETATM   12  C   UNL     1      -7.990  15.889  69.110  1.00  0.00    -0.233 C  
HETATM   13  C   UNL     1      -8.410  14.403  69.133  1.00  0.00     0.056 C  
BRANCH  12  14
HETATM   14  C   UNL     1      -6.555  16.299  69.176  1.00  0.00    -0.185 C  
HETATM   15  O   UNL     1      -5.879  16.264  70.194  1.00  0.00    -0.191 OA 
BRANCH  14  16
HETATM   16  O   UNL     1      -6.080  16.698  67.971  1.00  0.00    -0.114 OA 
BRANCH  16  17
HETATM   17  C   UNL     1      -5.189  17.829  68.012  1.00  0.00    -0.145 C  
HETATM   18  C   UNL     1      -5.920  19.148  67.797  1.00  0.00    -0.208 C  
ENDBRANCH  16  17
ENDBRANCH  14  16
ENDBRANCH  12  14
BRANCH  13  19
HETATM   19  C   UNL     1      -7.410  13.456  68.454  1.00  0.00    -0.112 A  
HETATM   20  C   UNL     1      -7.420  12.053  68.586  1.00  0.00    -0.113 A  
HETATM   21  C   UNL     1      -6.482  11.299  67.852  1.00  0.00    -0.058 A  
HETATM   22  C   UNL     1      -6.447  14.053  67.600  1.00  0.00    -0.156 A  
HETATM   23  C   UNL     1      -5.530  13.289  66.885  1.00  0.00     1.103 A  
HETATM   24  C   UNL     1      -5.554  11.909  67.004  1.00  0.00    -0.126 A  
BRANCH  20  25
HETATM   25  C   UNL     1      -8.335  11.352  69.502  1.00  0.00     0.605 C  
HETATM   26  C   UNL     1      -8.611  10.041  69.403  1.00  0.00    -0.182 C  
BRANCH  26  27
HETATM   27  C   UNL     1      -9.440   9.290  70.366  1.00  0.00    -0.246 C  
HETATM   28  O   UNL     1      -9.333   9.472  71.570  1.00  0.00    -0.200 OA 
BRANCH  27  29
HETATM   29  O   UNL     1     -10.284   8.439  69.742  1.00  0.00    -0.197 OA 
HETATM   30  C   UNL     1     -10.885   7.336  70.468  1.00  0.00    -0.243 C  
HETATM   31  C   UNL     1      -9.830   6.396  71.060  1.00  0.00    -0.200 C  
HETATM   32  C   UNL     1     -11.851   7.854  71.540  1.00  0.00    -0.322 C  
HETATM   33  C   UNL     1     -11.689   6.563  69.409  1.00  0.00    -0.088 C  
ENDBRANCH  27  29
ENDBRANCH  26  27
ENDBRANCH  20  25
ENDBRANCH  13  19
ENDBRANCH   4   6
ENDBRANCH   3   4
ENDBRANCH   2   3
TORSDOF 10
ENDMDL
MODEL      208
REMARK 921   NORMALIZED FREE ENERGY PREDICTED BY IDOCK:    1.63 KCAL/MOL
REMARK 922        TOTAL FREE ENERGY PREDICTED BY IDOCK:    0.22 KCAL/MOL
REMARK 923 INTER-LIGAND FREE ENERGY PREDICTED BY IDOCK:   -2.63 KCAL/MOL
REMARK 924 INTRA-LIGAND FREE ENERGY PREDICTED BY IDOCK:    2.85 KCAL/MOL
REMARK 927      BINDING AFFINITY PREDICTED BY RF-SCORE:    0.00 PKD
ROOT
HETATM    1  C   UNL     1      -6.089  11.814  67.441  1.00  0.00    -0.108 C  
HETATM    2  C   UNL     1      -6.034  11.254  66.033  1.00  0.00     0.006 C  
ENDROOT
BRANCH   2   3
HETATM    3  O   UNL     1      -5.161  10.111  66.009  1.00  0.00    -0.041 OA 
BRANCH   3   4
HETATM    4  C   UNL     1      -5.716   8.978  65.513  1.00  0.00    -0.050 C  
HETATM    5  O   UNL     1      -5.142   7.903  65.413  1.00  0.00    -0.028 OA 
BRANCH   4   6
HETATM    6  C   UNL     1      -7.120   9.195  65.089  1.00  0.00    -0.088 C  
HETATM    7  C   UNL     1      -7.358   9.901  63.957  1.00  0.00    -0.132 C  
HETATM    8  C   UNL     1      -6.334  10.346  62.937  1.00  0.00    -0.131 C  
HETATM    9  N   UNL     1      -8.651  10.289  63.651  1.00  0.00    -0.183 NA 
HETATM   10  C   UNL     1      -9.716  10.219  64.532  1.00  0.00    -0.329 C  
HETATM   11  C   UNL     1     -10.924  11.037  64.139  1.00  0.00    -0.133 C  
HETATM   12  C   UNL     1      -9.620   9.461  65.655  1.00  0.00    -0.345 C  
HETATM   13  C   UNL     1      -8.302   8.714  65.958  1.00  0.00    -0.135 C  
BRANCH  12  14
HETATM   14  C   UNL     1     -10.794   9.382  66.574  1.00  0.00     0.202 C  
HETATM   15  O   UNL     1     -11.633  10.265  66.690  1.00  0.00     0.309 OA 
BRANCH  14  16
HETATM   16  O   UNL     1     -10.836   8.211  67.254  1.00  0.00    -0.248 OA 
BRANCH  16  17
HETATM   17  C   UNL     1     -11.251   7.070  66.478  1.00  0.00     0.885 C  
HETATM   18  C   UNL     1     -10.646   5.771  66.994  1.00  0.00    -0.373 C  
ENDBRANCH  16  17
ENDBRANCH  14  16
ENDBRANCH  12  14
BRANCH  13  19
HETATM   19  C   UNL     1      -7.977   8.593  67.455  1.00  0.00    -0.102 A  
HETATM   20  C   UNL     1      -8.176   9.617  68.402  1.00  0.00    -0.106 A  
HETATM   21  C   UNL     1      -7.895   9.348  69.757  1.00  0.00    -0.115 A  
HETATM   22  C   UNL     1      -7.489   7.338  67.901  1.00  0.00    -0.102 A  
HETATM   23  C   UNL     1      -7.219   7.094  69.243  1.00  0.00    -0.085 A  
HETATM   24  C   UNL     1      -7.431   8.098  70.174  1.00  0.00    -0.061 A  
BRANCH  20  25
HETATM   25  C   UNL     1      -8.611  10.972  68.022  1.00  0.00    -0.134 C  
HETATM   26  C   UNL     1      -9.203  11.820  68.878  1.00  0.00     0.089 C  
BRANCH  26  27
HETATM   27  C   UNL     1      -9.555  13.217  68.557  1.00  0.00    -0.117 C  
HETATM   28  O   UNL     1      -9.405  13.664  67.430  1.00  0.00    -0.211 OA 
BRANCH  27  29
HETATM   29  O   UNL     1     -10.047  13.868  69.634  1.00  0.00     0.333 OA 
HETATM   30  C   UNL     1     -10.662  15.174  69.485  1.00  0.00    -0.266 C  
HETATM   31  C   UNL     1      -9.696  16.198  68.881  1.00  0.00    -0.242 C  
HETATM   32  C   UNL     1     -11.962  15.073  68.679  1.00  0.00    -0.278 C  
HETATM   33  C   UNL     1     -11.002  15.611  70.920  1.00  0.00    -0.311 C  
ENDBRANCH  27  29
ENDBRANCH  26  27
ENDBRANCH  20  25
ENDBRANCH  13  19
ENDBRANCH   4   6
ENDBRANCH   3   4
ENDBRANCH   2   3
TORSDOF 10
ENDMDL
MODEL      209
REMARK 921   NORMALIZED FREE ENERGY PREDICTED BY IDOCK:    2.30 KCAL/MOL
REMARK 922        TOTAL FREE ENERGY PREDICTED BY IDOCK:    1.27 KCAL/MOL
REMARK 923 INTER-LIGAND FREE ENERGY PREDICTED BY IDOCK:    0.21 KCAL/MOL
REMARK 924 INTRA-LIGAND FREE ENERGY PREDICTED BY IDOCK:    1.06 KCAL/MOL
REMARK 927      BINDING AFFINITY PREDICTED BY RF-SCORE:    0.00 PKD
ROOT
HETATM    1  C   UNL     1      -7.941  18.044  69.943  1.00  0.00     1.436 C  
HETATM    2  C   UNL     1      -9.272  17.875  69.237  1.00  0.00     0.218 C  
ENDROOT
BRANCH   2   3
HETATM    3  O   UNL     1     -10.089  16.951  69.978  1.00  0.00     0.153 OA 
BRANCH   3   4
HETATM    4  C   UNL     1      -9.813  15.642  69.760  1.00  0.00    -0.257 C  
HETATM    5  O   UNL     1      -9.103  14.948  70.475  1.00  0.00     0.799 OA 
BRANCH   4   6
HETATM    6  C   UNL     1     -10.471  15.139  68.530  1.00  0.00    -0.233 C  
HETATM    7  C   UNL     1     -11.825  15.101  68.484  1.00  0.00    -0.281 C  
HETATM    8  C   UNL     1     -12.781  15.704  69.488  1.00  0.00     0.255 C  
HETATM    9  N   UNL     1     -12.455  14.451  67.437  1.00  0.00    -0.028 NA 
HETATM   10  C   UNL     1     -11.814  13.620  66.534  1.00  0.00    -0.404 C  
HETATM   11  C   UNL     1     -12.729  12.725  65.731  1.00  0.00     0.147 C  
HETATM   12  C   UNL     1     -10.460  13.646  66.431  1.00  0.00    -0.288 C  
HETATM   13  C   UNL     1      -9.644  14.579  67.353  1.00  0.00    -0.212 C  
BRANCH  12  14
HETATM   14  C   UNL     1      -9.797  12.758  65.429  1.00  0.00    -0.128 C  
HETATM   15  O   UNL     1      -8.948  11.924  65.710  1.00  0.00    -0.104 OA 
BRANCH  14  16
HETATM   16  O   UNL     1     -10.258  12.970  64.172  1.00  0.00    -0.397 OA 
BRANCH  16  17
HETATM   17  C   UNL     1      -9.998  11.903  63.240  1.00  0.00    -0.380 C  
HETATM   18  C   UNL     1     -11.281  11.274  62.713  1.00  0.00     0.718 C  
ENDBRANCH  16  17
ENDBRANCH  14  16
ENDBRANCH  12  14
BRANCH  13  19
HETATM   19  C   UNL     1      -8.271  14.020  67.756  1.00  0.00    -0.169 A  
HETATM   20  C   UNL     1      -7.091  14.786  67.846  1.00  0.00    -0.171 A  
HETATM   21  C   UNL     1      -5.911  14.157  68.293  1.00  0.00    -0.119 A  
HETATM   22  C   UNL     1      -8.220  12.647  68.106  1.00  0.00    -0.170 A  
HETATM   23  C   UNL     1      -7.044  12.047  68.545  1.00  0.00    -0.098 A  
HETATM   24  C   UNL     1      -5.889  12.806  68.648  1.00  0.00    -0.064 A  
BRANCH  20  25
HETATM   25  C   UNL     1      -7.032  16.199  67.436  1.00  0.00    -0.215 C  
HETATM   26  C   UNL     1      -6.965  16.589  66.153  1.00  0.00     0.476 C  
BRANCH  26  27
HETATM   27  C   UNL     1      -7.010  17.995  65.707  1.00  0.00    -0.231 C  
HETATM   28  O   UNL     1      -6.527  18.336  64.637  1.00  0.00    -0.157 OA 
BRANCH  27  29
HETATM   29  O   UNL     1      -7.640  18.784  66.605  1.00  0.00    -0.227 OA 
HETATM   30  C   UNL     1      -8.817  19.541  66.221  1.00  0.00    -0.361 C  
HETATM   31  C   UNL     1      -8.528  20.504  65.065  1.00  0.00     1.306 C  
HETATM   32  C   UNL     1      -9.985  18.602  65.900  1.00  0.00    -0.123 C  
HETATM   33  C   UNL     1      -9.174  20.367  67.467  1.00  0.00    -0.475 C  
ENDBRANCH  27  29
ENDBRANCH  26  27
ENDBRANCH  20  25
ENDBRANCH  13  19
ENDBRANCH   4   6
ENDBRANCH   3   4
ENDBRANCH   2   3
TORSDOF 10
ENDMDL
MODEL      210
REMARK 921   NORMALIZED FREE ENERGY PREDICTED BY IDOCK:    2.50 KCAL/MOL
REMARK 922        TOTAL FREE ENERGY PREDICTED BY IDOCK:    1.60 KCAL/MOL
REMARK 923 INTER-LIGAND FREE ENERGY PREDICTED BY IDOCK:   -1.22 KCAL/MOL
REMARK 924 INTRA-LIGAND FREE ENERGY PREDICTED BY IDOCK:    2.82 KCAL/MOL
REMARK 927      BINDING AFFINITY PREDICTED BY RF-SCORE:    0.00 PKD
ROOT
HETATM    1  C   UNL     1     -13.745   9.062  71.088  1.00  0.00    -0.150 C  
HETATM    2  C   UNL     1     -12.571   8.975  70.132  1.00  0.00     0.923 C  
ENDROOT
BRANCH   2   3
HETATM    3  O   UNL     1     -12.660  10.042  69.171  1.00  0.00     0.469 OA 
BRANCH   3   4
HETATM    4  C   UNL     1     -11.526  10.271  68.465  1.00  0.00    -0.100 C  
HETATM    5  O   UNL     1     -11.477  10.840  67.383  1.00  0.00    -0.467 OA 
BRANCH   4   6
HETATM    6  C   UNL     1     -10.330   9.736  69.158  1.00  0.00    -0.225 C  
HETATM    7  C   UNL     1     -10.165  10.007  70.476  1.00  0.00    -0.092 C  
HETATM    8  C   UNL     1     -11.176  10.644  71.402  1.00  0.00     0.870 C  
HETATM    9  N   UNL     1      -8.966   9.695  71.093  1.00  0.00    -0.066 NA 
HETATM   10  C   UNL     1      -7.811   9.335  70.420  1.00  0.00    -0.148 C  
HETATM   11  C   UNL     1      -6.543   9.417  71.238  1.00  0.00    -0.023 C  
HETATM   12  C   UNL     1      -7.875   8.954  69.118  1.00  0.00    -0.093 C  
HETATM   13  C   UNL     1      -9.237   8.965  68.388  1.00  0.00    -0.140 C  
BRANCH  12  14
HETATM   14  C   UNL     1      -6.617   8.545  68.424  1.00  0.00    -0.060 C  
HETATM   15  O   UNL     1      -5.850   9.327  67.881  1.00  0.00    -0.041 OA 
BRANCH  14  16
HETATM   16  O   UNL     1      -6.413   7.207  68.481  1.00  0.00    -0.037 OA 
BRANCH  16  17
HETATM   17  C   UNL     1      -6.379   6.541  67.203  1.00  0.00    -0.041 C  
HETATM   18  C   UNL     1      -7.368   5.385  67.130  1.00  0.00    -0.083 C  
ENDBRANCH  16  17
ENDBRANCH  14  16
ENDBRANCH  12  14
BRANCH  13  19
HETATM   19  C   UNL     1      -9.148   9.318  66.896  1.00  0.00    -0.158 A  
HETATM   20  C   UNL     1      -8.818  10.592  66.393  1.00  0.00    -0.165 A  
HETATM   21  C   UNL     1      -8.708  10.759  64.998  1.00  0.00    -0.160 A  
HETATM   22  C   UNL     1      -9.369   8.259  65.977  1.00  0.00    -0.217 A  
HETATM   23  C   UNL     1      -9.254   8.447  64.604  1.00  0.00     0.662 A  
HETATM   24  C   UNL     1      -8.914   9.698  64.113  1.00  0.00    -0.269 A  
BRANCH  20  25
HETATM   25  C   UNL     1      -8.642  11.765  67.266  1.00  0.00    -0.162 C  
HETATM   26  C   UNL     1      -7.487  12.444  67.357  1.00  0.00    -0.157 C  
BRANCH  26  27
HETATM   27  C   UNL     1      -7.309  13.682  68.141  1.00  0.00    -0.121 C  
HETATM   28  O   UNL     1      -6.667  13.686  69.181  1.00  0.00    -0.108 OA 
BRANCH  27  29
HETATM   29  O   UNL     1      -7.918  14.737  67.555  1.00  0.00    -0.157 OA 
HETATM   30  C   UNL     1      -9.060  15.371  68.187  1.00  0.00    -0.184 C  
HETATM   31  C   UNL     1     -10.215  14.388  68.404  1.00  0.00    -0.243 C  
HETATM   32  C   UNL     1      -8.644  16.058  69.494  1.00  0.00    -0.034 C  
HETATM   33  C   UNL     1      -9.513  16.445  67.186  1.00  0.00    -0.238 C  
ENDBRANCH  27  29
ENDBRANCH  26  27
ENDBRANCH  20  25
ENDBRANCH  13  19
ENDBRANCH   4   6
ENDBRANCH   3   4
ENDBRANCH   2   3
TORSDOF 10
ENDMDL
MODEL      211
REMARK 921   NORMALIZED FREE ENERGY PREDICTED BY IDOCK:    2.58 KCAL/MOL
REMARK 922        TOTAL FREE ENERGY PREDICTED BY IDOCK:    1.73 KCAL/MOL
REMARK 923 INTER-LIGAND FREE ENERGY PREDICTED BY IDOCK:   -2.15 KCAL/MOL
REMARK 924 INTRA-LIGAND FREE ENERGY PREDICTED BY IDOCK:    3.88 KCAL/MOL
REMARK 927      BINDING AFFINITY PREDICTED BY RF-SCORE:    0.00 PKD
ROOT
HETATM    1  C   UNL     1     -11.878   7.761  67.038  1.00  0.00     3.366 C  
HETATM    2  C   UNL     1     -10.458   8.291  66.993  1.00  0.00    -0.314 C  
ENDROOT
BRANCH   2   3
HETATM    3  O   UNL     1     -10.470   9.707  67.246  1.00  0.00    -0.239 OA 
BRANCH   3   4
HETATM    4  C   UNL     1     -10.402  10.486  66.139  1.00  0.00    -0.210 C  
HETATM    5  O   UNL     1     -10.300  10.069  64.994  1.00  0.00    -0.193 OA 
BRANCH   4   6
HETATM    6  C   UNL     1     -10.455  11.928  66.480  1.00  0.00    -0.256 C  
HETATM    7  C   UNL     1      -9.884  12.819  65.633  1.00  0.00    -0.179 C  
HETATM    8  C   UNL     1      -9.351  12.535  64.247  1.00  0.00     0.561 C  
HETATM    9  N   UNL     1      -9.742  14.139  66.023  1.00  0.00    -0.296 NA 
HETATM   10  C   UNL     1      -9.924  14.595  67.318  1.00  0.00    -0.235 C  
HETATM   11  C   UNL     1      -9.350  15.964  67.599  1.00  0.00    -0.217 C  
HETATM   12  C   UNL     1     -10.570  13.818  68.226  1.00  0.00    -0.262 C  
HETATM   13  C   UNL     1     -11.062  12.414  67.813  1.00  0.00    -0.292 C  
BRANCH  12  14
HETATM   14  C   UNL     1     -10.776  14.346  69.608  1.00  0.00    -0.055 C  
HETATM   15  O   UNL     1      -9.874  14.750  70.328  1.00  0.00     0.289 OA 
BRANCH  14  16
HETATM   16  O   UNL     1     -12.083  14.344  69.968  1.00  0.00    -0.303 OA 
BRANCH  16  17
HETATM   17  C   UNL     1     -12.325  14.198  71.381  1.00  0.00    -0.344 C  
HETATM   18  C   UNL     1     -13.762  13.791  71.680  1.00  0.00    -0.364 C  
ENDBRANCH  16  17
ENDBRANCH  14  16
ENDBRANCH  12  14
BRANCH  13  19
HETATM   19  C   UNL     1     -11.015  11.374  68.943  1.00  0.00    -0.276 A  
HETATM   20  C   UNL     1      -9.856  10.681  69.346  1.00  0.00    -0.164 A  
HETATM   21  C   UNL     1      -9.943   9.801  70.444  1.00  0.00    -0.294 A  
HETATM   22  C   UNL     1     -12.225  11.146  69.649  1.00  0.00    -0.360 A  
HETATM   23  C   UNL     1     -12.287  10.273  70.730  1.00  0.00    -0.445 A  
HETATM   24  C   UNL     1     -11.142   9.606  71.134  1.00  0.00    -0.444 A  
BRANCH  20  25
HETATM   25  C   UNL     1      -8.575  10.800  68.630  1.00  0.00    -0.151 C  
HETATM   26  C   UNL     1      -7.659   9.819  68.599  1.00  0.00    -0.079 C  
BRANCH  26  27
HETATM   27  C   UNL     1      -6.414   9.867  67.806  1.00  0.00    -0.063 C  
HETATM   28  O   UNL     1      -5.378  10.308  68.280  1.00  0.00    -0.036 OA 
BRANCH  27  29
HETATM   29  O   UNL     1      -6.594   9.367  66.563  1.00  0.00    -0.066 OA 
HETATM   30  C   UNL     1      -6.530   7.937  66.330  1.00  0.00    -0.047 C  
HETATM   31  C   UNL     1      -5.177   7.348  66.741  1.00  0.00    -0.023 C  
HETATM   32  C   UNL     1      -7.696   7.222  67.023  1.00  0.00    -0.111 C  
HETATM   33  C   UNL     1      -6.689   7.782  64.809  1.00  0.00    -0.050 C  
ENDBRANCH  27  29
ENDBRANCH  26  27
ENDBRANCH  20  25
ENDBRANCH  13  19
ENDBRANCH   4   6
ENDBRANCH   3   4
ENDBRANCH   2   3
TORSDOF 10
ENDMDL
MODEL      212
REMARK 921   NORMALIZED FREE ENERGY PREDICTED BY IDOCK:    2.80 KCAL/MOL
REMARK 922        TOTAL FREE ENERGY PREDICTED BY IDOCK:    2.07 KCAL/MOL
REMARK 923 INTER-LIGAND FREE ENERGY PREDICTED BY IDOCK:   -2.88 KCAL/MOL
REMARK 924 INTRA-LIGAND FREE ENERGY PREDICTED BY IDOCK:    4.94 KCAL/MOL
REMARK 927      BINDING AFFINITY PREDICTED BY RF-SCORE:    0.00 PKD
ROOT
HETATM    1  C   UNL     1     -11.888  14.979  72.602  1.00  0.00    -0.403 C  
HETATM    2  C   UNL     1     -11.890  15.196  71.102  1.00  0.00    -0.343 C  
ENDROOT
BRANCH   2   3
HETATM    3  O   UNL     1     -12.610  14.125  70.466  1.00  0.00    -0.333 OA 
BRANCH   3   4
HETATM    4  C   UNL     1     -12.060  13.671  69.315  1.00  0.00    -0.314 C  
HETATM    5  O   UNL     1     -12.635  12.974  68.490  1.00  0.00     0.287 OA 
BRANCH   4   6
HETATM    6  C   UNL     1     -10.652  14.112  69.167  1.00  0.00    -0.176 C  
HETATM    7  C   UNL     1     -10.403  15.410  68.867  1.00  0.00    -0.233 C  
HETATM    8  C   UNL     1     -11.406  16.542  68.852  1.00  0.00    -0.206 C  
HETATM    9  N   UNL     1      -9.120  15.800  68.527  1.00  0.00    -0.187 NA 
HETATM   10  C   UNL     1      -8.090  14.923  68.233  1.00  0.00    -0.132 C  
HETATM   11  C   UNL     1      -6.909  15.541  67.521  1.00  0.00    -0.225 C  
HETATM   12  C   UNL     1      -8.195  13.613  68.576  1.00  0.00    -0.112 C  
HETATM   13  C   UNL     1      -9.485  13.106  69.257  1.00  0.00     0.788 C  
BRANCH  12  14
HETATM   14  C   UNL     1      -7.056  12.695  68.271  1.00  0.00    -0.105 C  
HETATM   15  O   UNL     1      -6.293  12.842  67.327  1.00  0.00    -0.174 OA 
BRANCH  14  16
HETATM   16  O   UNL     1      -6.954  11.688  69.172  1.00  0.00    -0.106 OA 
BRANCH  16  17
HETATM   17  C   UNL     1      -5.744  10.911  69.084  1.00  0.00    -0.040 C  
HETATM   18  C   UNL     1      -6.001   9.421  69.265  1.00  0.00    -0.037 C  
ENDBRANCH  16  17
ENDBRANCH  14  16
ENDBRANCH  12  14
BRANCH  13  19
HETATM   19  C   UNL     1      -9.865  11.663  68.890  1.00  0.00    -0.057 A  
HETATM   20  C   UNL     1     -10.096  11.206  67.577  1.00  0.00    -0.210 A  
HETATM   21  C   UNL     1     -10.374   9.839  67.377  1.00  0.00    -0.297 A  
HETATM   22  C   UNL     1      -9.935  10.732  69.957  1.00  0.00     0.413 A  
HETATM   23  C   UNL     1     -10.211   9.386  69.737  1.00  0.00    -0.238 A  
HETATM   24  C   UNL     1     -10.421   8.937  68.443  1.00  0.00    -0.230 A  
BRANCH  20  25
HETATM   25  C   UNL     1     -10.115  12.113  66.416  1.00  0.00    -0.242 C  
HETATM   26  C   UNL     1     -10.391  13.423  66.513  1.00  0.00    -0.284 C  
BRANCH  26  27
HETATM   27  C   UNL     1     -10.316  14.375  65.387  1.00  0.00    -0.378 C  
HETATM   28  O   UNL     1      -9.711  15.432  65.491  1.00  0.00    -0.331 OA 
BRANCH  27  29
HETATM   29  O   UNL     1     -10.966  13.912  64.297  1.00  0.00    -0.347 OA 
HETATM   30  C   UNL     1     -12.396  14.109  64.155  1.00  0.00    -0.335 C  
HETATM   31  C   UNL     1     -13.180  13.480  65.311  1.00  0.00     0.080 C  
HETATM   32  C   UNL     1     -12.724  15.598  63.988  1.00  0.00     0.770 C  
HETATM   33  C   UNL     1     -12.765  13.373  62.857  1.00  0.00     0.863 C  
ENDBRANCH  27  29
ENDBRANCH  26  27
ENDBRANCH  20  25
ENDBRANCH  13  19
ENDBRANCH   4   6
ENDBRANCH   3   4
ENDBRANCH   2   3
TORSDOF 10
ENDMDL
MODEL      213
REMARK 921   NORMALIZED FREE ENERGY PREDICTED BY IDOCK:    3.71 KCAL/MOL
REMARK 922        TOTAL FREE ENERGY PREDICTED BY IDOCK:    3.51 KCAL/MOL
REMARK 923 INTER-LIGAND FREE ENERGY PREDICTED BY IDOCK:   -1.84 KCAL/MOL
REMARK 924 INTRA-LIGAND FREE ENERGY PREDICTED BY IDOCK:    5.35 KCAL/MOL
REMARK 927      BINDING AFFINITY PREDICTED BY RF-SCORE:    0.00 PKD
ROOT
HETATM    1  C   UNL     1      -6.852  11.406  66.288  1.00  0.00     0.068 C  
HETATM    2  C   UNL     1      -7.696  10.266  66.824  1.00  0.00    -0.111 C  
ENDROOT
BRANCH   2   3
HETATM    3  O   UNL     1      -8.876  10.801  67.450  1.00  0.00    -0.129 OA 
BRANCH   3   4
HETATM    4  C   UNL     1      -8.723  11.154  68.750  1.00  0.00    -0.128 C  
HETATM    5  O   UNL     1      -9.244  12.127  69.278  1.00  0.00     0.448 OA 
BRANCH   4   6
HETATM    6  C   UNL     1      -7.827  10.219  69.471  1.00  0.00    -0.172 C  
HETATM    7  C   UNL     1      -6.523  10.152  69.106  1.00  0.00    -0.049 C  
HETATM    8  C   UNL     1      -5.802  11.079  68.154  1.00  0.00    -0.046 C  
HETATM    9  N   UNL     1      -5.720   9.150  69.622  1.00  0.00    -0.033 NA 
HETATM   10  C   UNL     1      -6.192   8.046  70.311  1.00  0.00    -0.032 C  
HETATM   11  C   UNL     1      -5.210   6.905  70.440  1.00  0.00    -0.019 C  
HETATM   12  C   UNL     1      -7.458   8.045  70.805  1.00  0.00    -0.072 C  
HETATM   13  C   UNL     1      -8.373   9.264  70.555  1.00  0.00    -0.237 C  
BRANCH  12  14
HETATM   14  C   UNL     1      -7.932   6.852  71.568  1.00  0.00    -0.104 C  
HETATM   15  O   UNL     1      -8.793   6.893  72.436  1.00  0.00    -0.130 OA 
BRANCH  14  16
HETATM   16  O   UNL     1      -7.312   5.713  71.176  1.00  0.00    -0.080 OA 
BRANCH  16  17
HETATM   17  C   UNL     1      -7.873   4.499  71.711  1.00  0.00    -0.096 C  
HETATM   18  C   UNL     1      -8.612   3.691  70.652  1.00  0.00    -0.112 C  
ENDBRANCH  16  17
ENDBRANCH  14  16
ENDBRANCH  12  14
BRANCH  13  19
HETATM   19  C   UNL     1      -9.860   8.913  70.395  1.00  0.00    -0.224 A  
HETATM   20  C   UNL     1     -10.348   7.818  69.655  1.00  0.00    -0.212 A  
HETATM   21  C   UNL     1     -11.737   7.574  69.648  1.00  0.00     0.400 A  
HETATM   22  C   UNL     1     -10.785   9.733  71.091  1.00  0.00    -0.284 A  
HETATM   23  C   UNL     1     -12.152   9.473  71.070  1.00  0.00    -0.398 A  
HETATM   24  C   UNL     1     -12.628   8.386  70.355  1.00  0.00     0.685 A  
BRANCH  20  25
HETATM   25  C   UNL     1      -9.470   6.957  68.845  1.00  0.00    -0.136 C  
HETATM   26  C   UNL     1      -9.719   6.657  67.560  1.00  0.00    -0.149 C  
BRANCH  26  27
HETATM   27  C   UNL     1      -8.808   5.884  66.694  1.00  0.00    -0.123 C  
HETATM   28  O   UNL     1      -9.213   4.941  66.030  1.00  0.00    -0.138 OA 
BRANCH  27  29
HETATM   29  O   UNL     1      -7.546   6.364  66.743  1.00  0.00    -0.095 OA 
HETATM   30  C   UNL     1      -6.415   5.485  66.506  1.00  0.00    -0.047 C  
HETATM   31  C   UNL     1      -6.375   4.321  67.501  1.00  0.00    -0.037 C  
HETATM   32  C   UNL     1      -6.406   4.993  65.054  1.00  0.00    -0.035 C  
HETATM   33  C   UNL     1      -5.179   6.369  66.737  1.00  0.00    -0.012 C  
ENDBRANCH  27  29
ENDBRANCH  26  27
ENDBRANCH  20  25
ENDBRANCH  13  19
ENDBRANCH   4   6
ENDBRANCH   3   4
ENDBRANCH   2   3
TORSDOF 10
ENDMDL
MODEL      214
REMARK 921   NORMALIZED FREE ENERGY PREDICTED BY IDOCK:    4.01 KCAL/MOL
REMARK 922        TOTAL FREE ENERGY PREDICTED BY IDOCK:    3.99 KCAL/MOL
REMARK 923 INTER-LIGAND FREE ENERGY PREDICTED BY IDOCK:   -4.24 KCAL/MOL
REMARK 924 INTRA-LIGAND FREE ENERGY PREDICTED BY IDOCK:    8.22 KCAL/MOL
REMARK 927      BINDING AFFINITY PREDICTED BY RF-SCORE:    0.00 PKD
ROOT
HETATM    1  C   UNL     1      -6.546  15.235  70.419  1.00  0.00     0.091 C  
HETATM    2  C   UNL     1      -6.755  13.766  70.106  1.00  0.00     0.186 C  
ENDROOT
BRANCH   2   3
HETATM    3  O   UNL     1      -5.804  13.352  69.109  1.00  0.00    -0.075 OA 
BRANCH   3   4
HETATM    4  C   UNL     1      -6.114  12.199  68.468  1.00  0.00    -0.051 C  
HETATM    5  O   UNL     1      -5.384  11.220  68.394  1.00  0.00    -0.043 OA 
BRANCH   4   6
HETATM    6  C   UNL     1      -7.457  12.262  67.844  1.00  0.00    -0.121 C  
HETATM    7  C   UNL     1      -8.410  13.032  68.423  1.00  0.00    -0.118 C  
HETATM    8  C   UNL     1      -8.213  14.017  69.554  1.00  0.00     0.618 C  
HETATM    9  N   UNL     1      -9.719  12.949  67.981  1.00  0.00    -0.218 NA 
HETATM   10  C   UNL     1     -10.197  11.960  67.139  1.00  0.00    -0.208 C  
HETATM   11  C   UNL     1     -11.702  11.831  67.097  1.00  0.00    -0.267 C  
HETATM   12  C   UNL     1      -9.328  11.190  66.434  1.00  0.00    -0.207 C  
HETATM   13  C   UNL     1      -7.809  11.400  66.613  1.00  0.00    -0.137 C  
BRANCH  12  14
HETATM   14  C   UNL     1      -9.873  10.149  65.511  1.00  0.00    -0.298 C  
HETATM   15  O   UNL     1     -10.358   9.090  65.884  1.00  0.00    -0.050 OA 
BRANCH  14  16
HETATM   16  O   UNL     1      -9.786  10.521  64.211  1.00  0.00    -0.279 OA 
BRANCH  16  17
HETATM   17  C   UNL     1     -10.923  11.247  63.708  1.00  0.00    -0.301 C  
HETATM   18  C   UNL     1     -10.635  12.735  63.557  1.00  0.00    -0.177 C  
ENDBRANCH  16  17
ENDBRANCH  14  16
ENDBRANCH  12  14
BRANCH  13  19
HETATM   19  C   UNL     1      -6.977  10.114  66.484  1.00  0.00    -0.102 A  
HETATM   20  C   UNL     1      -7.195   8.942  67.234  1.00  0.00    -0.083 A  
HETATM   21  C   UNL     1      -6.397   7.811  66.967  1.00  0.00    -0.054 A  
HETATM   22  C   UNL     1      -5.954  10.114  65.501  1.00  0.00    -0.097 A  
HETATM   23  C   UNL     1      -5.178   8.986  65.254  1.00  0.00    -0.037 A  
HETATM   24  C   UNL     1      -5.406   7.829  65.982  1.00  0.00    -0.028 A  
BRANCH  20  25
HETATM   25  C   UNL     1      -8.185   8.872  68.323  1.00  0.00    -0.121 C  
HETATM   26  C   UNL     1      -7.846   8.735  69.615  1.00  0.00    -0.090 C  
BRANCH  26  27
HETATM   27  C   UNL     1      -8.807   8.766  70.735  1.00  0.00    -0.191 C  
HETATM   28  O   UNL     1      -8.653   9.527  71.679  1.00  0.00    -0.107 OA 
BRANCH  27  29
HETATM   29  O   UNL     1      -9.817   7.889  70.551  1.00  0.00    -0.185 OA 
HETATM   30  C   UNL     1     -11.025   7.980  71.351  1.00  0.00    -0.234 C  
HETATM   31  C   UNL     1     -10.731   7.852  72.849  1.00  0.00    -0.440 C  
HETATM   32  C   UNL     1     -11.793   9.268  71.030  1.00  0.00    -0.376 C  
HETATM   33  C   UNL     1     -11.874   6.775  70.915  1.00  0.00    -0.438 C  
ENDBRANCH  27  29
ENDBRANCH  26  27
ENDBRANCH  20  25
ENDBRANCH  13  19
ENDBRANCH   4   6
ENDBRANCH   3   4
ENDBRANCH   2   3
TORSDOF 10
ENDMDL
MODEL      215
REMARK 921   NORMALIZED FREE ENERGY PREDICTED BY IDOCK:    4.34 KCAL/MOL
REMARK 922        TOTAL FREE ENERGY PREDICTED BY IDOCK:    4.52 KCAL/MOL
REMARK 923 INTER-LIGAND FREE ENERGY PREDICTED BY IDOCK:   -2.76 KCAL/MOL
REMARK 924 INTRA-LIGAND FREE ENERGY PREDICTED BY IDOCK:    7.28 KCAL/MOL
REMARK 927      BINDING AFFINITY PREDICTED BY RF-SCORE:    0.00 PKD
ROOT
HETATM    1  C   UNL     1      -7.711  10.812  65.127  1.00  0.00     0.100 C  
HETATM    2  C   UNL     1      -8.389  10.003  66.216  1.00  0.00    -0.127 C  
ENDROOT
BRANCH   2   3
HETATM    3  O   UNL     1      -8.455   8.623  65.813  1.00  0.00    -0.133 OA 
BRANCH   3   4
HETATM    4  C   UNL     1      -7.497   7.826  66.344  1.00  0.00    -0.084 C  
HETATM    5  O   UNL     1      -6.925   6.925  65.746  1.00  0.00    -0.061 OA 
BRANCH   4   6
HETATM    6  C   UNL     1      -7.221   8.167  67.760  1.00  0.00    -0.091 C  
HETATM    7  C   UNL     1      -6.871   9.440  68.069  1.00  0.00    -0.074 C  
HETATM    8  C   UNL     1      -6.913  10.637  67.147  1.00  0.00    -0.088 C  
HETATM    9  N   UNL     1      -6.415   9.734  69.342  1.00  0.00    -0.047 NA 
HETATM   10  C   UNL     1      -6.056   8.784  70.282  1.00  0.00    -0.030 C  
HETATM   11  C   UNL     1      -5.233   9.307  71.437  1.00  0.00    -0.046 C  
HETATM   12  C   UNL     1      -6.438   7.490  70.120  1.00  0.00    -0.034 C  
HETATM   13  C   UNL     1      -7.237   7.085  68.862  1.00  0.00    -0.091 C  
BRANCH  12  14
HETATM   14  C   UNL     1      -6.060   6.491  71.164  1.00  0.00    -0.039 C  
HETATM   15  O   UNL     1      -5.131   5.704  71.054  1.00  0.00    -0.008 OA 
BRANCH  14  16
HETATM   16  O   UNL     1      -6.855   6.569  72.259  1.00  0.00    -0.066 OA 
BRANCH  16  17
HETATM   17  C   UNL     1      -6.374   5.854  73.413  1.00  0.00    -0.067 C  
HETATM   18  C   UNL     1      -5.446   6.704  74.272  1.00  0.00    -0.051 C  
ENDBRANCH  16  17
ENDBRANCH  14  16
ENDBRANCH  12  14
BRANCH  13  19
HETATM   19  C   UNL     1      -6.937   5.666  68.356  1.00  0.00    -0.065 A  
HETATM   20  C   UNL     1      -7.789   4.558  68.530  1.00  0.00    -0.079 A  
HETATM   21  C   UNL     1      -7.419   3.325  67.955  1.00  0.00    -0.054 A  
HETATM   22  C   UNL     1      -5.735   5.493  67.621  1.00  0.00    -0.013 A  
HETATM   23  C   UNL     1      -5.390   4.266  67.062  1.00  0.00    -0.013 A  
HETATM   24  C   UNL     1      -6.239   3.182  67.222  1.00  0.00    -0.032 A  
BRANCH  20  25
HETATM   25  C   UNL     1      -9.020   4.625  69.336  1.00  0.00    -0.140 C  
HETATM   26  C   UNL     1      -9.016   4.817  70.665  1.00  0.00    -0.163 C  
BRANCH  26  27
HETATM   27  C   UNL     1     -10.232   4.994  71.484  1.00  0.00    -0.204 C  
HETATM   28  O   UNL     1     -10.904   4.035  71.833  1.00  0.00     0.199 OA 
BRANCH  27  29
HETATM   29  O   UNL     1     -10.455   6.294  71.773  1.00  0.00    -0.204 OA 
HETATM   30  C   UNL     1     -11.314   7.100  70.925  1.00  0.00    -0.286 C  
HETATM   31  C   UNL     1     -10.805   7.155  69.481  1.00  0.00    -0.244 C  
HETATM   32  C   UNL     1     -12.764   6.608  70.999  1.00  0.00    -0.084 C  
HETATM   33  C   UNL     1     -11.239   8.514  71.524  1.00  0.00    -0.345 C  
ENDBRANCH  27  29
ENDBRANCH  26  27
ENDBRANCH  20  25
ENDBRANCH  13  19
ENDBRANCH   4   6
ENDBRANCH   3   4
ENDBRANCH   2   3
TORSDOF 10
ENDMDL
MODEL      216
REMARK 921   NORMALIZED FREE ENERGY PREDICTED BY IDOCK:    4.51 KCAL/MOL
REMARK 922        TOTAL FREE ENERGY PREDICTED BY IDOCK:    4.78 KCAL/MOL
REMARK 923 INTER-LIGAND FREE ENERGY PREDICTED BY IDOCK:   -1.11 KCAL/MOL
REMARK 924 INTRA-LIGAND FREE ENERGY PREDICTED BY IDOCK:    5.89 KCAL/MOL
REMARK 927      BINDING AFFINITY PREDICTED BY RF-SCORE:    0.00 PKD
ROOT
HETATM    1  C   UNL     1     -10.168  15.531  71.365  1.00  0.00     1.187 C  
HETATM    2  C   UNL     1      -9.434  15.316  70.055  1.00  0.00     0.123 C  
ENDROOT
BRANCH   2   3
HETATM    3  O   UNL     1      -8.565  14.176  70.178  1.00  0.00     1.287 OA 
BRANCH   3   4
HETATM    4  C   UNL     1      -7.943  13.807  69.033  1.00  0.00     0.136 C  
HETATM    5  O   UNL     1      -7.238  12.815  68.906  1.00  0.00    -0.097 OA 
BRANCH   4   6
HETATM    6  C   UNL     1      -8.206  14.764  67.931  1.00  0.00    -0.154 C  
HETATM    7  C   UNL     1      -7.896  16.070  68.113  1.00  0.00    -0.141 C  
HETATM    8  C   UNL     1      -7.112  16.661  69.264  1.00  0.00    -0.212 C  
HETATM    9  N   UNL     1      -8.315  17.009  67.187  1.00  0.00    -0.185 NA 
HETATM   10  C   UNL     1      -9.243  16.761  66.189  1.00  0.00    -0.249 C  
HETATM   11  C   UNL     1      -9.838  17.994  65.551  1.00  0.00     0.577 C  
HETATM   12  C   UNL     1      -9.559  15.482  65.859  1.00  0.00    -0.383 C  
HETATM   13  C   UNL     1      -8.907  14.314  66.631  1.00  0.00    -0.167 C  
BRANCH  12  14
HETATM   14  C   UNL     1     -10.542  15.244  64.760  1.00  0.00    -0.254 C  
HETATM   15  O   UNL     1     -11.417  16.036  64.441  1.00  0.00    -0.440 OA 
BRANCH  14  16
HETATM   16  O   UNL     1     -10.341  14.054  64.142  1.00  0.00    -0.131 OA 
BRANCH  16  17
HETATM   17  C   UNL     1     -11.464  13.152  64.178  1.00  0.00    -0.403 C  
HETATM   18  C   UNL     1     -12.758  13.824  63.737  1.00  0.00     0.164 C  
ENDBRANCH  16  17
ENDBRANCH  14  16
ENDBRANCH  12  14
BRANCH  13  19
HETATM   19  C   UNL     1      -9.815  13.085  66.797  1.00  0.00    -0.243 A  
HETATM   20  C   UNL     1      -9.382  11.749  66.686  1.00  0.00    -0.205 A  
HETATM   21  C   UNL     1     -10.310  10.716  66.928  1.00  0.00    -0.288 A  
HETATM   22  C   UNL     1     -11.170  13.336  67.133  1.00  0.00    -0.327 A  
HETATM   23  C   UNL     1     -12.069  12.301  67.368  1.00  0.00    -0.021 A  
HETATM   24  C   UNL     1     -11.636  10.988  67.275  1.00  0.00    -0.021 A  
BRANCH  20  25
HETATM   25  C   UNL     1      -8.014  11.393  66.272  1.00  0.00    -0.037 C  
HETATM   26  C   UNL     1      -7.737  10.354  65.468  1.00  0.00    -0.147 C  
BRANCH  26  27
HETATM   27  C   UNL     1      -6.391  10.035  64.953  1.00  0.00    -0.118 C  
HETATM   28  O   UNL     1      -5.924  10.630  63.993  1.00  0.00    -0.090 OA 
BRANCH  27  29
HETATM   29  O   UNL     1      -5.799   9.058  65.674  1.00  0.00    -0.049 OA 
HETATM   30  C   UNL     1      -6.034   8.953  67.102  1.00  0.00    -0.057 C  
HETATM   31  C   UNL     1      -5.617  10.225  67.847  1.00  0.00    -0.041 C  
HETATM   32  C   UNL     1      -7.493   8.579  67.386  1.00  0.00    -0.093 C  
HETATM   33  C   UNL     1      -5.129   7.798  67.562  1.00  0.00    -0.030 C  
ENDBRANCH  27  29
ENDBRANCH  26  27
ENDBRANCH  20  25
ENDBRANCH  13  19
ENDBRANCH   4   6
ENDBRANCH   3   4
ENDBRANCH   2   3
TORSDOF 10
ENDMDL
MODEL      217
REMARK 921   NORMALIZED FREE ENERGY PREDICTED BY IDOCK:    4.54 KCAL/MOL
REMARK 922        TOTAL FREE ENERGY PREDICTED BY IDOCK:    4.83 KCAL/MOL
REMARK 923 INTER-LIGAND FREE ENERGY PREDICTED BY IDOCK:    1.03 KCAL/MOL
REMARK 924 INTRA-LIGAND FREE ENERGY PREDICTED BY IDOCK:    3.80 KCAL/MOL
REMARK 927      BINDING AFFINITY PREDICTED BY RF-SCORE:    0.00 PKD
ROOT
HETATM    1  C   UNL     1      -5.766  11.681  68.628  1.00  0.00    -0.045 C  
HETATM    2  C   UNL     1      -5.938  13.187  68.580  1.00  0.00    -0.081 C  
ENDROOT
BRANCH   2   3
HETATM    3  O   UNL     1      -6.879  13.526  67.547  1.00  0.00    -0.166 OA 
BRANCH   3   4
HETATM    4  C   UNL     1      -7.127  12.539  66.652  1.00  0.00     0.584 C  
HETATM    5  O   UNL     1      -6.356  11.628  66.382  1.00  0.00    -0.068 OA 
BRANCH   4   6
HETATM    6  C   UNL     1      -8.458  12.694  66.018  1.00  0.00     0.708 C  
HETATM    7  C   UNL     1      -8.815  11.835  65.032  1.00  0.00     0.460 C  
HETATM    8  C   UNL     1      -8.081  10.581  64.616  1.00  0.00    -0.064 C  
HETATM    9  N   UNL     1      -9.957  12.082  64.290  1.00  0.00    -0.265 NA 
HETATM   10  C   UNL     1     -10.659  13.275  64.310  1.00  0.00    -0.384 C  
HETATM   11  C   UNL     1     -11.622  13.468  63.162  1.00  0.00     0.451 C  
HETATM   12  C   UNL     1     -10.448  14.170  65.310  1.00  0.00    -0.402 C  
HETATM   13  C   UNL     1      -9.393  13.863  66.396  1.00  0.00    -0.226 C  
BRANCH  12  14
HETATM   14  C   UNL     1     -11.239  15.437  65.321  1.00  0.00    -0.310 C  
HETATM   15  O   UNL     1     -11.067  16.358  64.535  1.00  0.00    -0.742 OA 
BRANCH  14  16
HETATM   16  O   UNL     1     -12.183  15.443  66.293  1.00  0.00     0.417 OA 
BRANCH  16  17
HETATM   17  C   UNL     1     -12.854  14.184  66.498  1.00  0.00     0.314 C  
HETATM   18  C   UNL     1     -12.170  13.332  67.558  1.00  0.00    -0.213 C  
ENDBRANCH  16  17
ENDBRANCH  14  16
ENDBRANCH  12  14
BRANCH  13  19
HETATM   19  C   UNL     1      -8.665  15.104  66.935  1.00  0.00    -0.289 A  
HETATM   20  C   UNL     1      -8.910  15.692  68.191  1.00  0.00    -0.174 A  
HETATM   21  C   UNL     1      -8.121  16.791  68.588  1.00  0.00    -0.251 A  
HETATM   22  C   UNL     1      -7.644  15.649  66.115  1.00  0.00     1.206 A  
HETATM   23  C   UNL     1      -6.877  16.734  66.526  1.00  0.00    -0.200 A  
HETATM   24  C   UNL     1      -7.110  17.300  67.769  1.00  0.00    -0.173 A  
BRANCH  20  25
HETATM   25  C   UNL     1      -9.996  15.240  69.078  1.00  0.00    -0.229 C  
HETATM   26  C   UNL     1     -10.183  15.727  70.315  1.00  0.00    -0.073 C  
BRANCH  26  27
HETATM   27  C   UNL     1     -11.320  15.370  71.187  1.00  0.00    -0.378 C  
HETATM   28  O   UNL     1     -11.541  15.983  72.221  1.00  0.00    -0.440 OA 
BRANCH  27  29
HETATM   29  O   UNL     1     -12.032  14.338  70.682  1.00  0.00    -0.301 OA 
HETATM   30  C   UNL     1     -13.422  14.153  71.054  1.00  0.00    -0.172 C  
HETATM   31  C   UNL     1     -13.593  13.977  72.566  1.00  0.00    -0.670 C  
HETATM   32  C   UNL     1     -14.285  15.298  70.513  1.00  0.00     0.603 C  
HETATM   33  C   UNL     1     -13.841  12.847  70.360  1.00  0.00     2.603 C  
ENDBRANCH  27  29
ENDBRANCH  26  27
ENDBRANCH  20  25
ENDBRANCH  13  19
ENDBRANCH   4   6
ENDBRANCH   3   4
ENDBRANCH   2   3
TORSDOF 10
ENDMDL
MODEL      218
REMARK 921   NORMALIZED FREE ENERGY PREDICTED BY IDOCK:    5.71 KCAL/MOL
REMARK 922        TOTAL FREE ENERGY PREDICTED BY IDOCK:    6.68 KCAL/MOL
REMARK 923 INTER-LIGAND FREE ENERGY PREDICTED BY IDOCK:   -2.00 KCAL/MOL
REMARK 924 INTRA-LIGAND FREE ENERGY PREDICTED BY IDOCK:    8.68 KCAL/MOL
REMARK 927      BINDING AFFINITY PREDICTED BY RF-SCORE:    0.00 PKD
ROOT
HETATM    1  C   UNL     1      -6.964  12.406  70.052  1.00  0.00     0.706 C  
HETATM    2  C   UNL     1      -6.344  11.058  70.363  1.00  0.00    -0.060 C  
ENDROOT
BRANCH   2   3
HETATM    3  O   UNL     1      -6.112  10.346  69.135  1.00  0.00    -0.037 OA 
BRANCH   3   4
HETATM    4  C   UNL     1      -7.225   9.844  68.546  1.00  0.00    -0.076 C  
HETATM    5  O   UNL     1      -7.784   8.806  68.874  1.00  0.00    -0.092 OA 
BRANCH   4   6
HETATM    6  C   UNL     1      -7.692  10.703  67.432  1.00  0.00    -0.106 C  
HETATM    7  C   UNL     1      -7.478  12.040  67.505  1.00  0.00    -0.140 C  
HETATM    8  C   UNL     1      -6.626  12.764  68.522  1.00  0.00    -0.086 C  
HETATM    9  N   UNL     1      -8.079  12.880  66.584  1.00  0.00     0.165 NA 
HETATM   10  C   UNL     1      -9.086  12.495  65.716  1.00  0.00     0.230 C  
HETATM   11  C   UNL     1      -9.854  13.633  65.085  1.00  0.00    -0.115 C  
HETATM   12  C   UNL     1      -9.325  11.176  65.496  1.00  0.00    -0.247 C  
HETATM   13  C   UNL     1      -8.492  10.116  66.250  1.00  0.00    -0.132 C  
BRANCH  12  14
HETATM   14  C   UNL     1     -10.400  10.789  64.533  1.00  0.00    -0.331 C  
HETATM   15  O   UNL     1     -11.479  11.358  64.448  1.00  0.00    -0.225 OA 
BRANCH  14  16
HETATM   16  O   UNL     1     -10.035   9.745  63.749  1.00  0.00     0.273 OA 
BRANCH  16  17
HETATM   17  C   UNL     1      -9.504  10.108  62.460  1.00  0.00    -0.235 C  
HETATM   18  C   UNL     1      -8.397  11.149  62.564  1.00  0.00    -0.182 C  
ENDBRANCH  16  17
ENDBRANCH  14  16
ENDBRANCH  12  14
BRANCH  13  19
HETATM   19  C   UNL     1      -9.265   8.832  66.587  1.00  0.00    -0.223 A  
HETATM   20  C   UNL     1      -8.847   7.532  66.241  1.00  0.00    -0.184 A  
HETATM   21  C   UNL     1      -9.622   6.436  66.672  1.00  0.00    -0.194 A  
HETATM   22  C   UNL     1     -10.455   8.986  67.344  1.00  0.00    -0.338 A  
HETATM   23  C   UNL     1     -11.204   7.890  67.759  1.00  0.00     0.483 A  
HETATM   24  C   UNL     1     -10.782   6.612  67.431  1.00  0.00    -0.409 A  
BRANCH  20  25
HETATM   25  C   UNL     1      -7.666   7.279  65.398  1.00  0.00    -0.111 C  
HETATM   26  C   UNL     1      -7.461   6.121  64.750  1.00  0.00    -0.084 C  
BRANCH  26  27
HETATM   27  C   UNL     1      -6.343   5.875  63.818  1.00  0.00    -0.029 C  
HETATM   28  O   UNL     1      -5.345   6.580  63.827  1.00  0.00    -0.024 OA 
BRANCH  27  29
HETATM   29  O   UNL     1      -6.583   4.812  63.020  1.00  0.00    -0.026 OA 
HETATM   30  C   UNL     1      -6.810   3.498  63.593  1.00  0.00    -0.043 C  
HETATM   31  C   UNL     1      -5.623   3.028  64.439  1.00  0.00    -0.010 C  
HETATM   32  C   UNL     1      -8.121   3.473  64.389  1.00  0.00    -0.086 C  
HETATM   33  C   UNL     1      -6.948   2.562  62.382  1.00  0.00    -0.027 C  
ENDBRANCH  27  29
ENDBRANCH  26  27
ENDBRANCH  20  25
ENDBRANCH  13  19
ENDBRANCH   4   6
ENDBRANCH   3   4
ENDBRANCH   2   3
TORSDOF 10
ENDMDL
MODEL      219
REMARK 921   NORMALIZED FREE ENERGY PREDICTED BY IDOCK:    6.15 KCAL/MOL
REMARK 922        TOTAL FREE ENERGY PREDICTED BY IDOCK:    7.38 KCAL/MOL
REMARK 923 INTER-LIGAND FREE ENERGY PREDICTED BY IDOCK:    3.09 KCAL/MOL
REMARK 924 INTRA-LIGAND FREE ENERGY PREDICTED BY IDOCK:    4.29 KCAL/MOL
REMARK 927      BINDING AFFINITY PREDICTED BY RF-SCORE:    0.00 PKD
ROOT
HETATM    1  C   UNL     1      -8.446  13.998  65.782  1.00  0.00     1.836 C  
HETATM    2  C   UNL     1      -7.511  15.090  66.263  1.00  0.00     1.964 C  
ENDROOT
BRANCH   2   3
HETATM    3  O   UNL     1      -7.237  14.901  67.662  1.00  0.00    -0.153 OA 
BRANCH   3   4
HETATM    4  C   UNL     1      -8.015  13.978  68.277  1.00  0.00    -0.146 C  
HETATM    5  O   UNL     1      -7.927  12.768  68.119  1.00  0.00    -0.137 OA 
BRANCH   4   6
HETATM    6  C   UNL     1      -9.013  14.612  69.173  1.00  0.00    -0.025 C  
HETATM    7  C   UNL     1      -8.574  15.406  70.180  1.00  0.00     0.614 C  
HETATM    8  C   UNL     1      -7.160  15.896  70.393  1.00  0.00     0.863 C  
HETATM    9  N   UNL     1      -9.465  15.841  71.145  1.00  0.00     2.252 NA 
HETATM   10  C   UNL     1     -10.745  15.340  71.310  1.00  0.00     0.137 C  
HETATM   11  C   UNL     1     -11.393  15.667  72.635  1.00  0.00    -0.171 C  
HETATM   12  C   UNL     1     -11.320  14.608  70.320  1.00  0.00    -0.253 C  
HETATM   13  C   UNL     1     -10.520  14.308  69.034  1.00  0.00    -0.212 C  
BRANCH  12  14
HETATM   14  C   UNL     1     -12.712  14.103  70.514  1.00  0.00    -0.309 C  
HETATM   15  O   UNL     1     -13.480  13.846  69.598  1.00  0.00     1.246 OA 
BRANCH  14  16
HETATM   16  O   UNL     1     -13.022  13.944  71.824  1.00  0.00    -0.329 OA 
BRANCH  16  17
HETATM   17  C   UNL     1     -13.454  12.620  72.191  1.00  0.00    -0.460 C  
HETATM   18  C   UNL     1     -13.215  11.607  71.080  1.00  0.00     0.110 C  
ENDBRANCH  16  17
ENDBRANCH  14  16
ENDBRANCH  12  14
BRANCH  13  19
HETATM   19  C   UNL     1     -10.833  12.942  68.403  1.00  0.00    -0.276 A  
HETATM   20  C   UNL     1     -11.075  12.731  67.031  1.00  0.00    -0.316 A  
HETATM   21  C   UNL     1     -11.284  11.413  66.577  1.00  0.00    -0.276 A  
HETATM   22  C   UNL     1     -10.823  11.822  69.273  1.00  0.00    -0.185 A  
HETATM   23  C   UNL     1     -11.032  10.530  68.803  1.00  0.00    -0.296 A  
HETATM   24  C   UNL     1     -11.253  10.323  67.451  1.00  0.00    -0.145 A  
BRANCH  20  25
HETATM   25  C   UNL     1     -11.173  13.840  66.066  1.00  0.00    -0.307 C  
HETATM   26  C   UNL     1     -11.124  15.132  66.425  1.00  0.00    -0.312 C  
BRANCH  26  27
HETATM   27  C   UNL     1     -11.116  16.261  65.474  1.00  0.00    -0.033 C  
HETATM   28  O   UNL     1     -12.020  16.415  64.667  1.00  0.00    -0.057 OA 
BRANCH  27  29
HETATM   29  O   UNL     1     -10.029  17.046  65.640  1.00  0.00    -0.554 OA 
HETATM   30  C   UNL     1     -10.139  18.318  66.330  1.00  0.00    -0.396 C  
HETATM   31  C   UNL     1     -11.136  19.258  65.646  1.00  0.00     0.097 C  
HETATM   32  C   UNL     1     -10.481  18.105  67.810  1.00  0.00    -0.421 C  
HETATM   33  C   UNL     1      -8.736  18.939  66.232  1.00  0.00    -0.260 C  
ENDBRANCH  27  29
ENDBRANCH  26  27
ENDBRANCH  20  25
ENDBRANCH  13  19
ENDBRANCH   4   6
ENDBRANCH   3   4
ENDBRANCH   2   3
TORSDOF 10
ENDMDL
MODEL      220
REMARK 921   NORMALIZED FREE ENERGY PREDICTED BY IDOCK:    7.07 KCAL/MOL
REMARK 922        TOTAL FREE ENERGY PREDICTED BY IDOCK:    8.84 KCAL/MOL
REMARK 923 INTER-LIGAND FREE ENERGY PREDICTED BY IDOCK:   -2.29 KCAL/MOL
REMARK 924 INTRA-LIGAND FREE ENERGY PREDICTED BY IDOCK:   11.13 KCAL/MOL
REMARK 927      BINDING AFFINITY PREDICTED BY RF-SCORE:    0.00 PKD
ROOT
HETATM    1  C   UNL     1     -11.790  10.940  66.780  1.00  0.00     1.052 C  
HETATM    2  C   UNL     1     -10.473  11.421  67.357  1.00  0.00    -0.205 C  
ENDROOT
BRANCH   2   3
HETATM    3  O   UNL     1     -10.173  12.727  66.832  1.00  0.00    -0.233 OA 
BRANCH   3   4
HETATM    4  C   UNL     1     -10.468  12.898  65.521  1.00  0.00    -0.289 C  
HETATM    5  O   UNL     1     -11.284  13.697  65.084  1.00  0.00    -0.298 OA 
BRANCH   4   6
HETATM    6  C   UNL     1      -9.683  11.982  64.658  1.00  0.00    -0.107 C  
HETATM    7  C   UNL     1     -10.241  11.531  63.508  1.00  0.00    -0.420 C  
HETATM    8  C   UNL     1     -11.531  12.009  62.881  1.00  0.00     0.196 C  
HETATM    9  N   UNL     1      -9.615  10.525  62.793  1.00  0.00    -0.315 NA 
HETATM   10  C   UNL     1      -8.567   9.759  63.276  1.00  0.00    -0.200 C  
HETATM   11  C   UNL     1      -8.298   8.488  62.505  1.00  0.00    -0.182 C  
HETATM   12  C   UNL     1      -7.875  10.170  64.370  1.00  0.00    -0.138 C  
HETATM   13  C   UNL     1      -8.293  11.470  65.091  1.00  0.00     0.577 C  
BRANCH  12  14
HETATM   14  C   UNL     1      -6.731   9.338  64.853  1.00  0.00    -0.079 C  
HETATM   15  O   UNL     1      -5.706   9.799  65.335  1.00  0.00    -0.056 OA 
BRANCH  14  16
HETATM   16  O   UNL     1      -6.967   8.011  64.712  1.00  0.00    -0.067 OA 
BRANCH  16  17
HETATM   17  C   UNL     1      -6.684   7.215  65.879  1.00  0.00    -0.053 C  
HETATM   18  C   UNL     1      -7.284   5.818  65.782  1.00  0.00    -0.075 C  
ENDBRANCH  16  17
ENDBRANCH  14  16
ENDBRANCH  12  14
BRANCH  13  19
HETATM   19  C   UNL     1      -8.076  11.443  66.612  1.00  0.00    -0.155 A  
HETATM   20  C   UNL     1      -7.843  12.583  67.407  1.00  0.00    -0.175 A  
HETATM   21  C   UNL     1      -7.728  12.420  68.803  1.00  0.00    -0.007 A  
HETATM   22  C   UNL     1      -8.171  10.178  67.246  1.00  0.00    -0.117 A  
HETATM   23  C   UNL     1      -8.054  10.041  68.626  1.00  0.00    -0.102 A  
HETATM   24  C   UNL     1      -7.841  11.165  69.407  1.00  0.00     0.063 A  
BRANCH  20  25
HETATM   25  C   UNL     1      -7.660  13.926  66.830  1.00  0.00     0.449 C  
HETATM   26  C   UNL     1      -8.256  15.023  67.322  1.00  0.00    -0.236 C  
BRANCH  26  27
HETATM   27  C   UNL     1      -8.011  16.394  66.832  1.00  0.00    -0.234 C  
HETATM   28  O   UNL     1      -6.960  16.692  66.286  1.00  0.00    -0.137 OA 
BRANCH  27  29
HETATM   29  O   UNL     1      -9.070  17.202  67.059  1.00  0.00    -0.220 OA 
HETATM   30  C   UNL     1     -10.190  16.740  67.858  1.00  0.00    -0.300 C  
HETATM   31  C   UNL     1     -10.840  15.486  67.264  1.00  0.00    -0.313 C  
HETATM   32  C   UNL     1      -9.765  16.525  69.315  1.00  0.00    -0.193 C  
HETATM   33  C   UNL     1     -11.209  17.890  67.804  1.00  0.00     0.277 C  
ENDBRANCH  27  29
ENDBRANCH  26  27
ENDBRANCH  20  25
ENDBRANCH  13  19
ENDBRANCH   4   6
ENDBRANCH   3   4
ENDBRANCH   2   3
TORSDOF 10
ENDMDL
MODEL      221
REMARK 921   NORMALIZED FREE ENERGY PREDICTED BY IDOCK:    7.24 KCAL/MOL
REMARK 922        TOTAL FREE ENERGY PREDICTED BY IDOCK:    9.10 KCAL/MOL
REMARK 923 INTER-LIGAND FREE ENERGY PREDICTED BY IDOCK:    8.34 KCAL/MOL
REMARK 924 INTRA-LIGAND FREE ENERGY PREDICTED BY IDOCK:    0.76 KCAL/MOL
REMARK 927      BINDING AFFINITY PREDICTED BY RF-SCORE:    0.00 PKD
ROOT
HETATM    1  C   UNL     1     -12.740  12.453  71.497  1.00  0.00    -0.333 C  
HETATM    2  C   UNL     1     -11.517  11.926  70.772  1.00  0.00     0.873 C  
ENDROOT
BRANCH   2   3
HETATM    3  O   UNL     1     -11.609  10.495  70.663  1.00  0.00    -0.319 OA 
BRANCH   3   4
HETATM    4  C   UNL     1     -10.420   9.849  70.587  1.00  0.00    -0.231 C  
HETATM    5  O   UNL     1      -9.696   9.600  71.541  1.00  0.00    -0.091 OA 
BRANCH   4   6
HETATM    6  C   UNL     1     -10.083   9.481  69.191  1.00  0.00    -0.200 C  
HETATM    7  C   UNL     1     -11.015   8.843  68.442  1.00  0.00     0.125 C  
HETATM    8  C   UNL     1     -12.467   8.623  68.801  1.00  0.00     4.468 C  
HETATM    9  N   UNL     1     -10.659   8.312  67.214  1.00  0.00    -0.301 NA 
HETATM   10  C   UNL     1      -9.354   8.167  66.775  1.00  0.00    -0.183 C  
HETATM   11  C   UNL     1      -9.176   7.229  65.604  1.00  0.00     0.171 C  
HETATM   12  C   UNL     1      -8.350   8.838  67.396  1.00  0.00    -0.109 C  
HETATM   13  C   UNL     1      -8.671   9.728  68.617  1.00  0.00    -0.122 C  
BRANCH  12  14
HETATM   14  C   UNL     1      -6.956   8.685  66.883  1.00  0.00    -0.077 C  
HETATM   15  O   UNL     1      -6.474   7.622  66.517  1.00  0.00    -0.047 OA 
BRANCH  14  16
HETATM   16  O   UNL     1      -6.288   9.864  66.852  1.00  0.00    -0.063 OA 
BRANCH  16  17
HETATM   17  C   UNL     1      -6.916  10.898  66.070  1.00  0.00    -0.066 C  
HETATM   18  C   UNL     1      -7.644  10.340  64.854  1.00  0.00    -0.119 C  
ENDBRANCH  16  17
ENDBRANCH  14  16
ENDBRANCH  12  14
BRANCH  13  19
HETATM   19  C   UNL     1      -7.558   9.770  69.675  1.00  0.00    -0.120 A  
HETATM   20  C   UNL     1      -7.056  10.949  70.261  1.00  0.00     0.355 A  
HETATM   21  C   UNL     1      -6.078  10.837  71.270  1.00  0.00     0.401 A  
HETATM   22  C   UNL     1      -7.050   8.521  70.114  1.00  0.00    -0.043 A  
HETATM   23  C   UNL     1      -6.085   8.434  71.112  1.00  0.00    -0.037 A  
HETATM   24  C   UNL     1      -5.605   9.594  71.698  1.00  0.00    -0.056 A  
BRANCH  20  25
HETATM   25  C   UNL     1      -7.472  12.291  69.820  1.00  0.00     0.952 C  
HETATM   26  C   UNL     1      -7.457  13.366  70.625  1.00  0.00     2.967 C  
BRANCH  26  27
HETATM   27  C   UNL     1      -7.767  14.740  70.185  1.00  0.00     0.470 C  
HETATM   28  O   UNL     1      -8.829  15.272  70.472  1.00  0.00     0.699 OA 
BRANCH  27  29
HETATM   29  O   UNL     1      -6.752  15.279  69.475  1.00  0.00    -0.146 OA 
HETATM   30  C   UNL     1      -6.909  15.554  68.059  1.00  0.00    -0.136 C  
HETATM   31  C   UNL     1      -7.248  14.290  67.263  1.00  0.00    -0.006 C  
HETATM   32  C   UNL     1      -7.944  16.663  67.834  1.00  0.00    -0.177 C  
HETATM   33  C   UNL     1      -5.532  16.063  67.604  1.00  0.00    -0.158 C  
ENDBRANCH  27  29
ENDBRANCH  26  27
ENDBRANCH  20  25
ENDBRANCH  13  19
ENDBRANCH   4   6
ENDBRANCH   3   4
ENDBRANCH   2   3
TORSDOF 10
ENDMDL
MODEL      222
REMARK 921   NORMALIZED FREE ENERGY PREDICTED BY IDOCK:    8.10 KCAL/MOL
REMARK 922        TOTAL FREE ENERGY PREDICTED BY IDOCK:   10.47 KCAL/MOL
REMARK 923 INTER-LIGAND FREE ENERGY PREDICTED BY IDOCK:    6.21 KCAL/MOL
REMARK 924 INTRA-LIGAND FREE ENERGY PREDICTED BY IDOCK:    4.26 KCAL/MOL
REMARK 927      BINDING AFFINITY PREDICTED BY RF-SCORE:    0.00 PKD
ROOT
HETATM    1  C   UNL     1     -12.176   8.358  67.266  1.00  0.00     6.627 C  
HETATM    2  C   UNL     1     -10.882   9.065  67.621  1.00  0.00    -0.063 C  
ENDROOT
BRANCH   2   3
HETATM    3  O   UNL     1     -11.025  10.474  67.367  1.00  0.00    -0.293 OA 
BRANCH   3   4
HETATM    4  C   UNL     1     -10.728  10.860  66.103  1.00  0.00    -0.159 C  
HETATM    5  O   UNL     1     -10.333  10.115  65.217  1.00  0.00    -0.266 OA 
BRANCH   4   6
HETATM    6  C   UNL     1     -10.930  12.316  65.912  1.00  0.00    -0.338 C  
HETATM    7  C   UNL     1     -10.517  12.886  64.754  1.00  0.00    -0.350 C  
HETATM    8  C   UNL     1     -10.035  12.166  63.514  1.00  0.00    -0.341 C  
HETATM    9  N   UNL     1     -10.508  14.265  64.635  1.00  0.00    -0.388 NA 
HETATM   10  C   UNL     1     -10.666  15.141  65.694  1.00  0.00    -0.363 C  
HETATM   11  C   UNL     1     -10.242  16.564  65.414  1.00  0.00    -0.177 C  
HETATM   12  C   UNL     1     -11.164  14.694  66.876  1.00  0.00    -0.345 C  
HETATM   13  C   UNL     1     -11.511  13.198  67.038  1.00  0.00    -0.379 C  
BRANCH  12  14
HETATM   14  C   UNL     1     -11.350  15.668  67.994  1.00  0.00    -0.324 C  
HETATM   15  O   UNL     1     -12.388  15.790  68.629  1.00  0.00    -0.031 OA 
BRANCH  14  16
HETATM   16  O   UNL     1     -10.229  16.389  68.237  1.00  0.00    -0.238 OA 
BRANCH  16  17
HETATM   17  C   UNL     1     -10.456  17.767  68.589  1.00  0.00    -0.292 C  
HETATM   18  C   UNL     1      -9.240  18.641  68.311  1.00  0.00    -0.350 C  
ENDBRANCH  16  17
ENDBRANCH  14  16
ENDBRANCH  12  14
BRANCH  13  19
HETATM   19  C   UNL     1     -11.279  12.647  68.454  1.00  0.00    -0.316 A  
HETATM   20  C   UNL     1     -10.045  12.163  68.931  1.00  0.00    -0.012 A  
HETATM   21  C   UNL     1      -9.957  11.748  70.275  1.00  0.00     2.806 A  
HETATM   22  C   UNL     1     -12.385  12.686  69.341  1.00  0.00     0.046 A  
HETATM   23  C   UNL     1     -12.275  12.271  70.664  1.00  0.00    -0.378 A  
HETATM   24  C   UNL     1     -11.056  11.811  71.135  1.00  0.00     2.793 A  
BRANCH  20  25
HETATM   25  C   UNL     1      -8.863  12.020  68.064  1.00  0.00    -0.179 C  
HETATM   26  C   UNL     1      -8.021  10.976  68.137  1.00  0.00    -0.119 C  
BRANCH  26  27
HETATM   27  C   UNL     1      -6.890  10.753  67.215  1.00  0.00    -0.081 C  
HETATM   28  O   UNL     1      -5.788  10.429  67.632  1.00  0.00    -0.045 OA 
BRANCH  27  29
HETATM   29  O   UNL     1      -7.252  10.939  65.927  1.00  0.00    -0.123 OA 
HETATM   30  C   UNL     1      -6.721  10.081  64.883  1.00  0.00    -0.126 C  
HETATM   31  C   UNL     1      -5.191  10.135  64.819  1.00  0.00    -0.092 C  
HETATM   32  C   UNL     1      -7.234   8.646  65.048  1.00  0.00    -0.084 C  
HETATM   33  C   UNL     1      -7.286  10.661  63.576  1.00  0.00     0.186 C  
ENDBRANCH  27  29
ENDBRANCH  26  27
ENDBRANCH  20  25
ENDBRANCH  13  19
ENDBRANCH   4   6
ENDBRANCH   3   4
ENDBRANCH   2   3
TORSDOF 10
ENDMDL
MODEL      223
REMARK 921   NORMALIZED FREE ENERGY PREDICTED BY IDOCK:    8.43 KCAL/MOL
REMARK 922        TOTAL FREE ENERGY PREDICTED BY IDOCK:   10.99 KCAL/MOL
REMARK 923 INTER-LIGAND FREE ENERGY PREDICTED BY IDOCK:   -6.23 KCAL/MOL
REMARK 924 INTRA-LIGAND FREE ENERGY PREDICTED BY IDOCK:   17.22 KCAL/MOL
REMARK 927      BINDING AFFINITY PREDICTED BY RF-SCORE:    0.00 PKD
ROOT
HETATM    1  C   UNL     1     -12.739  16.295  72.990  1.00  0.00    -0.434 C  
HETATM    2  C   UNL     1     -11.976  15.374  72.057  1.00  0.00    -0.420 C  
ENDROOT
BRANCH   2   3
HETATM    3  O   UNL     1     -11.409  16.148  70.984  1.00  0.00    -0.387 OA 
BRANCH   3   4
HETATM    4  C   UNL     1     -11.677  15.683  69.740  1.00  0.00    -0.357 C  
HETATM    5  O   UNL     1     -11.883  16.384  68.759  1.00  0.00    -0.201 OA 
BRANCH   4   6
HETATM    6  C   UNL     1     -11.704  14.201  69.702  1.00  0.00    -0.372 C  
HETATM    7  C   UNL     1     -12.638  13.546  70.435  1.00  0.00    -0.197 C  
HETATM    8  C   UNL     1     -13.813  14.162  71.160  1.00  0.00    -0.148 C  
HETATM    9  N   UNL     1     -12.556  12.172  70.576  1.00  0.00    -0.164 NA 
HETATM   10  C   UNL     1     -11.453  11.414  70.221  1.00  0.00    -0.151 C  
HETATM   11  C   UNL     1     -11.420  10.022  70.807  1.00  0.00    -0.438 C  
HETATM   12  C   UNL     1     -10.500  11.942  69.409  1.00  0.00     0.157 C  
HETATM   13  C   UNL     1     -10.639  13.401  68.923  1.00  0.00    -0.181 C  
BRANCH  12  14
HETATM   14  C   UNL     1      -9.335  11.092  69.020  1.00  0.00    -0.091 C  
HETATM   15  O   UNL     1      -8.493  10.684  69.807  1.00  0.00    -0.002 OA 
BRANCH  14  16
HETATM   16  O   UNL     1      -9.328  10.808  67.695  1.00  0.00    -0.146 OA 
BRANCH  16  17
HETATM   17  C   UNL     1     -10.630  10.680  67.093  1.00  0.00    -0.260 C  
HETATM   18  C   UNL     1     -10.897  11.766  66.059  1.00  0.00    -0.343 C  
ENDBRANCH  16  17
ENDBRANCH  14  16
ENDBRANCH  12  14
BRANCH  13  19
HETATM   19  C   UNL     1      -9.300  14.135  68.749  1.00  0.00    -0.092 A  
HETATM   20  C   UNL     1      -8.230  13.672  67.958  1.00  0.00    -0.162 A  
HETATM   21  C   UNL     1      -7.082  14.481  67.835  1.00  0.00    -0.168 A  
HETATM   22  C   UNL     1      -9.174  15.390  69.399  1.00  0.00    -0.268 A  
HETATM   23  C   UNL     1      -8.032  16.172  69.263  1.00  0.00    -0.194 A  
HETATM   24  C   UNL     1      -6.988  15.721  68.472  1.00  0.00    -0.117 A  
BRANCH  20  25
HETATM   25  C   UNL     1      -8.243  12.352  67.305  1.00  0.00    -0.184 C  
HETATM   26  C   UNL     1      -7.136  11.755  66.836  1.00  0.00    -0.097 C  
BRANCH  26  27
HETATM   27  C   UNL     1      -7.101  10.392  66.271  1.00  0.00    -0.123 C  
HETATM   28  O   UNL     1      -6.129   9.989  65.649  1.00  0.00    -0.072 OA 
BRANCH  27  29
HETATM   29  O   UNL     1      -8.233   9.708  66.547  1.00  0.00    -0.118 OA 
HETATM   30  C   UNL     1      -8.597   8.542  65.763  1.00  0.00    -0.168 C  
HETATM   31  C   UNL     1      -8.755   8.877  64.276  1.00  0.00    -0.095 C  
HETATM   32  C   UNL     1      -7.595   7.404  65.987  1.00  0.00    -0.088 C  
HETATM   33  C   UNL     1      -9.966   8.112  66.315  1.00  0.00    -0.148 C  
ENDBRANCH  27  29
ENDBRANCH  26  27
ENDBRANCH  20  25
ENDBRANCH  13  19
ENDBRANCH   4   6
ENDBRANCH   3   4
ENDBRANCH   2   3
TORSDOF 10
ENDMDL
MODEL      224
REMARK 921   NORMALIZED FREE ENERGY PREDICTED BY IDOCK:    8.67 KCAL/MOL
REMARK 922        TOTAL FREE ENERGY PREDICTED BY IDOCK:   11.37 KCAL/MOL
REMARK 923 INTER-LIGAND FREE ENERGY PREDICTED BY IDOCK:    5.72 KCAL/MOL
REMARK 924 INTRA-LIGAND FREE ENERGY PREDICTED BY IDOCK:    5.65 KCAL/MOL
REMARK 927      BINDING AFFINITY PREDICTED BY RF-SCORE:    0.00 PKD
ROOT
HETATM    1  C   UNL     1     -10.696  17.069  67.204  1.00  0.00    -0.177 C  
HETATM    2  C   UNL     1      -9.284  16.550  67.389  1.00  0.00    -0.216 C  
ENDROOT
BRANCH   2   3
HETATM    3  O   UNL     1      -9.328  15.270  68.044  1.00  0.00    -0.194 OA 
BRANCH   3   4
HETATM    4  C   UNL     1      -8.753  14.255  67.354  1.00  0.00    -0.209 C  
HETATM    5  O   UNL     1      -7.647  14.301  66.832  1.00  0.00     0.079 OA 
BRANCH   4   6
HETATM    6  C   UNL     1      -9.633  13.063  67.294  1.00  0.00    -0.225 C  
HETATM    7  C   UNL     1     -10.976  13.243  67.321  1.00  0.00    -0.268 C  
HETATM    8  C   UNL     1     -11.715  14.558  67.208  1.00  0.00    -0.429 C  
HETATM    9  N   UNL     1     -11.810  12.148  67.470  1.00  0.00    -0.553 NA 
HETATM   10  C   UNL     1     -11.381  10.884  67.834  1.00  0.00    -0.308 C  
HETATM   11  C   UNL     1     -12.471   9.953  68.311  1.00  0.00     3.567 C  
HETATM   12  C   UNL     1     -10.062  10.565  67.755  1.00  0.00    -0.205 C  
HETATM   13  C   UNL     1      -9.048  11.635  67.295  1.00  0.00    -0.167 C  
BRANCH  12  14
HETATM   14  C   UNL     1      -9.631   9.185  68.128  1.00  0.00    -0.144 C  
HETATM   15  O   UNL     1      -9.346   8.841  69.266  1.00  0.00    -0.148 OA 
BRANCH  14  16
HETATM   16  O   UNL     1      -9.610   8.349  67.061  1.00  0.00    -0.163 OA 
BRANCH  16  17
HETATM   17  C   UNL     1      -9.788   8.988  65.783  1.00  0.00    -0.111 C  
HETATM   18  C   UNL     1     -11.135   8.656  65.155  1.00  0.00     6.624 C  
ENDBRANCH  16  17
ENDBRANCH  14  16
ENDBRANCH  12  14
BRANCH  13  19
HETATM   19  C   UNL     1      -7.667  11.520  67.959  1.00  0.00    -0.119 A  
HETATM   20  C   UNL     1      -6.705  10.541  67.641  1.00  0.00    -0.073 A  
HETATM   21  C   UNL     1      -5.452  10.592  68.284  1.00  0.00    -0.036 A  
HETATM   22  C   UNL     1      -7.340  12.508  68.923  1.00  0.00    -0.022 A  
HETATM   23  C   UNL     1      -6.096  12.540  69.545  1.00  0.00    -0.120 A  
HETATM   24  C   UNL     1      -5.147  11.586  69.217  1.00  0.00    -0.044 A  
BRANCH  20  25
HETATM   25  C   UNL     1      -6.981   9.435  66.707  1.00  0.00    -0.081 C  
HETATM   26  C   UNL     1      -6.301   9.254  65.564  1.00  0.00    -0.064 C  
BRANCH  26  27
HETATM   27  C   UNL     1      -6.482   8.101  64.661  1.00  0.00    -0.064 C  
HETATM   28  O   UNL     1      -6.983   8.236  63.555  1.00  0.00    -0.082 OA 
BRANCH  27  29
HETATM   29  O   UNL     1      -6.025   6.956  65.215  1.00  0.00    -0.034 OA 
HETATM   30  C   UNL     1      -6.952   5.940  65.676  1.00  0.00    -0.068 C  
HETATM   31  C   UNL     1      -7.906   6.478  66.747  1.00  0.00    -0.104 C  
HETATM   32  C   UNL     1      -7.712   5.323  64.496  1.00  0.00    -0.093 C  
HETATM   33  C   UNL     1      -6.063   4.859  66.312  1.00  0.00    -0.027 C  
ENDBRANCH  27  29
ENDBRANCH  26  27
ENDBRANCH  20  25
ENDBRANCH  13  19
ENDBRANCH   4   6
ENDBRANCH   3   4
ENDBRANCH   2   3
TORSDOF 10
ENDMDL
MODEL      225
REMARK 921   NORMALIZED FREE ENERGY PREDICTED BY IDOCK:   10.41 KCAL/MOL
REMARK 922        TOTAL FREE ENERGY PREDICTED BY IDOCK:   14.13 KCAL/MOL
REMARK 923 INTER-LIGAND FREE ENERGY PREDICTED BY IDOCK:    7.33 KCAL/MOL
REMARK 924 INTRA-LIGAND FREE ENERGY PREDICTED BY IDOCK:    6.79 KCAL/MOL
REMARK 927      BINDING AFFINITY PREDICTED BY RF-SCORE:    0.00 PKD
ROOT
HETATM    1  C   UNL     1      -9.980   6.420  66.607  1.00  0.00    -0.207 C  
HETATM    2  C   UNL     1      -8.804   7.212  66.068  1.00  0.00    -0.131 C  
ENDROOT
BRANCH   2   3
HETATM    3  O   UNL     1      -7.855   6.309  65.473  1.00  0.00    -0.090 OA 
BRANCH   3   4
HETATM    4  C   UNL     1      -6.935   5.801  66.328  1.00  0.00    -0.060 C  
HETATM    5  O   UNL     1      -6.203   4.852  66.087  1.00  0.00    -0.033 OA 
BRANCH   4   6
HETATM    6  C   UNL     1      -6.922   6.532  67.618  1.00  0.00    -0.079 C  
HETATM    7  C   UNL     1      -7.371   5.901  68.730  1.00  0.00    -0.084 C  
HETATM    8  C   UNL     1      -7.715   4.434  68.860  1.00  0.00    -0.066 C  
HETATM    9  N   UNL     1      -7.559   6.621  69.897  1.00  0.00    -0.098 NA 
HETATM   10  C   UNL     1      -7.550   8.003  69.972  1.00  0.00    -0.082 C  
HETATM   11  C   UNL     1      -8.151   8.578  71.234  1.00  0.00    -0.166 C  
HETATM   12  C   UNL     1      -7.035   8.735  68.950  1.00  0.00    -0.062 C  
HETATM   13  C   UNL     1      -6.498   8.014  67.693  1.00  0.00    -0.057 C  
BRANCH  12  14
HETATM   14  C   UNL     1      -7.014  10.224  69.069  1.00  0.00    -0.064 C  
HETATM   15  O   UNL     1      -7.996  10.936  68.919  1.00  0.00    -0.133 OA 
BRANCH  14  16
HETATM   16  O   UNL     1      -5.782  10.695  69.381  1.00  0.00    -0.037 OA 
BRANCH  16  17
HETATM   17  C   UNL     1      -5.731  12.099  69.701  1.00  0.00    -0.100 C  
HETATM   18  C   UNL     1      -5.627  12.970  68.455  1.00  0.00    -0.069 C  
ENDBRANCH  16  17
ENDBRANCH  14  16
ENDBRANCH  12  14
BRANCH  13  19
HETATM   19  C   UNL     1      -6.700   8.796  66.386  1.00  0.00    -0.070 A  
HETATM   20  C   UNL     1      -7.820   9.600  66.099  1.00  0.00    -0.101 A  
HETATM   21  C   UNL     1      -7.844  10.316  64.885  1.00  0.00    -0.134 A  
HETATM   22  C   UNL     1      -5.649   8.727  65.435  1.00  0.00    -0.046 A  
HETATM   23  C   UNL     1      -5.694   9.442  64.243  1.00  0.00    -0.071 A  
HETATM   24  C   UNL     1      -6.790  10.245  63.971  1.00  0.00    -0.054 A  
BRANCH  20  25
HETATM   25  C   UNL     1      -8.988   9.677  66.993  1.00  0.00    -0.150 C  
HETATM   26  C   UNL     1     -10.255   9.667  66.547  1.00  0.00    -0.294 C  
BRANCH  26  27
HETATM   27  C   UNL     1     -11.444   9.637  67.421  1.00  0.00     1.035 C  
HETATM   28  O   UNL     1     -12.538   9.304  66.990  1.00  0.00     7.164 OA 
BRANCH  27  29
HETATM   29  O   UNL     1     -11.143  10.000  68.687  1.00  0.00    -0.228 OA 
HETATM   30  C   UNL     1     -12.089  10.768  69.476  1.00  0.00    -0.272 C  
HETATM   31  C   UNL     1     -12.438  12.104  68.813  1.00  0.00     0.548 C  
HETATM   32  C   UNL     1     -13.342   9.939  69.779  1.00  0.00     1.439 C  
HETATM   33  C   UNL     1     -11.354  11.055  70.795  1.00  0.00     0.184 C  
ENDBRANCH  27  29
ENDBRANCH  26  27
ENDBRANCH  20  25
ENDBRANCH  13  19
ENDBRANCH   4   6
ENDBRANCH   3   4
ENDBRANCH   2   3
TORSDOF 10
ENDMDL
MODEL      226
REMARK 921   NORMALIZED FREE ENERGY PREDICTED BY IDOCK:   11.73 KCAL/MOL
REMARK 922        TOTAL FREE ENERGY PREDICTED BY IDOCK:   16.23 KCAL/MOL
REMARK 923 INTER-LIGAND FREE ENERGY PREDICTED BY IDOCK:   -1.76 KCAL/MOL
REMARK 924 INTRA-LIGAND FREE ENERGY PREDICTED BY IDOCK:   17.99 KCAL/MOL
REMARK 927      BINDING AFFINITY PREDICTED BY RF-SCORE:    0.00 PKD
ROOT
HETATM    1  C   UNL     1     -11.980  10.719  67.421  1.00  0.00     0.997 C  
HETATM    2  C   UNL     1     -10.609  10.429  66.843  1.00  0.00    -0.230 C  
ENDROOT
BRANCH   2   3
HETATM    3  O   UNL     1      -9.729  11.531  67.129  1.00  0.00    -0.182 OA 
BRANCH   3   4
HETATM    4  C   UNL     1      -9.958  12.153  68.311  1.00  0.00    -0.212 C  
HETATM    5  O   UNL     1      -9.953  11.605  69.404  1.00  0.00     0.136 OA 
BRANCH   4   6
HETATM    6  C   UNL     1     -10.229  13.599  68.126  1.00  0.00    -0.247 C  
HETATM    7  C   UNL     1     -11.231  13.973  67.293  1.00  0.00    -0.312 C  
HETATM    8  C   UNL     1     -12.262  13.069  66.657  1.00  0.00    -0.285 C  
HETATM    9  N   UNL     1     -11.372  15.306  66.949  1.00  0.00    -0.267 NA 
HETATM   10  C   UNL     1     -10.422  16.282  67.199  1.00  0.00    -0.297 C  
HETATM   11  C   UNL     1     -10.598  17.560  66.411  1.00  0.00    -0.195 C  
HETATM   12  C   UNL     1      -9.425  16.046  68.090  1.00  0.00    -0.208 C  
HETATM   13  C   UNL     1      -9.338  14.671  68.789  1.00  0.00    -0.191 C  
BRANCH  12  14
HETATM   14  C   UNL     1      -8.430  17.127  68.361  1.00  0.00    -0.241 C  
HETATM   15  O   UNL     1      -8.464  17.859  69.340  1.00  0.00     0.190 OA 
BRANCH  14  16
HETATM   16  O   UNL     1      -7.472  17.192  67.405  1.00  0.00    -0.153 OA 
BRANCH  16  17
HETATM   17  C   UNL     1      -6.533  18.275  67.556  1.00  0.00    -0.190 C  
HETATM   18  C   UNL     1      -7.055  19.577  66.961  1.00  0.00    -0.222 C  
ENDBRANCH  16  17
ENDBRANCH  14  16
ENDBRANCH  12  14
BRANCH  13  19
HETATM   19  C   UNL     1      -7.905  14.205  69.085  1.00  0.00     0.063 A  
HETATM   20  C   UNL     1      -7.546  12.886  69.426  1.00  0.00     0.531 A  
HETATM   21  C   UNL     1      -6.182  12.582  69.607  1.00  0.00    -0.126 A  
HETATM   22  C   UNL     1      -6.879  15.177  68.951  1.00  0.00    -0.120 A  
HETATM   23  C   UNL     1      -5.539  14.855  69.134  1.00  0.00    -0.096 A  
HETATM   24  C   UNL     1      -5.188  13.553  69.453  1.00  0.00    -0.082 A  
BRANCH  20  25
HETATM   25  C   UNL     1      -8.547  11.829  69.656  1.00  0.00     1.395 C  
HETATM   26  C   UNL     1      -8.250  10.520  69.629  1.00  0.00    -0.031 C  
BRANCH  26  27
HETATM   27  C   UNL     1      -9.205   9.443  69.957  1.00  0.00    -0.220 C  
HETATM   28  O   UNL     1      -9.928   9.517  70.939  1.00  0.00    -0.284 OA 
BRANCH  27  29
HETATM   29  O   UNL     1      -9.160   8.443  69.050  1.00  0.00    -0.146 OA 
HETATM   30  C   UNL     1      -8.812   7.095  69.460  1.00  0.00    -0.137 C  
HETATM   31  C   UNL     1      -7.424   7.032  70.106  1.00  0.00    -0.086 C  
HETATM   32  C   UNL     1      -9.893   6.510  70.376  1.00  0.00    -0.193 C  
HETATM   33  C   UNL     1      -8.780   6.285  68.154  1.00  0.00    -0.115 C  
ENDBRANCH  27  29
ENDBRANCH  26  27
ENDBRANCH  20  25
ENDBRANCH  13  19
ENDBRANCH   4   6
ENDBRANCH   3   4
ENDBRANCH   2   3
TORSDOF 10
ENDMDL
MODEL      227
REMARK 921   NORMALIZED FREE ENERGY PREDICTED BY IDOCK:   11.83 KCAL/MOL
REMARK 922        TOTAL FREE ENERGY PREDICTED BY IDOCK:   16.37 KCAL/MOL
REMARK 923 INTER-LIGAND FREE ENERGY PREDICTED BY IDOCK:    4.29 KCAL/MOL
REMARK 924 INTRA-LIGAND FREE ENERGY PREDICTED BY IDOCK:   12.08 KCAL/MOL
REMARK 927      BINDING AFFINITY PREDICTED BY RF-SCORE:    0.00 PKD
ROOT
HETATM    1  C   UNL     1      -5.759  15.649  69.816  1.00  0.00    -0.132 C  
HETATM    2  C   UNL     1      -6.409  14.294  69.613  1.00  0.00    -0.136 C  
ENDROOT
BRANCH   2   3
HETATM    3  O   UNL     1      -5.866  13.678  68.433  1.00  0.00    -0.082 OA 
BRANCH   3   4
HETATM    4  C   UNL     1      -6.667  12.753  67.850  1.00  0.00    -0.116 C  
HETATM    5  O   UNL     1      -6.281  11.706  67.350  1.00  0.00    -0.075 OA 
BRANCH   4   6
HETATM    6  C   UNL     1      -8.091  13.165  67.879  1.00  0.00    -0.159 C  
HETATM    7  C   UNL     1      -8.577  13.758  68.997  1.00  0.00     0.265 C  
HETATM    8  C   UNL     1      -7.775  14.239  70.185  1.00  0.00     0.859 C  
HETATM    9  N   UNL     1      -9.939  13.965  69.124  1.00  0.00     0.031 NA 
HETATM   10  C   UNL     1     -10.896  13.402  68.298  1.00  0.00    -0.256 C  
HETATM   11  C   UNL     1     -12.307  13.440  68.837  1.00  0.00     0.013 C  
HETATM   12  C   UNL     1     -10.530  12.863  67.106  1.00  0.00    -0.241 C  
HETATM   13  C   UNL     1      -9.039  12.848  66.702  1.00  0.00    -0.181 C  
BRANCH  12  14
HETATM   14  C   UNL     1     -11.587  12.286  66.221  1.00  0.00    -0.385 C  
HETATM   15  O   UNL     1     -12.657  11.855  66.626  1.00  0.00     0.522 OA 
BRANCH  14  16
HETATM   16  O   UNL     1     -11.232  12.313  64.914  1.00  0.00    -0.303 OA 
BRANCH  16  17
HETATM   17  C   UNL     1     -11.179  13.627  64.324  1.00  0.00    -0.336 C  
HETATM   18  C   UNL     1     -10.315  14.586  65.132  1.00  0.00    -0.438 C  
ENDBRANCH  16  17
ENDBRANCH  14  16
ENDBRANCH  12  14
BRANCH  13  19
HETATM   19  C   UNL     1      -8.625  11.626  65.869  1.00  0.00     0.065 A  
HETATM   20  C   UNL     1      -8.656  10.295  66.331  1.00  0.00    -0.138 A  
HETATM   21  C   UNL     1      -8.310   9.262  65.437  1.00  0.00    -0.143 A  
HETATM   22  C   UNL     1      -8.233  11.873  64.529  1.00  0.00     1.885 A  
HETATM   23  C   UNL     1      -7.896  10.837  63.663  1.00  0.00     0.208 A  
HETATM   24  C   UNL     1      -7.944   9.528  64.115  1.00  0.00    -0.137 A  
BRANCH  20  25
HETATM   25  C   UNL     1      -8.981   9.949  67.726  1.00  0.00    -0.134 C  
HETATM   26  C   UNL     1      -8.060   9.542  68.614  1.00  0.00    -0.097 C  
BRANCH  26  27
HETATM   27  C   UNL     1      -8.336   9.289  70.042  1.00  0.00    -0.168 C  
HETATM   28  O   UNL     1      -7.441   9.319  70.874  1.00  0.00    -0.120 OA 
BRANCH  27  29
HETATM   29  O   UNL     1      -9.647   9.049  70.262  1.00  0.00    -0.174 OA 
HETATM   30  C   UNL     1     -10.127   8.767  71.602  1.00  0.00    -0.319 C  
HETATM   31  C   UNL     1      -9.449   7.533  72.207  1.00  0.00    -0.195 C  
HETATM   32  C   UNL     1      -9.976   9.998  72.503  1.00  0.00     5.242 C  
HETATM   33  C   UNL     1     -11.624   8.464  71.425  1.00  0.00    -0.332 C  
ENDBRANCH  27  29
ENDBRANCH  26  27
ENDBRANCH  20  25
ENDBRANCH  13  19
ENDBRANCH   4   6
ENDBRANCH   3   4
ENDBRANCH   2   3
TORSDOF 10
ENDMDL
MODEL      228
REMARK 921   NORMALIZED FREE ENERGY PREDICTED BY IDOCK:   12.63 KCAL/MOL
REMARK 922        TOTAL FREE ENERGY PREDICTED BY IDOCK:   17.65 KCAL/MOL
REMARK 923 INTER-LIGAND FREE ENERGY PREDICTED BY IDOCK:   14.30 KCAL/MOL
REMARK 924 INTRA-LIGAND FREE ENERGY PREDICTED BY IDOCK:    3.34 KCAL/MOL
REMARK 927      BINDING AFFINITY PREDICTED BY RF-SCORE:    0.00 PKD
ROOT
HETATM    1  C   UNL     1      -6.379   9.811  72.053  1.00  0.00     0.504 C  
HETATM    2  C   UNL     1      -6.951   8.465  71.650  1.00  0.00    -0.086 C  
ENDROOT
BRANCH   2   3
HETATM    3  O   UNL     1      -7.734   8.619  70.454  1.00  0.00    -0.069 OA 
BRANCH   3   4
HETATM    4  C   UNL     1      -8.864   9.352  70.601  1.00  0.00    -0.220 C  
HETATM    5  O   UNL     1      -9.220   9.891  71.640  1.00  0.00     0.654 OA 
BRANCH   4   6
HETATM    6  C   UNL     1      -9.642   9.421  69.340  1.00  0.00    -0.177 C  
HETATM    7  C   UNL     1     -10.118   8.271  68.804  1.00  0.00    -0.200 C  
HETATM    8  C   UNL     1     -10.120   6.905  69.452  1.00  0.00    -0.176 C  
HETATM    9  N   UNL     1     -10.667   8.284  67.534  1.00  0.00    -0.210 NA 
HETATM   10  C   UNL     1     -10.562   9.343  66.648  1.00  0.00    -0.100 C  
HETATM   11  C   UNL     1     -10.885   9.007  65.211  1.00  0.00     3.605 C  
HETATM   12  C   UNL     1     -10.183  10.568  67.097  1.00  0.00    -0.270 C  
HETATM   13  C   UNL     1      -9.834  10.756  68.590  1.00  0.00    -0.187 C  
BRANCH  12  14
HETATM   14  C   UNL     1     -10.104  11.699  66.125  1.00  0.00    -0.224 C  
HETATM   15  O   UNL     1      -9.061  12.239  65.787  1.00  0.00    -0.057 OA 
BRANCH  14  16
HETATM   16  O   UNL     1     -11.322  12.046  65.643  1.00  0.00    -0.333 OA 
BRANCH  16  17
HETATM   17  C   UNL     1     -11.415  12.104  64.206  1.00  0.00    -0.367 C  
HETATM   18  C   UNL     1     -10.170  11.552  63.526  1.00  0.00    -0.462 C  
ENDBRANCH  16  17
ENDBRANCH  14  16
ENDBRANCH  12  14
BRANCH  13  19
HETATM   19  C   UNL     1      -8.728  11.791  68.852  1.00  0.00     0.122 A  
HETATM   20  C   UNL     1      -8.918  13.187  68.831  1.00  0.00     0.300 A  
HETATM   21  C   UNL     1      -7.829  14.021  69.156  1.00  0.00     0.106 A  
HETATM   22  C   UNL     1      -7.446  11.283  69.184  1.00  0.00    -0.084 A  
HETATM   23  C   UNL     1      -6.386  12.125  69.500  1.00  0.00    -0.122 A  
HETATM   24  C   UNL     1      -6.580  13.497  69.496  1.00  0.00    -0.054 A  
BRANCH  20  25
HETATM   25  C   UNL     1     -10.193  13.806  68.430  1.00  0.00    -0.248 C  
HETATM   26  C   UNL     1     -10.331  14.544  67.317  1.00  0.00    -0.260 C  
BRANCH  26  27
HETATM   27  C   UNL     1     -11.615  15.089  66.834  1.00  0.00    -0.223 C  
HETATM   28  O   UNL     1     -12.661  14.474  66.984  1.00  0.00    -0.051 OA 
BRANCH  27  29
HETATM   29  O   UNL     1     -11.458  16.299  66.252  1.00  0.00     0.331 OA 
HETATM   30  C   UNL     1     -12.100  16.594  64.985  1.00  0.00     1.878 C  
HETATM   31  C   UNL     1     -11.665  15.626  63.881  1.00  0.00     0.270 C  
HETATM   32  C   UNL     1     -13.625  16.627  65.145  1.00  0.00     7.271 C  
HETATM   33  C   UNL     1     -11.611  18.005  64.619  1.00  0.00     3.443 C  
ENDBRANCH  27  29
ENDBRANCH  26  27
ENDBRANCH  20  25
ENDBRANCH  13  19
ENDBRANCH   4   6
ENDBRANCH   3   4
ENDBRANCH   2   3
TORSDOF 10
ENDMDL
MODEL      229
REMARK 921   NORMALIZED FREE ENERGY PREDICTED BY IDOCK:   13.68 KCAL/MOL
REMARK 922        TOTAL FREE ENERGY PREDICTED BY IDOCK:   19.31 KCAL/MOL
REMARK 923 INTER-LIGAND FREE ENERGY PREDICTED BY IDOCK:    0.91 KCAL/MOL
REMARK 924 INTRA-LIGAND FREE ENERGY PREDICTED BY IDOCK:   18.40 KCAL/MOL
REMARK 927      BINDING AFFINITY PREDICTED BY RF-SCORE:    0.00 PKD
ROOT
HETATM    1  C   UNL     1     -10.360  10.085  67.828  1.00  0.00    -0.261 C  
HETATM    2  C   UNL     1      -9.372   9.765  68.933  1.00  0.00    -0.158 C  
ENDROOT
BRANCH   2   3
HETATM    3  O   UNL     1      -8.286  10.707  68.888  1.00  0.00    -0.134 OA 
BRANCH   3   4
HETATM    4  C   UNL     1      -7.180  10.274  68.235  1.00  0.00    -0.083 C  
HETATM    5  O   UNL     1      -6.135  10.902  68.134  1.00  0.00    -0.049 OA 
BRANCH   4   6
HETATM    6  C   UNL     1      -7.386   8.933  67.637  1.00  0.00    -0.085 C  
HETATM    7  C   UNL     1      -8.081   8.836  66.477  1.00  0.00    -0.103 C  
HETATM    8  C   UNL     1      -8.523   9.978  65.590  1.00  0.00    -0.155 C  
HETATM    9  N   UNL     1      -8.459   7.590  66.009  1.00  0.00    -0.141 NA 
HETATM   10  C   UNL     1      -8.391   6.423  66.751  1.00  0.00    -0.111 C  
HETATM   11  C   UNL     1      -9.199   5.270  66.202  1.00  0.00    -0.158 C  
HETATM   12  C   UNL     1      -7.643   6.382  67.884  1.00  0.00    -0.102 C  
HETATM   13  C   UNL     1      -6.905   7.654  68.355  1.00  0.00    -0.070 C  
BRANCH  12  14
HETATM   14  C   UNL     1      -7.565   5.102  68.649  1.00  0.00    -0.078 C  
HETATM   15  O   UNL     1      -7.059   4.996  69.757  1.00  0.00    -0.052 OA 
BRANCH  14  16
HETATM   16  O   UNL     1      -8.139   4.070  67.983  1.00  0.00    -0.087 OA 
BRANCH  16  17
HETATM   17  C   UNL     1      -8.644   3.011  68.818  1.00  0.00    -0.074 C  
HETATM   18  C   UNL     1     -10.165   3.004  68.883  1.00  0.00     1.260 C  
ENDBRANCH  16  17
ENDBRANCH  14  16
ENDBRANCH  12  14
BRANCH  13  19
HETATM   19  C   UNL     1      -6.799   7.791  69.882  1.00  0.00    -0.049 A  
HETATM   20  C   UNL     1      -7.870   8.131  70.731  1.00  0.00    -0.089 A  
HETATM   21  C   UNL     1      -7.647   8.156  72.123  1.00  0.00    -0.142 A  
HETATM   22  C   UNL     1      -5.537   7.501  70.460  1.00  0.00    -0.023 A  
HETATM   23  C   UNL     1      -5.339   7.531  71.837  1.00  0.00    -0.036 A  
HETATM   24  C   UNL     1      -6.398   7.850  72.670  1.00  0.00    -0.067 A  
BRANCH  20  25
HETATM   25  C   UNL     1      -9.196   8.516  70.217  1.00  0.00    -0.164 C  
HETATM   26  C   UNL     1     -10.108   9.167  70.956  1.00  0.00    -0.373 C  
BRANCH  26  27
HETATM   27  C   UNL     1     -11.401   9.658  70.440  1.00  0.00    -0.277 C  
HETATM   28  O   UNL     1     -12.218   8.892  69.949  1.00  0.00     0.551 OA 
BRANCH  27  29
HETATM   29  O   UNL     1     -11.529  10.993  70.600  1.00  0.00    -0.267 OA 
HETATM   30  C   UNL     1     -12.041  11.818  69.521  1.00  0.00    -0.250 C  
HETATM   31  C   UNL     1     -11.182  11.707  68.258  1.00  0.00    -0.320 C  
HETATM   32  C   UNL     1     -13.512  11.490  69.240  1.00  0.00     3.458 C  
HETATM   33  C   UNL     1     -11.947  13.257  70.052  1.00  0.00    -0.399 C  
ENDBRANCH  27  29
ENDBRANCH  26  27
ENDBRANCH  20  25
ENDBRANCH  13  19
ENDBRANCH   4   6
ENDBRANCH   3   4
ENDBRANCH   2   3
TORSDOF 10
ENDMDL
MODEL      230
REMARK 921   NORMALIZED FREE ENERGY PREDICTED BY IDOCK:   14.70 KCAL/MOL
REMARK 922        TOTAL FREE ENERGY PREDICTED BY IDOCK:   20.92 KCAL/MOL
REMARK 923 INTER-LIGAND FREE ENERGY PREDICTED BY IDOCK:   11.30 KCAL/MOL
REMARK 924 INTRA-LIGAND FREE ENERGY PREDICTED BY IDOCK:    9.62 KCAL/MOL
REMARK 927      BINDING AFFINITY PREDICTED BY RF-SCORE:    0.00 PKD
ROOT
HETATM    1  C   UNL     1     -12.454  13.969  65.857  1.00  0.00    -0.513 C  
HETATM    2  C   UNL     1     -11.475  15.003  65.336  1.00  0.00    -0.287 C  
ENDROOT
BRANCH   2   3
HETATM    3  O   UNL     1     -10.858  15.677  66.447  1.00  0.00    -0.306 OA 
BRANCH   3   4
HETATM    4  C   UNL     1     -10.554  14.881  67.501  1.00  0.00    -0.266 C  
HETATM    5  O   UNL     1     -11.372  14.379  68.259  1.00  0.00    -0.261 OA 
BRANCH   4   6
HETATM    6  C   UNL     1      -9.090  14.691  67.641  1.00  0.00    -0.193 C  
HETATM    7  C   UNL     1      -8.467  13.803  66.829  1.00  0.00     0.032 C  
HETATM    8  C   UNL     1      -9.065  13.099  65.632  1.00  0.00     0.543 C  
HETATM    9  N   UNL     1      -7.149  13.460  67.074  1.00  0.00     0.097 NA 
HETATM   10  C   UNL     1      -6.463  13.774  68.236  1.00  0.00    -0.110 C  
HETATM   11  C   UNL     1      -5.193  12.987  68.459  1.00  0.00    -0.064 C  
HETATM   12  C   UNL     1      -6.951  14.722  69.077  1.00  0.00    -0.118 C  
HETATM   13  C   UNL     1      -8.292  15.414  68.747  1.00  0.00    -0.182 C  
BRANCH  12  14
HETATM   14  C   UNL     1      -6.177  15.060  70.309  1.00  0.00    -0.132 C  
HETATM   15  O   UNL     1      -5.897  16.200  70.650  1.00  0.00    -0.065 OA 
BRANCH  14  16
HETATM   16  O   UNL     1      -5.834  13.956  71.017  1.00  0.00    -0.201 OA 
BRANCH  16  17
HETATM   17  C   UNL     1      -6.805  12.892  70.995  1.00  0.00     2.747 C  
HETATM   18  C   UNL     1      -7.245  12.544  69.579  1.00  0.00     0.359 C  
ENDBRANCH  16  17
ENDBRANCH  14  16
ENDBRANCH  12  14
BRANCH  13  19
HETATM   19  C   UNL     1      -9.125  15.792  69.982  1.00  0.00     0.399 A  
HETATM   20  C   UNL     1      -9.780  17.027  70.158  1.00  0.00     1.305 A  
HETATM   21  C   UNL     1     -10.567  17.215  71.312  1.00  0.00     2.048 A  
HETATM   22  C   UNL     1      -9.273  14.794  70.980  1.00  0.00     2.805 A  
HETATM   23  C   UNL     1     -10.055  15.002  72.111  1.00  0.00     3.039 A  
HETATM   24  C   UNL     1     -10.711  16.212  72.273  1.00  0.00     1.884 A  
BRANCH  20  25
HETATM   25  C   UNL     1      -9.628  18.145  69.211  1.00  0.00     0.059 C  
HETATM   26  C   UNL     1      -8.448  18.732  68.953  1.00  0.00    -0.233 C  
BRANCH  26  27
HETATM   27  C   UNL     1      -8.245  19.782  67.935  1.00  0.00    -0.301 C  
HETATM   28  O   UNL     1      -8.593  20.936  68.139  1.00  0.00     0.295 OA 
BRANCH  27  29
HETATM   29  O   UNL     1      -7.644  19.295  66.828  1.00  0.00    -0.227 OA 
HETATM   30  C   UNL     1      -6.196  19.271  66.728  1.00  0.00    -0.177 C  
HETATM   31  C   UNL     1      -5.589  20.672  66.857  1.00  0.00    -0.218 C  
HETATM   32  C   UNL     1      -5.598  18.295  67.748  1.00  0.00    -0.155 C  
HETATM   33  C   UNL     1      -5.911  18.744  65.312  1.00  0.00    -0.297 C  
ENDBRANCH  27  29
ENDBRANCH  26  27
ENDBRANCH  20  25
ENDBRANCH  13  19
ENDBRANCH   4   6
ENDBRANCH   3   4
ENDBRANCH   2   3
TORSDOF 10
ENDMDL
MODEL      231
REMARK 921   NORMALIZED FREE ENERGY PREDICTED BY IDOCK:   17.02 KCAL/MOL
REMARK 922        TOTAL FREE ENERGY PREDICTED BY IDOCK:   24.60 KCAL/MOL
REMARK 923 INTER-LIGAND FREE ENERGY PREDICTED BY IDOCK:   17.51 KCAL/MOL
REMARK 924 INTRA-LIGAND FREE ENERGY PREDICTED BY IDOCK:    7.09 KCAL/MOL
REMARK 927      BINDING AFFINITY PREDICTED BY RF-SCORE:    0.00 PKD
ROOT
HETATM    1  C   UNL     1      -8.552  11.002  69.062  1.00  0.00    -0.076 C  
HETATM    2  C   UNL     1      -9.419  12.214  69.340  1.00  0.00     1.004 C  
ENDROOT
BRANCH   2   3
HETATM    3  O   UNL     1      -9.892  12.758  68.095  1.00  0.00    -0.216 OA 
BRANCH   3   4
HETATM    4  C   UNL     1      -8.936  12.942  67.152  1.00  0.00    -0.219 C  
HETATM    5  O   UNL     1      -8.828  13.938  66.450  1.00  0.00    -0.078 OA 
BRANCH   4   6
HETATM    6  C   UNL     1      -8.025  11.776  67.058  1.00  0.00    -0.164 C  
HETATM    7  C   UNL     1      -6.693  11.997  66.945  1.00  0.00    -0.040 C  
HETATM    8  C   UNL     1      -5.980  13.321  67.099  1.00  0.00     0.460 C  
HETATM    9  N   UNL     1      -5.847  10.940  66.653  1.00  0.00    -0.082 NA 
HETATM   10  C   UNL     1      -6.273   9.693  66.228  1.00  0.00    -0.068 C  
HETATM   11  C   UNL     1      -5.200   8.832  65.603  1.00  0.00    -0.034 C  
HETATM   12  C   UNL     1      -7.573   9.331  66.382  1.00  0.00    -0.093 C  
HETATM   13  C   UNL     1      -8.575  10.335  66.994  1.00  0.00    -0.129 C  
BRANCH  12  14
HETATM   14  C   UNL     1      -7.999   7.969  65.940  1.00  0.00    -0.107 C  
HETATM   15  O   UNL     1      -8.641   7.750  64.923  1.00  0.00    -0.059 OA 
BRANCH  14  16
HETATM   16  O   UNL     1      -7.575   7.000  66.787  1.00  0.00    -0.087 OA 
BRANCH  16  17
HETATM   17  C   UNL     1      -6.956   5.865  66.152  1.00  0.00    -0.062 C  
HETATM   18  C   UNL     1      -7.673   5.458  64.872  1.00  0.00    -0.088 C  
ENDBRANCH  16  17
ENDBRANCH  14  16
ENDBRANCH  12  14
BRANCH  13  19
HETATM   19  C   UNL     1      -9.999  10.227  66.427  1.00  0.00    -0.287 A  
HETATM   20  C   UNL     1     -11.127   9.822  67.169  1.00  0.00     0.048 A  
HETATM   21  C   UNL     1     -12.388   9.832  66.539  1.00  0.00     7.707 A  
HETATM   22  C   UNL     1     -10.177  10.615  65.075  1.00  0.00    -0.380 A  
HETATM   23  C   UNL     1     -11.431  10.618  64.473  1.00  0.00     1.437 A  
HETATM   24  C   UNL     1     -12.540  10.235  65.210  1.00  0.00     8.181 A  
BRANCH  20  25
HETATM   25  C   UNL     1     -11.028   9.335  68.555  1.00  0.00    -0.036 C  
HETATM   26  C   UNL     1     -10.746   8.060  68.867  1.00  0.00    -0.091 C  
BRANCH  26  27
HETATM   27  C   UNL     1     -10.538   7.565  70.242  1.00  0.00    -0.229 C  
HETATM   28  O   UNL     1     -11.152   8.041  71.185  1.00  0.00    -0.243 OA 
BRANCH  27  29
HETATM   29  O   UNL     1      -9.632   6.564  70.281  1.00  0.00    -0.161 OA 
HETATM   30  C   UNL     1      -9.849   5.347  69.521  1.00  0.00    -0.196 C  
HETATM   31  C   UNL     1     -11.150   4.645  69.919  1.00  0.00     2.174 C  
HETATM   32  C   UNL     1      -9.793   5.631  68.015  1.00  0.00    -0.162 C  
HETATM   33  C   UNL     1      -8.668   4.437  69.896  1.00  0.00    -0.111 C  
ENDBRANCH  27  29
ENDBRANCH  26  27
ENDBRANCH  20  25
ENDBRANCH  13  19
ENDBRANCH   4   6
ENDBRANCH   3   4
ENDBRANCH   2   3
TORSDOF 10
ENDMDL
MODEL      232
REMARK 921   NORMALIZED FREE ENERGY PREDICTED BY IDOCK:   18.28 KCAL/MOL
REMARK 922        TOTAL FREE ENERGY PREDICTED BY IDOCK:   26.61 KCAL/MOL
REMARK 923 INTER-LIGAND FREE ENERGY PREDICTED BY IDOCK:   10.31 KCAL/MOL
REMARK 924 INTRA-LIGAND FREE ENERGY PREDICTED BY IDOCK:   16.30 KCAL/MOL
REMARK 927      BINDING AFFINITY PREDICTED BY RF-SCORE:    0.00 PKD
ROOT
HETATM    1  C   UNL     1     -11.410  16.164  63.252  1.00  0.00     3.638 C  
HETATM    2  C   UNL     1     -11.142  14.753  63.739  1.00  0.00     1.228 C  
ENDROOT
BRANCH   2   3
HETATM    3  O   UNL     1     -12.094  13.855  63.144  1.00  0.00    -0.390 OA 
BRANCH   3   4
HETATM    4  C   UNL     1     -11.741  12.547  63.169  1.00  0.00    -0.241 C  
HETATM    5  O   UNL     1     -12.362  11.642  62.630  1.00  0.00     0.346 OA 
BRANCH   4   6
HETATM    6  C   UNL     1     -10.498  12.330  63.948  1.00  0.00    -0.458 C  
HETATM    7  C   UNL     1      -9.816  11.171  63.778  1.00  0.00    -0.331 C  
HETATM    8  C   UNL     1     -10.067  10.121  62.720  1.00  0.00     0.545 C  
HETATM    9  N   UNL     1      -8.774  10.859  64.634  1.00  0.00    -0.094 NA 
HETATM   10  C   UNL     1      -8.508  11.527  65.817  1.00  0.00     0.130 C  
HETATM   11  C   UNL     1      -7.592  10.796  66.771  1.00  0.00    -0.129 C  
HETATM   12  C   UNL     1      -9.066  12.744  66.050  1.00  0.00     0.130 C  
HETATM   13  C   UNL     1     -10.027  13.352  65.005  1.00  0.00    -0.179 C  
BRANCH  12  14
HETATM   14  C   UNL     1      -8.740  13.454  67.322  1.00  0.00    -0.218 C  
HETATM   15  O   UNL     1      -7.916  14.353  67.412  1.00  0.00    -0.182 OA 
BRANCH  14  16
HETATM   16  O   UNL     1      -9.476  13.001  68.366  1.00  0.00    -0.215 OA 
BRANCH  16  17
HETATM   17  C   UNL     1     -10.668  13.760  68.645  1.00  0.00    -0.256 C  
HETATM   18  C   UNL     1     -10.800  14.102  70.124  1.00  0.00     0.269 C  
ENDBRANCH  16  17
ENDBRANCH  14  16
ENDBRANCH  12  14
BRANCH  13  19
HETATM   19  C   UNL     1     -11.156  14.201  65.608  1.00  0.00    -0.307 A  
HETATM   20  C   UNL     1     -11.055  15.576  65.900  1.00  0.00    -0.205 A  
HETATM   21  C   UNL     1     -12.193  16.247  66.391  1.00  0.00     2.232 A  
HETATM   22  C   UNL     1     -12.395  13.546  65.832  1.00  0.00    -0.507 A  
HETATM   23  C   UNL     1     -13.505  14.229  66.317  1.00  0.00     2.087 A  
HETATM   24  C   UNL     1     -13.407  15.584  66.588  1.00  0.00     4.200 A  
BRANCH  20  25
HETATM   25  C   UNL     1      -9.792  16.322  65.767  1.00  0.00    -0.332 C  
HETATM   26  C   UNL     1      -8.697  16.045  66.492  1.00  0.00    -0.338 C  
BRANCH  26  27
HETATM   27  C   UNL     1      -7.388  16.704  66.309  1.00  0.00    -0.081 C  
HETATM   28  O   UNL     1      -6.396  16.064  65.993  1.00  0.00     1.074 OA 
BRANCH  27  29
HETATM   29  O   UNL     1      -7.466  18.036  66.519  1.00  0.00    -0.210 OA 
HETATM   30  C   UNL     1      -7.255  18.585  67.846  1.00  0.00    -0.237 C  
HETATM   31  C   UNL     1      -8.251  18.021  68.864  1.00  0.00    -0.153 C  
HETATM   32  C   UNL     1      -5.804  18.378  68.293  1.00  0.00    -0.178 C  
HETATM   33  C   UNL     1      -7.516  20.092  67.691  1.00  0.00    -0.327 C  
ENDBRANCH  27  29
ENDBRANCH  26  27
ENDBRANCH  20  25
ENDBRANCH  13  19
ENDBRANCH   4   6
ENDBRANCH   3   4
ENDBRANCH   2   3
TORSDOF 10
ENDMDL
MODEL      233
REMARK 921   NORMALIZED FREE ENERGY PREDICTED BY IDOCK:   20.26 KCAL/MOL
REMARK 922        TOTAL FREE ENERGY PREDICTED BY IDOCK:   29.74 KCAL/MOL
REMARK 923 INTER-LIGAND FREE ENERGY PREDICTED BY IDOCK:   20.83 KCAL/MOL
REMARK 924 INTRA-LIGAND FREE ENERGY PREDICTED BY IDOCK:    8.91 KCAL/MOL
REMARK 927      BINDING AFFINITY PREDICTED BY RF-SCORE:    0.00 PKD
ROOT
HETATM    1  C   UNL     1     -13.684   9.269  69.020  1.00  0.00     7.464 C  
HETATM    2  C   UNL     1     -12.289   9.815  68.786  1.00  0.00     2.104 C  
ENDROOT
BRANCH   2   3
HETATM    3  O   UNL     1     -12.162  10.227  67.414  1.00  0.00     1.488 OA 
BRANCH   3   4
HETATM    4  C   UNL     1     -11.082   9.728  66.765  1.00  0.00     0.298 C  
HETATM    5  O   UNL     1     -10.961   9.667  65.549  1.00  0.00     0.925 OA 
BRANCH   4   6
HETATM    6  C   UNL     1     -10.047   9.247  67.711  1.00  0.00    -0.253 C  
HETATM    7  C   UNL     1      -9.647  10.067  68.713  1.00  0.00    -0.168 C  
HETATM    8  C   UNL     1     -10.281  11.380  69.114  1.00  0.00    -0.084 C  
HETATM    9  N   UNL     1      -8.547   9.724  69.480  1.00  0.00    -0.164 NA 
HETATM   10  C   UNL     1      -7.659   8.710  69.163  1.00  0.00    -0.089 C  
HETATM   11  C   UNL     1      -6.344   8.759  69.905  1.00  0.00    -0.037 C  
HETATM   12  C   UNL     1      -7.998   7.775  68.237  1.00  0.00    -0.122 C  
HETATM   13  C   UNL     1      -9.361   7.877  67.518  1.00  0.00    -0.166 C  
BRANCH  12  14
HETATM   14  C   UNL     1      -7.032   6.678  67.934  1.00  0.00    -0.083 C  
HETATM   15  O   UNL     1      -5.959   6.846  67.373  1.00  0.00    -0.019 OA 
BRANCH  14  16
HETATM   16  O   UNL     1      -7.472   5.473  68.371  1.00  0.00    -0.074 OA 
BRANCH  16  17
HETATM   17  C   UNL     1      -7.650   4.480  67.343  1.00  0.00    -0.082 C  
HETATM   18  C   UNL     1      -6.539   4.522  66.302  1.00  0.00    -0.045 C  
ENDBRANCH  16  17
ENDBRANCH  14  16
ENDBRANCH  12  14
BRANCH  13  19
HETATM   19  C   UNL     1      -9.344   7.380  66.064  1.00  0.00    -0.045 A  
HETATM   20  C   UNL     1      -9.086   8.194  64.943  1.00  0.00     0.435 A  
HETATM   21  C   UNL     1      -9.035   7.593  63.669  1.00  0.00     1.207 A  
HETATM   22  C   UNL     1      -9.555   5.992  65.863  1.00  0.00     0.047 A  
HETATM   23  C   UNL     1      -9.500   5.420  64.597  1.00  0.00     0.459 A  
HETATM   24  C   UNL     1      -9.230   6.220  63.498  1.00  0.00     1.432 A  
BRANCH  20  25
HETATM   25  C   UNL     1      -8.925   9.655  65.047  1.00  0.00    -0.255 C  
HETATM   26  C   UNL     1      -7.857  10.236  65.617  1.00  0.00    -0.151 C  
BRANCH  26  27
HETATM   27  C   UNL     1      -7.618  11.693  65.643  1.00  0.00     0.841 C  
HETATM   28  O   UNL     1      -6.505  12.147  65.860  1.00  0.00     0.869 OA 
BRANCH  27  29
HETATM   29  O   UNL     1      -8.749  12.389  65.393  1.00  0.00     0.583 OA 
HETATM   30  C   UNL     1      -8.970  13.681  66.016  1.00  0.00     0.401 C  
HETATM   31  C   UNL     1      -8.958  13.589  67.545  1.00  0.00    -0.210 C  
HETATM   32  C   UNL     1      -7.959  14.712  65.500  1.00  0.00     4.692 C  
HETATM   33  C   UNL     1     -10.378  14.098  65.562  1.00  0.00    -0.368 C  
ENDBRANCH  27  29
ENDBRANCH  26  27
ENDBRANCH  20  25
ENDBRANCH  13  19
ENDBRANCH   4   6
ENDBRANCH   3   4
ENDBRANCH   2   3
TORSDOF 10
ENDMDL
MODEL      234
REMARK 921   NORMALIZED FREE ENERGY PREDICTED BY IDOCK:   23.14 KCAL/MOL
REMARK 922        TOTAL FREE ENERGY PREDICTED BY IDOCK:   34.31 KCAL/MOL
REMARK 923 INTER-LIGAND FREE ENERGY PREDICTED BY IDOCK:   20.87 KCAL/MOL
REMARK 924 INTRA-LIGAND FREE ENERGY PREDICTED BY IDOCK:   13.44 KCAL/MOL
REMARK 927      BINDING AFFINITY PREDICTED BY RF-SCORE:    0.00 PKD
ROOT
HETATM    1  C   UNL     1      -9.752   9.564  70.755  1.00  0.00    -0.289 C  
HETATM    2  C   UNL     1     -10.794   9.670  69.658  1.00  0.00    -0.244 C  
ENDROOT
BRANCH   2   3
HETATM    3  O   UNL     1     -12.052  10.065  70.234  1.00  0.00    -0.234 OA 
BRANCH   3   4
HETATM    4  C   UNL     1     -12.288  11.399  70.229  1.00  0.00    -0.297 C  
HETATM    5  O   UNL     1     -12.577  12.063  71.216  1.00  0.00    -0.347 OA 
BRANCH   4   6
HETATM    6  C   UNL     1     -12.166  11.974  68.868  1.00  0.00    -0.036 C  
HETATM    7  C   UNL     1     -12.374  11.168  67.799  1.00  0.00     1.307 C  
HETATM    8  C   UNL     1     -12.919   9.758  67.822  1.00  0.00     9.281 C  
HETATM    9  N   UNL     1     -12.070  11.625  66.528  1.00  0.00    -0.161 NA 
HETATM   10  C   UNL     1     -11.340  12.771  66.265  1.00  0.00    -0.320 C  
HETATM   11  C   UNL     1     -10.799  12.873  64.857  1.00  0.00    -0.331 C  
HETATM   12  C   UNL     1     -11.151  13.695  67.242  1.00  0.00    -0.309 C  
HETATM   13  C   UNL     1     -11.721  13.436  68.654  1.00  0.00    -0.384 C  
BRANCH  12  14
HETATM   14  C   UNL     1     -10.382  14.936  66.922  1.00  0.00    -0.264 C  
HETATM   15  O   UNL     1     -10.222  15.862  67.704  1.00  0.00    -0.252 OA 
BRANCH  14  16
HETATM   16  O   UNL     1      -9.865  14.909  65.669  1.00  0.00    -0.328 OA 
BRANCH  16  17
HETATM   17  C   UNL     1      -8.939  13.835  65.415  1.00  0.00     1.361 C  
HETATM   18  C   UNL     1      -9.008  12.750  66.481  1.00  0.00    -0.098 C  
ENDBRANCH  16  17
ENDBRANCH  14  16
ENDBRANCH  12  14
BRANCH  13  19
HETATM   19  C   UNL     1     -10.862  14.008  69.793  1.00  0.00     0.064 A  
HETATM   20  C   UNL     1      -9.537  13.617  70.070  1.00  0.00     2.256 A  
HETATM   21  C   UNL     1      -8.843  14.272  71.107  1.00  0.00     4.910 A  
HETATM   22  C   UNL     1     -11.448  15.034  70.578  1.00  0.00    -0.333 A  
HETATM   23  C   UNL     1     -10.744  15.668  71.597  1.00  0.00     0.418 A  
HETATM   24  C   UNL     1      -9.435  15.292  71.856  1.00  0.00     4.302 A  
BRANCH  20  25
HETATM   25  C   UNL     1      -8.873  12.513  69.356  1.00  0.00     1.251 C  
HETATM   26  C   UNL     1      -7.541  12.346  69.341  1.00  0.00     0.489 C  
BRANCH  26  27
HETATM   27  C   UNL     1      -6.853  11.194  68.724  1.00  0.00    -0.079 C  
HETATM   28  O   UNL     1      -5.636  11.164  68.623  1.00  0.00    -0.044 OA 
BRANCH  27  29
HETATM   29  O   UNL     1      -7.728  10.243  68.330  1.00  0.00    -0.089 OA 
HETATM   30  C   UNL     1      -7.444   8.840  68.568  1.00  0.00    -0.089 C  
HETATM   31  C   UNL     1      -6.137   8.398  67.901  1.00  0.00    -0.048 C  
HETATM   32  C   UNL     1      -7.448   8.532  70.070  1.00  0.00    -0.060 C  
HETATM   33  C   UNL     1      -8.609   8.087  67.905  1.00  0.00    -0.129 C  
ENDBRANCH  27  29
ENDBRANCH  26  27
ENDBRANCH  20  25
ENDBRANCH  13  19
ENDBRANCH   4   6
ENDBRANCH   3   4
ENDBRANCH   2   3
TORSDOF 10
ENDMDL
MODEL      235
REMARK 921   NORMALIZED FREE ENERGY PREDICTED BY IDOCK:   24.32 KCAL/MOL
REMARK 922        TOTAL FREE ENERGY PREDICTED BY IDOCK:   36.18 KCAL/MOL
REMARK 923 INTER-LIGAND FREE ENERGY PREDICTED BY IDOCK:   15.82 KCAL/MOL
REMARK 924 INTRA-LIGAND FREE ENERGY PREDICTED BY IDOCK:   20.36 KCAL/MOL
REMARK 927      BINDING AFFINITY PREDICTED BY RF-SCORE:    0.00 PKD
ROOT
HETATM    1  C   UNL     1     -13.188  12.584  64.162  1.00  0.00     0.117 C  
HETATM    2  C   UNL     1     -12.738  13.583  65.210  1.00  0.00    -0.427 C  
ENDROOT
BRANCH   2   3
HETATM    3  O   UNL     1     -12.631  12.921  66.483  1.00  0.00    -0.294 OA 
BRANCH   3   4
HETATM    4  C   UNL     1     -11.871  11.798  66.481  1.00  0.00     0.075 C  
HETATM    5  O   UNL     1     -12.242  10.701  66.088  1.00  0.00     1.951 OA 
BRANCH   4   6
HETATM    6  C   UNL     1     -10.517  12.052  67.029  1.00  0.00    -0.248 C  
HETATM    7  C   UNL     1     -10.004  11.179  67.930  1.00  0.00    -0.173 C  
HETATM    8  C   UNL     1     -10.580   9.835  68.316  1.00  0.00    -0.271 C  
HETATM    9  N   UNL     1      -8.838  11.498  68.604  1.00  0.00    -0.144 NA 
HETATM   10  C   UNL     1      -8.259  12.755  68.611  1.00  0.00     0.012 C  
HETATM   11  C   UNL     1      -7.234  12.980  69.699  1.00  0.00     0.494 C  
HETATM   12  C   UNL     1      -8.632  13.680  67.688  1.00  0.00    -0.185 C  
HETATM   13  C   UNL     1      -9.731  13.329  66.662  1.00  0.00    -0.270 C  
BRANCH  12  14
HETATM   14  C   UNL     1      -7.970  15.019  67.702  1.00  0.00    -0.162 C  
HETATM   15  O   UNL     1      -7.694  15.635  68.722  1.00  0.00    -0.143 OA 
BRANCH  14  16
HETATM   16  O   UNL     1      -7.694  15.467  66.453  1.00  0.00     0.038 OA 
BRANCH  16  17
HETATM   17  C   UNL     1      -7.807  14.478  65.412  1.00  0.00     6.219 C  
HETATM   18  C   UNL     1      -9.230  14.354  64.886  1.00  0.00     1.762 C  
ENDBRANCH  16  17
ENDBRANCH  14  16
ENDBRANCH  12  14
BRANCH  13  19
HETATM   19  C   UNL     1     -10.615  14.518  66.256  1.00  0.00    -0.304 A  
HETATM   20  C   UNL     1     -11.429  15.250  67.143  1.00  0.00    -0.202 A  
HETATM   21  C   UNL     1     -12.139  16.362  66.647  1.00  0.00     2.000 A  
HETATM   22  C   UNL     1     -10.554  14.922  64.897  1.00  0.00    -0.417 A  
HETATM   23  C   UNL     1     -11.263  16.023  64.429  1.00  0.00    -0.218 A  
HETATM   24  C   UNL     1     -12.050  16.751  65.308  1.00  0.00     2.444 A  
BRANCH  20  25
HETATM   25  C   UNL     1     -11.610  14.862  68.553  1.00  0.00    -0.347 C  
HETATM   26  C   UNL     1     -12.321  15.591  69.428  1.00  0.00    -0.143 C  
BRANCH  26  27
HETATM   27  C   UNL     1     -12.606  15.178  70.816  1.00  0.00    -0.393 C  
HETATM   28  O   UNL     1     -12.486  15.960  71.747  1.00  0.00    -0.429 OA 
BRANCH  27  29
HETATM   29  O   UNL     1     -13.006  13.889  70.881  1.00  0.00    -0.308 OA 
HETATM   30  C   UNL     1     -12.889  13.144  72.122  1.00  0.00    -0.160 C  
HETATM   31  C   UNL     1     -11.440  13.076  72.615  1.00  0.00     5.485 C  
HETATM   32  C   UNL     1     -13.828  13.718  73.190  1.00  0.00     0.803 C  
HETATM   33  C   UNL     1     -13.352  11.722  71.769  1.00  0.00    -0.342 C  
ENDBRANCH  27  29
ENDBRANCH  26  27
ENDBRANCH  20  25
ENDBRANCH  13  19
ENDBRANCH   4   6
ENDBRANCH   3   4
ENDBRANCH   2   3
TORSDOF 10
ENDMDL
MODEL      236
REMARK 921   NORMALIZED FREE ENERGY PREDICTED BY IDOCK:   25.25 KCAL/MOL
REMARK 922        TOTAL FREE ENERGY PREDICTED BY IDOCK:   37.65 KCAL/MOL
REMARK 923 INTER-LIGAND FREE ENERGY PREDICTED BY IDOCK:   -3.84 KCAL/MOL
REMARK 924 INTRA-LIGAND FREE ENERGY PREDICTED BY IDOCK:   41.49 KCAL/MOL
REMARK 927      BINDING AFFINITY PREDICTED BY RF-SCORE:    0.00 PKD
ROOT
HETATM    1  C   UNL     1     -10.015   6.535  66.442  1.00  0.00    -0.086 C  
HETATM    2  C   UNL     1      -8.871   7.526  66.531  1.00  0.00    -0.148 C  
ENDROOT
BRANCH   2   3
HETATM    3  O   UNL     1      -7.869   7.018  67.430  1.00  0.00    -0.108 OA 
BRANCH   3   4
HETATM    4  C   UNL     1      -7.982   7.446  68.711  1.00  0.00    -0.123 C  
HETATM    5  O   UNL     1      -7.439   6.923  69.674  1.00  0.00    -0.093 OA 
BRANCH   4   6
HETATM    6  C   UNL     1      -8.861   8.635  68.818  1.00  0.00    -0.139 C  
HETATM    7  C   UNL     1     -10.082   8.494  69.390  1.00  0.00    -0.205 C  
HETATM    8  C   UNL     1     -10.599   7.280  70.129  1.00  0.00    -0.245 C  
HETATM    9  N   UNL     1     -10.994   9.532  69.319  1.00  0.00    -0.190 NA 
HETATM   10  C   UNL     1     -10.856  10.638  68.499  1.00  0.00    -0.233 C  
HETATM   11  C   UNL     1     -12.121  11.438  68.288  1.00  0.00    -0.079 C  
HETATM   12  C   UNL     1      -9.649  10.928  67.948  1.00  0.00    -0.175 C  
HETATM   13  C   UNL     1      -8.449   9.992  68.210  1.00  0.00    -0.111 C  
BRANCH  12  14
HETATM   14  C   UNL     1      -9.522  12.144  67.089  1.00  0.00    -0.190 C  
HETATM   15  O   UNL     1      -9.417  12.114  65.871  1.00  0.00    -0.235 OA 
BRANCH  14  16
HETATM   16  O   UNL     1      -9.557  13.289  67.814  1.00  0.00    -0.201 OA 
BRANCH  16  17
HETATM   17  C   UNL     1     -10.104  14.429  67.125  1.00  0.00    -0.253 C  
HETATM   18  C   UNL     1     -11.403  14.915  67.754  1.00  0.00    -0.341 C  
ENDBRANCH  16  17
ENDBRANCH  14  16
ENDBRANCH  12  14
BRANCH  13  19
HETATM   19  C   UNL     1      -7.466   9.884  67.033  1.00  0.00    -0.091 A  
HETATM   20  C   UNL     1      -6.885   8.682  66.584  1.00  0.00    -0.069 A  
HETATM   21  C   UNL     1      -6.050   8.719  65.449  1.00  0.00    -0.048 A  
HETATM   22  C   UNL     1      -7.177  11.084  66.334  1.00  0.00    -0.127 A  
HETATM   23  C   UNL     1      -6.350  11.097  65.215  1.00  0.00     0.478 A  
HETATM   24  C   UNL     1      -5.793   9.910  64.766  1.00  0.00    -0.096 A  
BRANCH  20  25
HETATM   25  C   UNL     1      -7.071   7.402  67.289  1.00  0.00    -0.084 C  
HETATM   26  C   UNL     1      -6.262   6.344  67.115  1.00  0.00    -0.036 C  
BRANCH  26  27
HETATM   27  C   UNL     1      -6.360   5.087  67.881  1.00  0.00    -0.040 C  
HETATM   28  O   UNL     1      -5.702   4.104  67.572  1.00  0.00    -0.020 OA 
BRANCH  27  29
HETATM   29  O   UNL     1      -7.224   5.197  68.914  1.00  0.00    -0.059 OA 
HETATM   30  C   UNL     1      -8.509   4.524  68.874  1.00  0.00    -0.083 C  
HETATM   31  C   UNL     1      -9.352   4.969  67.675  1.00  0.00    -0.141 C  
HETATM   32  C   UNL     1      -8.324   3.002  68.906  1.00  0.00    -0.083 C  
HETATM   33  C   UNL     1      -9.221   4.963  70.163  1.00  0.00    -0.185 C  
ENDBRANCH  27  29
ENDBRANCH  26  27
ENDBRANCH  20  25
ENDBRANCH  13  19
ENDBRANCH   4   6
ENDBRANCH   3   4
ENDBRANCH   2   3
TORSDOF 10
ENDMDL
MODEL      237
REMARK 921   NORMALIZED FREE ENERGY PREDICTED BY IDOCK:   28.85 KCAL/MOL
REMARK 922        TOTAL FREE ENERGY PREDICTED BY IDOCK:   43.35 KCAL/MOL
REMARK 923 INTER-LIGAND FREE ENERGY PREDICTED BY IDOCK:   28.59 KCAL/MOL
REMARK 924 INTRA-LIGAND FREE ENERGY PREDICTED BY IDOCK:   14.76 KCAL/MOL
REMARK 927      BINDING AFFINITY PREDICTED BY RF-SCORE:    0.00 PKD
ROOT
HETATM    1  C   UNL     1      -9.483  14.248  66.654  1.00  0.00    -0.302 C  
HETATM    2  C   UNL     1      -8.470  13.337  65.987  1.00  0.00     1.144 C  
ENDROOT
BRANCH   2   3
HETATM    3  O   UNL     1      -9.163  12.327  65.233  1.00  0.00     0.082 OA 
BRANCH   3   4
HETATM    4  C   UNL     1      -9.377  11.165  65.897  1.00  0.00    -0.212 C  
HETATM    5  O   UNL     1     -10.384  10.478  65.801  1.00  0.00    -0.249 OA 
BRANCH   4   6
HETATM    6  C   UNL     1      -8.235  10.817  66.777  1.00  0.00    -0.135 C  
HETATM    7  C   UNL     1      -7.238  10.046  66.279  1.00  0.00    -0.106 C  
HETATM    8  C   UNL     1      -7.044   9.642  64.835  1.00  0.00    -0.114 C  
HETATM    9  N   UNL     1      -6.271   9.543  67.132  1.00  0.00    -0.063 NA 
HETATM   10  C   UNL     1      -6.361   9.565  68.513  1.00  0.00    -0.048 C  
HETATM   11  C   UNL     1      -5.408   8.636  69.229  1.00  0.00    -0.035 C  
HETATM   12  C   UNL     1      -7.264  10.376  69.122  1.00  0.00    -0.089 C  
HETATM   13  C   UNL     1      -8.213  11.239  68.262  1.00  0.00    -0.143 C  
BRANCH  12  14
HETATM   14  C   UNL     1      -7.320  10.399  70.615  1.00  0.00     0.638 C  
HETATM   15  O   UNL     1      -6.335  10.345  71.337  1.00  0.00    -0.303 OA 
BRANCH  14  16
HETATM   16  O   UNL     1      -8.589  10.506  71.079  1.00  0.00     1.526 OA 
BRANCH  16  17
HETATM   17  C   UNL     1      -8.812  11.593  71.998  1.00  0.00    17.200 C  
HETATM   18  C   UNL     1      -7.530  12.351  72.315  1.00  0.00    11.897 C  
ENDBRANCH  16  17
ENDBRANCH  14  16
ENDBRANCH  12  14
BRANCH  13  19
HETATM   19  C   UNL     1      -9.605  11.449  68.879  1.00  0.00    -0.087 A  
HETATM   20  C   UNL     1     -10.371  12.623  68.742  1.00  0.00    -0.132 A  
HETATM   21  C   UNL     1     -11.663  12.656  69.306  1.00  0.00    -0.379 A  
HETATM   22  C   UNL     1     -10.158  10.354  69.590  1.00  0.00    -0.226 A  
HETATM   23  C   UNL     1     -11.435  10.408  70.139  1.00  0.00    -0.396 A  
HETATM   24  C   UNL     1     -12.193  11.558  69.988  1.00  0.00    -0.354 A  
BRANCH  20  25
HETATM   25  C   UNL     1      -9.852  13.834  68.083  1.00  0.00    -0.239 C  
HETATM   26  C   UNL     1      -9.495  14.940  68.756  1.00  0.00    -0.214 C  
BRANCH  26  27
HETATM   27  C   UNL     1      -8.876  16.128  68.136  1.00  0.00    -0.184 C  
HETATM   28  O   UNL     1      -7.662  16.264  68.102  1.00  0.00    -0.150 OA 
BRANCH  27  29
HETATM   29  O   UNL     1      -9.805  16.972  67.636  1.00  0.00    -0.247 OA 
HETATM   30  C   UNL     1     -10.272  18.099  68.421  1.00  0.00    -0.387 C  
HETATM   31  C   UNL     1     -10.894  17.656  69.749  1.00  0.00     0.879 C  
HETATM   32  C   UNL     1      -9.144  19.117  68.633  1.00  0.00    -0.414 C  
HETATM   33  C   UNL     1     -11.368  18.748  67.560  1.00  0.00     0.431 C  
ENDBRANCH  27  29
ENDBRANCH  26  27
ENDBRANCH  20  25
ENDBRANCH  13  19
ENDBRANCH   4   6
ENDBRANCH   3   4
ENDBRANCH   2   3
TORSDOF 10
ENDMDL
MODEL      238
REMARK 921   NORMALIZED FREE ENERGY PREDICTED BY IDOCK:   30.36 KCAL/MOL
REMARK 922        TOTAL FREE ENERGY PREDICTED BY IDOCK:   45.75 KCAL/MOL
REMARK 923 INTER-LIGAND FREE ENERGY PREDICTED BY IDOCK:   11.49 KCAL/MOL
REMARK 924 INTRA-LIGAND FREE ENERGY PREDICTED BY IDOCK:   34.26 KCAL/MOL
REMARK 927      BINDING AFFINITY PREDICTED BY RF-SCORE:    0.00 PKD
ROOT
HETATM    1  C   UNL     1     -13.846   9.196  68.850  1.00  0.00     9.346 C  
HETATM    2  C   UNL     1     -12.519   9.928  68.816  1.00  0.00     2.251 C  
ENDROOT
BRANCH   2   3
HETATM    3  O   UNL     1     -12.091  10.074  67.451  1.00  0.00     1.454 OA 
BRANCH   3   4
HETATM    4  C   UNL     1     -10.767   9.872  67.241  1.00  0.00    -0.238 C  
HETATM    5  O   UNL     1     -10.299   9.094  66.421  1.00  0.00    -0.258 OA 
BRANCH   4   6
HETATM    6  C   UNL     1      -9.935  10.706  68.141  1.00  0.00    -0.176 C  
HETATM    7  C   UNL     1     -10.084  12.053  68.104  1.00  0.00    -0.200 C  
HETATM    8  C   UNL     1     -11.161  12.824  67.375  1.00  0.00    -0.312 C  
HETATM    9  N   UNL     1      -9.184  12.859  68.780  1.00  0.00     0.066 NA 
HETATM   10  C   UNL     1      -7.985  12.416  69.312  1.00  0.00     0.582 C  
HETATM   11  C   UNL     1      -6.997  13.507  69.654  1.00  0.00     0.189 C  
HETATM   12  C   UNL     1      -7.768  11.086  69.482  1.00  0.00     0.039 C  
HETATM   13  C   UNL     1      -8.850  10.076  69.040  1.00  0.00    -0.159 C  
BRANCH  12  14
HETATM   14  C   UNL     1      -6.476  10.638  70.083  1.00  0.00    -0.152 C  
HETATM   15  O   UNL     1      -5.378  10.871  69.598  1.00  0.00    -0.038 OA 
BRANCH  14  16
HETATM   16  O   UNL     1      -6.659   9.957  71.240  1.00  0.00    -0.321 OA 
BRANCH  16  17
HETATM   17  C   UNL     1      -6.415   8.539  71.158  1.00  0.00    -0.049 C  
HETATM   18  C   UNL     1      -5.272   8.205  70.209  1.00  0.00    -0.023 C  
ENDBRANCH  16  17
ENDBRANCH  14  16
ENDBRANCH  12  14
BRANCH  13  19
HETATM   19  C   UNL     1      -8.291   8.744  68.515  1.00  0.00    -0.129 A  
HETATM   20  C   UNL     1      -8.538   8.225  67.229  1.00  0.00    -0.124 A  
HETATM   21  C   UNL     1      -7.906   7.021  66.855  1.00  0.00    -0.107 A  
HETATM   22  C   UNL     1      -7.430   8.029  69.386  1.00  0.00    -0.096 A  
HETATM   23  C   UNL     1      -6.817   6.842  68.996  1.00  0.00    -0.069 A  
HETATM   24  C   UNL     1      -7.048   6.342  67.724  1.00  0.00    -0.085 A  
BRANCH  20  25
HETATM   25  C   UNL     1      -9.472   8.861  66.285  1.00  0.00    -0.304 C  
HETATM   26  C   UNL     1      -9.219  10.032  65.679  1.00  0.00    -0.234 C  
BRANCH  26  27
HETATM   27  C   UNL     1     -10.086  10.642  64.652  1.00  0.00    -0.349 C  
HETATM   28  O   UNL     1     -10.149  10.180  63.522  1.00  0.00     0.003 OA 
BRANCH  27  29
HETATM   29  O   UNL     1     -10.760  11.708  65.136  1.00  0.00    -0.282 OA 
HETATM   30  C   UNL     1     -11.025  12.856  64.289  1.00  0.00    -0.388 C  
HETATM   31  C   UNL     1      -9.735  13.483  63.751  1.00  0.00     2.350 C  
HETATM   32  C   UNL     1     -11.991  12.484  63.158  1.00  0.00    -0.356 C  
HETATM   33  C   UNL     1     -11.714  13.873  65.213  1.00  0.00    -0.347 C  
ENDBRANCH  27  29
ENDBRANCH  26  27
ENDBRANCH  20  25
ENDBRANCH  13  19
ENDBRANCH   4   6
ENDBRANCH   3   4
ENDBRANCH   2   3
TORSDOF 10
ENDMDL
MODEL      239
REMARK 921   NORMALIZED FREE ENERGY PREDICTED BY IDOCK:   33.31 KCAL/MOL
REMARK 922        TOTAL FREE ENERGY PREDICTED BY IDOCK:   50.43 KCAL/MOL
REMARK 923 INTER-LIGAND FREE ENERGY PREDICTED BY IDOCK:   38.68 KCAL/MOL
REMARK 924 INTRA-LIGAND FREE ENERGY PREDICTED BY IDOCK:   11.75 KCAL/MOL
REMARK 927      BINDING AFFINITY PREDICTED BY RF-SCORE:    0.00 PKD
ROOT
HETATM    1  C   UNL     1      -8.232  12.589  69.799  1.00  0.00     2.037 C  
HETATM    2  C   UNL     1      -7.740  13.858  70.469  1.00  0.00     2.251 C  
ENDROOT
BRANCH   2   3
HETATM    3  O   UNL     1      -7.527  14.871  69.470  1.00  0.00    -0.181 OA 
BRANCH   3   4
HETATM    4  C   UNL     1      -7.426  14.410  68.200  1.00  0.00    -0.128 C  
HETATM    5  O   UNL     1      -7.534  13.237  67.870  1.00  0.00    -0.111 OA 
BRANCH   4   6
HETATM    6  C   UNL     1      -7.154  15.505  67.238  1.00  0.00    -0.225 C  
HETATM    7  C   UNL     1      -6.791  15.185  65.971  1.00  0.00     4.505 C  
HETATM    8  C   UNL     1      -6.815  13.810  65.344  1.00  0.00    10.327 C  
HETATM    9  N   UNL     1      -6.339  16.177  65.119  1.00  0.00     5.596 NA 
HETATM   10  C   UNL     1      -5.996  17.457  65.522  1.00  0.00     0.530 C  
HETATM   11  C   UNL     1      -5.174  18.240  64.525  1.00  0.00    -0.021 C  
HETATM   12  C   UNL     1      -6.391  17.914  66.738  1.00  0.00    -0.210 C  
HETATM   13  C   UNL     1      -7.188  16.984  67.679  1.00  0.00    -0.169 C  
BRANCH  12  14
HETATM   14  C   UNL     1      -6.031  19.308  67.135  1.00  0.00    -0.178 C  
HETATM   15  O   UNL     1      -5.418  20.087  66.419  1.00  0.00    -0.171 OA 
BRANCH  14  16
HETATM   16  O   UNL     1      -6.477  19.619  68.377  1.00  0.00    -0.239 OA 
BRANCH  16  17
HETATM   17  C   UNL     1      -7.401  20.723  68.433  1.00  0.00     0.221 C  
HETATM   18  C   UNL     1      -8.719  20.337  69.091  1.00  0.00     0.580 C  
ENDBRANCH  16  17
ENDBRANCH  14  16
ENDBRANCH  12  14
BRANCH  13  19
HETATM   19  C   UNL     1      -6.901  17.203  69.172  1.00  0.00    -0.236 A  
HETATM   20  C   UNL     1      -7.763  16.818  70.217  1.00  0.00     2.151 A  
HETATM   21  C   UNL     1      -7.344  17.021  71.548  1.00  0.00     6.893 A  
HETATM   22  C   UNL     1      -5.654  17.793  69.500  1.00  0.00    -0.217 A  
HETATM   23  C   UNL     1      -5.260  17.984  70.821  1.00  0.00    -0.278 A  
HETATM   24  C   UNL     1      -6.103  17.588  71.847  1.00  0.00     2.352 A  
BRANCH  20  25
HETATM   25  C   UNL     1      -9.106  16.264  69.972  1.00  0.00     0.904 C  
HETATM   26  C   UNL     1      -9.907  16.693  68.983  1.00  0.00    -0.267 C  
BRANCH  26  27
HETATM   27  C   UNL     1     -11.211  16.090  68.647  1.00  0.00    -0.366 C  
HETATM   28  O   UNL     1     -12.248  16.731  68.737  1.00  0.00     0.545 OA 
BRANCH  27  29
HETATM   29  O   UNL     1     -11.079  14.808  68.239  1.00  0.00    -0.255 OA 
HETATM   30  C   UNL     1     -11.993  13.787  68.716  1.00  0.00    -0.365 C  
HETATM   31  C   UNL     1     -11.970  13.663  70.242  1.00  0.00    -0.397 C  
HETATM   32  C   UNL     1     -13.410  14.038  68.186  1.00  0.00     4.168 C  
HETATM   33  C   UNL     1     -11.464  12.476  68.111  1.00  0.00    -0.368 C  
ENDBRANCH  27  29
ENDBRANCH  26  27
ENDBRANCH  20  25
ENDBRANCH  13  19
ENDBRANCH   4   6
ENDBRANCH   3   4
ENDBRANCH   2   3
TORSDOF 10
ENDMDL
MODEL      240
REMARK 921   NORMALIZED FREE ENERGY PREDICTED BY IDOCK:   40.07 KCAL/MOL
REMARK 922        TOTAL FREE ENERGY PREDICTED BY IDOCK:   61.12 KCAL/MOL
REMARK 923 INTER-LIGAND FREE ENERGY PREDICTED BY IDOCK:   19.47 KCAL/MOL
REMARK 924 INTRA-LIGAND FREE ENERGY PREDICTED BY IDOCK:   41.65 KCAL/MOL
REMARK 927      BINDING AFFINITY PREDICTED BY RF-SCORE:    0.00 PKD
ROOT
HETATM    1  C   UNL     1      -9.238  12.055  67.398  1.00  0.00    -0.180 C  
HETATM    2  C   UNL     1      -8.740  13.164  66.492  1.00  0.00     0.094 C  
ENDROOT
BRANCH   2   3
HETATM    3  O   UNL     1      -9.126  12.881  65.136  1.00  0.00     0.561 OA 
BRANCH   3   4
HETATM    4  C   UNL     1      -9.668  13.926  64.465  1.00  0.00     0.795 C  
HETATM    5  O   UNL     1      -9.747  14.013  63.248  1.00  0.00     3.997 OA 
BRANCH   4   6
HETATM    6  C   UNL     1     -10.154  14.978  65.390  1.00  0.00    -0.396 C  
HETATM    7  C   UNL     1      -9.778  16.262  65.172  1.00  0.00     0.601 C  
HETATM    8  C   UNL     1      -9.058  16.800  63.956  1.00  0.00     9.719 C  
HETATM    9  N   UNL     1     -10.049  17.226  66.128  1.00  0.00    -0.402 NA 
HETATM   10  C   UNL     1     -10.473  16.949  67.417  1.00  0.00    -0.310 C  
HETATM   11  C   UNL     1     -10.335  18.095  68.393  1.00  0.00    -0.371 C  
HETATM   12  C   UNL     1     -10.958  15.718  67.723  1.00  0.00    -0.314 C  
HETATM   13  C   UNL     1     -10.996  14.623  66.634  1.00  0.00    -0.323 C  
BRANCH  12  14
HETATM   14  C   UNL     1     -11.434  15.457  69.115  1.00  0.00    -0.333 C  
HETATM   15  O   UNL     1     -11.008  16.037  70.103  1.00  0.00    -0.322 OA 
BRANCH  14  16
HETATM   16  O   UNL     1     -12.406  14.513  69.155  1.00  0.00    -0.244 OA 
BRANCH  16  17
HETATM   17  C   UNL     1     -12.067  13.320  69.888  1.00  0.00    -0.308 C  
HETATM   18  C   UNL     1     -12.091  13.543  71.394  1.00  0.00     0.048 C  
ENDBRANCH  16  17
ENDBRANCH  14  16
ENDBRANCH  12  14
BRANCH  13  19
HETATM   19  C   UNL     1     -10.767  13.200  67.165  1.00  0.00    -0.263 A  
HETATM   20  C   UNL     1      -9.910  12.873  68.235  1.00  0.00    -0.228 A  
HETATM   21  C   UNL     1      -9.846  11.531  68.662  1.00  0.00    -0.184 A  
HETATM   22  C   UNL     1     -11.519  12.164  66.554  1.00  0.00    -0.430 A  
HETATM   23  C   UNL     1     -11.440  10.846  66.992  1.00  0.00     0.041 A  
HETATM   24  C   UNL     1     -10.609  10.531  68.055  1.00  0.00    -0.251 A  
BRANCH  20  25
HETATM   25  C   UNL     1      -9.039  13.869  68.883  1.00  0.00     0.094 C  
HETATM   26  C   UNL     1      -9.181  14.244  70.164  1.00  0.00     1.627 C  
BRANCH  26  27
HETATM   27  C   UNL     1      -8.263  15.159  70.870  1.00  0.00     2.351 C  
HETATM   28  O   UNL     1      -8.362  15.351  72.073  1.00  0.00     4.907 OA 
BRANCH  27  29
HETATM   29  O   UNL     1      -7.352  15.699  70.030  1.00  0.00    -0.043 OA 
HETATM   30  C   UNL     1      -6.422  14.849  69.310  1.00  0.00    -0.121 C  
HETATM   31  C   UNL     1      -5.557  14.012  70.257  1.00  0.00    -0.125 C  
HETATM   32  C   UNL     1      -7.164  13.973  68.293  1.00  0.00    -0.114 C  
HETATM   33  C   UNL     1      -5.510  15.826  68.549  1.00  0.00    -0.102 C  
ENDBRANCH  27  29
ENDBRANCH  26  27
ENDBRANCH  20  25
ENDBRANCH  13  19
ENDBRANCH   4   6
ENDBRANCH   3   4
ENDBRANCH   2   3
TORSDOF 10
ENDMDL
MODEL      241
REMARK 921   NORMALIZED FREE ENERGY PREDICTED BY IDOCK:   45.48 KCAL/MOL
REMARK 922        TOTAL FREE ENERGY PREDICTED BY IDOCK:   69.71 KCAL/MOL
REMARK 923 INTER-LIGAND FREE ENERGY PREDICTED BY IDOCK:   47.99 KCAL/MOL
REMARK 924 INTRA-LIGAND FREE ENERGY PREDICTED BY IDOCK:   21.72 KCAL/MOL
REMARK 927      BINDING AFFINITY PREDICTED BY RF-SCORE:    0.00 PKD
ROOT
HETATM    1  C   UNL     1     -10.159   6.441  71.028  1.00  0.00    -0.212 C  
HETATM    2  C   UNL     1      -9.583   7.110  69.796  1.00  0.00    -0.155 C  
ENDROOT
BRANCH   2   3
HETATM    3  O   UNL     1      -9.002   8.372  70.167  1.00  0.00    -0.138 OA 
BRANCH   3   4
HETATM    4  C   UNL     1      -8.257   8.965  69.202  1.00  0.00    -0.118 C  
HETATM    5  O   UNL     1      -7.043   8.863  69.092  1.00  0.00    -0.061 OA 
BRANCH   4   6
HETATM    6  C   UNL     1      -9.093   9.776  68.284  1.00  0.00    -0.122 C  
HETATM    7  C   UNL     1      -8.634  10.025  67.034  1.00  0.00    -0.125 C  
HETATM    8  C   UNL     1      -7.426   9.401  66.373  1.00  0.00    -0.093 C  
HETATM    9  N   UNL     1      -9.295  10.941  66.233  1.00  0.00    -0.174 NA 
HETATM   10  C   UNL     1     -10.267  11.815  66.686  1.00  0.00    -0.210 C  
HETATM   11  C   UNL     1     -10.570  12.969  65.757  1.00  0.00    -0.291 C  
HETATM   12  C   UNL     1     -10.863  11.605  67.888  1.00  0.00    -0.255 C  
HETATM   13  C   UNL     1     -10.418  10.409  68.758  1.00  0.00    -0.219 C  
BRANCH  12  14
HETATM   14  C   UNL     1     -11.929  12.549  68.339  1.00  0.00    -0.221 C  
HETATM   15  O   UNL     1     -13.099  12.477  67.991  1.00  0.00     1.908 OA 
BRANCH  14  16
HETATM   16  O   UNL     1     -11.454  13.487  69.195  1.00  0.00    -0.261 OA 
BRANCH  16  17
HETATM   17  C   UNL     1     -12.377  14.548  69.508  1.00  0.00    -0.208 C  
HETATM   18  C   UNL     1     -13.787  14.031  69.758  1.00  0.00     3.102 C  
ENDBRANCH  16  17
ENDBRANCH  14  16
ENDBRANCH  12  14
BRANCH  13  19
HETATM   19  C   UNL     1     -10.487  10.672  70.271  1.00  0.00     0.152 A  
HETATM   20  C   UNL     1     -10.509  11.951  70.860  1.00  0.00     4.459 A  
HETATM   21  C   UNL     1     -10.640  12.047  72.261  1.00  0.00    12.252 A  
HETATM   22  C   UNL     1     -10.583   9.533  71.111  1.00  0.00    -0.388 A  
HETATM   23  C   UNL     1     -10.712   9.651  72.491  1.00  0.00     2.170 A  
HETATM   24  C   UNL     1     -10.750  10.911  73.066  1.00  0.00    12.138 A  
BRANCH  20  25
HETATM   25  C   UNL     1     -10.343  13.187  70.075  1.00  0.00     1.668 C  
HETATM   26  C   UNL     1      -9.200  13.890  70.046  1.00  0.00     2.076 C  
BRANCH  26  27
HETATM   27  C   UNL     1      -8.970  15.070  69.190  1.00  0.00    -0.186 C  
HETATM   28  O   UNL     1      -8.331  14.984  68.152  1.00  0.00    -0.135 OA 
BRANCH  27  29
HETATM   29  O   UNL     1      -9.551  16.178  69.701  1.00  0.00    -0.208 OA 
HETATM   30  C   UNL     1     -10.076  16.176  71.054  1.00  0.00     1.658 C  
HETATM   31  C   UNL     1     -11.153  15.105  71.250  1.00  0.00    -0.257 C  
HETATM   32  C   UNL     1      -8.940  16.035  72.075  1.00  0.00     8.274 C  
HETATM   33  C   UNL     1     -10.725  17.559  71.223  1.00  0.00     2.171 C  
ENDBRANCH  27  29
ENDBRANCH  26  27
ENDBRANCH  20  25
ENDBRANCH  13  19
ENDBRANCH   4   6
ENDBRANCH   3   4
ENDBRANCH   2   3
TORSDOF 10
ENDMDL
MODEL      242
REMARK 921   NORMALIZED FREE ENERGY PREDICTED BY IDOCK:   47.35 KCAL/MOL
REMARK 922        TOTAL FREE ENERGY PREDICTED BY IDOCK:   72.66 KCAL/MOL
REMARK 923 INTER-LIGAND FREE ENERGY PREDICTED BY IDOCK:   29.54 KCAL/MOL
REMARK 924 INTRA-LIGAND FREE ENERGY PREDICTED BY IDOCK:   43.13 KCAL/MOL
REMARK 927      BINDING AFFINITY PREDICTED BY RF-SCORE:    0.00 PKD
ROOT
HETATM    1  C   UNL     1      -9.021  15.539  69.659  1.00  0.00    -0.158 C  
HETATM    2  C   UNL     1      -8.182  16.745  70.032  1.00  0.00     1.640 C  
ENDROOT
BRANCH   2   3
HETATM    3  O   UNL     1      -8.572  17.866  69.219  1.00  0.00     0.055 OA 
BRANCH   3   4
HETATM    4  C   UNL     1      -8.106  17.839  67.947  1.00  0.00    -0.235 C  
HETATM    5  O   UNL     1      -7.027  18.289  67.586  1.00  0.00    -0.200 OA 
BRANCH   4   6
HETATM    6  C   UNL     1      -9.073  17.201  67.022  1.00  0.00    -0.242 C  
HETATM    7  C   UNL     1     -10.364  17.616  67.039  1.00  0.00    -0.330 C  
HETATM    8  C   UNL     1     -10.917  18.817  67.771  1.00  0.00    -0.204 C  
HETATM    9  N   UNL     1     -11.320  16.903  66.337  1.00  0.00     0.592 NA 
HETATM   10  C   UNL     1     -11.116  15.646  65.796  1.00  0.00    -0.173 C  
HETATM   11  C   UNL     1     -12.377  14.900  65.422  1.00  0.00     0.037 C  
HETATM   12  C   UNL     1      -9.854  15.168  65.645  1.00  0.00    -0.378 C  
HETATM   13  C   UNL     1      -8.656  16.021  66.118  1.00  0.00    -0.315 C  
BRANCH  12  14
HETATM   14  C   UNL     1      -9.662  13.819  65.032  1.00  0.00     0.114 C  
HETATM   15  O   UNL     1      -8.797  13.558  64.209  1.00  0.00     2.556 OA 
BRANCH  14  16
HETATM   16  O   UNL     1     -10.548  12.910  65.508  1.00  0.00    -0.271 OA 
BRANCH  16  17
HETATM   17  C   UNL     1     -10.056  11.557  65.572  1.00  0.00    -0.243 C  
HETATM   18  C   UNL     1      -9.035  11.368  66.686  1.00  0.00    -0.183 C  
ENDBRANCH  16  17
ENDBRANCH  14  16
ENDBRANCH  12  14
BRANCH  13  19
HETATM   19  C   UNL     1      -7.473  15.201  66.656  1.00  0.00     0.558 A  
HETATM   20  C   UNL     1      -6.930  15.334  67.949  1.00  0.00    -0.162 A  
HETATM   21  C   UNL     1      -5.886  14.469  68.335  1.00  0.00    -0.105 A  
HETATM   22  C   UNL     1      -6.938  14.213  65.790  1.00  0.00     7.182 A  
HETATM   23  C   UNL     1      -5.907  13.370  66.192  1.00  0.00     4.744 A  
HETATM   24  C   UNL     1      -5.386  13.492  67.470  1.00  0.00     0.094 A  
BRANCH  20  25
HETATM   25  C   UNL     1      -7.374  16.377  68.890  1.00  0.00    -0.214 C  
HETATM   26  C   UNL     1      -6.587  17.390  69.285  1.00  0.00    -0.240 C  
BRANCH  26  27
HETATM   27  C   UNL     1      -7.034  18.505  70.143  1.00  0.00     0.745 C  
HETATM   28  O   UNL     1      -8.109  19.056  69.956  1.00  0.00     0.761 OA 
BRANCH  27  29
HETATM   29  O   UNL     1      -6.130  18.788  71.107  1.00  0.00     0.220 OA 
HETATM   30  C   UNL     1      -6.507  19.591  72.255  1.00  0.00     1.093 C  
HETATM   31  C   UNL     1      -7.012  20.978  71.845  1.00  0.00     2.720 C  
HETATM   32  C   UNL     1      -7.528  18.848  73.125  1.00  0.00     6.432 C  
HETATM   33  C   UNL     1      -5.206  19.762  73.056  1.00  0.00     3.648 C  
ENDBRANCH  27  29
ENDBRANCH  26  27
ENDBRANCH  20  25
ENDBRANCH  13  19
ENDBRANCH   4   6
ENDBRANCH   3   4
ENDBRANCH   2   3
TORSDOF 10
ENDMDL
MODEL      243
REMARK 921   NORMALIZED FREE ENERGY PREDICTED BY IDOCK:   52.70 KCAL/MOL
REMARK 922        TOTAL FREE ENERGY PREDICTED BY IDOCK:   81.15 KCAL/MOL
REMARK 923 INTER-LIGAND FREE ENERGY PREDICTED BY IDOCK:   62.84 KCAL/MOL
REMARK 924 INTRA-LIGAND FREE ENERGY PREDICTED BY IDOCK:   18.31 KCAL/MOL
REMARK 927      BINDING AFFINITY PREDICTED BY RF-SCORE:    0.00 PKD
ROOT
HETATM    1  C   UNL     1     -10.156   6.443  71.033  1.00  0.00    -0.212 C  
HETATM    2  C   UNL     1      -9.569   7.136  69.819  1.00  0.00    -0.155 C  
ENDROOT
BRANCH   2   3
HETATM    3  O   UNL     1      -8.962   8.375  70.226  1.00  0.00    -0.141 OA 
BRANCH   3   4
HETATM    4  C   UNL     1      -8.218   8.988  69.273  1.00  0.00    -0.117 C  
HETATM    5  O   UNL     1      -7.011   8.849  69.129  1.00  0.00    -0.057 OA 
BRANCH   4   6
HETATM    6  C   UNL     1      -9.045   9.870  68.415  1.00  0.00    -0.123 C  
HETATM    7  C   UNL     1      -9.058   9.653  67.077  1.00  0.00    -0.135 C  
HETATM    8  C   UNL     1      -8.468   8.467  66.349  1.00  0.00    -0.122 C  
HETATM    9  N   UNL     1      -9.654  10.580  66.240  1.00  0.00    -0.180 NA 
HETATM   10  C   UNL     1     -10.043  11.849  66.631  1.00  0.00    -0.200 C  
HETATM   11  C   UNL     1     -10.305  12.814  65.498  1.00  0.00    -0.301 C  
HETATM   12  C   UNL     1     -10.155  12.149  67.951  1.00  0.00    -0.199 C  
HETATM   13  C   UNL     1      -9.806  11.076  69.007  1.00  0.00    -0.165 C  
BRANCH  12  14
HETATM   14  C   UNL     1     -10.603  13.518  68.344  1.00  0.00    -0.248 C  
HETATM   15  O   UNL     1     -11.774  13.869  68.388  1.00  0.00    -0.315 OA 
BRANCH  14  16
HETATM   16  O   UNL     1      -9.563  14.325  68.666  1.00  0.00    -0.211 OA 
BRANCH  16  17
HETATM   17  C   UNL     1      -9.904  15.712  68.855  1.00  0.00    -0.219 C  
HETATM   18  C   UNL     1     -11.190  15.885  69.653  1.00  0.00    -0.331 C  
ENDBRANCH  16  17
ENDBRANCH  14  16
ENDBRANCH  12  14
BRANCH  13  19
HETATM   19  C   UNL     1      -9.191  11.639  70.297  1.00  0.00     3.572 A  
HETATM   20  C   UNL     1      -8.576  12.902  70.405  1.00  0.00     5.440 A  
HETATM   21  C   UNL     1      -8.112  13.321  71.669  1.00  0.00    10.785 A  
HETATM   22  C   UNL     1      -9.307  10.836  71.461  1.00  0.00     6.660 A  
HETATM   23  C   UNL     1      -8.843  11.270  72.698  1.00  0.00    18.123 A  
HETATM   24  C   UNL     1      -8.252  12.519  72.804  1.00  0.00    19.923 A  
BRANCH  20  25
HETATM   25  C   UNL     1      -8.348  13.773  69.239  1.00  0.00     0.511 C  
HETATM   26  C   UNL     1      -7.148  13.915  68.653  1.00  0.00    -0.110 C  
BRANCH  26  27
HETATM   27  C   UNL     1      -6.910  14.697  67.424  1.00  0.00    -0.055 C  
HETATM   28  O   UNL     1      -6.793  14.149  66.338  1.00  0.00     1.632 OA 
BRANCH  27  29
HETATM   29  O   UNL     1      -6.860  16.023  67.677  1.00  0.00    -0.130 OA 
HETATM   30  C   UNL     1      -6.781  16.508  69.043  1.00  0.00    -0.200 C  
HETATM   31  C   UNL     1      -7.974  16.046  69.885  1.00  0.00     0.512 C  
HETATM   32  C   UNL     1      -5.445  16.113  69.683  1.00  0.00    -0.133 C  
HETATM   33  C   UNL     1      -6.836  18.039  68.917  1.00  0.00    -0.256 C  
ENDBRANCH  27  29
ENDBRANCH  26  27
ENDBRANCH  20  25
ENDBRANCH  13  19
ENDBRANCH   4   6
ENDBRANCH   3   4
ENDBRANCH   2   3
TORSDOF 10
ENDMDL
MODEL      244
REMARK 921   NORMALIZED FREE ENERGY PREDICTED BY IDOCK:   53.00 KCAL/MOL
REMARK 922        TOTAL FREE ENERGY PREDICTED BY IDOCK:   81.62 KCAL/MOL
REMARK 923 INTER-LIGAND FREE ENERGY PREDICTED BY IDOCK:   18.30 KCAL/MOL
REMARK 924 INTRA-LIGAND FREE ENERGY PREDICTED BY IDOCK:   63.32 KCAL/MOL
REMARK 927      BINDING AFFINITY PREDICTED BY RF-SCORE:    0.00 PKD
ROOT
HETATM    1  C   UNL     1     -13.776   9.878  68.400  1.00  0.00    10.280 C  
HETATM    2  C   UNL     1     -12.460  10.630  68.344  1.00  0.00     1.453 C  
ENDROOT
BRANCH   2   3
HETATM    3  O   UNL     1     -11.990  10.666  66.985  1.00  0.00     0.330 OA 
BRANCH   3   4
HETATM    4  C   UNL     1     -10.654  10.497  66.838  1.00  0.00    -0.243 C  
HETATM    5  O   UNL     1      -9.839  11.404  66.739  1.00  0.00    -0.200 OA 
BRANCH   4   6
HETATM    6  C   UNL     1     -10.283   9.062  66.797  1.00  0.00    -0.341 C  
HETATM    7  C   UNL     1     -10.456   8.312  67.913  1.00  0.00    -0.198 C  
HETATM    8  C   UNL     1     -11.181   8.723  69.174  1.00  0.00     0.263 C  
HETATM    9  N   UNL     1      -9.934   7.031  67.964  1.00  0.00    -0.149 NA 
HETATM   10  C   UNL     1      -9.031   6.519  67.047  1.00  0.00    -0.120 C  
HETATM   11  C   UNL     1      -8.305   5.272  67.496  1.00  0.00    -0.106 C  
HETATM   12  C   UNL     1      -8.849   7.141  65.853  1.00  0.00    -0.128 C  
HETATM   13  C   UNL     1      -9.625   8.440  65.547  1.00  0.00     0.260 C  
BRANCH  12  14
HETATM   14  C   UNL     1      -7.889   6.550  64.873  1.00  0.00    -0.114 C  
HETATM   15  O   UNL     1      -6.715   6.314  65.122  1.00  0.00    -0.044 OA 
BRANCH  14  16
HETATM   16  O   UNL     1      -8.473   6.287  63.679  1.00  0.00     0.049 OA 
BRANCH  16  17
HETATM   17  C   UNL     1      -8.227   7.267  62.651  1.00  0.00    -0.028 C  
HETATM   18  C   UNL     1      -6.856   7.915  62.790  1.00  0.00    -0.084 C  
ENDBRANCH  16  17
ENDBRANCH  14  16
ENDBRANCH  12  14
BRANCH  13  19
HETATM   19  C   UNL     1      -8.852   9.443  64.676  1.00  0.00    -0.238 A  
HETATM   20  C   UNL     1      -8.766  10.826  64.933  1.00  0.00    -0.135 A  
HETATM   21  C   UNL     1      -7.967  11.621  64.088  1.00  0.00     1.782 A  
HETATM   22  C   UNL     1      -8.144   8.911  63.569  1.00  0.00    -0.168 A  
HETATM   23  C   UNL     1      -7.360   9.715  62.747  1.00  0.00    -0.105 A  
HETATM   24  C   UNL     1      -7.264  11.071  63.012  1.00  0.00     0.428 A  
BRANCH  20  25
HETATM   25  C   UNL     1      -9.523  11.477  66.016  1.00  0.00    -0.249 C  
HETATM   26  C   UNL     1      -9.286  11.249  67.318  1.00  0.00    -0.170 C  
BRANCH  26  27
HETATM   27  C   UNL     1      -9.954  11.962  68.424  1.00  0.00    -0.203 C  
HETATM   28  O   UNL     1      -9.726  13.142  68.645  1.00  0.00    -0.171 OA 
BRANCH  27  29
HETATM   29  O   UNL     1     -10.808  11.157  69.093  1.00  0.00    -0.217 OA 
HETATM   30  C   UNL     1     -10.512  10.738  70.450  1.00  0.00     0.560 C  
HETATM   31  C   UNL     1      -9.186   9.976  70.539  1.00  0.00     0.263 C  
HETATM   32  C   UNL     1     -10.546  11.935  71.407  1.00  0.00     6.461 C  
HETATM   33  C   UNL     1     -11.653   9.777  70.820  1.00  0.00    -0.417 C  
ENDBRANCH  27  29
ENDBRANCH  26  27
ENDBRANCH  20  25
ENDBRANCH  13  19
ENDBRANCH   4   6
ENDBRANCH   3   4
ENDBRANCH   2   3
TORSDOF 10
ENDMDL
MODEL      245
REMARK 921   NORMALIZED FREE ENERGY PREDICTED BY IDOCK:   54.16 KCAL/MOL
REMARK 922        TOTAL FREE ENERGY PREDICTED BY IDOCK:   83.45 KCAL/MOL
REMARK 923 INTER-LIGAND FREE ENERGY PREDICTED BY IDOCK:   10.35 KCAL/MOL
REMARK 924 INTRA-LIGAND FREE ENERGY PREDICTED BY IDOCK:   73.10 KCAL/MOL
REMARK 927      BINDING AFFINITY PREDICTED BY RF-SCORE:    0.00 PKD
ROOT
HETATM    1  C   UNL     1     -10.248  12.320  63.639  1.00  0.00    -0.430 C  
HETATM    2  C   UNL     1      -9.561  13.377  64.481  1.00  0.00     0.660 C  
ENDROOT
BRANCH   2   3
HETATM    3  O   UNL     1     -10.148  13.395  65.794  1.00  0.00    -0.289 OA 
BRANCH   3   4
HETATM    4  C   UNL     1     -11.501  13.473  65.814  1.00  0.00    -0.315 C  
HETATM    5  O   UNL     1     -12.200  13.770  64.856  1.00  0.00    -0.381 OA 
BRANCH   4   6
HETATM    6  C   UNL     1     -12.048  13.160  67.156  1.00  0.00    -0.343 C  
HETATM    7  C   UNL     1     -12.817  14.086  67.779  1.00  0.00     1.352 C  
HETATM    8  C   UNL     1     -13.362  15.361  67.176  1.00  0.00     4.516 C  
HETATM    9  N   UNL     1     -13.169  13.904  69.105  1.00  0.00     1.736 NA 
HETATM   10  C   UNL     1     -12.603  12.956  69.940  1.00  0.00     0.192 C  
HETATM   11  C   UNL     1     -12.842  13.180  71.415  1.00  0.00    -0.401 C  
HETATM   12  C   UNL     1     -11.888  11.927  69.413  1.00  0.00    -0.389 C  
HETATM   13  C   UNL     1     -11.682  11.849  67.885  1.00  0.00    -0.368 C  
BRANCH  12  14
HETATM   14  C   UNL     1     -11.312  10.904  70.336  1.00  0.00    -0.200 C  
HETATM   15  O   UNL     1     -11.945   9.965  70.798  1.00  0.00    -0.291 OA 
BRANCH  14  16
HETATM   16  O   UNL     1      -9.999  11.124  70.589  1.00  0.00     1.853 OA 
BRANCH  16  17
HETATM   17  C   UNL     1      -9.254   9.961  70.998  1.00  0.00     0.814 C  
HETATM   18  C   UNL     1      -9.685   9.453  72.368  1.00  0.00     1.472 C  
ENDBRANCH  16  17
ENDBRANCH  14  16
ENDBRANCH  12  14
BRANCH  13  19
HETATM   19  C   UNL     1     -10.332  11.249  67.462  1.00  0.00    -0.224 A  
HETATM   20  C   UNL     1      -9.218  12.002  67.042  1.00  0.00    -0.195 A  
HETATM   21  C   UNL     1      -8.017  11.325  66.746  1.00  0.00    -0.159 A  
HETATM   22  C   UNL     1     -10.204   9.839  67.557  1.00  0.00    -0.271 A  
HETATM   23  C   UNL     1      -9.010   9.192  67.260  1.00  0.00    -0.136 A  
HETATM   24  C   UNL     1      -7.911   9.937  66.863  1.00  0.00    -0.109 A  
BRANCH  20  25
HETATM   25  C   UNL     1      -9.278  13.461  66.846  1.00  0.00    -0.251 C  
HETATM   26  C   UNL     1     -10.431  14.139  66.736  1.00  0.00    -0.277 C  
BRANCH  26  27
HETATM   27  C   UNL     1     -10.526  15.610  66.644  1.00  0.00    -0.301 C  
HETATM   28  O   UNL     1     -10.322  16.319  67.618  1.00  0.00    -0.270 OA 
BRANCH  27  29
HETATM   29  O   UNL     1     -10.841  16.012  65.393  1.00  0.00    -0.361 OA 
HETATM   30  C   UNL     1     -11.642  15.167  64.528  1.00  0.00    -0.329 C  
HETATM   31  C   UNL     1     -10.986  13.802  64.292  1.00  0.00    -0.268 C  
HETATM   32  C   UNL     1     -13.067  15.026  65.076  1.00  0.00     0.806 C  
HETATM   33  C   UNL     1     -11.699  15.920  63.189  1.00  0.00     3.508 C  
ENDBRANCH  27  29
ENDBRANCH  26  27
ENDBRANCH  20  25
ENDBRANCH  13  19
ENDBRANCH   4   6
ENDBRANCH   3   4
ENDBRANCH   2   3
TORSDOF 10
ENDMDL
MODEL      246
REMARK 921   NORMALIZED FREE ENERGY PREDICTED BY IDOCK:   60.45 KCAL/MOL
REMARK 922        TOTAL FREE ENERGY PREDICTED BY IDOCK:   93.42 KCAL/MOL
REMARK 923 INTER-LIGAND FREE ENERGY PREDICTED BY IDOCK:   81.17 KCAL/MOL
REMARK 924 INTRA-LIGAND FREE ENERGY PREDICTED BY IDOCK:   12.25 KCAL/MOL
REMARK 927      BINDING AFFINITY PREDICTED BY RF-SCORE:    0.00 PKD
ROOT
HETATM    1  C   UNL     1      -9.834   9.518  70.737  1.00  0.00    -0.309 C  
HETATM    2  C   UNL     1     -11.016   9.270  69.821  1.00  0.00    -0.196 C  
ENDROOT
BRANCH   2   3
HETATM    3  O   UNL     1     -12.237   9.451  70.560  1.00  0.00    -0.149 OA 
BRANCH   3   4
HETATM    4  C   UNL     1     -12.876  10.624  70.329  1.00  0.00    -0.147 C  
HETATM    5  O   UNL     1     -13.073  11.492  71.169  1.00  0.00    -0.277 OA 
BRANCH   4   6
HETATM    6  C   UNL     1     -13.327  10.736  68.921  1.00  0.00     3.748 C  
HETATM    7  C   UNL     1     -13.602   9.601  68.233  1.00  0.00    11.535 C  
HETATM    8  C   UNL     1     -13.692   8.201  68.796  1.00  0.00    13.356 C  
HETATM    9  N   UNL     1     -13.826   9.667  66.868  1.00  0.00    19.195 NA 
HETATM   10  C   UNL     1     -13.562  10.778  66.086  1.00  0.00    14.227 C  
HETATM   11  C   UNL     1     -13.509  10.513  64.599  1.00  0.00     8.939 C  
HETATM   12  C   UNL     1     -13.364  11.988  66.670  1.00  0.00     6.445 C  
HETATM   13  C   UNL     1     -13.397  12.104  68.210  1.00  0.00     5.445 C  
BRANCH  12  14
HETATM   14  C   UNL     1     -13.108  13.175  65.800  1.00  0.00     0.558 C  
HETATM   15  O   UNL     1     -12.972  14.315  66.220  1.00  0.00    -0.136 OA 
BRANCH  14  16
HETATM   16  O   UNL     1     -13.024  12.840  64.489  1.00  0.00    -0.730 OA 
BRANCH  16  17
HETATM   17  C   UNL     1     -12.001  11.877  64.171  1.00  0.00    -0.307 C  
HETATM   18  C   UNL     1     -11.487  11.152  65.408  1.00  0.00     0.262 C  
ENDBRANCH  16  17
ENDBRANCH  14  16
ENDBRANCH  12  14
BRANCH  13  19
HETATM   19  C   UNL     1     -12.441  13.162  68.782  1.00  0.00     0.348 A  
HETATM   20  C   UNL     1     -11.035  13.074  68.745  1.00  0.00    -0.295 A  
HETATM   21  C   UNL     1     -10.278  14.151  69.248  1.00  0.00     0.021 A  
HETATM   22  C   UNL     1     -13.036  14.324  69.337  1.00  0.00     1.172 A  
HETATM   23  C   UNL     1     -12.269  15.375  69.828  1.00  0.00    -0.336 A  
HETATM   24  C   UNL     1     -10.887  15.293  69.775  1.00  0.00    -0.300 A  
BRANCH  20  25
HETATM   25  C   UNL     1     -10.331  11.878  68.253  1.00  0.00    -0.211 C  
HETATM   26  C   UNL     1      -9.037  11.884  67.894  1.00  0.00    -0.183 C  
BRANCH  26  27
HETATM   27  C   UNL     1      -8.277  10.682  67.497  1.00  0.00    -0.111 C  
HETATM   28  O   UNL     1      -8.067  10.426  66.321  1.00  0.00    -0.125 OA 
BRANCH  27  29
HETATM   29  O   UNL     1      -7.870   9.971  68.572  1.00  0.00    -0.090 OA 
HETATM   30  C   UNL     1      -6.521   9.441  68.635  1.00  0.00    -0.052 C  
HETATM   31  C   UNL     1      -6.222   8.495  67.467  1.00  0.00    -0.053 C  
HETATM   32  C   UNL     1      -5.495  10.577  68.725  1.00  0.00    -0.041 C  
HETATM   33  C   UNL     1      -6.480   8.632  69.941  1.00  0.00    -0.034 C  
ENDBRANCH  27  29
ENDBRANCH  26  27
ENDBRANCH  20  25
ENDBRANCH  13  19
ENDBRANCH   4   6
ENDBRANCH   3   4
ENDBRANCH   2   3
TORSDOF 10
ENDMDL
