MODEL        1
REMARK 921   NORMALIZED FREE ENERGY PREDICTED BY IDOCK:   -5.89 KCAL/MOL
REMARK 922        TOTAL FREE ENERGY PREDICTED BY IDOCK:   -8.37 KCAL/MOL
REMARK 923 INTER-LIGAND FREE ENERGY PREDICTED BY IDOCK:   -7.96 KCAL/MOL
REMARK 924 INTRA-LIGAND FREE ENERGY PREDICTED BY IDOCK:   -0.40 KCAL/MOL
REMARK 927      BINDING AFFINITY PREDICTED BY RF-SCORE:    0.00 PKD
ROOT
HETATM    1  C   UNL     1     -11.742  13.077  68.062  1.00  0.00    -0.355 C  
HETATM    2  O   UNL     1     -11.823  13.912  66.915  1.00  0.00    -0.376 OA 
ENDROOT
BRANCH   2   3
HETATM    3  C   UNL     1     -10.545  14.094  66.296  1.00  0.00    -0.284 C  
BRANCH   3   4
HETATM    4  C   UNL     1     -10.748  14.594  64.861  1.00  0.00    -0.427 C  
BRANCH   4   5
HETATM    5  N   UNL     1     -11.849  13.877  64.191  1.00  0.00    -0.573 N  
HETATM    6  C   UNL     1     -10.515  11.887  63.531  1.00  0.00    -0.505 C  
HETATM    7  O   UNL     1     -12.849  12.192  63.125  1.00  0.00    -0.662 OA 
HETATM    8  H   UNL     1     -12.749  14.356  64.175  1.00  0.00     0.000 HD 
HETATM    9  C   UNL     1     -11.809  12.655  63.591  1.00  0.00    -0.530 C  
ENDBRANCH   4   5
BRANCH   4  10
HETATM   10  C   UNL     1     -11.019  16.106  64.916  1.00  0.00    -0.349 C  
HETATM   11  O   UNL     1     -11.695  16.669  64.058  1.00  0.00    -1.143 OA 
HETATM   12  H   UNL     1      -9.741  16.287  66.541  1.00  0.00     0.000 HD 
HETATM   13  N   UNL     1     -10.351  16.798  65.903  1.00  0.00    -0.352 N  
BRANCH  13  14
HETATM   14  C   UNL     1     -10.491  18.227  66.061  1.00  0.00    -0.361 C  
BRANCH  14  15
HETATM   15  C   UNL     1      -9.308  18.820  66.780  1.00  0.00    -0.330 A  
HETATM   16  C   UNL     1      -8.581  19.883  66.224  1.00  0.00    -0.377 A  
HETATM   17  C   UNL     1      -7.493  20.431  66.909  1.00  0.00    -0.345 A  
HETATM   18  C   UNL     1      -7.118  19.918  68.150  1.00  0.00    -0.326 A  
HETATM   19  C   UNL     1      -7.824  18.853  68.705  1.00  0.00    -0.375 A  
HETATM   20  C   UNL     1      -8.910  18.304  68.022  1.00  0.00    -0.290 A  
ENDBRANCH  14  15
ENDBRANCH  13  14
ENDBRANCH   4  10
ENDBRANCH   3   4
ENDBRANCH   2   3
TORSDOF 6
ENDMDL
MODEL        2
REMARK 921   NORMALIZED FREE ENERGY PREDICTED BY IDOCK:   -5.86 KCAL/MOL
REMARK 922        TOTAL FREE ENERGY PREDICTED BY IDOCK:   -8.33 KCAL/MOL
REMARK 923 INTER-LIGAND FREE ENERGY PREDICTED BY IDOCK:   -7.67 KCAL/MOL
REMARK 924 INTRA-LIGAND FREE ENERGY PREDICTED BY IDOCK:   -0.66 KCAL/MOL
REMARK 927      BINDING AFFINITY PREDICTED BY RF-SCORE:    0.00 PKD
ROOT
HETATM    1  C   UNL     1      -9.281  10.169  63.323  1.00  0.00    -0.290 C  
HETATM    2  O   UNL     1      -9.727  11.105  64.294  1.00  0.00    -0.239 OA 
ENDROOT
BRANCH   2   3
HETATM    3  C   UNL     1     -10.405  12.215  63.695  1.00  0.00    -0.452 C  
BRANCH   3   4
HETATM    4  C   UNL     1     -10.625  13.302  64.754  1.00  0.00    -0.386 C  
BRANCH   4   5
HETATM    5  N   UNL     1     -11.269  14.495  64.176  1.00  0.00    -0.571 N  
HETATM    6  C   UNL     1     -10.303  16.129  65.780  1.00  0.00    -0.398 C  
HETATM    7  O   UNL     1     -11.729  16.665  63.941  1.00  0.00    -1.153 OA 
HETATM    8  H   UNL     1     -11.878  14.330  63.375  1.00  0.00     0.000 HD 
HETATM    9  C   UNL     1     -11.150  15.790  64.582  1.00  0.00    -0.361 C  
ENDBRANCH   4   5
BRANCH   4  10
HETATM   10  C   UNL     1     -11.475  12.701  65.885  1.00  0.00    -0.363 C  
HETATM   11  O   UNL     1     -12.593  12.237  65.672  1.00  0.00    -0.504 OA 
HETATM   12  H   UNL     1     -10.062  13.304  67.281  1.00  0.00     0.000 HD 
HETATM   13  N   UNL     1     -10.961  12.839  67.158  1.00  0.00    -0.256 N  
BRANCH  13  14
HETATM   14  C   UNL     1     -11.662  12.345  68.320  1.00  0.00    -0.345 C  
BRANCH  14  15
HETATM   15  C   UNL     1     -11.896  13.438  69.328  1.00  0.00    -0.385 A  
HETATM   16  C   UNL     1     -11.719  14.788  68.988  1.00  0.00    -0.343 A  
HETATM   17  C   UNL     1     -11.952  15.791  69.932  1.00  0.00    -0.346 A  
HETATM   18  C   UNL     1     -12.355  15.457  71.224  1.00  0.00    -0.446 A  
HETATM   19  C   UNL     1     -12.521  14.120  71.576  1.00  0.00    -0.423 A  
HETATM   20  C   UNL     1     -12.289  13.116  70.636  1.00  0.00    -0.405 A  
ENDBRANCH  14  15
ENDBRANCH  13  14
ENDBRANCH   4  10
ENDBRANCH   3   4
ENDBRANCH   2   3
TORSDOF 6
ENDMDL
MODEL        3
REMARK 921   NORMALIZED FREE ENERGY PREDICTED BY IDOCK:   -5.82 KCAL/MOL
REMARK 922        TOTAL FREE ENERGY PREDICTED BY IDOCK:   -8.27 KCAL/MOL
REMARK 923 INTER-LIGAND FREE ENERGY PREDICTED BY IDOCK:   -7.74 KCAL/MOL
REMARK 924 INTRA-LIGAND FREE ENERGY PREDICTED BY IDOCK:   -0.52 KCAL/MOL
REMARK 927      BINDING AFFINITY PREDICTED BY RF-SCORE:    0.00 PKD
ROOT
HETATM    1  C   UNL     1      -9.112  16.015  66.187  1.00  0.00    -0.351 C  
HETATM    2  O   UNL     1     -10.179  15.476  65.418  1.00  0.00    -0.356 OA 
ENDROOT
BRANCH   2   3
HETATM    3  C   UNL     1     -11.274  15.061  66.242  1.00  0.00    -0.309 C  
BRANCH   3   4
HETATM    4  C   UNL     1     -11.676  13.631  65.861  1.00  0.00    -0.354 C  
BRANCH   4   5
HETATM    5  N   UNL     1     -10.714  13.034  64.918  1.00  0.00    -0.315 N  
HETATM    6  C   UNL     1     -12.406  11.994  63.425  1.00  0.00    -0.635 C  
HETATM    7  O   UNL     1     -10.041  11.928  63.101  1.00  0.00    -0.425 OA 
HETATM    8  H   UNL     1      -9.728  13.187  65.128  1.00  0.00     0.000 HD 
HETATM    9  C   UNL     1     -10.981  12.304  63.799  1.00  0.00    -0.435 C  
ENDBRANCH   4   5
BRANCH   4  10
HETATM   10  C   UNL     1     -11.777  12.804  67.152  1.00  0.00    -0.380 C  
HETATM   11  O   UNL     1     -11.907  11.582  67.125  1.00  0.00    -0.595 OA 
HETATM   12  H   UNL     1     -11.812  14.547  68.279  1.00  0.00     0.000 HD 
HETATM   13  N   UNL     1     -11.847  13.529  68.323  1.00  0.00    -0.356 N  
BRANCH  13  14
HETATM   14  C   UNL     1     -11.968  12.886  69.611  1.00  0.00    -0.292 C  
BRANCH  14  15
HETATM   15  C   UNL     1     -12.210  13.890  70.707  1.00  0.00    -0.441 A  
HETATM   16  C   UNL     1     -13.193  13.672  71.685  1.00  0.00    -0.447 A  
HETATM   17  C   UNL     1     -13.397  14.608  72.702  1.00  0.00    -0.577 A  
HETATM   18  C   UNL     1     -12.630  15.771  72.748  1.00  0.00    -0.547 A  
HETATM   19  C   UNL     1     -11.662  16.004  71.774  1.00  0.00    -0.593 A  
HETATM   20  C   UNL     1     -11.456  15.071  70.757  1.00  0.00    -0.335 A  
ENDBRANCH  14  15
ENDBRANCH  13  14
ENDBRANCH   4  10
ENDBRANCH   3   4
ENDBRANCH   2   3
TORSDOF 6
ENDMDL
MODEL        4
REMARK 921   NORMALIZED FREE ENERGY PREDICTED BY IDOCK:   -5.81 KCAL/MOL
REMARK 922        TOTAL FREE ENERGY PREDICTED BY IDOCK:   -8.25 KCAL/MOL
REMARK 923 INTER-LIGAND FREE ENERGY PREDICTED BY IDOCK:   -7.69 KCAL/MOL
REMARK 924 INTRA-LIGAND FREE ENERGY PREDICTED BY IDOCK:   -0.56 KCAL/MOL
REMARK 927      BINDING AFFINITY PREDICTED BY RF-SCORE:    0.00 PKD
ROOT
HETATM    1  C   UNL     1      -9.374  10.855  66.669  1.00  0.00    -0.171 C  
HETATM    2  O   UNL     1      -9.984  11.240  67.893  1.00  0.00    -0.169 OA 
ENDROOT
BRANCH   2   3
HETATM    3  C   UNL     1     -11.292  11.786  67.690  1.00  0.00    -0.302 C  
BRANCH   3   4
HETATM    4  C   UNL     1     -11.236  12.817  66.556  1.00  0.00    -0.307 C  
BRANCH   4   5
HETATM    5  N   UNL     1     -12.285  12.568  65.551  1.00  0.00    -0.431 N  
HETATM    6  C   UNL     1     -10.756  12.395  63.600  1.00  0.00    -0.497 C  
HETATM    7  O   UNL     1     -13.127  12.114  63.535  1.00  0.00    -0.785 OA 
HETATM    8  H   UNL     1     -13.244  12.554  65.899  1.00  0.00     0.000 HD 
HETATM    9  C   UNL     1     -12.130  12.356  64.214  1.00  0.00    -0.433 C  
ENDBRANCH   4   5
BRANCH   4  10
HETATM   10  C   UNL     1     -11.378  14.216  67.176  1.00  0.00    -0.332 C  
HETATM   11  O   UNL     1     -11.193  15.234  66.513  1.00  0.00    -0.316 OA 
HETATM   12  H   UNL     1     -11.659  13.370  69.050  1.00  0.00     0.000 HD 
HETATM   13  N   UNL     1     -11.591  14.249  68.538  1.00  0.00    -0.301 N  
BRANCH  13  14
HETATM   14  C   UNL     1     -11.721  15.493  69.259  1.00  0.00    -0.365 C  
BRANCH  14  15
HETATM   15  C   UNL     1     -12.178  15.263  70.676  1.00  0.00    -0.412 A  
HETATM   16  C   UNL     1     -12.898  14.112  71.027  1.00  0.00    -0.421 A  
HETATM   17  C   UNL     1     -13.304  13.907  72.348  1.00  0.00    -0.629 A  
HETATM   18  C   UNL     1     -13.003  14.853  73.327  1.00  0.00    -0.635 A  
HETATM   19  C   UNL     1     -12.301  16.007  72.987  1.00  0.00    -0.625 A  
HETATM   20  C   UNL     1     -11.894  16.213  71.668  1.00  0.00    -0.557 A  
ENDBRANCH  14  15
ENDBRANCH  13  14
ENDBRANCH   4  10
ENDBRANCH   3   4
ENDBRANCH   2   3
TORSDOF 6
ENDMDL
MODEL        5
REMARK 921   NORMALIZED FREE ENERGY PREDICTED BY IDOCK:   -5.80 KCAL/MOL
REMARK 922        TOTAL FREE ENERGY PREDICTED BY IDOCK:   -8.24 KCAL/MOL
REMARK 923 INTER-LIGAND FREE ENERGY PREDICTED BY IDOCK:   -7.79 KCAL/MOL
REMARK 924 INTRA-LIGAND FREE ENERGY PREDICTED BY IDOCK:   -0.45 KCAL/MOL
REMARK 927      BINDING AFFINITY PREDICTED BY RF-SCORE:    0.00 PKD
ROOT
HETATM    1  C   UNL     1     -12.628  11.917  63.332  1.00  0.00    -0.431 C  
HETATM    2  O   UNL     1     -13.233  12.344  64.544  1.00  0.00    -0.834 OA 
ENDROOT
BRANCH   2   3
HETATM    3  C   UNL     1     -12.583  13.497  65.089  1.00  0.00    -0.436 C  
BRANCH   3   4
HETATM    4  C   UNL     1     -11.922  13.119  66.420  1.00  0.00    -0.402 C  
BRANCH   4   5
HETATM    5  N   UNL     1     -10.706  12.313  66.209  1.00  0.00    -0.252 N  
HETATM    6  C   UNL     1     -11.104  10.724  68.077  1.00  0.00    -0.359 C  
HETATM    7  O   UNL     1      -9.269  10.641  66.551  1.00  0.00    -0.161 OA 
HETATM    8  H   UNL     1     -10.099  12.611  65.445  1.00  0.00     0.000 HD 
HETATM    9  C   UNL     1     -10.295  11.218  66.908  1.00  0.00    -0.234 C  
ENDBRANCH   4   5
BRANCH   4  10
HETATM   10  C   UNL     1     -11.605  14.416  67.182  1.00  0.00    -0.386 C  
HETATM   11  O   UNL     1     -10.931  15.310  66.675  1.00  0.00    -0.313 OA 
HETATM   12  H   UNL     1     -12.498  13.645  68.889  1.00  0.00     0.000 HD 
HETATM   13  N   UNL     1     -12.009  14.450  68.500  1.00  0.00    -0.323 N  
BRANCH  13  14
HETATM   14  C   UNL     1     -11.758  15.595  69.344  1.00  0.00    -0.383 C  
BRANCH  14  15
HETATM   15  C   UNL     1     -12.163  15.327  70.770  1.00  0.00    -0.411 A  
HETATM   16  C   UNL     1     -12.930  14.200  71.105  1.00  0.00    -0.419 A  
HETATM   17  C   UNL     1     -13.287  13.959  72.434  1.00  0.00    -0.629 A  
HETATM   18  C   UNL     1     -12.891  14.842  73.437  1.00  0.00    -0.638 A  
HETATM   19  C   UNL     1     -12.141  15.971  73.113  1.00  0.00    -0.616 A  
HETATM   20  C   UNL     1     -11.783  16.214  71.787  1.00  0.00    -0.568 A  
ENDBRANCH  14  15
ENDBRANCH  13  14
ENDBRANCH   4  10
ENDBRANCH   3   4
ENDBRANCH   2   3
TORSDOF 6
ENDMDL
MODEL        6
REMARK 921   NORMALIZED FREE ENERGY PREDICTED BY IDOCK:   -5.73 KCAL/MOL
REMARK 922        TOTAL FREE ENERGY PREDICTED BY IDOCK:   -8.14 KCAL/MOL
REMARK 923 INTER-LIGAND FREE ENERGY PREDICTED BY IDOCK:   -7.63 KCAL/MOL
REMARK 924 INTRA-LIGAND FREE ENERGY PREDICTED BY IDOCK:   -0.52 KCAL/MOL
REMARK 927      BINDING AFFINITY PREDICTED BY RF-SCORE:    0.00 PKD
ROOT
HETATM    1  C   UNL     1      -9.061  16.431  66.107  1.00  0.00    -0.326 C  
HETATM    2  O   UNL     1      -9.579  15.117  65.948  1.00  0.00    -0.316 OA 
ENDROOT
BRANCH   2   3
HETATM    3  C   UNL     1     -10.959  15.039  66.322  1.00  0.00    -0.338 C  
BRANCH   3   4
HETATM    4  C   UNL     1     -11.519  13.676  65.896  1.00  0.00    -0.316 C  
BRANCH   4   5
HETATM    5  N   UNL     1     -10.641  13.016  64.913  1.00  0.00    -0.320 N  
HETATM    6  C   UNL     1     -12.462  12.031  63.540  1.00  0.00    -0.654 C  
HETATM    7  O   UNL     1     -10.125  11.845  63.086  1.00  0.00    -0.425 OA 
HETATM    8  H   UNL     1      -9.638  13.125  65.066  1.00  0.00     0.000 HD 
HETATM    9  C   UNL     1     -11.005  12.279  63.827  1.00  0.00    -0.435 C  
ENDBRANCH   4   5
BRANCH   4  10
HETATM   10  C   UNL     1     -11.690  12.815  67.158  1.00  0.00    -0.380 C  
HETATM   11  O   UNL     1     -12.062  11.646  67.092  1.00  0.00    -0.575 OA 
HETATM   12  H   UNL     1     -11.299  14.467  68.352  1.00  0.00     0.000 HD 
HETATM   13  N   UNL     1     -11.531  13.475  68.358  1.00  0.00    -0.289 N  
BRANCH  13  14
HETATM   14  C   UNL     1     -11.686  12.799  69.625  1.00  0.00    -0.302 C  
BRANCH  14  15
HETATM   15  C   UNL     1     -12.243  13.721  70.677  1.00  0.00    -0.434 A  
HETATM   16  C   UNL     1     -11.790  15.044  70.794  1.00  0.00    -0.372 A  
HETATM   17  C   UNL     1     -12.325  15.891  71.767  1.00  0.00    -0.533 A  
HETATM   18  C   UNL     1     -13.309  15.424  72.637  1.00  0.00    -0.602 A  
HETATM   19  C   UNL     1     -13.756  14.108  72.540  1.00  0.00    -0.626 A  
HETATM   20  C   UNL     1     -13.223  13.261  71.568  1.00  0.00    -0.383 A  
ENDBRANCH  14  15
ENDBRANCH  13  14
ENDBRANCH   4  10
ENDBRANCH   3   4
ENDBRANCH   2   3
TORSDOF 6
ENDMDL
MODEL        7
REMARK 921   NORMALIZED FREE ENERGY PREDICTED BY IDOCK:   -5.72 KCAL/MOL
REMARK 922        TOTAL FREE ENERGY PREDICTED BY IDOCK:   -8.14 KCAL/MOL
REMARK 923 INTER-LIGAND FREE ENERGY PREDICTED BY IDOCK:   -7.75 KCAL/MOL
REMARK 924 INTRA-LIGAND FREE ENERGY PREDICTED BY IDOCK:   -0.38 KCAL/MOL
REMARK 927      BINDING AFFINITY PREDICTED BY RF-SCORE:    0.00 PKD
ROOT
HETATM    1  C   UNL     1     -12.058  12.097  63.395  1.00  0.00    -0.507 C  
HETATM    2  O   UNL     1     -12.697  12.768  64.472  1.00  0.00    -0.655 OA 
ENDROOT
BRANCH   2   3
HETATM    3  C   UNL     1     -12.097  12.449  65.732  1.00  0.00    -0.311 C  
BRANCH   3   4
HETATM    4  C   UNL     1     -11.356  13.683  66.262  1.00  0.00    -0.312 C  
BRANCH   4   5
HETATM    5  N   UNL     1     -11.647  14.877  65.449  1.00  0.00    -0.317 N  
HETATM    6  C   UNL     1      -9.411  15.931  65.704  1.00  0.00    -0.217 C  
HETATM    7  O   UNL     1     -11.217  16.803  64.408  1.00  0.00    -1.112 OA 
HETATM    8  H   UNL     1     -12.589  14.936  65.062  1.00  0.00     0.000 HD 
HETATM    9  C   UNL     1     -10.811  15.910  65.149  1.00  0.00    -0.421 C  
ENDBRANCH   4   5
BRANCH   4  10
HETATM   10  C   UNL     1     -11.767  13.893  67.728  1.00  0.00    -0.366 C  
HETATM   11  O   UNL     1     -11.949  15.018  68.190  1.00  0.00    -0.299 OA 
HETATM   12  H   UNL     1     -11.549  11.862  68.092  1.00  0.00     0.000 HD 
HETATM   13  N   UNL     1     -11.786  12.760  68.513  1.00  0.00    -0.316 N  
BRANCH  13  14
HETATM   14  C   UNL     1     -12.130  12.809  69.915  1.00  0.00    -0.259 C  
BRANCH  14  15
HETATM   15  C   UNL     1     -12.171  11.431  70.521  1.00  0.00    -0.478 A  
HETATM   16  C   UNL     1     -11.261  10.439  70.125  1.00  0.00    -0.393 A  
HETATM   17  C   UNL     1     -11.303   9.169  70.706  1.00  0.00    -0.337 A  
HETATM   18  C   UNL     1     -12.258   8.875  71.679  1.00  0.00    -0.409 A  
HETATM   19  C   UNL     1     -13.175   9.849  72.069  1.00  0.00    -0.555 A  
HETATM   20  C   UNL     1     -13.134  11.118  71.491  1.00  0.00    -0.489 A  
ENDBRANCH  14  15
ENDBRANCH  13  14
ENDBRANCH   4  10
ENDBRANCH   3   4
ENDBRANCH   2   3
TORSDOF 6
ENDMDL
MODEL        8
REMARK 921   NORMALIZED FREE ENERGY PREDICTED BY IDOCK:   -5.65 KCAL/MOL
REMARK 922        TOTAL FREE ENERGY PREDICTED BY IDOCK:   -8.03 KCAL/MOL
REMARK 923 INTER-LIGAND FREE ENERGY PREDICTED BY IDOCK:   -7.59 KCAL/MOL
REMARK 924 INTRA-LIGAND FREE ENERGY PREDICTED BY IDOCK:   -0.44 KCAL/MOL
REMARK 927      BINDING AFFINITY PREDICTED BY RF-SCORE:    0.00 PKD
ROOT
HETATM    1  C   UNL     1     -10.394  10.418  69.078  1.00  0.00    -0.214 C  
HETATM    2  O   UNL     1     -10.291  11.331  67.994  1.00  0.00    -0.174 OA 
ENDROOT
BRANCH   2   3
HETATM    3  C   UNL     1     -11.576  11.785  67.555  1.00  0.00    -0.291 C  
BRANCH   3   4
HETATM    4  C   UNL     1     -11.390  12.798  66.419  1.00  0.00    -0.323 C  
BRANCH   4   5
HETATM    5  N   UNL     1     -12.365  12.577  65.335  1.00  0.00    -0.439 N  
HETATM    6  C   UNL     1     -10.720  11.791  63.647  1.00  0.00    -0.503 C  
HETATM    7  O   UNL     1     -13.081  11.944  63.320  1.00  0.00    -0.674 OA 
HETATM    8  H   UNL     1     -13.335  12.800  65.555  1.00  0.00     0.000 HD 
HETATM    9  C   UNL     1     -12.127  12.112  64.077  1.00  0.00    -0.443 C  
ENDBRANCH   4   5
BRANCH   4  10
HETATM   10  C   UNL     1     -11.525  14.210  67.011  1.00  0.00    -0.352 C  
HETATM   11  O   UNL     1     -11.216  15.210  66.367  1.00  0.00    -0.339 OA 
HETATM   12  H   UNL     1     -12.054  13.401  68.848  1.00  0.00     0.000 HD 
HETATM   13  N   UNL     1     -11.885  14.269  68.341  1.00  0.00    -0.339 N  
BRANCH  13  14
HETATM   14  C   UNL     1     -12.027  15.527  69.037  1.00  0.00    -0.301 C  
BRANCH  14  15
HETATM   15  C   UNL     1     -12.332  15.317  70.497  1.00  0.00    -0.434 A  
HETATM   16  C   UNL     1     -11.835  16.192  71.474  1.00  0.00    -0.528 A  
HETATM   17  C   UNL     1     -12.137  15.991  72.823  1.00  0.00    -0.635 A  
HETATM   18  C   UNL     1     -12.930  14.912  73.209  1.00  0.00    -0.635 A  
HETATM   19  C   UNL     1     -13.418  14.028  72.249  1.00  0.00    -0.597 A  
HETATM   20  C   UNL     1     -13.118  14.227  70.901  1.00  0.00    -0.368 A  
ENDBRANCH  14  15
ENDBRANCH  13  14
ENDBRANCH   4  10
ENDBRANCH   3   4
ENDBRANCH   2   3
TORSDOF 6
ENDMDL
MODEL        9
REMARK 921   NORMALIZED FREE ENERGY PREDICTED BY IDOCK:   -5.53 KCAL/MOL
REMARK 922        TOTAL FREE ENERGY PREDICTED BY IDOCK:   -7.88 KCAL/MOL
REMARK 923 INTER-LIGAND FREE ENERGY PREDICTED BY IDOCK:   -7.62 KCAL/MOL
REMARK 924 INTRA-LIGAND FREE ENERGY PREDICTED BY IDOCK:   -0.25 KCAL/MOL
REMARK 927      BINDING AFFINITY PREDICTED BY RF-SCORE:    0.00 PKD
ROOT
HETATM    1  C   UNL     1     -12.430  12.208  63.645  1.00  0.00    -0.549 C  
HETATM    2  O   UNL     1     -13.237  12.649  64.729  1.00  0.00    -0.846 OA 
ENDROOT
BRANCH   2   3
HETATM    3  C   UNL     1     -12.645  13.755  65.419  1.00  0.00    -0.497 C  
BRANCH   3   4
HETATM    4  C   UNL     1     -11.352  13.290  66.100  1.00  0.00    -0.309 C  
BRANCH   4   5
HETATM    5  N   UNL     1     -10.451  14.424  66.375  1.00  0.00    -0.289 N  
HETATM    6  C   UNL     1      -8.486  13.055  67.038  1.00  0.00    -0.142 C  
HETATM    7  O   UNL     1      -8.539  15.439  66.913  1.00  0.00    -0.219 OA 
HETATM    8  H   UNL     1     -10.850  15.354  66.245  1.00  0.00     0.000 HD 
HETATM    9  C   UNL     1      -9.152  14.381  66.782  1.00  0.00    -0.257 C  
ENDBRANCH   4   5
BRANCH   4  10
HETATM   10  C   UNL     1     -11.732  12.553  67.394  1.00  0.00    -0.366 C  
HETATM   11  O   UNL     1     -12.022  11.359  67.392  1.00  0.00    -0.606 OA 
HETATM   12  H   UNL     1     -11.675  14.343  68.443  1.00  0.00     0.000 HD 
HETATM   13  N   UNL     1     -11.853  13.342  68.518  1.00  0.00    -0.342 N  
BRANCH  13  14
HETATM   14  C   UNL     1     -12.227  12.790  69.800  1.00  0.00    -0.147 C  
BRANCH  14  15
HETATM   15  C   UNL     1     -12.369  13.866  70.843  1.00  0.00    -0.451 A  
HETATM   16  C   UNL     1     -13.290  13.740  71.893  1.00  0.00    -0.499 A  
HETATM   17  C   UNL     1     -13.402  14.743  72.860  1.00  0.00    -0.582 A  
HETATM   18  C   UNL     1     -12.601  15.881  72.784  1.00  0.00    -0.567 A  
HETATM   19  C   UNL     1     -11.692  16.023  71.737  1.00  0.00    -0.593 A  
HETATM   20  C   UNL     1     -11.579  15.024  70.770  1.00  0.00    -0.364 A  
ENDBRANCH  14  15
ENDBRANCH  13  14
ENDBRANCH   4  10
ENDBRANCH   3   4
ENDBRANCH   2   3
TORSDOF 6
ENDMDL
MODEL       10
REMARK 921   NORMALIZED FREE ENERGY PREDICTED BY IDOCK:   -5.53 KCAL/MOL
REMARK 922        TOTAL FREE ENERGY PREDICTED BY IDOCK:   -7.87 KCAL/MOL
REMARK 923 INTER-LIGAND FREE ENERGY PREDICTED BY IDOCK:   -7.28 KCAL/MOL
REMARK 924 INTRA-LIGAND FREE ENERGY PREDICTED BY IDOCK:   -0.60 KCAL/MOL
REMARK 927      BINDING AFFINITY PREDICTED BY RF-SCORE:    0.00 PKD
ROOT
HETATM    1  C   UNL     1     -12.516  12.199  63.459  1.00  0.00    -0.555 C  
HETATM    2  O   UNL     1     -13.101  12.494  64.719  1.00  0.00    -0.853 OA 
ENDROOT
BRANCH   2   3
HETATM    3  C   UNL     1     -12.893  13.859  65.099  1.00  0.00    -0.342 C  
BRANCH   3   4
HETATM    4  C   UNL     1     -12.068  13.902  66.390  1.00  0.00    -0.455 C  
BRANCH   4   5
HETATM    5  N   UNL     1     -11.799  12.547  66.904  1.00  0.00    -0.377 N  
HETATM    6  C   UNL     1     -12.016  13.120  69.312  1.00  0.00    -0.344 C  
HETATM    7  O   UNL     1     -11.584  10.940  68.437  1.00  0.00    -0.339 OA 
HETATM    8  H   UNL     1     -11.605  11.833  66.201  1.00  0.00     0.000 HD 
HETATM    9  C   UNL     1     -11.779  12.132  68.201  1.00  0.00    -0.341 C  
ENDBRANCH   4   5
BRANCH   4  10
HETATM   10  C   UNL     1     -10.761  14.657  66.098  1.00  0.00    -0.314 C  
HETATM   11  O   UNL     1     -10.131  14.473  65.059  1.00  0.00    -0.393 OA 
HETATM   12  H   UNL     1     -10.808  15.496  67.995  1.00  0.00     0.000 HD 
HETATM   13  N   UNL     1     -10.281  15.442  67.125  1.00  0.00    -0.247 N  
BRANCH  13  14
HETATM   14  C   UNL     1      -9.052  16.190  67.001  1.00  0.00    -0.209 C  
BRANCH  14  15
HETATM   15  C   UNL     1      -9.294  17.672  67.126  1.00  0.00    -0.245 A  
HETATM   16  C   UNL     1     -10.084  18.358  66.192  1.00  0.00    -0.376 A  
HETATM   17  C   UNL     1     -10.309  19.730  66.329  1.00  0.00    -0.626 A  
HETATM   18  C   UNL     1      -9.742  20.430  67.393  1.00  0.00    -0.597 A  
HETATM   19  C   UNL     1      -8.944  19.761  68.319  1.00  0.00    -0.347 A  
HETATM   20  C   UNL     1      -8.718  18.390  68.184  1.00  0.00    -0.318 A  
ENDBRANCH  14  15
ENDBRANCH  13  14
ENDBRANCH   4  10
ENDBRANCH   3   4
ENDBRANCH   2   3
TORSDOF 6
ENDMDL
MODEL       11
REMARK 921   NORMALIZED FREE ENERGY PREDICTED BY IDOCK:   -5.51 KCAL/MOL
REMARK 922        TOTAL FREE ENERGY PREDICTED BY IDOCK:   -7.85 KCAL/MOL
REMARK 923 INTER-LIGAND FREE ENERGY PREDICTED BY IDOCK:   -7.25 KCAL/MOL
REMARK 924 INTRA-LIGAND FREE ENERGY PREDICTED BY IDOCK:   -0.60 KCAL/MOL
REMARK 927      BINDING AFFINITY PREDICTED BY RF-SCORE:    0.00 PKD
ROOT
HETATM    1  C   UNL     1     -10.993  10.672  67.399  1.00  0.00    -0.298 C  
HETATM    2  O   UNL     1     -12.029  11.607  67.131  1.00  0.00    -0.614 OA 
ENDROOT
BRANCH   2   3
HETATM    3  C   UNL     1     -11.812  12.853  67.801  1.00  0.00    -0.339 C  
BRANCH   3   4
HETATM    4  C   UNL     1     -10.937  13.752  66.920  1.00  0.00    -0.290 C  
BRANCH   4   5
HETATM    5  N   UNL     1     -11.736  14.432  65.884  1.00  0.00    -0.367 N  
HETATM    6  C   UNL     1     -11.145  12.889  64.028  1.00  0.00    -0.455 C  
HETATM    7  O   UNL     1     -12.636  14.747  63.867  1.00  0.00    -0.834 OA 
HETATM    8  H   UNL     1     -12.242  15.265  66.184  1.00  0.00     0.000 HD 
HETATM    9  C   UNL     1     -11.882  14.082  64.575  1.00  0.00    -0.434 C  
ENDBRANCH   4   5
BRANCH   4  10
HETATM   10  C   UNL     1     -10.225  14.766  67.829  1.00  0.00    -0.232 C  
HETATM   11  O   UNL     1      -9.081  14.574  68.234  1.00  0.00    -0.183 OA 
HETATM   12  H   UNL     1     -11.965  15.892  67.954  1.00  0.00     0.000 HD 
HETATM   13  N   UNL     1     -10.995  15.825  68.262  1.00  0.00    -0.310 N  
BRANCH  13  14
HETATM   14  C   UNL     1     -10.466  16.843  69.140  1.00  0.00    -0.335 C  
BRANCH  14  15
HETATM   15  C   UNL     1      -9.943  18.022  68.364  1.00  0.00    -0.382 A  
HETATM   16  C   UNL     1     -10.780  18.756  67.510  1.00  0.00    -0.474 A  
HETATM   17  C   UNL     1     -10.282  19.855  66.805  1.00  0.00    -0.603 A  
HETATM   18  C   UNL     1      -8.945  20.227  66.941  1.00  0.00    -0.424 A  
HETATM   19  C   UNL     1      -8.102  19.497  67.775  1.00  0.00    -0.331 A  
HETATM   20  C   UNL     1      -8.597  18.399  68.480  1.00  0.00    -0.341 A  
ENDBRANCH  14  15
ENDBRANCH  13  14
ENDBRANCH   4  10
ENDBRANCH   3   4
ENDBRANCH   2   3
TORSDOF 6
ENDMDL
MODEL       12
REMARK 921   NORMALIZED FREE ENERGY PREDICTED BY IDOCK:   -5.50 KCAL/MOL
REMARK 922        TOTAL FREE ENERGY PREDICTED BY IDOCK:   -7.83 KCAL/MOL
REMARK 923 INTER-LIGAND FREE ENERGY PREDICTED BY IDOCK:   -7.35 KCAL/MOL
REMARK 924 INTRA-LIGAND FREE ENERGY PREDICTED BY IDOCK:   -0.48 KCAL/MOL
REMARK 927      BINDING AFFINITY PREDICTED BY RF-SCORE:    0.00 PKD
ROOT
HETATM    1  C   UNL     1     -11.999  10.217  70.865  1.00  0.00    -0.375 C  
HETATM    2  O   UNL     1     -12.285  11.607  70.790  1.00  0.00    -0.375 OA 
ENDROOT
BRANCH   2   3
HETATM    3  C   UNL     1     -11.791  12.190  69.579  1.00  0.00    -0.321 C  
BRANCH   3   4
HETATM    4  C   UNL     1     -12.224  13.659  69.515  1.00  0.00    -0.264 C  
BRANCH   4   5
HETATM    5  N   UNL     1     -11.646  14.440  70.624  1.00  0.00    -0.464 N  
HETATM    6  C   UNL     1     -13.809  15.242  71.548  1.00  0.00    -0.617 C  
HETATM    7  O   UNL     1     -11.651  15.707  72.460  1.00  0.00    -0.439 OA 
HETATM    8  H   UNL     1     -10.628  14.444  70.685  1.00  0.00     0.000 HD 
HETATM    9  C   UNL     1     -12.306  15.156  71.577  1.00  0.00    -0.344 C  
ENDBRANCH   4   5
BRANCH   4  10
HETATM   10  C   UNL     1     -11.795  14.225  68.152  1.00  0.00    -0.339 C  
HETATM   11  O   UNL     1     -11.932  13.579  67.116  1.00  0.00    -0.380 OA 
HETATM   12  H   UNL     1     -10.977  15.888  69.087  1.00  0.00     0.000 HD 
HETATM   13  N   UNL     1     -11.132  15.433  68.188  1.00  0.00    -0.296 N  
BRANCH  13  14
HETATM   14  C   UNL     1     -10.649  16.073  66.986  1.00  0.00    -0.302 C  
BRANCH  14  15
HETATM   15  C   UNL     1     -10.430  17.548  67.198  1.00  0.00    -0.312 A  
HETATM   16  C   UNL     1     -10.498  18.452  66.127  1.00  0.00    -0.422 A  
HETATM   17  C   UNL     1     -10.304  19.819  66.341  1.00  0.00    -0.619 A  
HETATM   18  C   UNL     1     -10.034  20.294  67.624  1.00  0.00    -0.551 A  
HETATM   19  C   UNL     1      -9.951  19.405  68.692  1.00  0.00    -0.527 A  
HETATM   20  C   UNL     1     -10.144  18.039  68.480  1.00  0.00    -0.399 A  
ENDBRANCH  14  15
ENDBRANCH  13  14
ENDBRANCH   4  10
ENDBRANCH   3   4
ENDBRANCH   2   3
TORSDOF 6
ENDMDL
MODEL       13
REMARK 921   NORMALIZED FREE ENERGY PREDICTED BY IDOCK:   -5.47 KCAL/MOL
REMARK 922        TOTAL FREE ENERGY PREDICTED BY IDOCK:   -7.79 KCAL/MOL
REMARK 923 INTER-LIGAND FREE ENERGY PREDICTED BY IDOCK:   -7.27 KCAL/MOL
REMARK 924 INTRA-LIGAND FREE ENERGY PREDICTED BY IDOCK:   -0.52 KCAL/MOL
REMARK 927      BINDING AFFINITY PREDICTED BY RF-SCORE:    0.00 PKD
ROOT
HETATM    1  C   UNL     1     -10.074  18.896  68.102  1.00  0.00    -0.388 C  
HETATM    2  O   UNL     1     -10.126  17.763  68.958  1.00  0.00    -0.351 OA 
ENDROOT
BRANCH   2   3
HETATM    3  C   UNL     1     -10.909  16.705  68.397  1.00  0.00    -0.361 C  
BRANCH   3   4
HETATM    4  C   UNL     1     -11.053  15.582  69.431  1.00  0.00    -0.291 C  
BRANCH   4   5
HETATM    5  N   UNL     1     -12.448  15.441  69.883  1.00  0.00    -0.580 N  
HETATM    6  C   UNL     1     -12.052  16.182  72.222  1.00  0.00    -0.616 C  
HETATM    7  O   UNL     1     -14.169  15.578  71.296  1.00  0.00    -0.544 OA 
HETATM    8  H   UNL     1     -13.112  15.100  69.187  1.00  0.00     0.000 HD 
HETATM    9  C   UNL     1     -12.960  15.710  71.117  1.00  0.00    -0.478 C  
ENDBRANCH   4   5
BRANCH   4  10
HETATM   10  C   UNL     1     -10.538  14.280  68.796  1.00  0.00    -0.252 C  
HETATM   11  O   UNL     1      -9.346  14.112  68.549  1.00  0.00    -0.202 OA 
HETATM   12  H   UNL     1     -12.488  13.608  68.567  1.00  0.00     0.000 HD 
HETATM   13  N   UNL     1     -11.507  13.380  68.406  1.00  0.00    -0.293 N  
BRANCH  13  14
HETATM   14  C   UNL     1     -11.173  12.125  67.775  1.00  0.00    -0.275 C  
BRANCH  14  15
HETATM   15  C   UNL     1     -11.304  12.210  66.277  1.00  0.00    -0.411 A  
HETATM   16  C   UNL     1     -10.457  11.475  65.433  1.00  0.00    -0.333 A  
HETATM   17  C   UNL     1     -10.598  11.555  64.046  1.00  0.00    -0.437 A  
HETATM   18  C   UNL     1     -11.580  12.373  63.488  1.00  0.00    -0.577 A  
HETATM   19  C   UNL     1     -12.417  13.118  64.316  1.00  0.00    -0.358 A  
HETATM   20  C   UNL     1     -12.277  13.039  65.702  1.00  0.00    -0.521 A  
ENDBRANCH  14  15
ENDBRANCH  13  14
ENDBRANCH   4  10
ENDBRANCH   3   4
ENDBRANCH   2   3
TORSDOF 6
ENDMDL
MODEL       14
REMARK 921   NORMALIZED FREE ENERGY PREDICTED BY IDOCK:   -5.44 KCAL/MOL
REMARK 922        TOTAL FREE ENERGY PREDICTED BY IDOCK:   -7.75 KCAL/MOL
REMARK 923 INTER-LIGAND FREE ENERGY PREDICTED BY IDOCK:   -7.20 KCAL/MOL
REMARK 924 INTRA-LIGAND FREE ENERGY PREDICTED BY IDOCK:   -0.55 KCAL/MOL
REMARK 927      BINDING AFFINITY PREDICTED BY RF-SCORE:    0.00 PKD
ROOT
HETATM    1  C   UNL     1     -11.694  11.145  69.016  1.00  0.00    -0.339 C  
HETATM    2  O   UNL     1     -12.049  11.772  67.792  1.00  0.00    -0.595 OA 
ENDROOT
BRANCH   2   3
HETATM    3  C   UNL     1     -11.689  13.158  67.776  1.00  0.00    -0.358 C  
BRANCH   3   4
HETATM    4  C   UNL     1     -10.807  13.435  66.553  1.00  0.00    -0.282 C  
BRANCH   4   5
HETATM    5  N   UNL     1     -11.593  13.988  65.436  1.00  0.00    -0.319 N  
HETATM    6  C   UNL     1     -11.213  12.095  63.872  1.00  0.00    -0.485 C  
HETATM    7  O   UNL     1     -12.553  14.020  63.423  1.00  0.00    -0.845 OA 
HETATM    8  H   UNL     1     -12.015  14.903  65.596  1.00  0.00     0.000 HD 
HETATM    9  C   UNL     1     -11.825  13.427  64.216  1.00  0.00    -0.423 C  
ENDBRANCH   4   5
BRANCH   4  10
HETATM   10  C   UNL     1      -9.688  14.399  66.979  1.00  0.00    -0.254 C  
HETATM   11  O   UNL     1      -9.200  14.359  68.106  1.00  0.00    -0.185 OA 
HETATM   12  H   UNL     1      -9.863  15.414  65.178  1.00  0.00     0.000 HD 
HETATM   13  N   UNL     1      -9.369  15.384  66.069  1.00  0.00    -0.331 N  
BRANCH  13  14
HETATM   14  C   UNL     1      -8.354  16.374  66.343  1.00  0.00    -0.328 C  
BRANCH  14  15
HETATM   15  C   UNL     1      -8.933  17.580  67.036  1.00  0.00    -0.250 A  
HETATM   16  C   UNL     1      -8.268  18.186  68.112  1.00  0.00    -0.284 A  
HETATM   17  C   UNL     1      -8.812  19.311  68.737  1.00  0.00    -0.387 A  
HETATM   18  C   UNL     1     -10.027  19.835  68.298  1.00  0.00    -0.557 A  
HETATM   19  C   UNL     1     -10.703  19.233  67.239  1.00  0.00    -0.594 A  
HETATM   20  C   UNL     1     -10.161  18.110  66.614  1.00  0.00    -0.388 A  
ENDBRANCH  14  15
ENDBRANCH  13  14
ENDBRANCH   4  10
ENDBRANCH   3   4
ENDBRANCH   2   3
TORSDOF 6
ENDMDL
MODEL       15
REMARK 921   NORMALIZED FREE ENERGY PREDICTED BY IDOCK:   -5.43 KCAL/MOL
REMARK 922        TOTAL FREE ENERGY PREDICTED BY IDOCK:   -7.74 KCAL/MOL
REMARK 923 INTER-LIGAND FREE ENERGY PREDICTED BY IDOCK:   -7.19 KCAL/MOL
REMARK 924 INTRA-LIGAND FREE ENERGY PREDICTED BY IDOCK:   -0.55 KCAL/MOL
REMARK 927      BINDING AFFINITY PREDICTED BY RF-SCORE:    0.00 PKD
ROOT
HETATM    1  C   UNL     1      -9.890  11.382  63.435  1.00  0.00    -0.396 C  
HETATM    2  O   UNL     1     -10.828  10.915  64.395  1.00  0.00    -0.299 OA 
ENDROOT
BRANCH   2   3
HETATM    3  C   UNL     1     -10.272  10.886  65.714  1.00  0.00    -0.259 C  
BRANCH   3   4
HETATM    4  C   UNL     1     -10.594  12.205  66.425  1.00  0.00    -0.241 C  
BRANCH   4   5
HETATM    5  N   UNL     1     -11.908  12.732  66.015  1.00  0.00    -0.420 N  
HETATM    6  C   UNL     1     -11.090  14.958  65.273  1.00  0.00    -0.382 C  
HETATM    7  O   UNL     1     -13.350  14.197  65.148  1.00  0.00    -0.684 OA 
HETATM    8  H   UNL     1     -12.702  12.107  66.151  1.00  0.00     0.000 HD 
HETATM    9  C   UNL     1     -12.191  13.951  65.477  1.00  0.00    -0.444 C  
ENDBRANCH   4   5
BRANCH   4  10
HETATM   10  C   UNL     1     -10.541  11.957  67.941  1.00  0.00    -0.201 C  
HETATM   11  O   UNL     1      -9.521  11.548  68.490  1.00  0.00    -0.185 OA 
HETATM   12  H   UNL     1     -12.572  12.360  68.089  1.00  0.00     0.000 HD 
HETATM   13  N   UNL     1     -11.738  12.093  68.612  1.00  0.00    -0.315 N  
BRANCH  13  14
HETATM   14  C   UNL     1     -11.845  11.867  70.034  1.00  0.00    -0.328 C  
BRANCH  14  15
HETATM   15  C   UNL     1     -12.464  13.048  70.734  1.00  0.00    -0.384 A  
HETATM   16  C   UNL     1     -12.222  14.358  70.296  1.00  0.00    -0.397 A  
HETATM   17  C   UNL     1     -12.814  15.443  70.949  1.00  0.00    -0.536 A  
HETATM   18  C   UNL     1     -13.645  15.230  72.048  1.00  0.00    -0.571 A  
HETATM   19  C   UNL     1     -13.881  13.933  72.500  1.00  0.00    -0.620 A  
HETATM   20  C   UNL     1     -13.291  12.849  71.849  1.00  0.00    -0.530 A  
ENDBRANCH  14  15
ENDBRANCH  13  14
ENDBRANCH   4  10
ENDBRANCH   3   4
ENDBRANCH   2   3
TORSDOF 6
ENDMDL
MODEL       16
REMARK 921   NORMALIZED FREE ENERGY PREDICTED BY IDOCK:   -5.40 KCAL/MOL
REMARK 922        TOTAL FREE ENERGY PREDICTED BY IDOCK:   -7.70 KCAL/MOL
REMARK 923 INTER-LIGAND FREE ENERGY PREDICTED BY IDOCK:   -7.27 KCAL/MOL
REMARK 924 INTRA-LIGAND FREE ENERGY PREDICTED BY IDOCK:   -0.43 KCAL/MOL
REMARK 927      BINDING AFFINITY PREDICTED BY RF-SCORE:    0.00 PKD
ROOT
HETATM    1  C   UNL     1      -9.762  20.415  67.347  1.00  0.00    -0.457 C  
HETATM    2  O   UNL     1     -10.783  19.468  67.062  1.00  0.00    -0.467 OA 
ENDROOT
BRANCH   2   3
HETATM    3  C   UNL     1     -10.517  18.742  65.858  1.00  0.00    -0.376 C  
BRANCH   3   4
HETATM    4  C   UNL     1     -10.233  17.276  66.206  1.00  0.00    -0.342 C  
BRANCH   4   5
HETATM    5  N   UNL     1     -10.719  16.940  67.556  1.00  0.00    -0.308 N  
HETATM    6  C   UNL     1      -8.494  16.980  68.663  1.00  0.00    -0.262 C  
HETATM    7  O   UNL     1     -10.580  16.571  69.752  1.00  0.00    -0.311 OA 
HETATM    8  H   UNL     1     -11.723  16.786  67.645  1.00  0.00     0.000 HD 
HETATM    9  C   UNL     1      -9.990  16.809  68.700  1.00  0.00    -0.276 C  
ENDBRANCH   4   5
BRANCH   4  10
HETATM   10  C   UNL     1     -10.899  16.394  65.138  1.00  0.00    -0.275 C  
HETATM   11  O   UNL     1     -11.434  16.880  64.144  1.00  0.00    -1.174 OA 
HETATM   12  H   UNL     1     -10.579  14.713  66.312  1.00  0.00     0.000 HD 
HETATM   13  N   UNL     1     -10.972  15.049  65.434  1.00  0.00    -0.352 N  
BRANCH  13  14
HETATM   14  C   UNL     1     -11.592  14.103  64.535  1.00  0.00    -0.389 C  
BRANCH  14  15
HETATM   15  C   UNL     1     -10.927  12.754  64.611  1.00  0.00    -0.355 A  
HETATM   16  C   UNL     1     -10.427  12.127  63.461  1.00  0.00    -0.490 A  
HETATM   17  C   UNL     1      -9.802  10.880  63.550  1.00  0.00    -0.407 A  
HETATM   18  C   UNL     1      -9.679  10.246  64.785  1.00  0.00    -0.397 A  
HETATM   19  C   UNL     1     -10.184  10.854  65.932  1.00  0.00    -0.314 A  
HETATM   20  C   UNL     1     -10.808  12.099  65.846  1.00  0.00    -0.316 A  
ENDBRANCH  14  15
ENDBRANCH  13  14
ENDBRANCH   4  10
ENDBRANCH   3   4
ENDBRANCH   2   3
TORSDOF 6
ENDMDL
MODEL       17
REMARK 921   NORMALIZED FREE ENERGY PREDICTED BY IDOCK:   -5.39 KCAL/MOL
REMARK 922        TOTAL FREE ENERGY PREDICTED BY IDOCK:   -7.69 KCAL/MOL
REMARK 923 INTER-LIGAND FREE ENERGY PREDICTED BY IDOCK:   -7.20 KCAL/MOL
REMARK 924 INTRA-LIGAND FREE ENERGY PREDICTED BY IDOCK:   -0.49 KCAL/MOL
REMARK 927      BINDING AFFINITY PREDICTED BY RF-SCORE:    0.00 PKD
ROOT
HETATM    1  C   UNL     1     -12.147  12.522  63.731  1.00  0.00    -0.529 C  
HETATM    2  O   UNL     1     -12.738  12.594  65.021  1.00  0.00    -0.658 OA 
ENDROOT
BRANCH   2   3
HETATM    3  C   UNL     1     -12.717  13.926  65.544  1.00  0.00    -0.499 C  
BRANCH   3   4
HETATM    4  C   UNL     1     -11.390  14.158  66.277  1.00  0.00    -0.338 C  
BRANCH   4   5
HETATM    5  N   UNL     1     -11.162  15.590  66.539  1.00  0.00    -0.182 N  
HETATM    6  C   UNL     1      -8.682  15.496  66.430  1.00  0.00    -0.333 C  
HETATM    7  O   UNL     1      -9.982  17.467  66.784  1.00  0.00    -0.286 OA 
HETATM    8  H   UNL     1     -11.998  16.155  66.691  1.00  0.00     0.000 HD 
HETATM    9  C   UNL     1      -9.972  16.251  66.603  1.00  0.00    -0.264 C  
ENDBRANCH   4   5
BRANCH   4  10
HETATM   10  C   UNL     1     -11.419  13.350  67.584  1.00  0.00    -0.319 C  
HETATM   11  O   UNL     1     -10.915  12.232  67.660  1.00  0.00    -0.225 OA 
HETATM   12  H   UNL     1     -12.618  14.797  68.465  1.00  0.00     0.000 HD 
HETATM   13  N   UNL     1     -12.156  13.900  68.612  1.00  0.00    -0.352 N  
BRANCH  13  14
HETATM   14  C   UNL     1     -12.292  13.241  69.890  1.00  0.00    -0.163 C  
BRANCH  14  15
HETATM   15  C   UNL     1     -12.573  14.229  70.991  1.00  0.00    -0.428 A  
HETATM   16  C   UNL     1     -11.561  15.063  71.492  1.00  0.00    -0.409 A  
HETATM   17  C   UNL     1     -11.840  15.983  72.506  1.00  0.00    -0.630 A  
HETATM   18  C   UNL     1     -13.127  16.073  73.034  1.00  0.00    -0.593 A  
HETATM   19  C   UNL     1     -14.136  15.240  72.554  1.00  0.00    -0.567 A  
HETATM   20  C   UNL     1     -13.859  14.321  71.542  1.00  0.00    -0.428 A  
ENDBRANCH  14  15
ENDBRANCH  13  14
ENDBRANCH   4  10
ENDBRANCH   3   4
ENDBRANCH   2   3
TORSDOF 6
ENDMDL
MODEL       18
REMARK 921   NORMALIZED FREE ENERGY PREDICTED BY IDOCK:   -5.38 KCAL/MOL
REMARK 922        TOTAL FREE ENERGY PREDICTED BY IDOCK:   -7.67 KCAL/MOL
REMARK 923 INTER-LIGAND FREE ENERGY PREDICTED BY IDOCK:   -7.09 KCAL/MOL
REMARK 924 INTRA-LIGAND FREE ENERGY PREDICTED BY IDOCK:   -0.57 KCAL/MOL
REMARK 927      BINDING AFFINITY PREDICTED BY RF-SCORE:    0.00 PKD
ROOT
HETATM    1  C   UNL     1      -9.937  20.088  66.099  1.00  0.00    -0.468 C  
HETATM    2  O   UNL     1      -9.894  20.362  67.492  1.00  0.00    -0.416 OA 
ENDROOT
BRANCH   2   3
HETATM    3  C   UNL     1     -10.271  19.223  68.272  1.00  0.00    -0.418 C  
BRANCH   3   4
HETATM    4  C   UNL     1      -9.415  18.021  67.856  1.00  0.00    -0.273 C  
BRANCH   4   5
HETATM    5  N   UNL     1      -8.231  17.877  68.722  1.00  0.00    -0.267 N  
HETATM    6  C   UNL     1      -6.598  18.840  67.116  1.00  0.00    -0.202 C  
HETATM    7  O   UNL     1      -6.093  18.087  69.325  1.00  0.00    -0.218 OA 
HETATM    8  H   UNL     1      -8.395  17.453  69.635  1.00  0.00     0.000 HD 
HETATM    9  C   UNL     1      -6.946  18.240  68.452  1.00  0.00    -0.245 C  
ENDBRANCH   4   5
BRANCH   4  10
HETATM   10  C   UNL     1     -10.298  16.765  67.904  1.00  0.00    -0.319 C  
HETATM   11  O   UNL     1     -10.577  16.135  66.887  1.00  0.00    -0.309 OA 
HETATM   12  H   UNL     1     -10.652  17.078  69.925  1.00  0.00     0.000 HD 
HETATM   13  N   UNL     1     -10.858  16.474  69.131  1.00  0.00    -0.329 N  
BRANCH  13  14
HETATM   14  C   UNL     1     -11.728  15.337  69.321  1.00  0.00    -0.338 C  
BRANCH  14  15
HETATM   15  C   UNL     1     -12.166  15.213  70.757  1.00  0.00    -0.392 A  
HETATM   16  C   UNL     1     -13.031  14.186  71.164  1.00  0.00    -0.419 A  
HETATM   17  C   UNL     1     -13.418  14.077  72.502  1.00  0.00    -0.661 A  
HETATM   18  C   UNL     1     -12.952  14.994  73.443  1.00  0.00    -0.622 A  
HETATM   19  C   UNL     1     -12.104  16.026  73.047  1.00  0.00    -0.628 A  
HETATM   20  C   UNL     1     -11.716  16.137  71.711  1.00  0.00    -0.568 A  
ENDBRANCH  14  15
ENDBRANCH  13  14
ENDBRANCH   4  10
ENDBRANCH   3   4
ENDBRANCH   2   3
TORSDOF 6
ENDMDL
MODEL       19
REMARK 921   NORMALIZED FREE ENERGY PREDICTED BY IDOCK:   -5.37 KCAL/MOL
REMARK 922        TOTAL FREE ENERGY PREDICTED BY IDOCK:   -7.66 KCAL/MOL
REMARK 923 INTER-LIGAND FREE ENERGY PREDICTED BY IDOCK:   -7.20 KCAL/MOL
REMARK 924 INTRA-LIGAND FREE ENERGY PREDICTED BY IDOCK:   -0.45 KCAL/MOL
REMARK 927      BINDING AFFINITY PREDICTED BY RF-SCORE:    0.00 PKD
ROOT
HETATM    1  C   UNL     1      -8.099  10.450  65.473  1.00  0.00    -0.156 C  
HETATM    2  O   UNL     1      -9.383  11.047  65.586  1.00  0.00    -0.199 OA 
ENDROOT
BRANCH   2   3
HETATM    3  C   UNL     1      -9.372  12.172  66.471  1.00  0.00    -0.228 C  
BRANCH   3   4
HETATM    4  C   UNL     1     -10.784  12.767  66.546  1.00  0.00    -0.258 C  
BRANCH   4   5
HETATM    5  N   UNL     1     -11.552  12.488  65.319  1.00  0.00    -0.348 N  
HETATM    6  C   UNL     1     -11.884  14.861  64.661  1.00  0.00    -0.412 C  
HETATM    7  O   UNL     1     -12.632  12.959  63.425  1.00  0.00    -0.709 OA 
HETATM    8  H   UNL     1     -11.726  11.504  65.115  1.00  0.00     0.000 HD 
HETATM    9  C   UNL     1     -12.057  13.384  64.425  1.00  0.00    -0.416 C  
ENDBRANCH   4   5
BRANCH   4  10
HETATM   10  C   UNL     1     -11.482  12.185  67.785  1.00  0.00    -0.332 C  
HETATM   11  O   UNL     1     -12.077  11.110  67.743  1.00  0.00    -0.606 OA 
HETATM   12  H   UNL     1     -11.065  13.918  68.848  1.00  0.00     0.000 HD 
HETATM   13  N   UNL     1     -11.510  13.002  68.895  1.00  0.00    -0.279 N  
BRANCH  13  14
HETATM   14  C   UNL     1     -12.152  12.597  70.124  1.00  0.00    -0.294 C  
BRANCH  14  15
HETATM   15  C   UNL     1     -12.401  13.774  71.030  1.00  0.00    -0.452 A  
HETATM   16  C   UNL     1     -11.574  14.907  70.989  1.00  0.00    -0.344 A  
HETATM   17  C   UNL     1     -11.824  15.996  71.827  1.00  0.00    -0.599 A  
HETATM   18  C   UNL     1     -12.897  15.962  72.718  1.00  0.00    -0.572 A  
HETATM   19  C   UNL     1     -13.716  14.836  72.776  1.00  0.00    -0.486 A  
HETATM   20  C   UNL     1     -13.467  13.748  71.940  1.00  0.00    -0.514 A  
ENDBRANCH  14  15
ENDBRANCH  13  14
ENDBRANCH   4  10
ENDBRANCH   3   4
ENDBRANCH   2   3
TORSDOF 6
ENDMDL
MODEL       20
REMARK 921   NORMALIZED FREE ENERGY PREDICTED BY IDOCK:   -5.37 KCAL/MOL
REMARK 922        TOTAL FREE ENERGY PREDICTED BY IDOCK:   -7.65 KCAL/MOL
REMARK 923 INTER-LIGAND FREE ENERGY PREDICTED BY IDOCK:   -7.15 KCAL/MOL
REMARK 924 INTRA-LIGAND FREE ENERGY PREDICTED BY IDOCK:   -0.50 KCAL/MOL
REMARK 927      BINDING AFFINITY PREDICTED BY RF-SCORE:    0.00 PKD
ROOT
HETATM    1  C   UNL     1     -13.906  13.771  72.153  1.00  0.00    -0.554 C  
HETATM    2  O   UNL     1     -13.372  12.456  72.113  1.00  0.00    -0.528 OA 
ENDROOT
BRANCH   2   3
HETATM    3  C   UNL     1     -12.611  12.224  70.922  1.00  0.00    -0.241 C  
BRANCH   3   4
HETATM    4  C   UNL     1     -12.120  10.772  70.914  1.00  0.00    -0.370 C  
BRANCH   4   5
HETATM    5  N   UNL     1     -13.246   9.822  70.936  1.00  0.00    -0.581 N  
HETATM    6  C   UNL     1     -12.145   8.127  72.380  1.00  0.00    -0.406 C  
HETATM    7  O   UNL     1     -14.372   7.990  71.531  1.00  0.00    -0.424 OA 
HETATM    8  H   UNL     1     -14.069  10.091  70.397  1.00  0.00     0.000 HD 
HETATM    9  C   UNL     1     -13.323   8.628  71.588  1.00  0.00    -0.350 C  
ENDBRANCH   4   5
BRANCH   4  10
HETATM   10  C   UNL     1     -11.245  10.571  69.666  1.00  0.00    -0.282 C  
HETATM   11  O   UNL     1     -10.119  10.085  69.741  1.00  0.00    -0.226 OA 
HETATM   12  H   UNL     1     -12.658  11.552  68.504  1.00  0.00     0.000 HD 
HETATM   13  N   UNL     1     -11.750  11.089  68.492  1.00  0.00    -0.306 N  
BRANCH  13  14
HETATM   14  C   UNL     1     -11.028  10.995  67.245  1.00  0.00    -0.297 C  
BRANCH  14  15
HETATM   15  C   UNL     1     -11.383  12.126  66.316  1.00  0.00    -0.411 A  
HETATM   16  C   UNL     1     -11.990  13.296  66.798  1.00  0.00    -0.438 A  
HETATM   17  C   UNL     1     -12.303  14.341  65.925  1.00  0.00    -0.420 A  
HETATM   18  C   UNL     1     -12.020  14.226  64.565  1.00  0.00    -0.478 A  
HETATM   19  C   UNL     1     -11.430  13.063  64.074  1.00  0.00    -0.473 A  
HETATM   20  C   UNL     1     -11.117  12.018  64.943  1.00  0.00    -0.368 A  
ENDBRANCH  14  15
ENDBRANCH  13  14
ENDBRANCH   4  10
ENDBRANCH   3   4
ENDBRANCH   2   3
TORSDOF 6
ENDMDL
MODEL       21
REMARK 921   NORMALIZED FREE ENERGY PREDICTED BY IDOCK:   -5.33 KCAL/MOL
REMARK 922        TOTAL FREE ENERGY PREDICTED BY IDOCK:   -7.61 KCAL/MOL
REMARK 923 INTER-LIGAND FREE ENERGY PREDICTED BY IDOCK:   -7.07 KCAL/MOL
REMARK 924 INTRA-LIGAND FREE ENERGY PREDICTED BY IDOCK:   -0.54 KCAL/MOL
REMARK 927      BINDING AFFINITY PREDICTED BY RF-SCORE:    0.00 PKD
ROOT
HETATM    1  C   UNL     1     -11.677  13.624  64.227  1.00  0.00    -0.403 C  
HETATM    2  O   UNL     1     -11.388  14.359  65.408  1.00  0.00    -0.320 OA 
ENDROOT
BRANCH   2   3
HETATM    3  C   UNL     1     -12.367  14.137  66.428  1.00  0.00    -0.400 C  
BRANCH   3   4
HETATM    4  C   UNL     1     -11.656  13.926  67.770  1.00  0.00    -0.347 C  
BRANCH   4   5
HETATM    5  N   UNL     1     -12.438  14.485  68.888  1.00  0.00    -0.569 N  
HETATM    6  C   UNL     1     -10.585  15.806  69.883  1.00  0.00    -0.332 C  
HETATM    7  O   UNL     1     -12.833  15.746  70.685  1.00  0.00    -0.438 OA 
HETATM    8  H   UNL     1     -13.414  14.191  68.941  1.00  0.00     0.000 HD 
HETATM    9  C   UNL     1     -12.017  15.345  69.857  1.00  0.00    -0.359 C  
ENDBRANCH   4   5
BRANCH   4  10
HETATM   10  C   UNL     1     -11.419  12.419  67.954  1.00  0.00    -0.328 C  
HETATM   11  O   UNL     1     -11.970  11.589  67.234  1.00  0.00    -0.605 OA 
HETATM   12  H   UNL     1     -10.296  12.792  69.659  1.00  0.00     0.000 HD 
HETATM   13  N   UNL     1     -10.664  12.061  69.051  1.00  0.00    -0.179 N  
BRANCH  13  14
HETATM   14  C   UNL     1     -10.379  10.680  69.363  1.00  0.00    -0.208 C  
BRANCH  14  15
HETATM   15  C   UNL     1     -11.370  10.123  70.351  1.00  0.00    -0.401 A  
HETATM   16  C   UNL     1     -11.394   8.755  70.659  1.00  0.00    -0.289 A  
HETATM   17  C   UNL     1     -12.312   8.255  71.587  1.00  0.00    -0.349 A  
HETATM   18  C   UNL     1     -13.218   9.114  72.208  1.00  0.00    -0.528 A  
HETATM   19  C   UNL     1     -13.212  10.472  71.898  1.00  0.00    -0.526 A  
HETATM   20  C   UNL     1     -12.297  10.973  70.972  1.00  0.00    -0.490 A  
ENDBRANCH  14  15
ENDBRANCH  13  14
ENDBRANCH   4  10
ENDBRANCH   3   4
ENDBRANCH   2   3
TORSDOF 6
ENDMDL
MODEL       22
REMARK 921   NORMALIZED FREE ENERGY PREDICTED BY IDOCK:   -5.32 KCAL/MOL
REMARK 922        TOTAL FREE ENERGY PREDICTED BY IDOCK:   -7.60 KCAL/MOL
REMARK 923 INTER-LIGAND FREE ENERGY PREDICTED BY IDOCK:   -7.13 KCAL/MOL
REMARK 924 INTRA-LIGAND FREE ENERGY PREDICTED BY IDOCK:   -0.47 KCAL/MOL
REMARK 927      BINDING AFFINITY PREDICTED BY RF-SCORE:    0.00 PKD
ROOT
HETATM    1  C   UNL     1     -11.056  16.123  69.962  1.00  0.00    -0.363 C  
HETATM    2  O   UNL     1     -11.490  16.301  68.621  1.00  0.00    -0.367 OA 
ENDROOT
BRANCH   2   3
HETATM    3  C   UNL     1     -10.430  16.087  67.683  1.00  0.00    -0.292 C  
BRANCH   3   4
HETATM    4  C   UNL     1     -10.576  17.077  66.522  1.00  0.00    -0.172 C  
BRANCH   4   5
HETATM    5  N   UNL     1      -9.323  17.815  66.282  1.00  0.00    -0.241 N  
HETATM    6  C   UNL     1     -10.270  20.084  66.636  1.00  0.00    -0.597 C  
HETATM    7  O   UNL     1      -7.983  19.594  66.152  1.00  0.00    -0.323 OA 
HETATM    8  H   UNL     1      -8.508  17.247  66.047  1.00  0.00     0.000 HD 
HETATM    9  C   UNL     1      -9.120  19.161  66.334  1.00  0.00    -0.343 C  
ENDBRANCH   4   5
BRANCH   4  10
HETATM   10  C   UNL     1     -11.009  16.290  65.275  1.00  0.00    -0.236 C  
HETATM   11  O   UNL     1     -11.333  16.860  64.236  1.00  0.00    -1.202 OA 
HETATM   12  H   UNL     1     -10.927  14.518  66.351  1.00  0.00     0.000 HD 
HETATM   13  N   UNL     1     -11.135  14.927  65.441  1.00  0.00    -0.348 N  
BRANCH  13  14
HETATM   14  C   UNL     1     -11.556  14.064  64.363  1.00  0.00    -0.369 C  
BRANCH  14  15
HETATM   15  C   UNL     1     -10.931  12.698  64.475  1.00  0.00    -0.365 A  
HETATM   16  C   UNL     1     -10.483  12.011  63.336  1.00  0.00    -0.474 A  
HETATM   17  C   UNL     1      -9.894  10.750  63.458  1.00  0.00    -0.401 A  
HETATM   18  C   UNL     1      -9.754  10.161  64.713  1.00  0.00    -0.389 A  
HETATM   19  C   UNL     1     -10.208  10.828  65.849  1.00  0.00    -0.319 A  
HETATM   20  C   UNL     1     -10.796  12.088  65.730  1.00  0.00    -0.329 A  
ENDBRANCH  14  15
ENDBRANCH  13  14
ENDBRANCH   4  10
ENDBRANCH   3   4
ENDBRANCH   2   3
TORSDOF 6
ENDMDL
MODEL       23
REMARK 921   NORMALIZED FREE ENERGY PREDICTED BY IDOCK:   -5.32 KCAL/MOL
REMARK 922        TOTAL FREE ENERGY PREDICTED BY IDOCK:   -7.59 KCAL/MOL
REMARK 923 INTER-LIGAND FREE ENERGY PREDICTED BY IDOCK:   -6.99 KCAL/MOL
REMARK 924 INTRA-LIGAND FREE ENERGY PREDICTED BY IDOCK:   -0.59 KCAL/MOL
REMARK 927      BINDING AFFINITY PREDICTED BY RF-SCORE:    0.00 PKD
ROOT
HETATM    1  C   UNL     1     -12.427  15.806  74.493  1.00  0.00    -0.595 C  
HETATM    2  O   UNL     1     -12.096  15.973  73.122  1.00  0.00    -0.456 OA 
ENDROOT
BRANCH   2   3
HETATM    3  C   UNL     1     -13.218  15.726  72.268  1.00  0.00    -0.442 C  
BRANCH   3   4
HETATM    4  C   UNL     1     -12.825  14.691  71.207  1.00  0.00    -0.335 C  
BRANCH   4   5
HETATM    5  N   UNL     1     -11.377  14.724  70.932  1.00  0.00    -0.494 N  
HETATM    6  C   UNL     1     -11.546  15.840  68.719  1.00  0.00    -0.401 C  
HETATM    7  O   UNL     1      -9.514  15.222  69.811  1.00  0.00    -0.218 OA 
HETATM    8  H   UNL     1     -10.778  14.309  71.646  1.00  0.00     0.000 HD 
HETATM    9  C   UNL     1     -10.743  15.240  69.843  1.00  0.00    -0.285 C  
ENDBRANCH   4   5
BRANCH   4  10
HETATM   10  C   UNL     1     -13.267  13.305  71.705  1.00  0.00    -0.405 C  
HETATM   11  O   UNL     1     -14.038  13.179  72.653  1.00  0.00    -0.701 OA 
HETATM   12  H   UNL     1     -11.952  12.398  70.380  1.00  0.00     0.000 HD 
HETATM   13  N   UNL     1     -12.643  12.229  71.110  1.00  0.00    -0.326 N  
BRANCH  13  14
HETATM   14  C   UNL     1     -12.940  10.869  71.494  1.00  0.00    -0.451 C  
BRANCH  14  15
HETATM   15  C   UNL     1     -11.835   9.929  71.091  1.00  0.00    -0.472 A  
HETATM   16  C   UNL     1     -11.412   8.899  71.945  1.00  0.00    -0.442 A  
HETATM   17  C   UNL     1     -10.393   8.028  71.552  1.00  0.00    -0.258 A  
HETATM   18  C   UNL     1      -9.783   8.180  70.307  1.00  0.00    -0.175 A  
HETATM   19  C   UNL     1     -10.186   9.208  69.457  1.00  0.00    -0.208 A  
HETATM   20  C   UNL     1     -11.203  10.079  69.848  1.00  0.00    -0.327 A  
ENDBRANCH  14  15
ENDBRANCH  13  14
ENDBRANCH   4  10
ENDBRANCH   3   4
ENDBRANCH   2   3
TORSDOF 6
ENDMDL
MODEL       24
REMARK 921   NORMALIZED FREE ENERGY PREDICTED BY IDOCK:   -5.30 KCAL/MOL
REMARK 922        TOTAL FREE ENERGY PREDICTED BY IDOCK:   -7.56 KCAL/MOL
REMARK 923 INTER-LIGAND FREE ENERGY PREDICTED BY IDOCK:   -7.10 KCAL/MOL
REMARK 924 INTRA-LIGAND FREE ENERGY PREDICTED BY IDOCK:   -0.46 KCAL/MOL
REMARK 927      BINDING AFFINITY PREDICTED BY RF-SCORE:    0.00 PKD
ROOT
HETATM    1  C   UNL     1     -11.772  10.172  71.011  1.00  0.00    -0.382 C  
HETATM    2  O   UNL     1     -12.389  11.452  71.017  1.00  0.00    -0.369 OA 
ENDROOT
BRANCH   2   3
HETATM    3  C   UNL     1     -11.935  12.268  69.932  1.00  0.00    -0.306 C  
BRANCH   3   4
HETATM    4  C   UNL     1     -12.411  13.709  70.153  1.00  0.00    -0.304 C  
BRANCH   4   5
HETATM    5  N   UNL     1     -11.825  14.288  71.376  1.00  0.00    -0.449 N  
HETATM    6  C   UNL     1     -13.937  15.253  72.260  1.00  0.00    -0.646 C  
HETATM    7  O   UNL     1     -11.810  15.343  73.341  1.00  0.00    -0.448 OA 
HETATM    8  H   UNL     1     -10.820  14.157  71.495  1.00  0.00     0.000 HD 
HETATM    9  C   UNL     1     -12.461  14.977  72.364  1.00  0.00    -0.346 C  
ENDBRANCH   4   5
BRANCH   4  10
HETATM   10  C   UNL     1     -12.036  14.532  68.911  1.00  0.00    -0.290 C  
HETATM   11  O   UNL     1     -11.874  15.749  68.971  1.00  0.00    -0.391 OA 
HETATM   12  H   UNL     1     -12.245  12.847  67.718  1.00  0.00     0.000 HD 
HETATM   13  N   UNL     1     -12.026  13.842  67.717  1.00  0.00    -0.371 N  
BRANCH  13  14
HETATM   14  C   UNL     1     -11.715  14.491  66.465  1.00  0.00    -0.368 C  
BRANCH  14  15
HETATM   15  C   UNL     1     -11.613  13.496  65.339  1.00  0.00    -0.334 A  
HETATM   16  C   UNL     1     -12.759  12.881  64.810  1.00  0.00    -0.442 A  
HETATM   17  C   UNL     1     -12.649  11.969  63.758  1.00  0.00    -0.567 A  
HETATM   18  C   UNL     1     -11.398  11.656  63.230  1.00  0.00    -0.288 A  
HETATM   19  C   UNL     1     -10.253  12.250  63.756  1.00  0.00    -0.427 A  
HETATM   20  C   UNL     1     -10.359  13.161  64.807  1.00  0.00    -0.369 A  
ENDBRANCH  14  15
ENDBRANCH  13  14
ENDBRANCH   4  10
ENDBRANCH   3   4
ENDBRANCH   2   3
TORSDOF 6
ENDMDL
MODEL       25
REMARK 921   NORMALIZED FREE ENERGY PREDICTED BY IDOCK:   -5.29 KCAL/MOL
REMARK 922        TOTAL FREE ENERGY PREDICTED BY IDOCK:   -7.56 KCAL/MOL
REMARK 923 INTER-LIGAND FREE ENERGY PREDICTED BY IDOCK:   -7.04 KCAL/MOL
REMARK 924 INTRA-LIGAND FREE ENERGY PREDICTED BY IDOCK:   -0.52 KCAL/MOL
REMARK 927      BINDING AFFINITY PREDICTED BY RF-SCORE:    0.00 PKD
ROOT
HETATM    1  C   UNL     1     -11.804  14.533  65.941  1.00  0.00    -0.331 C  
HETATM    2  O   UNL     1     -12.155  14.369  67.308  1.00  0.00    -0.406 OA 
ENDROOT
BRANCH   2   3
HETATM    3  C   UNL     1     -11.110  13.739  68.056  1.00  0.00    -0.261 C  
BRANCH   3   4
HETATM    4  C   UNL     1     -11.632  13.391  69.455  1.00  0.00    -0.307 C  
BRANCH   4   5
HETATM    5  N   UNL     1     -12.776  14.241  69.829  1.00  0.00    -0.461 N  
HETATM    6  C   UNL     1     -11.819  15.057  71.972  1.00  0.00    -0.462 C  
HETATM    7  O   UNL     1     -13.926  15.708  71.056  1.00  0.00    -0.534 OA 
HETATM    8  H   UNL     1     -13.563  14.243  69.180  1.00  0.00     0.000 HD 
HETATM    9  C   UNL     1     -12.911  15.023  70.937  1.00  0.00    -0.405 C  
ENDBRANCH   4   5
BRANCH   4  10
HETATM   10  C   UNL     1     -12.016  11.903  69.465  1.00  0.00    -0.292 C  
HETATM   11  O   UNL     1     -12.187  11.276  68.422  1.00  0.00    -0.604 OA 
HETATM   12  H   UNL     1     -12.201  11.953  71.531  1.00  0.00     0.000 HD 
HETATM   13  N   UNL     1     -12.284  11.362  70.705  1.00  0.00    -0.381 N  
BRANCH  13  14
HETATM   14  C   UNL     1     -12.679   9.983  70.866  1.00  0.00    -0.325 C  
BRANCH  14  15
HETATM   15  C   UNL     1     -11.588   9.168  71.509  1.00  0.00    -0.439 A  
HETATM   16  C   UNL     1     -10.245   9.341  71.145  1.00  0.00    -0.387 A  
HETATM   17  C   UNL     1      -9.243   8.586  71.760  1.00  0.00    -0.316 A  
HETATM   18  C   UNL     1      -9.573   7.648  72.737  1.00  0.00    -0.253 A  
HETATM   19  C   UNL     1     -10.906   7.458  73.096  1.00  0.00    -0.435 A  
HETATM   20  C   UNL     1     -11.908   8.211  72.484  1.00  0.00    -0.438 A  
ENDBRANCH  14  15
ENDBRANCH  13  14
ENDBRANCH   4  10
ENDBRANCH   3   4
ENDBRANCH   2   3
TORSDOF 6
ENDMDL
MODEL       26
REMARK 921   NORMALIZED FREE ENERGY PREDICTED BY IDOCK:   -5.29 KCAL/MOL
REMARK 922        TOTAL FREE ENERGY PREDICTED BY IDOCK:   -7.55 KCAL/MOL
REMARK 923 INTER-LIGAND FREE ENERGY PREDICTED BY IDOCK:   -7.06 KCAL/MOL
REMARK 924 INTRA-LIGAND FREE ENERGY PREDICTED BY IDOCK:   -0.48 KCAL/MOL
REMARK 927      BINDING AFFINITY PREDICTED BY RF-SCORE:    0.00 PKD
ROOT
HETATM    1  C   UNL     1     -12.410  12.321  63.653  1.00  0.00    -0.562 C  
HETATM    2  O   UNL     1     -13.037  12.540  64.909  1.00  0.00    -0.833 OA 
ENDROOT
BRANCH   2   3
HETATM    3  C   UNL     1     -12.420  13.608  65.635  1.00  0.00    -0.496 C  
BRANCH   3   4
HETATM    4  C   UNL     1     -11.619  13.023  66.805  1.00  0.00    -0.368 C  
BRANCH   4   5
HETATM    5  N   UNL     1     -10.257  12.644  66.388  1.00  0.00    -0.246 N  
HETATM    6  C   UNL     1     -10.453  10.237  66.973  1.00  0.00    -0.304 C  
HETATM    7  O   UNL     1      -8.543  11.274  65.984  1.00  0.00    -0.175 OA 
HETATM    8  H   UNL     1      -9.672  13.399  66.029  1.00  0.00     0.000 HD 
HETATM    9  C   UNL     1      -9.683  11.409  66.424  1.00  0.00    -0.204 C  
ENDBRANCH   4   5
BRANCH   4  10
HETATM   10  C   UNL     1     -11.587  14.068  67.931  1.00  0.00    -0.343 C  
HETATM   11  O   UNL     1     -12.262  13.936  68.950  1.00  0.00    -0.354 OA 
HETATM   12  H   UNL     1     -10.386  15.300  66.770  1.00  0.00     0.000 HD 
HETATM   13  N   UNL     1     -10.864  15.212  67.666  1.00  0.00    -0.287 N  
BRANCH  13  14
HETATM   14  C   UNL     1     -10.764  16.290  68.623  1.00  0.00    -0.309 C  
BRANCH  14  15
HETATM   15  C   UNL     1     -10.509  17.608  67.942  1.00  0.00    -0.392 A  
HETATM   16  C   UNL     1     -10.136  18.743  68.678  1.00  0.00    -0.432 A  
HETATM   17  C   UNL     1      -9.890  19.957  68.031  1.00  0.00    -0.534 A  
HETATM   18  C   UNL     1     -10.022  20.050  66.646  1.00  0.00    -0.598 A  
HETATM   19  C   UNL     1     -10.406  18.933  65.907  1.00  0.00    -0.408 A  
HETATM   20  C   UNL     1     -10.651  17.721  66.551  1.00  0.00    -0.220 A  
ENDBRANCH  14  15
ENDBRANCH  13  14
ENDBRANCH   4  10
ENDBRANCH   3   4
ENDBRANCH   2   3
TORSDOF 6
ENDMDL
MODEL       27
REMARK 921   NORMALIZED FREE ENERGY PREDICTED BY IDOCK:   -5.23 KCAL/MOL
REMARK 922        TOTAL FREE ENERGY PREDICTED BY IDOCK:   -7.47 KCAL/MOL
REMARK 923 INTER-LIGAND FREE ENERGY PREDICTED BY IDOCK:   -7.64 KCAL/MOL
REMARK 924 INTRA-LIGAND FREE ENERGY PREDICTED BY IDOCK:    0.17 KCAL/MOL
REMARK 927      BINDING AFFINITY PREDICTED BY RF-SCORE:    0.00 PKD
ROOT
HETATM    1  C   UNL     1     -10.463  17.412  65.395  1.00  0.00     0.001 C  
HETATM    2  O   UNL     1     -11.367  16.692  64.569  1.00  0.00    -0.877 OA 
ENDROOT
BRANCH   2   3
HETATM    3  C   UNL     1     -11.033  15.302  64.495  1.00  0.00    -0.192 C  
BRANCH   3   4
HETATM    4  C   UNL     1     -11.991  14.506  65.388  1.00  0.00    -0.332 C  
BRANCH   4   5
HETATM    5  N   UNL     1     -12.743  13.503  64.613  1.00  0.00    -0.672 N  
HETATM    6  C   UNL     1     -10.761  12.403  63.596  1.00  0.00    -0.497 C  
HETATM    7  O   UNL     1     -13.033  11.743  63.274  1.00  0.00    -0.633 OA 
HETATM    8  H   UNL     1     -13.759  13.548  64.691  1.00  0.00     0.000 HD 
HETATM    9  C   UNL     1     -12.247  12.525  63.805  1.00  0.00    -0.525 C  
ENDBRANCH   4   5
BRANCH   4  10
HETATM   10  C   UNL     1     -11.165  13.844  66.503  1.00  0.00    -0.321 C  
HETATM   11  O   UNL     1      -9.942  13.956  66.551  1.00  0.00    -0.269 OA 
HETATM   12  H   UNL     1     -12.869  12.901  67.220  1.00  0.00     0.000 HD 
HETATM   13  N   UNL     1     -11.866  13.017  67.356  1.00  0.00    -0.367 N  
BRANCH  13  14
HETATM   14  C   UNL     1     -11.217  12.309  68.435  1.00  0.00    -0.266 C  
BRANCH  14  15
HETATM   15  C   UNL     1     -11.976  12.462  69.727  1.00  0.00    -0.359 A  
HETATM   16  C   UNL     1     -12.310  11.344  70.507  1.00  0.00    -0.439 A  
HETATM   17  C   UNL     1     -13.004  11.503  71.709  1.00  0.00    -0.500 A  
HETATM   18  C   UNL     1     -13.376  12.776  72.140  1.00  0.00    -0.593 A  
HETATM   19  C   UNL     1     -13.061  13.891  71.367  1.00  0.00    -0.413 A  
HETATM   20  C   UNL     1     -12.369  13.735  70.166  1.00  0.00    -0.390 A  
ENDBRANCH  14  15
ENDBRANCH  13  14
ENDBRANCH   4  10
ENDBRANCH   3   4
ENDBRANCH   2   3
TORSDOF 6
ENDMDL
MODEL       28
REMARK 921   NORMALIZED FREE ENERGY PREDICTED BY IDOCK:   -5.23 KCAL/MOL
REMARK 922        TOTAL FREE ENERGY PREDICTED BY IDOCK:   -7.46 KCAL/MOL
REMARK 923 INTER-LIGAND FREE ENERGY PREDICTED BY IDOCK:   -6.93 KCAL/MOL
REMARK 924 INTRA-LIGAND FREE ENERGY PREDICTED BY IDOCK:   -0.53 KCAL/MOL
REMARK 927      BINDING AFFINITY PREDICTED BY RF-SCORE:    0.00 PKD
ROOT
HETATM    1  C   UNL     1     -10.403  19.707  65.714  1.00  0.00    -0.412 C  
HETATM    2  O   UNL     1     -10.350  18.288  65.665  1.00  0.00    -0.607 OA 
ENDROOT
BRANCH   2   3
HETATM    3  C   UNL     1      -9.965  17.724  66.922  1.00  0.00    -0.332 C  
BRANCH   3   4
HETATM    4  C   UNL     1     -10.770  16.443  67.167  1.00  0.00    -0.233 C  
BRANCH   4   5
HETATM    5  N   UNL     1     -10.200  15.299  66.434  1.00  0.00    -0.265 N  
HETATM    6  C   UNL     1     -12.348  14.101  66.083  1.00  0.00    -0.463 C  
HETATM    7  O   UNL     1     -10.214  13.388  65.281  1.00  0.00    -0.309 OA 
HETATM    8  H   UNL     1      -9.188  15.311  66.304  1.00  0.00     0.000 HD 
HETATM    9  C   UNL     1     -10.858  14.227  65.909  1.00  0.00    -0.300 C  
ENDBRANCH   4   5
BRANCH   4  10
HETATM   10  C   UNL     1     -10.797  16.177  68.681  1.00  0.00    -0.311 C  
HETATM   11  O   UNL     1      -9.777  16.241  69.363  1.00  0.00    -0.244 OA 
HETATM   12  H   UNL     1     -12.795  15.629  68.560  1.00  0.00     0.000 HD 
HETATM   13  N   UNL     1     -12.001  15.738  69.190  1.00  0.00    -0.361 N  
BRANCH  13  14
HETATM   14  C   UNL     1     -12.168  15.426  70.590  1.00  0.00    -0.385 C  
BRANCH  14  15
HETATM   15  C   UNL     1     -12.377  13.950  70.805  1.00  0.00    -0.449 A  
HETATM   16  C   UNL     1     -11.835  13.006  69.921  1.00  0.00    -0.377 A  
HETATM   17  C   UNL     1     -12.027  11.640  70.140  1.00  0.00    -0.441 A  
HETATM   18  C   UNL     1     -12.767  11.205  71.239  1.00  0.00    -0.531 A  
HETATM   19  C   UNL     1     -13.321  12.134  72.116  1.00  0.00    -0.438 A  
HETATM   20  C   UNL     1     -13.131  13.499  71.899  1.00  0.00    -0.475 A  
ENDBRANCH  14  15
ENDBRANCH  13  14
ENDBRANCH   4  10
ENDBRANCH   3   4
ENDBRANCH   2   3
TORSDOF 6
ENDMDL
MODEL       29
REMARK 921   NORMALIZED FREE ENERGY PREDICTED BY IDOCK:   -5.22 KCAL/MOL
REMARK 922        TOTAL FREE ENERGY PREDICTED BY IDOCK:   -7.45 KCAL/MOL
REMARK 923 INTER-LIGAND FREE ENERGY PREDICTED BY IDOCK:   -6.97 KCAL/MOL
REMARK 924 INTRA-LIGAND FREE ENERGY PREDICTED BY IDOCK:   -0.49 KCAL/MOL
REMARK 927      BINDING AFFINITY PREDICTED BY RF-SCORE:    0.00 PKD
ROOT
HETATM    1  C   UNL     1     -12.648  11.885  63.432  1.00  0.00    -0.431 C  
HETATM    2  O   UNL     1     -13.207  12.524  64.571  1.00  0.00    -0.832 OA 
ENDROOT
BRANCH   2   3
HETATM    3  C   UNL     1     -12.205  13.158  65.373  1.00  0.00    -0.461 C  
BRANCH   3   4
HETATM    4  C   UNL     1     -11.535  12.107  66.266  1.00  0.00    -0.374 C  
BRANCH   4   5
HETATM    5  N   UNL     1     -10.110  11.942  65.927  1.00  0.00    -0.227 N  
HETATM    6  C   UNL     1     -10.088   9.460  66.045  1.00  0.00    -0.302 C  
HETATM    7  O   UNL     1      -8.229  10.838  65.457  1.00  0.00    -0.159 OA 
HETATM    8  H   UNL     1      -9.585  12.802  65.770  1.00  0.00     0.000 HD 
HETATM    9  C   UNL     1      -9.410  10.780  65.797  1.00  0.00    -0.203 C  
ENDBRANCH   4   5
BRANCH   4  10
HETATM   10  C   UNL     1     -11.714  12.539  67.730  1.00  0.00    -0.359 C  
HETATM   11  O   UNL     1     -11.587  13.712  68.074  1.00  0.00    -0.293 OA 
HETATM   12  H   UNL     1     -11.911  10.554  68.303  1.00  0.00     0.000 HD 
HETATM   13  N   UNL     1     -11.891  11.517  68.638  1.00  0.00    -0.332 N  
BRANCH  13  14
HETATM   14  C   UNL     1     -12.048  11.772  70.051  1.00  0.00    -0.310 C  
BRANCH  14  15
HETATM   15  C   UNL     1     -11.999  10.496  70.849  1.00  0.00    -0.481 A  
HETATM   16  C   UNL     1     -10.816   9.749  70.949  1.00  0.00    -0.399 A  
HETATM   17  C   UNL     1     -10.783   8.573  71.703  1.00  0.00    -0.351 A  
HETATM   18  C   UNL     1     -11.932   8.129  72.358  1.00  0.00    -0.431 A  
HETATM   19  C   UNL     1     -13.116   8.856  72.254  1.00  0.00    -0.491 A  
HETATM   20  C   UNL     1     -13.151  10.030  71.502  1.00  0.00    -0.531 A  
ENDBRANCH  14  15
ENDBRANCH  13  14
ENDBRANCH   4  10
ENDBRANCH   3   4
ENDBRANCH   2   3
TORSDOF 6
ENDMDL
MODEL       30
REMARK 921   NORMALIZED FREE ENERGY PREDICTED BY IDOCK:   -5.22 KCAL/MOL
REMARK 922        TOTAL FREE ENERGY PREDICTED BY IDOCK:   -7.45 KCAL/MOL
REMARK 923 INTER-LIGAND FREE ENERGY PREDICTED BY IDOCK:   -6.96 KCAL/MOL
REMARK 924 INTRA-LIGAND FREE ENERGY PREDICTED BY IDOCK:   -0.49 KCAL/MOL
REMARK 927      BINDING AFFINITY PREDICTED BY RF-SCORE:    0.00 PKD
ROOT
HETATM    1  C   UNL     1     -12.543   8.736  72.038  1.00  0.00    -0.385 C  
HETATM    2  O   UNL     1     -11.786   8.691  70.837  1.00  0.00    -0.284 OA 
ENDROOT
BRANCH   2   3
HETATM    3  C   UNL     1     -10.955   9.847  70.685  1.00  0.00    -0.337 C  
BRANCH   3   4
HETATM    4  C   UNL     1     -10.715  10.102  69.192  1.00  0.00    -0.226 C  
BRANCH   4   5
HETATM    5  N   UNL     1     -11.079   8.927  68.380  1.00  0.00    -0.439 N  
HETATM    6  C   UNL     1      -9.040   8.939  66.959  1.00  0.00    -0.161 C  
HETATM    7  O   UNL     1     -10.806   7.335  66.841  1.00  0.00    -0.355 OA 
HETATM    8  H   UNL     1     -11.976   8.495  68.596  1.00  0.00     0.000 HD 
HETATM    9  C   UNL     1     -10.361   8.349  67.376  1.00  0.00    -0.285 C  
ENDBRANCH   4   5
BRANCH   4  10
HETATM   10  C   UNL     1     -11.532  11.338  68.782  1.00  0.00    -0.293 C  
HETATM   11  O   UNL     1     -12.148  11.378  67.719  1.00  0.00    -0.637 OA 
HETATM   12  H   UNL     1     -10.829  12.367  70.441  1.00  0.00     0.000 HD 
HETATM   13  N   UNL     1     -11.418  12.433  69.612  1.00  0.00    -0.232 N  
BRANCH  13  14
HETATM   14  C   UNL     1     -12.109  13.672  69.339  1.00  0.00    -0.314 C  
BRANCH  14  15
HETATM   15  C   UNL     1     -12.455  14.401  70.611  1.00  0.00    -0.419 A  
HETATM   16  C   UNL     1     -11.675  15.476  71.064  1.00  0.00    -0.423 A  
HETATM   17  C   UNL     1     -12.015  16.150  72.239  1.00  0.00    -0.637 A  
HETATM   18  C   UNL     1     -13.131  15.754  72.975  1.00  0.00    -0.645 A  
HETATM   19  C   UNL     1     -13.904  14.679  72.542  1.00  0.00    -0.561 A  
HETATM   20  C   UNL     1     -13.566  14.004  71.368  1.00  0.00    -0.327 A  
ENDBRANCH  14  15
ENDBRANCH  13  14
ENDBRANCH   4  10
ENDBRANCH   3   4
ENDBRANCH   2   3
TORSDOF 6
ENDMDL
MODEL       31
REMARK 921   NORMALIZED FREE ENERGY PREDICTED BY IDOCK:   -5.20 KCAL/MOL
REMARK 922        TOTAL FREE ENERGY PREDICTED BY IDOCK:   -7.43 KCAL/MOL
REMARK 923 INTER-LIGAND FREE ENERGY PREDICTED BY IDOCK:   -6.98 KCAL/MOL
REMARK 924 INTRA-LIGAND FREE ENERGY PREDICTED BY IDOCK:   -0.45 KCAL/MOL
REMARK 927      BINDING AFFINITY PREDICTED BY RF-SCORE:    0.00 PKD
ROOT
HETATM    1  C   UNL     1     -12.382  12.399  63.546  1.00  0.00    -0.546 C  
HETATM    2  O   UNL     1     -12.537  13.466  64.471  1.00  0.00    -0.601 OA 
ENDROOT
BRANCH   2   3
HETATM    3  C   UNL     1     -11.285  14.083  64.789  1.00  0.00    -0.375 C  
BRANCH   3   4
HETATM    4  C   UNL     1     -10.899  13.725  66.229  1.00  0.00    -0.283 C  
BRANCH   4   5
HETATM    5  N   UNL     1      -9.550  13.134  66.294  1.00  0.00    -0.357 N  
HETATM    6  C   UNL     1     -10.270  10.901  67.112  1.00  0.00    -0.249 C  
HETATM    7  O   UNL     1      -8.023  11.538  66.609  1.00  0.00    -0.158 OA 
HETATM    8  H   UNL     1      -8.780  13.748  66.028  1.00  0.00     0.000 HD 
HETATM    9  C   UNL     1      -9.206  11.869  66.666  1.00  0.00    -0.205 C  
ENDBRANCH   4   5
BRANCH   4  10
HETATM   10  C   UNL     1     -10.990  15.001  67.080  1.00  0.00    -0.318 C  
HETATM   11  O   UNL     1     -10.330  16.002  66.810  1.00  0.00    -0.288 OA 
HETATM   12  H   UNL     1     -12.213  14.020  68.440  1.00  0.00     0.000 HD 
HETATM   13  N   UNL     1     -11.749  14.903  68.226  1.00  0.00    -0.327 N  
BRANCH  13  14
HETATM   14  C   UNL     1     -11.906  16.015  69.135  1.00  0.00    -0.261 C  
BRANCH  14  15
HETATM   15  C   UNL     1     -12.209  15.546  70.533  1.00  0.00    -0.444 A  
HETATM   16  C   UNL     1     -11.727  16.243  71.651  1.00  0.00    -0.490 A  
HETATM   17  C   UNL     1     -12.026  15.802  72.943  1.00  0.00    -0.599 A  
HETATM   18  C   UNL     1     -12.801  14.658  73.129  1.00  0.00    -0.586 A  
HETATM   19  C   UNL     1     -13.272  13.950  72.026  1.00  0.00    -0.503 A  
HETATM   20  C   UNL     1     -12.975  14.389  70.736  1.00  0.00    -0.388 A  
ENDBRANCH  14  15
ENDBRANCH  13  14
ENDBRANCH   4  10
ENDBRANCH   3   4
ENDBRANCH   2   3
TORSDOF 6
ENDMDL
MODEL       32
REMARK 921   NORMALIZED FREE ENERGY PREDICTED BY IDOCK:   -5.18 KCAL/MOL
REMARK 922        TOTAL FREE ENERGY PREDICTED BY IDOCK:   -7.41 KCAL/MOL
REMARK 923 INTER-LIGAND FREE ENERGY PREDICTED BY IDOCK:   -6.84 KCAL/MOL
REMARK 924 INTRA-LIGAND FREE ENERGY PREDICTED BY IDOCK:   -0.56 KCAL/MOL
REMARK 927      BINDING AFFINITY PREDICTED BY RF-SCORE:    0.00 PKD
ROOT
HETATM    1  C   UNL     1      -9.144  10.244  66.859  1.00  0.00    -0.143 C  
HETATM    2  O   UNL     1      -9.600  11.415  66.197  1.00  0.00    -0.204 OA 
ENDROOT
BRANCH   2   3
HETATM    3  C   UNL     1      -9.615  12.550  67.068  1.00  0.00    -0.216 C  
BRANCH   3   4
HETATM    4  C   UNL     1     -10.918  13.330  66.856  1.00  0.00    -0.283 C  
BRANCH   4   5
HETATM    5  N   UNL     1     -11.801  12.651  65.891  1.00  0.00    -0.429 N  
HETATM    6  C   UNL     1     -12.051  14.582  64.347  1.00  0.00    -0.492 C  
HETATM    7  O   UNL     1     -13.008  12.417  64.029  1.00  0.00    -0.748 OA 
HETATM    8  H   UNL     1     -12.048  11.687  66.112  1.00  0.00     0.000 HD 
HETATM    9  C   UNL     1     -12.327  13.155  64.739  1.00  0.00    -0.423 C  
ENDBRANCH   4   5
BRANCH   4  10
HETATM   10  C   UNL     1     -11.605  13.492  68.222  1.00  0.00    -0.346 C  
HETATM   11  O   UNL     1     -12.077  14.569  68.580  1.00  0.00    -0.296 OA 
HETATM   12  H   UNL     1     -11.065  11.556  68.736  1.00  0.00     0.000 HD 
HETATM   13  N   UNL     1     -11.538  12.399  69.059  1.00  0.00    -0.290 N  
BRANCH  13  14
HETATM   14  C   UNL     1     -12.119  12.415  70.381  1.00  0.00    -0.297 C  
BRANCH  14  15
HETATM   15  C   UNL     1     -12.178  11.032  70.974  1.00  0.00    -0.456 A  
HETATM   16  C   UNL     1     -11.166  10.093  70.723  1.00  0.00    -0.414 A  
HETATM   17  C   UNL     1     -11.230   8.817  71.289  1.00  0.00    -0.352 A  
HETATM   18  C   UNL     1     -12.305   8.465  72.104  1.00  0.00    -0.426 A  
HETATM   19  C   UNL     1     -13.322   9.386  72.349  1.00  0.00    -0.503 A  
HETATM   20  C   UNL     1     -13.261  10.660  71.784  1.00  0.00    -0.526 A  
ENDBRANCH  14  15
ENDBRANCH  13  14
ENDBRANCH   4  10
ENDBRANCH   3   4
ENDBRANCH   2   3
TORSDOF 6
ENDMDL
MODEL       33
REMARK 921   NORMALIZED FREE ENERGY PREDICTED BY IDOCK:   -5.18 KCAL/MOL
REMARK 922        TOTAL FREE ENERGY PREDICTED BY IDOCK:   -7.40 KCAL/MOL
REMARK 923 INTER-LIGAND FREE ENERGY PREDICTED BY IDOCK:   -6.91 KCAL/MOL
REMARK 924 INTRA-LIGAND FREE ENERGY PREDICTED BY IDOCK:   -0.49 KCAL/MOL
REMARK 927      BINDING AFFINITY PREDICTED BY RF-SCORE:    0.00 PKD
ROOT
HETATM    1  C   UNL     1     -12.571  11.940  63.543  1.00  0.00    -0.459 C  
HETATM    2  O   UNL     1     -11.654  13.022  63.619  1.00  0.00    -0.451 OA 
ENDROOT
BRANCH   2   3
HETATM    3  C   UNL     1     -12.224  14.161  64.274  1.00  0.00    -0.420 C  
BRANCH   3   4
HETATM    4  C   UNL     1     -11.463  14.424  65.578  1.00  0.00    -0.340 C  
BRANCH   4   5
HETATM    5  N   UNL     1     -10.636  13.266  65.962  1.00  0.00    -0.282 N  
HETATM    6  C   UNL     1     -11.725  12.869  68.159  1.00  0.00    -0.395 C  
HETATM    7  O   UNL     1      -9.968  11.551  67.222  1.00  0.00    -0.189 OA 
HETATM    8  H   UNL     1      -9.914  12.992  65.295  1.00  0.00     0.000 HD 
HETATM    9  C   UNL     1     -10.717  12.518  67.098  1.00  0.00    -0.237 C  
ENDBRANCH   4   5
BRANCH   4  10
HETATM   10  C   UNL     1     -10.605  15.684  65.385  1.00  0.00    -0.415 C  
HETATM   11  O   UNL     1     -10.824  16.477  64.472  1.00  0.00    -0.802 OA 
HETATM   12  H   UNL     1      -9.330  15.061  66.899  1.00  0.00     0.000 HD 
HETATM   13  N   UNL     1      -9.505  15.791  66.210  1.00  0.00    -0.289 N  
BRANCH  13  14
HETATM   14  C   UNL     1      -8.595  16.910  66.126  1.00  0.00    -0.242 C  
BRANCH  14  15
HETATM   15  C   UNL     1      -9.122  18.106  66.874  1.00  0.00    -0.276 A  
HETATM   16  C   UNL     1      -9.351  19.326  66.220  1.00  0.00    -0.375 A  
HETATM   17  C   UNL     1      -9.852  20.423  66.925  1.00  0.00    -0.572 A  
HETATM   18  C   UNL     1     -10.120  20.315  68.289  1.00  0.00    -0.386 A  
HETATM   19  C   UNL     1      -9.882  19.113  68.952  1.00  0.00    -0.487 A  
HETATM   20  C   UNL     1      -9.383  18.016  68.249  1.00  0.00    -0.299 A  
ENDBRANCH  14  15
ENDBRANCH  13  14
ENDBRANCH   4  10
ENDBRANCH   3   4
ENDBRANCH   2   3
TORSDOF 6
ENDMDL
MODEL       34
REMARK 921   NORMALIZED FREE ENERGY PREDICTED BY IDOCK:   -5.18 KCAL/MOL
REMARK 922        TOTAL FREE ENERGY PREDICTED BY IDOCK:   -7.40 KCAL/MOL
REMARK 923 INTER-LIGAND FREE ENERGY PREDICTED BY IDOCK:   -6.81 KCAL/MOL
REMARK 924 INTRA-LIGAND FREE ENERGY PREDICTED BY IDOCK:   -0.59 KCAL/MOL
REMARK 927      BINDING AFFINITY PREDICTED BY RF-SCORE:    0.00 PKD
ROOT
HETATM    1  C   UNL     1     -10.530  19.704  66.343  1.00  0.00    -0.513 C  
HETATM    2  O   UNL     1     -10.469  18.840  67.469  1.00  0.00    -0.391 OA 
ENDROOT
BRANCH   2   3
HETATM    3  C   UNL     1     -10.766  17.484  67.118  1.00  0.00    -0.191 C  
BRANCH   3   4
HETATM    4  C   UNL     1      -9.896  17.071  65.925  1.00  0.00    -0.177 C  
BRANCH   4   5
HETATM    5  N   UNL     1      -8.661  16.399  66.365  1.00  0.00    -0.295 N  
HETATM    6  C   UNL     1      -7.133  18.302  65.892  1.00  0.00    -0.291 C  
HETATM    7  O   UNL     1      -6.489  16.207  66.841  1.00  0.00    -0.283 OA 
HETATM    8  H   UNL     1      -8.766  15.439  66.692  1.00  0.00     0.000 HD 
HETATM    9  C   UNL     1      -7.396  16.905  66.390  1.00  0.00    -0.267 C  
ENDBRANCH   4   5
BRANCH   4  10
HETATM   10  C   UNL     1     -10.734  16.157  65.016  1.00  0.00    -0.337 C  
HETATM   11  O   UNL     1     -11.467  16.616  64.142  1.00  0.00    -1.131 OA 
HETATM   12  H   UNL     1     -10.145  14.502  66.120  1.00  0.00     0.000 HD 
HETATM   13  N   UNL     1     -10.712  14.815  65.333  1.00  0.00    -0.344 N  
BRANCH  13  14
HETATM   14  C   UNL     1     -11.469  13.842  64.582  1.00  0.00    -0.371 C  
BRANCH  14  15
HETATM   15  C   UNL     1     -10.834  12.478  64.650  1.00  0.00    -0.343 A  
HETATM   16  C   UNL     1     -10.733  11.786  65.866  1.00  0.00    -0.328 A  
HETATM   17  C   UNL     1     -10.151  10.516  65.910  1.00  0.00    -0.323 A  
HETATM   18  C   UNL     1      -9.659   9.930  64.744  1.00  0.00    -0.339 A  
HETATM   19  C   UNL     1      -9.742  10.615  63.534  1.00  0.00    -0.389 A  
HETATM   20  C   UNL     1     -10.322  11.883  63.487  1.00  0.00    -0.495 A  
ENDBRANCH  14  15
ENDBRANCH  13  14
ENDBRANCH   4  10
ENDBRANCH   3   4
ENDBRANCH   2   3
TORSDOF 6
ENDMDL
MODEL       35
REMARK 921   NORMALIZED FREE ENERGY PREDICTED BY IDOCK:   -5.18 KCAL/MOL
REMARK 922        TOTAL FREE ENERGY PREDICTED BY IDOCK:   -7.40 KCAL/MOL
REMARK 923 INTER-LIGAND FREE ENERGY PREDICTED BY IDOCK:   -6.85 KCAL/MOL
REMARK 924 INTRA-LIGAND FREE ENERGY PREDICTED BY IDOCK:   -0.54 KCAL/MOL
REMARK 927      BINDING AFFINITY PREDICTED BY RF-SCORE:    0.00 PKD
ROOT
HETATM    1  C   UNL     1     -14.061   8.479  72.053  1.00  0.00    -0.444 C  
HETATM    2  O   UNL     1     -13.147   9.543  72.277  1.00  0.00    -0.415 OA 
ENDROOT
BRANCH   2   3
HETATM    3  C   UNL     1     -13.268  10.569  71.286  1.00  0.00    -0.306 C  
BRANCH   3   4
HETATM    4  C   UNL     1     -11.903  10.792  70.624  1.00  0.00    -0.360 C  
BRANCH   4   5
HETATM    5  N   UNL     1     -11.532   9.658  69.759  1.00  0.00    -0.430 N  
HETATM    6  C   UNL     1      -9.753   8.755  71.240  1.00  0.00    -0.335 C  
HETATM    7  O   UNL     1     -10.453   7.797  69.168  1.00  0.00    -0.216 OA 
HETATM    8  H   UNL     1     -12.045   9.579  68.881  1.00  0.00     0.000 HD 
HETATM    9  C   UNL     1     -10.589   8.702  69.989  1.00  0.00    -0.227 C  
ENDBRANCH   4   5
BRANCH   4  10
HETATM   10  C   UNL     1     -11.968  12.104  69.826  1.00  0.00    -0.302 C  
HETATM   11  O   UNL     1     -12.234  13.174  70.369  1.00  0.00    -0.345 OA 
HETATM   12  H   UNL     1     -11.699  11.054  68.056  1.00  0.00     0.000 HD 
HETATM   13  N   UNL     1     -11.842  11.979  68.459  1.00  0.00    -0.330 N  
BRANCH  13  14
HETATM   14  C   UNL     1     -11.906  13.124  67.580  1.00  0.00    -0.359 C  
BRANCH  14  15
HETATM   15  C   UNL     1     -11.714  12.725  66.141  1.00  0.00    -0.458 A  
HETATM   16  C   UNL     1     -12.344  13.429  65.104  1.00  0.00    -0.501 A  
HETATM   17  C   UNL     1     -12.147  13.054  63.772  1.00  0.00    -0.574 A  
HETATM   18  C   UNL     1     -11.327  11.970  63.465  1.00  0.00    -0.528 A  
HETATM   19  C   UNL     1     -10.707  11.254  64.488  1.00  0.00    -0.390 A  
HETATM   20  C   UNL     1     -10.903  11.627  65.818  1.00  0.00    -0.334 A  
ENDBRANCH  14  15
ENDBRANCH  13  14
ENDBRANCH   4  10
ENDBRANCH   3   4
ENDBRANCH   2   3
TORSDOF 6
ENDMDL
MODEL       36
REMARK 921   NORMALIZED FREE ENERGY PREDICTED BY IDOCK:   -5.15 KCAL/MOL
REMARK 922        TOTAL FREE ENERGY PREDICTED BY IDOCK:   -7.36 KCAL/MOL
REMARK 923 INTER-LIGAND FREE ENERGY PREDICTED BY IDOCK:   -6.81 KCAL/MOL
REMARK 924 INTRA-LIGAND FREE ENERGY PREDICTED BY IDOCK:   -0.55 KCAL/MOL
REMARK 927      BINDING AFFINITY PREDICTED BY RF-SCORE:    0.00 PKD
ROOT
HETATM    1  C   UNL     1     -12.248  12.205  63.453  1.00  0.00    -0.530 C  
HETATM    2  O   UNL     1     -11.370  13.097  64.127  1.00  0.00    -0.368 OA 
ENDROOT
BRANCH   2   3
HETATM    3  C   UNL     1     -12.058  14.249  64.625  1.00  0.00    -0.463 C  
BRANCH   3   4
HETATM    4  C   UNL     1     -11.181  14.944  65.674  1.00  0.00    -0.347 C  
BRANCH   4   5
HETATM    5  N   UNL     1      -9.879  14.269  65.820  1.00  0.00    -0.437 N  
HETATM    6  C   UNL     1      -9.810  14.348  68.303  1.00  0.00    -0.229 C  
HETATM    7  O   UNL     1      -8.159  13.345  66.899  1.00  0.00    -0.060 OA 
HETATM    8  H   UNL     1      -9.414  14.001  64.953  1.00  0.00     0.000 HD 
HETATM    9  C   UNL     1      -9.221  13.960  66.973  1.00  0.00    -0.250 C  
ENDBRANCH   4   5
BRANCH   4  10
HETATM   10  C   UNL     1     -11.005  16.411  65.252  1.00  0.00    -0.195 C  
HETATM   11  O   UNL     1     -11.161  16.769  64.087  1.00  0.00    -1.155 OA 
HETATM   12  H   UNL     1     -10.348  16.892  67.162  1.00  0.00     0.000 HD 
HETATM   13  N   UNL     1     -10.534  17.262  66.230  1.00  0.00    -0.307 N  
BRANCH  13  14
HETATM   14  C   UNL     1     -10.298  18.663  65.972  1.00  0.00    -0.399 C  
BRANCH  14  15
HETATM   15  C   UNL     1      -9.097  19.168  66.728  1.00  0.00    -0.348 A  
HETATM   16  C   UNL     1      -8.104  19.925  66.089  1.00  0.00    -0.347 A  
HETATM   17  C   UNL     1      -7.002  20.396  66.807  1.00  0.00    -0.310 A  
HETATM   18  C   UNL     1      -6.877  20.109  68.165  1.00  0.00    -0.326 A  
HETATM   19  C   UNL     1      -7.850  19.346  68.807  1.00  0.00    -0.392 A  
HETATM   20  C   UNL     1      -8.951  18.875  68.092  1.00  0.00    -0.346 A  
ENDBRANCH  14  15
ENDBRANCH  13  14
ENDBRANCH   4  10
ENDBRANCH   3   4
ENDBRANCH   2   3
TORSDOF 6
ENDMDL
MODEL       37
REMARK 921   NORMALIZED FREE ENERGY PREDICTED BY IDOCK:   -5.14 KCAL/MOL
REMARK 922        TOTAL FREE ENERGY PREDICTED BY IDOCK:   -7.34 KCAL/MOL
REMARK 923 INTER-LIGAND FREE ENERGY PREDICTED BY IDOCK:   -6.88 KCAL/MOL
REMARK 924 INTRA-LIGAND FREE ENERGY PREDICTED BY IDOCK:   -0.47 KCAL/MOL
REMARK 927      BINDING AFFINITY PREDICTED BY RF-SCORE:    0.00 PKD
ROOT
HETATM    1  C   UNL     1      -8.504  11.360  68.483  1.00  0.00    -0.152 C  
HETATM    2  O   UNL     1      -8.931  11.815  67.206  1.00  0.00    -0.163 OA 
ENDROOT
BRANCH   2   3
HETATM    3  C   UNL     1     -10.354  11.752  67.065  1.00  0.00    -0.214 C  
BRANCH   3   4
HETATM    4  C   UNL     1     -10.854  13.051  66.421  1.00  0.00    -0.278 C  
BRANCH   4   5
HETATM    5  N   UNL     1     -12.063  12.820  65.610  1.00  0.00    -0.451 N  
HETATM    6  C   UNL     1     -10.874  12.332  63.483  1.00  0.00    -0.508 C  
HETATM    7  O   UNL     1     -13.241  12.277  63.795  1.00  0.00    -0.771 OA 
HETATM    8  H   UNL     1     -12.954  12.928  66.094  1.00  0.00     0.000 HD 
HETATM    9  C   UNL     1     -12.135  12.479  64.293  1.00  0.00    -0.428 C  
ENDBRANCH   4   5
BRANCH   4  10
HETATM   10  C   UNL     1     -11.121  14.068  67.542  1.00  0.00    -0.298 C  
HETATM   11  O   UNL     1     -12.102  13.975  68.275  1.00  0.00    -0.355 OA 
HETATM   12  H   UNL     1      -9.517  15.216  66.896  1.00  0.00     0.000 HD 
HETATM   13  N   UNL     1     -10.269  15.152  67.581  1.00  0.00    -0.239 N  
BRANCH  13  14
HETATM   14  C   UNL     1     -10.414  16.200  68.564  1.00  0.00    -0.269 C  
BRANCH  14  15
HETATM   15  C   UNL     1     -10.282  17.564  67.940  1.00  0.00    -0.350 A  
HETATM   16  C   UNL     1     -10.406  17.740  66.553  1.00  0.00    -0.345 A  
HETATM   17  C   UNL     1     -10.293  19.014  65.990  1.00  0.00    -0.512 A  
HETATM   18  C   UNL     1     -10.049  20.120  66.803  1.00  0.00    -0.591 A  
HETATM   19  C   UNL     1      -9.911  19.954  68.180  1.00  0.00    -0.524 A  
HETATM   20  C   UNL     1     -10.023  18.683  68.744  1.00  0.00    -0.427 A  
ENDBRANCH  14  15
ENDBRANCH  13  14
ENDBRANCH   4  10
ENDBRANCH   3   4
ENDBRANCH   2   3
TORSDOF 6
ENDMDL
MODEL       38
REMARK 921   NORMALIZED FREE ENERGY PREDICTED BY IDOCK:   -5.13 KCAL/MOL
REMARK 922        TOTAL FREE ENERGY PREDICTED BY IDOCK:   -7.34 KCAL/MOL
REMARK 923 INTER-LIGAND FREE ENERGY PREDICTED BY IDOCK:   -7.02 KCAL/MOL
REMARK 924 INTRA-LIGAND FREE ENERGY PREDICTED BY IDOCK:   -0.31 KCAL/MOL
REMARK 927      BINDING AFFINITY PREDICTED BY RF-SCORE:    0.00 PKD
ROOT
HETATM    1  C   UNL     1     -12.520  11.698  63.423  1.00  0.00    -0.210 C  
HETATM    2  O   UNL     1     -11.288  12.396  63.308  1.00  0.00    -0.437 OA 
ENDROOT
BRANCH   2   3
HETATM    3  C   UNL     1     -10.488  12.265  64.488  1.00  0.00    -0.309 C  
BRANCH   3   4
HETATM    4  C   UNL     1     -10.673  13.510  65.363  1.00  0.00    -0.304 C  
BRANCH   4   5
HETATM    5  N   UNL     1     -11.123  14.666  64.567  1.00  0.00    -0.610 N  
HETATM    6  C   UNL     1     -10.326  16.410  66.146  1.00  0.00    -0.354 C  
HETATM    7  O   UNL     1     -11.378  16.819  64.042  1.00  0.00    -1.153 OA 
HETATM    8  H   UNL     1     -11.598  14.448  63.691  1.00  0.00     0.000 HD 
HETATM    9  C   UNL     1     -10.981  15.989  64.858  1.00  0.00    -0.384 C  
ENDBRANCH   4   5
BRANCH   4  10
HETATM   10  C   UNL     1     -11.683  13.169  66.470  1.00  0.00    -0.382 C  
HETATM   11  O   UNL     1     -12.893  13.287  66.295  1.00  0.00    -0.206 OA 
HETATM   12  H   UNL     1     -10.126  12.849  67.806  1.00  0.00     0.000 HD 
HETATM   13  N   UNL     1     -11.140  12.855  67.699  1.00  0.00    -0.253 N  
BRANCH  13  14
HETATM   14  C   UNL     1     -11.968  12.537  68.839  1.00  0.00    -0.236 C  
BRANCH  14  15
HETATM   15  C   UNL     1     -11.436  11.344  69.589  1.00  0.00    -0.380 A  
HETATM   16  C   UNL     1     -12.114  10.830  70.705  1.00  0.00    -0.473 A  
HETATM   17  C   UNL     1     -11.614   9.716  71.384  1.00  0.00    -0.472 A  
HETATM   18  C   UNL     1     -10.431   9.111  70.961  1.00  0.00    -0.368 A  
HETATM   19  C   UNL     1      -9.743   9.622  69.862  1.00  0.00    -0.262 A  
HETATM   20  C   UNL     1     -10.241  10.734  69.183  1.00  0.00    -0.229 A  
ENDBRANCH  14  15
ENDBRANCH  13  14
ENDBRANCH   4  10
ENDBRANCH   3   4
ENDBRANCH   2   3
TORSDOF 6
ENDMDL
MODEL       39
REMARK 921   NORMALIZED FREE ENERGY PREDICTED BY IDOCK:   -5.13 KCAL/MOL
REMARK 922        TOTAL FREE ENERGY PREDICTED BY IDOCK:   -7.33 KCAL/MOL
REMARK 923 INTER-LIGAND FREE ENERGY PREDICTED BY IDOCK:   -6.84 KCAL/MOL
REMARK 924 INTRA-LIGAND FREE ENERGY PREDICTED BY IDOCK:   -0.49 KCAL/MOL
REMARK 927      BINDING AFFINITY PREDICTED BY RF-SCORE:    0.00 PKD
ROOT
HETATM    1  C   UNL     1      -8.805  16.153  66.107  1.00  0.00    -0.332 C  
HETATM    2  O   UNL     1      -9.563  14.952  66.077  1.00  0.00    -0.296 OA 
ENDROOT
BRANCH   2   3
HETATM    3  C   UNL     1     -10.923  15.187  65.697  1.00  0.00    -0.355 C  
BRANCH   3   4
HETATM    4  C   UNL     1     -11.792  14.025  66.191  1.00  0.00    -0.407 C  
BRANCH   4   5
HETATM    5  N   UNL     1     -11.205  12.722  65.828  1.00  0.00    -0.297 N  
HETATM    6  C   UNL     1     -12.151  12.628  63.532  1.00  0.00    -0.648 C  
HETATM    7  O   UNL     1     -10.711  10.992  64.509  1.00  0.00    -0.341 OA 
HETATM    8  H   UNL     1     -10.648  12.266  66.550  1.00  0.00     0.000 HD 
HETATM    9  C   UNL     1     -11.318  12.053  64.646  1.00  0.00    -0.318 C  
ENDBRANCH   4   5
BRANCH   4  10
HETATM   10  C   UNL     1     -11.950  14.160  67.714  1.00  0.00    -0.354 C  
HETATM   11  O   UNL     1     -11.981  15.259  68.262  1.00  0.00    -0.297 OA 
HETATM   12  H   UNL     1     -11.815  12.099  67.922  1.00  0.00     0.000 HD 
HETATM   13  N   UNL     1     -11.920  12.979  68.426  1.00  0.00    -0.322 N  
BRANCH  13  14
HETATM   14  C   UNL     1     -12.034  12.954  69.865  1.00  0.00    -0.307 C  
BRANCH  14  15
HETATM   15  C   UNL     1     -12.058  11.543  70.391  1.00  0.00    -0.471 A  
HETATM   16  C   UNL     1     -12.943  11.165  71.412  1.00  0.00    -0.506 A  
HETATM   17  C   UNL     1     -12.961   9.849  71.882  1.00  0.00    -0.545 A  
HETATM   18  C   UNL     1     -12.092   8.902  71.342  1.00  0.00    -0.381 A  
HETATM   19  C   UNL     1     -11.200   9.269  70.337  1.00  0.00    -0.290 A  
HETATM   20  C   UNL     1     -11.180  10.583  69.867  1.00  0.00    -0.374 A  
ENDBRANCH  14  15
ENDBRANCH  13  14
ENDBRANCH   4  10
ENDBRANCH   3   4
ENDBRANCH   2   3
TORSDOF 6
ENDMDL
MODEL       40
REMARK 921   NORMALIZED FREE ENERGY PREDICTED BY IDOCK:   -5.10 KCAL/MOL
REMARK 922        TOTAL FREE ENERGY PREDICTED BY IDOCK:   -7.29 KCAL/MOL
REMARK 923 INTER-LIGAND FREE ENERGY PREDICTED BY IDOCK:   -6.77 KCAL/MOL
REMARK 924 INTRA-LIGAND FREE ENERGY PREDICTED BY IDOCK:   -0.52 KCAL/MOL
REMARK 927      BINDING AFFINITY PREDICTED BY RF-SCORE:    0.00 PKD
ROOT
HETATM    1  C   UNL     1     -10.648   9.571  67.896  1.00  0.00    -0.244 C  
HETATM    2  O   UNL     1     -10.003   9.488  69.159  1.00  0.00    -0.170 OA 
ENDROOT
BRANCH   2   3
HETATM    3  C   UNL     1     -10.719  10.201  70.173  1.00  0.00    -0.300 C  
BRANCH   3   4
HETATM    4  C   UNL     1     -11.805   9.289  70.757  1.00  0.00    -0.243 C  
BRANCH   4   5
HETATM    5  N   UNL     1     -11.220   8.202  71.561  1.00  0.00    -0.251 N  
HETATM    6  C   UNL     1     -11.535   6.411  69.868  1.00  0.00    -0.483 C  
HETATM    7  O   UNL     1     -10.497   6.137  72.001  1.00  0.00    -0.202 OA 
HETATM    8  H   UNL     1     -10.897   8.459  72.494  1.00  0.00     0.000 HD 
HETATM    9  C   UNL     1     -11.056   6.895  71.211  1.00  0.00    -0.258 C  
ENDBRANCH   4   5
BRANCH   4  10
HETATM   10  C   UNL     1     -12.755  10.156  71.598  1.00  0.00    -0.447 C  
HETATM   11  O   UNL     1     -13.606   9.654  72.329  1.00  0.00    -0.438 OA 
HETATM   12  H   UNL     1     -12.003  11.870  70.702  1.00  0.00     0.000 HD 
HETATM   13  N   UNL     1     -12.677  11.515  71.379  1.00  0.00    -0.393 N  
BRANCH  13  14
HETATM   14  C   UNL     1     -13.525  12.450  72.081  1.00  0.00    -0.378 C  
BRANCH  14  15
HETATM   15  C   UNL     1     -12.960  13.846  72.037  1.00  0.00    -0.438 A  
HETATM   16  C   UNL     1     -12.467  14.390  70.841  1.00  0.00    -0.424 A  
HETATM   17  C   UNL     1     -11.957  15.691  70.814  1.00  0.00    -0.438 A  
HETATM   18  C   UNL     1     -11.929  16.456  71.979  1.00  0.00    -0.437 A  
HETATM   19  C   UNL     1     -12.404  15.921  73.174  1.00  0.00    -0.619 A  
HETATM   20  C   UNL     1     -12.913  14.622  73.204  1.00  0.00    -0.605 A  
ENDBRANCH  14  15
ENDBRANCH  13  14
ENDBRANCH   4  10
ENDBRANCH   3   4
ENDBRANCH   2   3
TORSDOF 6
ENDMDL
MODEL       41
REMARK 921   NORMALIZED FREE ENERGY PREDICTED BY IDOCK:   -5.01 KCAL/MOL
REMARK 922        TOTAL FREE ENERGY PREDICTED BY IDOCK:   -7.18 KCAL/MOL
REMARK 923 INTER-LIGAND FREE ENERGY PREDICTED BY IDOCK:   -7.51 KCAL/MOL
REMARK 924 INTRA-LIGAND FREE ENERGY PREDICTED BY IDOCK:    0.33 KCAL/MOL
REMARK 927      BINDING AFFINITY PREDICTED BY RF-SCORE:    0.00 PKD
ROOT
HETATM    1  C   UNL     1     -11.896  15.605  69.664  1.00  0.00    -0.362 C  
HETATM    2  O   UNL     1     -11.548  16.027  68.353  1.00  0.00    -0.364 OA 
ENDROOT
BRANCH   2   3
HETATM    3  C   UNL     1     -11.049  14.945  67.559  1.00  0.00    -0.317 C  
BRANCH   3   4
HETATM    4  C   UNL     1     -12.190  13.962  67.274  1.00  0.00    -0.289 C  
BRANCH   4   5
HETATM    5  N   UNL     1     -12.696  14.109  65.897  1.00  0.00    -0.449 N  
HETATM    6  C   UNL     1     -10.471  14.176  64.794  1.00  0.00    -0.432 C  
HETATM    7  O   UNL     1     -12.579  14.263  63.675  1.00  0.00    -0.831 OA 
HETATM    8  H   UNL     1     -13.710  14.152  65.796  1.00  0.00     0.000 HD 
HETATM    9  C   UNL     1     -11.976  14.194  64.744  1.00  0.00    -0.431 C  
ENDBRANCH   4   5
BRANCH   4  10
HETATM   10  C   UNL     1     -11.669  12.539  67.527  1.00  0.00    -0.374 C  
HETATM   11  O   UNL     1     -11.911  11.617  66.750  1.00  0.00    -0.557 OA 
HETATM   12  H   UNL     1     -10.930  13.126  69.375  1.00  0.00     0.000 HD 
HETATM   13  N   UNL     1     -11.034  12.340  68.735  1.00  0.00    -0.228 N  
BRANCH  13  14
HETATM   14  C   UNL     1     -10.513  11.049  69.119  1.00  0.00    -0.210 C  
BRANCH  14  15
HETATM   15  C   UNL     1     -11.318  10.441  70.238  1.00  0.00    -0.406 A  
HETATM   16  C   UNL     1     -12.388  11.136  70.820  1.00  0.00    -0.504 A  
HETATM   17  C   UNL     1     -13.133  10.554  71.850  1.00  0.00    -0.567 A  
HETATM   18  C   UNL     1     -12.811   9.279  72.311  1.00  0.00    -0.459 A  
HETATM   19  C   UNL     1     -11.741   8.585  71.750  1.00  0.00    -0.392 A  
HETATM   20  C   UNL     1     -10.996   9.165  70.722  1.00  0.00    -0.332 A  
ENDBRANCH  14  15
ENDBRANCH  13  14
ENDBRANCH   4  10
ENDBRANCH   3   4
ENDBRANCH   2   3
TORSDOF 6
ENDMDL
MODEL       42
REMARK 921   NORMALIZED FREE ENERGY PREDICTED BY IDOCK:   -4.98 KCAL/MOL
REMARK 922        TOTAL FREE ENERGY PREDICTED BY IDOCK:   -7.14 KCAL/MOL
REMARK 923 INTER-LIGAND FREE ENERGY PREDICTED BY IDOCK:   -6.63 KCAL/MOL
REMARK 924 INTRA-LIGAND FREE ENERGY PREDICTED BY IDOCK:   -0.50 KCAL/MOL
REMARK 927      BINDING AFFINITY PREDICTED BY RF-SCORE:    0.00 PKD
ROOT
HETATM    1  C   UNL     1      -9.583  10.508  62.928  1.00  0.00    -0.322 C  
HETATM    2  O   UNL     1      -9.845  11.893  63.108  1.00  0.00    -0.405 OA 
ENDROOT
BRANCH   2   3
HETATM    3  C   UNL     1     -11.165  12.127  63.610  1.00  0.00    -0.464 C  
BRANCH   3   4
HETATM    4  C   UNL     1     -11.072  12.920  64.919  1.00  0.00    -0.297 C  
BRANCH   4   5
HETATM    5  N   UNL     1      -9.707  12.888  65.473  1.00  0.00    -0.459 N  
HETATM    6  C   UNL     1     -10.104  11.026  67.070  1.00  0.00    -0.232 C  
HETATM    7  O   UNL     1      -8.020  12.142  66.728  1.00  0.00    -0.126 OA 
HETATM    8  H   UNL     1      -9.055  13.576  65.096  1.00  0.00     0.000 HD 
HETATM    9  C   UNL     1      -9.209  12.052  66.426  1.00  0.00    -0.216 C  
ENDBRANCH   4   5
BRANCH   4  10
HETATM   10  C   UNL     1     -11.527  14.361  64.638  1.00  0.00    -0.387 C  
HETATM   11  O   UNL     1     -12.493  14.602  63.918  1.00  0.00    -0.813 OA 
HETATM   12  H   UNL     1      -9.874  15.092  65.659  1.00  0.00     0.000 HD 
HETATM   13  N   UNL     1     -10.707  15.354  65.132  1.00  0.00    -0.414 N  
BRANCH  13  14
HETATM   14  C   UNL     1     -10.996  16.754  64.925  1.00  0.00    -0.087 C  
BRANCH  14  15
HETATM   15  C   UNL     1     -10.626  17.577  66.131  1.00  0.00    -0.211 A  
HETATM   16  C   UNL     1     -10.422  18.961  66.028  1.00  0.00    -0.507 A  
HETATM   17  C   UNL     1     -10.090  19.713  67.158  1.00  0.00    -0.533 A  
HETATM   18  C   UNL     1      -9.952  19.089  68.398  1.00  0.00    -0.473 A  
HETATM   19  C   UNL     1     -10.139  17.713  68.509  1.00  0.00    -0.375 A  
HETATM   20  C   UNL     1     -10.470  16.960  67.381  1.00  0.00    -0.310 A  
ENDBRANCH  14  15
ENDBRANCH  13  14
ENDBRANCH   4  10
ENDBRANCH   3   4
ENDBRANCH   2   3
TORSDOF 6
ENDMDL
MODEL       43
REMARK 921   NORMALIZED FREE ENERGY PREDICTED BY IDOCK:   -4.97 KCAL/MOL
REMARK 922        TOTAL FREE ENERGY PREDICTED BY IDOCK:   -7.12 KCAL/MOL
REMARK 923 INTER-LIGAND FREE ENERGY PREDICTED BY IDOCK:   -6.78 KCAL/MOL
REMARK 924 INTRA-LIGAND FREE ENERGY PREDICTED BY IDOCK:   -0.34 KCAL/MOL
REMARK 927      BINDING AFFINITY PREDICTED BY RF-SCORE:    0.00 PKD
ROOT
HETATM    1  C   UNL     1      -8.701  18.183  67.747  1.00  0.00    -0.255 C  
HETATM    2  O   UNL     1      -9.298  17.226  68.611  1.00  0.00    -0.261 OA 
ENDROOT
BRANCH   2   3
HETATM    3  C   UNL     1     -10.683  17.024  68.310  1.00  0.00    -0.372 C  
BRANCH   3   4
HETATM    4  C   UNL     1     -11.063  15.575  68.635  1.00  0.00    -0.297 C  
BRANCH   4   5
HETATM    5  N   UNL     1     -12.362  15.501  69.327  1.00  0.00    -0.606 N  
HETATM    6  C   UNL     1     -11.480  15.943  71.608  1.00  0.00    -0.473 C  
HETATM    7  O   UNL     1     -13.779  15.623  71.046  1.00  0.00    -0.582 OA 
HETATM    8  H   UNL     1     -13.170  15.295  68.740  1.00  0.00     0.000 HD 
HETATM    9  C   UNL     1     -12.614  15.673  70.655  1.00  0.00    -0.414 C  
ENDBRANCH   4   5
BRANCH   4  10
HETATM   10  C   UNL     1     -11.086  14.781  67.319  1.00  0.00    -0.332 C  
HETATM   11  O   UNL     1     -10.222  14.936  66.459  1.00  0.00    -0.262 OA 
HETATM   12  H   UNL     1     -12.925  13.965  67.831  1.00  0.00     0.000 HD 
HETATM   13  N   UNL     1     -12.200  13.995  67.115  1.00  0.00    -0.388 N  
BRANCH  13  14
HETATM   14  C   UNL     1     -12.370  13.211  65.913  1.00  0.00    -0.398 C  
BRANCH  14  15
HETATM   15  C   UNL     1     -11.456  12.014  65.902  1.00  0.00    -0.392 A  
HETATM   16  C   UNL     1     -11.179  11.304  67.080  1.00  0.00    -0.324 A  
HETATM   17  C   UNL     1     -10.338  10.188  67.051  1.00  0.00    -0.303 A  
HETATM   18  C   UNL     1      -9.762   9.777  65.850  1.00  0.00    -0.332 A  
HETATM   19  C   UNL     1     -10.020  10.483  64.677  1.00  0.00    -0.415 A  
HETATM   20  C   UNL     1     -10.859  11.598  64.704  1.00  0.00    -0.373 A  
ENDBRANCH  14  15
ENDBRANCH  13  14
ENDBRANCH   4  10
ENDBRANCH   3   4
ENDBRANCH   2   3
TORSDOF 6
ENDMDL
MODEL       44
REMARK 921   NORMALIZED FREE ENERGY PREDICTED BY IDOCK:   -4.96 KCAL/MOL
REMARK 922        TOTAL FREE ENERGY PREDICTED BY IDOCK:   -7.11 KCAL/MOL
REMARK 923 INTER-LIGAND FREE ENERGY PREDICTED BY IDOCK:   -6.62 KCAL/MOL
REMARK 924 INTRA-LIGAND FREE ENERGY PREDICTED BY IDOCK:   -0.49 KCAL/MOL
REMARK 927      BINDING AFFINITY PREDICTED BY RF-SCORE:    0.00 PKD
ROOT
HETATM    1  C   UNL     1      -9.603   9.903  65.301  1.00  0.00    -0.295 C  
HETATM    2  O   UNL     1     -10.389  10.275  66.424  1.00  0.00    -0.228 OA 
ENDROOT
BRANCH   2   3
HETATM    3  C   UNL     1      -9.828  11.392  67.123  1.00  0.00    -0.190 C  
BRANCH   3   4
HETATM    4  C   UNL     1     -10.711  11.726  68.330  1.00  0.00    -0.219 C  
BRANCH   4   5
HETATM    5  N   UNL     1     -10.360  10.900  69.500  1.00  0.00    -0.417 N  
HETATM    6  C   UNL     1     -12.686  10.563  70.305  1.00  0.00    -0.255 C  
HETATM    7  O   UNL     1     -10.724   9.633  71.300  1.00  0.00    -0.335 OA 
HETATM    8  H   UNL     1      -9.364  10.730  69.644  1.00  0.00     0.000 HD 
HETATM    9  C   UNL     1     -11.202  10.337  70.411  1.00  0.00    -0.332 C  
ENDBRANCH   4   5
BRANCH   4  10
HETATM   10  C   UNL     1     -10.555  13.223  68.638  1.00  0.00    -0.246 C  
HETATM   11  O   UNL     1      -9.460  13.779  68.587  1.00  0.00    -0.189 OA 
HETATM   12  H   UNL     1     -12.552  13.330  69.193  1.00  0.00     0.000 HD 
HETATM   13  N   UNL     1     -11.687  13.862  69.097  1.00  0.00    -0.313 N  
BRANCH  13  14
HETATM   14  C   UNL     1     -11.683  15.263  69.448  1.00  0.00    -0.341 C  
BRANCH  14  15
HETATM   15  C   UNL     1     -12.334  15.497  70.786  1.00  0.00    -0.463 A  
HETATM   16  C   UNL     1     -13.702  15.249  70.979  1.00  0.00    -0.452 A  
HETATM   17  C   UNL     1     -14.288  15.460  72.229  1.00  0.00    -0.576 A  
HETATM   18  C   UNL     1     -13.519  15.928  73.294  1.00  0.00    -0.599 A  
HETATM   19  C   UNL     1     -12.163  16.192  73.109  1.00  0.00    -0.643 A  
HETATM   20  C   UNL     1     -11.575  15.981  71.861  1.00  0.00    -0.524 A  
ENDBRANCH  14  15
ENDBRANCH  13  14
ENDBRANCH   4  10
ENDBRANCH   3   4
ENDBRANCH   2   3
TORSDOF 6
ENDMDL
MODEL       45
REMARK 921   NORMALIZED FREE ENERGY PREDICTED BY IDOCK:   -4.95 KCAL/MOL
REMARK 922        TOTAL FREE ENERGY PREDICTED BY IDOCK:   -7.09 KCAL/MOL
REMARK 923 INTER-LIGAND FREE ENERGY PREDICTED BY IDOCK:   -6.60 KCAL/MOL
REMARK 924 INTRA-LIGAND FREE ENERGY PREDICTED BY IDOCK:   -0.50 KCAL/MOL
REMARK 927      BINDING AFFINITY PREDICTED BY RF-SCORE:    0.00 PKD
ROOT
HETATM    1  C   UNL     1     -13.457   9.707  72.056  1.00  0.00    -0.428 C  
HETATM    2  O   UNL     1     -13.390  11.002  71.477  1.00  0.00    -0.321 OA 
ENDROOT
BRANCH   2   3
HETATM    3  C   UNL     1     -12.089  11.286  70.952  1.00  0.00    -0.301 C  
BRANCH   3   4
HETATM    4  C   UNL     1     -12.180  12.488  70.004  1.00  0.00    -0.192 C  
BRANCH   4   5
HETATM    5  N   UNL     1     -11.565  13.689  70.596  1.00  0.00    -0.503 N  
HETATM    6  C   UNL     1     -13.678  14.694  71.432  1.00  0.00    -0.474 C  
HETATM    7  O   UNL     1     -11.492  15.607  71.734  1.00  0.00    -0.398 OA 
HETATM    8  H   UNL     1     -10.553  13.770  70.494  1.00  0.00     0.000 HD 
HETATM    9  C   UNL     1     -12.182  14.704  71.263  1.00  0.00    -0.348 C  
ENDBRANCH   4   5
BRANCH   4  10
HETATM   10  C   UNL     1     -11.496  12.106  68.682  1.00  0.00    -0.296 C  
HETATM   11  O   UNL     1     -11.663  11.002  68.167  1.00  0.00    -0.497 OA 
HETATM   12  H   UNL     1     -10.435  13.889  68.702  1.00  0.00     0.000 HD 
HETATM   13  N   UNL     1     -10.591  13.022  68.190  1.00  0.00    -0.238 N  
BRANCH  13  14
HETATM   14  C   UNL     1      -9.856  12.787  66.969  1.00  0.00    -0.231 C  
BRANCH  14  15
HETATM   15  C   UNL     1     -10.713  13.031  65.754  1.00  0.00    -0.291 A  
HETATM   16  C   UNL     1     -10.762  12.101  64.705  1.00  0.00    -0.346 A  
HETATM   17  C   UNL     1     -11.571  12.336  63.590  1.00  0.00    -0.581 A  
HETATM   18  C   UNL     1     -12.331  13.502  63.510  1.00  0.00    -0.343 A  
HETATM   19  C   UNL     1     -12.279  14.438  64.540  1.00  0.00    -0.483 A  
HETATM   20  C   UNL     1     -11.472  14.206  65.654  1.00  0.00    -0.325 A  
ENDBRANCH  14  15
ENDBRANCH  13  14
ENDBRANCH   4  10
ENDBRANCH   3   4
ENDBRANCH   2   3
TORSDOF 6
ENDMDL
MODEL       46
REMARK 921   NORMALIZED FREE ENERGY PREDICTED BY IDOCK:   -4.94 KCAL/MOL
REMARK 922        TOTAL FREE ENERGY PREDICTED BY IDOCK:   -7.08 KCAL/MOL
REMARK 923 INTER-LIGAND FREE ENERGY PREDICTED BY IDOCK:   -6.50 KCAL/MOL
REMARK 924 INTRA-LIGAND FREE ENERGY PREDICTED BY IDOCK:   -0.58 KCAL/MOL
REMARK 927      BINDING AFFINITY PREDICTED BY RF-SCORE:    0.00 PKD
ROOT
HETATM    1  C   UNL     1     -12.019  15.335  72.658  1.00  0.00    -0.431 C  
HETATM    2  O   UNL     1     -11.816  16.149  71.511  1.00  0.00    -0.456 OA 
ENDROOT
BRANCH   2   3
HETATM    3  C   UNL     1     -12.509  15.640  70.367  1.00  0.00    -0.371 C  
BRANCH   3   4
HETATM    4  C   UNL     1     -11.621  15.805  69.127  1.00  0.00    -0.392 C  
BRANCH   4   5
HETATM    5  N   UNL     1     -10.574  16.819  69.346  1.00  0.00    -0.336 N  
HETATM    6  C   UNL     1     -10.731  17.863  67.096  1.00  0.00    -0.241 C  
HETATM    7  O   UNL     1      -9.286  18.575  68.859  1.00  0.00    -0.285 OA 
HETATM    8  H   UNL     1     -10.116  16.799  70.257  1.00  0.00     0.000 HD 
HETATM    9  C   UNL     1     -10.142  17.778  68.479  1.00  0.00    -0.377 C  
ENDBRANCH   4   5
BRANCH   4  10
HETATM   10  C   UNL     1     -11.010  14.436  68.791  1.00  0.00    -0.250 C  
HETATM   11  O   UNL     1     -10.001  14.335  68.097  1.00  0.00    -0.218 OA 
HETATM   12  H   UNL     1     -12.610  13.485  69.709  1.00  0.00     0.000 HD 
HETATM   13  N   UNL     1     -11.737  13.339  69.203  1.00  0.00    -0.310 N  
BRANCH  13  14
HETATM   14  C   UNL     1     -11.298  11.989  68.936  1.00  0.00    -0.278 C  
BRANCH  14  15
HETATM   15  C   UNL     1     -11.673  11.056  70.057  1.00  0.00    -0.437 A  
HETATM   16  C   UNL     1     -12.732  11.357  70.926  1.00  0.00    -0.397 A  
HETATM   17  C   UNL     1     -13.076  10.476  71.955  1.00  0.00    -0.567 A  
HETATM   18  C   UNL     1     -12.361   9.291  72.129  1.00  0.00    -0.398 A  
HETATM   19  C   UNL     1     -11.299   8.989  71.280  1.00  0.00    -0.389 A  
HETATM   20  C   UNL     1     -10.954   9.868  70.253  1.00  0.00    -0.366 A  
ENDBRANCH  14  15
ENDBRANCH  13  14
ENDBRANCH   4  10
ENDBRANCH   3   4
ENDBRANCH   2   3
TORSDOF 6
ENDMDL
MODEL       47
REMARK 921   NORMALIZED FREE ENERGY PREDICTED BY IDOCK:   -4.94 KCAL/MOL
REMARK 922        TOTAL FREE ENERGY PREDICTED BY IDOCK:   -7.07 KCAL/MOL
REMARK 923 INTER-LIGAND FREE ENERGY PREDICTED BY IDOCK:   -6.65 KCAL/MOL
REMARK 924 INTRA-LIGAND FREE ENERGY PREDICTED BY IDOCK:   -0.42 KCAL/MOL
REMARK 927      BINDING AFFINITY PREDICTED BY RF-SCORE:    0.00 PKD
ROOT
HETATM    1  C   UNL     1      -6.774  19.249  68.909  1.00  0.00    -0.312 C  
HETATM    2  O   UNL     1      -7.778  18.759  68.031  1.00  0.00    -0.251 OA 
ENDROOT
BRANCH   2   3
HETATM    3  C   UNL     1      -8.253  17.469  68.430  1.00  0.00    -0.278 C  
BRANCH   3   4
HETATM    4  C   UNL     1      -9.781  17.437  68.311  1.00  0.00    -0.299 C  
BRANCH   4   5
HETATM    5  N   UNL     1     -10.210  17.288  66.909  1.00  0.00    -0.314 N  
HETATM    6  C   UNL     1     -10.781  19.679  66.544  1.00  0.00    -0.543 C  
HETATM    7  O   UNL     1     -10.920  17.951  64.901  1.00  0.00    -0.827 OA 
HETATM    8  H   UNL     1     -10.171  16.343  66.527  1.00  0.00     0.000 HD 
HETATM    9  C   UNL     1     -10.652  18.258  66.061  1.00  0.00    -0.296 C  
ENDBRANCH   4   5
BRANCH   4  10
HETATM   10  C   UNL     1     -10.303  16.281  69.180  1.00  0.00    -0.272 C  
HETATM   11  O   UNL     1      -9.552  15.631  69.903  1.00  0.00    -0.262 OA 
HETATM   12  H   UNL     1     -12.183  16.469  68.320  1.00  0.00     0.000 HD 
HETATM   13  N   UNL     1     -11.627  15.942  68.992  1.00  0.00    -0.390 N  
BRANCH  13  14
HETATM   14  C   UNL     1     -12.247  14.861  69.722  1.00  0.00    -0.287 C  
BRANCH  14  15
HETATM   15  C   UNL     1     -11.973  13.530  69.073  1.00  0.00    -0.376 A  
HETATM   16  C   UNL     1     -11.912  12.353  69.834  1.00  0.00    -0.369 A  
HETATM   17  C   UNL     1     -11.668  11.124  69.217  1.00  0.00    -0.401 A  
HETATM   18  C   UNL     1     -11.476  11.060  67.837  1.00  0.00    -0.358 A  
HETATM   19  C   UNL     1     -11.520  12.224  67.074  1.00  0.00    -0.419 A  
HETATM   20  C   UNL     1     -11.764  13.453  67.689  1.00  0.00    -0.397 A  
ENDBRANCH  14  15
ENDBRANCH  13  14
ENDBRANCH   4  10
ENDBRANCH   3   4
ENDBRANCH   2   3
TORSDOF 6
ENDMDL
MODEL       48
REMARK 921   NORMALIZED FREE ENERGY PREDICTED BY IDOCK:   -4.93 KCAL/MOL
REMARK 922        TOTAL FREE ENERGY PREDICTED BY IDOCK:   -7.07 KCAL/MOL
REMARK 923 INTER-LIGAND FREE ENERGY PREDICTED BY IDOCK:   -6.56 KCAL/MOL
REMARK 924 INTRA-LIGAND FREE ENERGY PREDICTED BY IDOCK:   -0.51 KCAL/MOL
REMARK 927      BINDING AFFINITY PREDICTED BY RF-SCORE:    0.00 PKD
ROOT
HETATM    1  C   UNL     1     -12.319  12.745  64.762  1.00  0.00    -0.478 C  
HETATM    2  O   UNL     1     -12.235  12.457  66.150  1.00  0.00    -0.635 OA 
ENDROOT
BRANCH   2   3
HETATM    3  C   UNL     1     -12.241  13.648  66.944  1.00  0.00    -0.352 C  
BRANCH   3   4
HETATM    4  C   UNL     1     -12.249  13.263  68.429  1.00  0.00    -0.065 C  
BRANCH   4   5
HETATM    5  N   UNL     1     -11.420  12.071  68.681  1.00  0.00    -0.270 N  
HETATM    6  C   UNL     1     -12.724  11.239  70.626  1.00  0.00    -0.314 C  
HETATM    7  O   UNL     1     -10.822  10.160  69.665  1.00  0.00    -0.228 OA 
HETATM    8  H   UNL     1     -10.620  11.943  68.061  1.00  0.00     0.000 HD 
HETATM    9  C   UNL     1     -11.592  11.118  69.640  1.00  0.00    -0.326 C  
ENDBRANCH   4   5
BRANCH   4  10
HETATM   10  C   UNL     1     -11.750  14.471  69.238  1.00  0.00    -0.310 C  
HETATM   11  O   UNL     1     -12.190  14.721  70.357  1.00  0.00    -0.295 OA 
HETATM   12  H   UNL     1     -10.614  15.100  67.619  1.00  0.00     0.000 HD 
HETATM   13  N   UNL     1     -10.885  15.317  68.577  1.00  0.00    -0.244 N  
BRANCH  13  14
HETATM   14  C   UNL     1     -10.353  16.505  69.204  1.00  0.00    -0.316 C  
BRANCH  14  15
HETATM   15  C   UNL     1     -10.311  17.663  68.243  1.00  0.00    -0.384 A  
HETATM   16  C   UNL     1     -10.122  18.976  68.700  1.00  0.00    -0.449 A  
HETATM   17  C   UNL     1     -10.073  20.040  67.795  1.00  0.00    -0.563 A  
HETATM   18  C   UNL     1     -10.220  19.803  66.429  1.00  0.00    -0.614 A  
HETATM   19  C   UNL     1     -10.422  18.505  65.965  1.00  0.00    -0.433 A  
HETATM   20  C   UNL     1     -10.471  17.442  66.868  1.00  0.00    -0.279 A  
ENDBRANCH  14  15
ENDBRANCH  13  14
ENDBRANCH   4  10
ENDBRANCH   3   4
ENDBRANCH   2   3
TORSDOF 6
ENDMDL
MODEL       49
REMARK 921   NORMALIZED FREE ENERGY PREDICTED BY IDOCK:   -4.93 KCAL/MOL
REMARK 922        TOTAL FREE ENERGY PREDICTED BY IDOCK:   -7.06 KCAL/MOL
REMARK 923 INTER-LIGAND FREE ENERGY PREDICTED BY IDOCK:   -6.53 KCAL/MOL
REMARK 924 INTRA-LIGAND FREE ENERGY PREDICTED BY IDOCK:   -0.53 KCAL/MOL
REMARK 927      BINDING AFFINITY PREDICTED BY RF-SCORE:    0.00 PKD
ROOT
HETATM    1  C   UNL     1     -12.082  12.240  64.152  1.00  0.00    -0.436 C  
HETATM    2  O   UNL     1     -12.634  12.404  65.451  1.00  0.00    -0.637 OA 
ENDROOT
BRANCH   2   3
HETATM    3  C   UNL     1     -11.628  12.705  66.424  1.00  0.00    -0.384 C  
BRANCH   3   4
HETATM    4  C   UNL     1     -10.877  11.419  66.786  1.00  0.00    -0.286 C  
BRANCH   4   5
HETATM    5  N   UNL     1      -9.433  11.545  66.516  1.00  0.00    -0.199 N  
HETATM    6  C   UNL     1      -9.090   9.198  65.774  1.00  0.00    -0.265 C  
HETATM    7  O   UNL     1      -7.411  10.895  65.834  1.00  0.00    -0.126 OA 
HETATM    8  H   UNL     1      -9.021  12.458  66.704  1.00  0.00     0.000 HD 
HETATM    9  C   UNL     1      -8.583  10.589  66.046  1.00  0.00    -0.160 C  
ENDBRANCH   4   5
BRANCH   4  10
HETATM   10  C   UNL     1     -11.142  11.112  68.269  1.00  0.00    -0.251 C  
HETATM   11  O   UNL     1     -10.826  10.035  68.769  1.00  0.00    -0.214 OA 
HETATM   12  H   UNL     1     -12.172  12.903  68.466  1.00  0.00     0.000 HD 
HETATM   13  N   UNL     1     -11.869  12.061  68.955  1.00  0.00    -0.320 N  
BRANCH  13  14
HETATM   14  C   UNL     1     -12.214  11.896  70.348  1.00  0.00    -0.314 C  
BRANCH  14  15
HETATM   15  C   UNL     1     -12.544  13.216  70.994  1.00  0.00    -0.397 A  
HETATM   16  C   UNL     1     -13.439  13.291  72.072  1.00  0.00    -0.596 A  
HETATM   17  C   UNL     1     -13.726  14.522  72.668  1.00  0.00    -0.543 A  
HETATM   18  C   UNL     1     -13.130  15.687  72.189  1.00  0.00    -0.540 A  
HETATM   19  C   UNL     1     -12.251  15.626  71.110  1.00  0.00    -0.466 A  
HETATM   20  C   UNL     1     -11.963  14.398  70.513  1.00  0.00    -0.395 A  
ENDBRANCH  14  15
ENDBRANCH  13  14
ENDBRANCH   4  10
ENDBRANCH   3   4
ENDBRANCH   2   3
TORSDOF 6
ENDMDL
MODEL       50
REMARK 921   NORMALIZED FREE ENERGY PREDICTED BY IDOCK:   -4.92 KCAL/MOL
REMARK 922        TOTAL FREE ENERGY PREDICTED BY IDOCK:   -7.05 KCAL/MOL
REMARK 923 INTER-LIGAND FREE ENERGY PREDICTED BY IDOCK:   -6.48 KCAL/MOL
REMARK 924 INTRA-LIGAND FREE ENERGY PREDICTED BY IDOCK:   -0.57 KCAL/MOL
REMARK 927      BINDING AFFINITY PREDICTED BY RF-SCORE:    0.00 PKD
ROOT
HETATM    1  C   UNL     1      -9.142  14.963  67.622  1.00  0.00    -0.183 C  
HETATM    2  O   UNL     1      -9.080  13.640  68.136  1.00  0.00    -0.185 OA 
ENDROOT
BRANCH   2   3
HETATM    3  C   UNL     1      -9.871  12.730  67.365  1.00  0.00    -0.210 C  
BRANCH   3   4
HETATM    4  C   UNL     1     -11.329  13.203  67.367  1.00  0.00    -0.306 C  
BRANCH   4   5
HETATM    5  N   UNL     1     -12.104  12.564  66.289  1.00  0.00    -0.340 N  
HETATM    6  C   UNL     1     -11.989  14.473  64.702  1.00  0.00    -0.478 C  
HETATM    7  O   UNL     1     -13.037  12.371  64.271  1.00  0.00    -0.756 OA 
HETATM    8  H   UNL     1     -12.448  11.623  66.482  1.00  0.00     0.000 HD 
HETATM    9  C   UNL     1     -12.419  13.077  65.066  1.00  0.00    -0.477 C  
ENDBRANCH   4   5
BRANCH   4  10
HETATM   10  C   UNL     1     -11.930  12.891  68.747  1.00  0.00    -0.253 C  
HETATM   11  O   UNL     1     -12.223  13.785  69.538  1.00  0.00    -0.333 OA 
HETATM   12  H   UNL     1     -11.664  10.860  68.416  1.00  0.00     0.000 HD 
HETATM   13  N   UNL     1     -11.993  11.556  69.084  1.00  0.00    -0.330 N  
BRANCH  13  14
HETATM   14  C   UNL     1     -12.513  11.115  70.357  1.00  0.00    -0.299 C  
BRANCH  14  15
HETATM   15  C   UNL     1     -11.650  10.039  70.962  1.00  0.00    -0.476 A  
HETATM   16  C   UNL     1     -10.314   9.875  70.566  1.00  0.00    -0.298 A  
HETATM   17  C   UNL     1      -9.522   8.880  71.145  1.00  0.00    -0.335 A  
HETATM   18  C   UNL     1     -10.059   8.036  72.117  1.00  0.00    -0.298 A  
HETATM   19  C   UNL     1     -11.388   8.182  72.507  1.00  0.00    -0.469 A  
HETATM   20  C   UNL     1     -12.180   9.174  71.931  1.00  0.00    -0.449 A  
ENDBRANCH  14  15
ENDBRANCH  13  14
ENDBRANCH   4  10
ENDBRANCH   3   4
ENDBRANCH   2   3
TORSDOF 6
ENDMDL
MODEL       51
REMARK 921   NORMALIZED FREE ENERGY PREDICTED BY IDOCK:   -4.91 KCAL/MOL
REMARK 922        TOTAL FREE ENERGY PREDICTED BY IDOCK:   -7.04 KCAL/MOL
REMARK 923 INTER-LIGAND FREE ENERGY PREDICTED BY IDOCK:   -6.54 KCAL/MOL
REMARK 924 INTRA-LIGAND FREE ENERGY PREDICTED BY IDOCK:   -0.50 KCAL/MOL
REMARK 927      BINDING AFFINITY PREDICTED BY RF-SCORE:    0.00 PKD
ROOT
HETATM    1  C   UNL     1     -10.581  17.043  68.724  1.00  0.00    -0.346 C  
HETATM    2  O   UNL     1     -10.506  15.966  69.648  1.00  0.00    -0.252 OA 
ENDROOT
BRANCH   2   3
HETATM    3  C   UNL     1     -11.801  15.567  70.109  1.00  0.00    -0.356 C  
BRANCH   3   4
HETATM    4  C   UNL     1     -12.040  14.101  69.730  1.00  0.00    -0.354 C  
BRANCH   4   5
HETATM    5  N   UNL     1     -10.803  13.460  69.249  1.00  0.00    -0.436 N  
HETATM    6  C   UNL     1     -11.714  12.723  67.057  1.00  0.00    -0.440 C  
HETATM    7  O   UNL     1      -9.469  12.405  67.805  1.00  0.00    -0.186 OA 
HETATM    8  H   UNL     1     -10.009  13.484  69.889  1.00  0.00     0.000 HD 
HETATM    9  C   UNL     1     -10.592  12.841  68.054  1.00  0.00    -0.226 C  
ENDBRANCH   4   5
BRANCH   4  10
HETATM   10  C   UNL     1     -12.601  13.374  70.963  1.00  0.00    -0.343 C  
HETATM   11  O   UNL     1     -12.847  13.975  72.007  1.00  0.00    -0.335 OA 
HETATM   12  H   UNL     1     -12.389  11.550  69.998  1.00  0.00     0.000 HD 
HETATM   13  N   UNL     1     -12.681  12.001  70.864  1.00  0.00    -0.256 N  
BRANCH  13  14
HETATM   14  C   UNL     1     -13.166  11.185  71.952  1.00  0.00    -0.382 C  
BRANCH  14  15
HETATM   15  C   UNL     1     -12.872   9.727  71.721  1.00  0.00    -0.530 A  
HETATM   16  C   UNL     1     -11.564   9.283  71.470  1.00  0.00    -0.452 A  
HETATM   17  C   UNL     1     -11.305   7.925  71.269  1.00  0.00    -0.289 A  
HETATM   18  C   UNL     1     -12.348   7.000  71.309  1.00  0.00    -0.426 A  
HETATM   19  C   UNL     1     -13.651   7.431  71.543  1.00  0.00    -0.454 A  
HETATM   20  C   UNL     1     -13.913   8.787  71.744  1.00  0.00    -0.475 A  
ENDBRANCH  14  15
ENDBRANCH  13  14
ENDBRANCH   4  10
ENDBRANCH   3   4
ENDBRANCH   2   3
TORSDOF 6
ENDMDL
MODEL       52
REMARK 921   NORMALIZED FREE ENERGY PREDICTED BY IDOCK:   -4.91 KCAL/MOL
REMARK 922        TOTAL FREE ENERGY PREDICTED BY IDOCK:   -7.04 KCAL/MOL
REMARK 923 INTER-LIGAND FREE ENERGY PREDICTED BY IDOCK:   -6.52 KCAL/MOL
REMARK 924 INTRA-LIGAND FREE ENERGY PREDICTED BY IDOCK:   -0.52 KCAL/MOL
REMARK 927      BINDING AFFINITY PREDICTED BY RF-SCORE:    0.00 PKD
ROOT
HETATM    1  C   UNL     1     -10.515   5.959  69.435  1.00  0.00    -0.275 C  
HETATM    2  O   UNL     1     -11.722   6.455  69.996  1.00  0.00    -0.429 OA 
ENDROOT
BRANCH   2   3
HETATM    3  C   UNL     1     -11.544   7.744  70.594  1.00  0.00    -0.218 C  
BRANCH   3   4
HETATM    4  C   UNL     1     -12.130   7.726  72.011  1.00  0.00    -0.311 C  
BRANCH   4   5
HETATM    5  N   UNL     1     -11.068   7.716  73.033  1.00  0.00    -0.480 N  
HETATM    6  C   UNL     1     -10.897   5.245  73.223  1.00  0.00    -0.349 C  
HETATM    7  O   UNL     1      -9.555   6.825  74.409  1.00  0.00    -0.242 OA 
HETATM    8  H   UNL     1     -10.747   8.630  73.353  1.00  0.00     0.000 HD 
HETATM    9  C   UNL     1     -10.464   6.636  73.603  1.00  0.00    -0.330 C  
ENDBRANCH   4   5
BRANCH   4  10
HETATM   10  C   UNL     1     -13.041   8.954  72.166  1.00  0.00    -0.421 C  
HETATM   11  O   UNL     1     -14.208   8.846  72.536  1.00  0.00    -0.527 OA 
HETATM   12  H   UNL     1     -11.560  10.168  71.366  1.00  0.00     0.000 HD 
HETATM   13  N   UNL     1     -12.509  10.152  71.737  1.00  0.00    -0.393 N  
BRANCH  13  14
HETATM   14  C   UNL     1     -13.259  11.385  71.800  1.00  0.00    -0.367 C  
BRANCH  14  15
HETATM   15  C   UNL     1     -12.640  12.451  70.936  1.00  0.00    -0.337 A  
HETATM   16  C   UNL     1     -12.883  13.811  71.178  1.00  0.00    -0.409 A  
HETATM   17  C   UNL     1     -12.291  14.789  70.374  1.00  0.00    -0.402 A  
HETATM   18  C   UNL     1     -11.459  14.419  69.319  1.00  0.00    -0.323 A  
HETATM   19  C   UNL     1     -11.222  13.070  69.061  1.00  0.00    -0.316 A  
HETATM   20  C   UNL     1     -11.812  12.092  69.862  1.00  0.00    -0.392 A  
ENDBRANCH  14  15
ENDBRANCH  13  14
ENDBRANCH   4  10
ENDBRANCH   3   4
ENDBRANCH   2   3
TORSDOF 6
ENDMDL
MODEL       53
REMARK 921   NORMALIZED FREE ENERGY PREDICTED BY IDOCK:   -4.91 KCAL/MOL
REMARK 922        TOTAL FREE ENERGY PREDICTED BY IDOCK:   -7.04 KCAL/MOL
REMARK 923 INTER-LIGAND FREE ENERGY PREDICTED BY IDOCK:   -6.50 KCAL/MOL
REMARK 924 INTRA-LIGAND FREE ENERGY PREDICTED BY IDOCK:   -0.53 KCAL/MOL
REMARK 927      BINDING AFFINITY PREDICTED BY RF-SCORE:    0.00 PKD
ROOT
HETATM    1  C   UNL     1      -9.001  11.023  62.550  1.00  0.00    -0.326 C  
HETATM    2  O   UNL     1      -9.080  10.512  63.873  1.00  0.00    -0.198 OA 
ENDROOT
BRANCH   2   3
HETATM    3  C   UNL     1     -10.362  10.750  64.462  1.00  0.00    -0.331 C  
BRANCH   3   4
HETATM    4  C   UNL     1     -10.366  12.137  65.116  1.00  0.00    -0.279 C  
BRANCH   4   5
HETATM    5  N   UNL     1     -11.533  12.930  64.690  1.00  0.00    -0.313 N  
HETATM    6  C   UNL     1     -10.465  15.157  64.969  1.00  0.00    -0.418 C  
HETATM    7  O   UNL     1     -12.680  14.770  64.164  1.00  0.00    -0.758 OA 
HETATM    8  H   UNL     1     -12.367  12.400  64.442  1.00  0.00     0.000 HD 
HETATM    9  C   UNL     1     -11.632  14.285  64.589  1.00  0.00    -0.408 C  
ENDBRANCH   4   5
BRANCH   4  10
HETATM   10  C   UNL     1     -10.347  11.946  66.641  1.00  0.00    -0.211 C  
HETATM   11  O   UNL     1      -9.327  11.602  67.233  1.00  0.00    -0.166 OA 
HETATM   12  H   UNL     1     -12.396  12.268  66.717  1.00  0.00     0.000 HD 
HETATM   13  N   UNL     1     -11.568  12.056  67.272  1.00  0.00    -0.329 N  
BRANCH  13  14
HETATM   14  C   UNL     1     -11.707  11.878  68.699  1.00  0.00    -0.323 C  
BRANCH  14  15
HETATM   15  C   UNL     1     -11.908  13.195  69.401  1.00  0.00    -0.383 A  
HETATM   16  C   UNL     1     -12.305  13.246  70.746  1.00  0.00    -0.425 A  
HETATM   17  C   UNL     1     -12.476  14.475  71.387  1.00  0.00    -0.423 A  
HETATM   18  C   UNL     1     -12.260  15.664  70.690  1.00  0.00    -0.446 A  
HETATM   19  C   UNL     1     -11.879  15.625  69.350  1.00  0.00    -0.391 A  
HETATM   20  C   UNL     1     -11.708  14.398  68.709  1.00  0.00    -0.372 A  
ENDBRANCH  14  15
ENDBRANCH  13  14
ENDBRANCH   4  10
ENDBRANCH   3   4
ENDBRANCH   2   3
TORSDOF 6
ENDMDL
MODEL       54
REMARK 921   NORMALIZED FREE ENERGY PREDICTED BY IDOCK:   -4.90 KCAL/MOL
REMARK 922        TOTAL FREE ENERGY PREDICTED BY IDOCK:   -7.03 KCAL/MOL
REMARK 923 INTER-LIGAND FREE ENERGY PREDICTED BY IDOCK:   -6.45 KCAL/MOL
REMARK 924 INTRA-LIGAND FREE ENERGY PREDICTED BY IDOCK:   -0.58 KCAL/MOL
REMARK 927      BINDING AFFINITY PREDICTED BY RF-SCORE:    0.00 PKD
ROOT
HETATM    1  C   UNL     1     -12.339  15.309  70.309  1.00  0.00    -0.366 C  
HETATM    2  O   UNL     1     -12.164  15.675  68.948  1.00  0.00    -0.251 OA 
ENDROOT
BRANCH   2   3
HETATM    3  C   UNL     1     -10.805  16.020  68.658  1.00  0.00    -0.301 C  
BRANCH   3   4
HETATM    4  C   UNL     1     -10.528  15.769  67.171  1.00  0.00    -0.309 C  
BRANCH   4   5
HETATM    5  N   UNL     1     -11.745  15.334  66.462  1.00  0.00    -0.031 N  
HETATM    6  C   UNL     1     -10.598  13.830  64.851  1.00  0.00    -0.427 C  
HETATM    7  O   UNL     1     -12.957  14.174  64.992  1.00  0.00    -0.721 OA 
HETATM    8  H   UNL     1     -12.622  15.741  66.788  1.00  0.00     0.000 HD 
HETATM    9  C   UNL     1     -11.841  14.455  65.426  1.00  0.00    -0.366 C  
ENDBRANCH   4   5
BRANCH   4  10
HETATM   10  C   UNL     1      -9.963  17.064  66.566  1.00  0.00    -0.310 C  
HETATM   11  O   UNL     1      -9.348  17.061  65.501  1.00  0.00    -0.457 OA 
HETATM   12  H   UNL     1     -10.526  18.117  68.263  1.00  0.00     0.000 HD 
HETATM   13  N   UNL     1     -10.073  18.191  67.352  1.00  0.00    -0.334 N  
BRANCH  13  14
HETATM   14  C   UNL     1      -9.566  19.473  66.923  1.00  0.00    -0.347 C  
BRANCH  14  15
HETATM   15  C   UNL     1      -8.275  19.815  67.619  1.00  0.00    -0.340 A  
HETATM   16  C   UNL     1      -7.393  20.765  67.082  1.00  0.00    -0.385 A  
HETATM   17  C   UNL     1      -6.204  21.080  67.745  1.00  0.00    -0.414 A  
HETATM   18  C   UNL     1      -5.883  20.447  68.945  1.00  0.00    -0.356 A  
HETATM   19  C   UNL     1      -6.746  19.492  69.480  1.00  0.00    -0.354 A  
HETATM   20  C   UNL     1      -7.933  19.175  68.819  1.00  0.00    -0.382 A  
ENDBRANCH  14  15
ENDBRANCH  13  14
ENDBRANCH   4  10
ENDBRANCH   3   4
ENDBRANCH   2   3
TORSDOF 6
ENDMDL
MODEL       55
REMARK 921   NORMALIZED FREE ENERGY PREDICTED BY IDOCK:   -4.89 KCAL/MOL
REMARK 922        TOTAL FREE ENERGY PREDICTED BY IDOCK:   -7.01 KCAL/MOL
REMARK 923 INTER-LIGAND FREE ENERGY PREDICTED BY IDOCK:   -6.59 KCAL/MOL
REMARK 924 INTRA-LIGAND FREE ENERGY PREDICTED BY IDOCK:   -0.42 KCAL/MOL
REMARK 927      BINDING AFFINITY PREDICTED BY RF-SCORE:    0.00 PKD
ROOT
HETATM    1  C   UNL     1      -9.231   6.977  68.617  1.00  0.00    -0.131 C  
HETATM    2  O   UNL     1      -9.351   8.297  69.129  1.00  0.00    -0.151 OA 
ENDROOT
BRANCH   2   3
HETATM    3  C   UNL     1     -10.709   8.630  69.435  1.00  0.00    -0.158 C  
BRANCH   3   4
HETATM    4  C   UNL     1     -10.875  10.154  69.395  1.00  0.00    -0.241 C  
BRANCH   4   5
HETATM    5  N   UNL     1     -11.607  10.585  68.191  1.00  0.00    -0.469 N  
HETATM    6  C   UNL     1     -10.270  12.639  67.779  1.00  0.00    -0.222 C  
HETATM    7  O   UNL     1     -12.062  11.851  66.411  1.00  0.00    -0.552 OA 
HETATM    8  H   UNL     1     -12.384   9.990  67.904  1.00  0.00     0.000 HD 
HETATM    9  C   UNL     1     -11.372  11.680  67.415  1.00  0.00    -0.300 C  
ENDBRANCH   4   5
BRANCH   4  10
HETATM   10  C   UNL     1     -11.603  10.589  70.677  1.00  0.00    -0.352 C  
HETATM   11  O   UNL     1     -11.664   9.857  71.662  1.00  0.00    -0.372 OA 
HETATM   12  H   UNL     1     -12.267  12.312  69.727  1.00  0.00     0.000 HD 
HETATM   13  N   UNL     1     -12.289  11.783  70.599  1.00  0.00    -0.356 N  
BRANCH  13  14
HETATM   14  C   UNL     1     -13.039  12.306  71.717  1.00  0.00    -0.344 C  
BRANCH  14  15
HETATM   15  C   UNL     1     -12.681  13.742  71.997  1.00  0.00    -0.321 A  
HETATM   16  C   UNL     1     -13.046  14.356  73.204  1.00  0.00    -0.490 A  
HETATM   17  C   UNL     1     -12.697  15.686  73.454  1.00  0.00    -0.660 A  
HETATM   18  C   UNL     1     -11.989  16.415  72.499  1.00  0.00    -0.579 A  
HETATM   19  C   UNL     1     -11.634  15.818  71.291  1.00  0.00    -0.499 A  
HETATM   20  C   UNL     1     -11.982  14.491  71.040  1.00  0.00    -0.394 A  
ENDBRANCH  14  15
ENDBRANCH  13  14
ENDBRANCH   4  10
ENDBRANCH   3   4
ENDBRANCH   2   3
TORSDOF 6
ENDMDL
MODEL       56
REMARK 921   NORMALIZED FREE ENERGY PREDICTED BY IDOCK:   -4.88 KCAL/MOL
REMARK 922        TOTAL FREE ENERGY PREDICTED BY IDOCK:   -6.99 KCAL/MOL
REMARK 923 INTER-LIGAND FREE ENERGY PREDICTED BY IDOCK:   -6.45 KCAL/MOL
REMARK 924 INTRA-LIGAND FREE ENERGY PREDICTED BY IDOCK:   -0.54 KCAL/MOL
REMARK 927      BINDING AFFINITY PREDICTED BY RF-SCORE:    0.00 PKD
ROOT
HETATM    1  C   UNL     1     -10.051   7.187  66.769  1.00  0.00    -0.208 C  
HETATM    2  O   UNL     1     -10.784   8.334  67.177  1.00  0.00    -0.302 OA 
ENDROOT
BRANCH   2   3
HETATM    3  C   UNL     1      -9.933   9.344  67.727  1.00  0.00    -0.184 C  
BRANCH   3   4
HETATM    4  C   UNL     1     -10.614   9.964  68.953  1.00  0.00    -0.218 C  
BRANCH   4   5
HETATM    5  N   UNL     1      -9.971   9.527  70.205  1.00  0.00    -0.242 N  
HETATM    6  C   UNL     1     -12.061   9.353  71.539  1.00  0.00    -0.456 C  
HETATM    7  O   UNL     1      -9.867   8.824  72.320  1.00  0.00    -0.307 OA 
HETATM    8  H   UNL     1      -8.955   9.442  70.180  1.00  0.00     0.000 HD 
HETATM    9  C   UNL     1     -10.568   9.222  71.392  1.00  0.00    -0.347 C  
ENDBRANCH   4   5
BRANCH   4  10
HETATM   10  C   UNL     1     -10.566  11.493  68.805  1.00  0.00    -0.211 C  
HETATM   11  O   UNL     1      -9.577  12.064  68.351  1.00  0.00    -0.204 OA 
HETATM   12  H   UNL     1     -12.396  11.655  69.769  1.00  0.00     0.000 HD 
HETATM   13  N   UNL     1     -11.638  12.179  69.334  1.00  0.00    -0.302 N  
BRANCH  13  14
HETATM   14  C   UNL     1     -11.718  13.621  69.289  1.00  0.00    -0.325 C  
BRANCH  14  15
HETATM   15  C   UNL     1     -12.137  14.191  70.618  1.00  0.00    -0.421 A  
HETATM   16  C   UNL     1     -11.691  15.454  71.037  1.00  0.00    -0.408 A  
HETATM   17  C   UNL     1     -12.099  15.974  72.268  1.00  0.00    -0.617 A  
HETATM   18  C   UNL     1     -12.948  15.237  73.093  1.00  0.00    -0.625 A  
HETATM   19  C   UNL     1     -13.385  13.977  72.693  1.00  0.00    -0.643 A  
HETATM   20  C   UNL     1     -12.979  13.455  71.464  1.00  0.00    -0.429 A  
ENDBRANCH  14  15
ENDBRANCH  13  14
ENDBRANCH   4  10
ENDBRANCH   3   4
ENDBRANCH   2   3
TORSDOF 6
ENDMDL
MODEL       57
REMARK 921   NORMALIZED FREE ENERGY PREDICTED BY IDOCK:   -4.86 KCAL/MOL
REMARK 922        TOTAL FREE ENERGY PREDICTED BY IDOCK:   -6.97 KCAL/MOL
REMARK 923 INTER-LIGAND FREE ENERGY PREDICTED BY IDOCK:   -6.41 KCAL/MOL
REMARK 924 INTRA-LIGAND FREE ENERGY PREDICTED BY IDOCK:   -0.55 KCAL/MOL
REMARK 927      BINDING AFFINITY PREDICTED BY RF-SCORE:    0.00 PKD
ROOT
HETATM    1  C   UNL     1      -9.861   6.852  74.192  1.00  0.00    -0.311 C  
HETATM    2  O   UNL     1      -9.778   7.839  73.173  1.00  0.00    -0.236 OA 
ENDROOT
BRANCH   2   3
HETATM    3  C   UNL     1     -10.471   7.440  71.986  1.00  0.00    -0.199 C  
BRANCH   3   4
HETATM    4  C   UNL     1     -10.783   8.683  71.144  1.00  0.00    -0.240 C  
BRANCH   4   5
HETATM    5  N   UNL     1     -10.955   8.341  69.721  1.00  0.00    -0.400 N  
HETATM    6  C   UNL     1      -9.576  10.204  68.825  1.00  0.00    -0.170 C  
HETATM    7  O   UNL     1     -10.639   8.510  67.519  1.00  0.00    -0.256 OA 
HETATM    8  H   UNL     1     -11.541   7.530  69.524  1.00  0.00     0.000 HD 
HETATM    9  C   UNL     1     -10.425   8.974  68.637  1.00  0.00    -0.200 C  
ENDBRANCH   4   5
BRANCH   4  10
HETATM   10  C   UNL     1     -12.049   9.341  71.715  1.00  0.00    -0.387 C  
HETATM   11  O   UNL     1     -12.924   8.679  72.270  1.00  0.00    -0.363 OA 
HETATM   12  H   UNL     1     -11.473  11.168  70.916  1.00  0.00     0.000 HD 
HETATM   13  N   UNL     1     -12.197  10.686  71.449  1.00  0.00    -0.335 N  
BRANCH  13  14
HETATM   14  C   UNL     1     -13.348  11.431  71.902  1.00  0.00    -0.304 C  
BRANCH  14  15
HETATM   15  C   UNL     1     -13.190  12.905  71.636  1.00  0.00    -0.416 A  
HETATM   16  C   UNL     1     -13.835  13.859  72.437  1.00  0.00    -0.668 A  
HETATM   17  C   UNL     1     -13.669  15.223  72.185  1.00  0.00    -0.598 A  
HETATM   18  C   UNL     1     -12.864  15.647  71.128  1.00  0.00    -0.540 A  
HETATM   19  C   UNL     1     -12.230  14.708  70.318  1.00  0.00    -0.389 A  
HETATM   20  C   UNL     1     -12.394  13.345  70.568  1.00  0.00    -0.401 A  
ENDBRANCH  14  15
ENDBRANCH  13  14
ENDBRANCH   4  10
ENDBRANCH   3   4
ENDBRANCH   2   3
TORSDOF 6
ENDMDL
MODEL       58
REMARK 921   NORMALIZED FREE ENERGY PREDICTED BY IDOCK:   -4.85 KCAL/MOL
REMARK 922        TOTAL FREE ENERGY PREDICTED BY IDOCK:   -6.96 KCAL/MOL
REMARK 923 INTER-LIGAND FREE ENERGY PREDICTED BY IDOCK:   -6.45 KCAL/MOL
REMARK 924 INTRA-LIGAND FREE ENERGY PREDICTED BY IDOCK:   -0.50 KCAL/MOL
REMARK 927      BINDING AFFINITY PREDICTED BY RF-SCORE:    0.00 PKD
ROOT
HETATM    1  C   UNL     1      -9.939   5.356  71.298  1.00  0.00    -0.193 C  
HETATM    2  O   UNL     1     -10.731   6.123  70.402  1.00  0.00    -0.241 OA 
ENDROOT
BRANCH   2   3
HETATM    3  C   UNL     1     -11.693   6.927  71.093  1.00  0.00    -0.336 C  
BRANCH   3   4
HETATM    4  C   UNL     1     -11.296   8.403  70.970  1.00  0.00    -0.266 C  
BRANCH   4   5
HETATM    5  N   UNL     1     -11.244   8.831  69.560  1.00  0.00    -0.434 N  
HETATM    6  C   UNL     1      -8.865   9.550  69.582  1.00  0.00    -0.196 C  
HETATM    7  O   UNL     1     -10.311   9.593  67.682  1.00  0.00    -0.205 OA 
HETATM    8  H   UNL     1     -12.111   8.736  69.031  1.00  0.00     0.000 HD 
HETATM    9  C   UNL     1     -10.179   9.337  68.878  1.00  0.00    -0.202 C  
ENDBRANCH   4   5
BRANCH   4  10
HETATM   10  C   UNL     1     -12.310   9.238  71.768  1.00  0.00    -0.379 C  
HETATM   11  O   UNL     1     -13.019   8.732  72.634  1.00  0.00    -0.389 OA 
HETATM   12  H   UNL     1     -11.898  10.891  70.582  1.00  0.00     0.000 HD 
HETATM   13  N   UNL     1     -12.461  10.547  71.360  1.00  0.00    -0.397 N  
BRANCH  13  14
HETATM   14  C   UNL     1     -13.394  11.443  72.002  1.00  0.00    -0.283 C  
BRANCH  14  15
HETATM   15  C   UNL     1     -13.118  12.878  71.638  1.00  0.00    -0.430 A  
HETATM   16  C   UNL     1     -12.208  13.206  70.622  1.00  0.00    -0.402 A  
HETATM   17  C   UNL     1     -11.972  14.542  70.287  1.00  0.00    -0.379 A  
HETATM   18  C   UNL     1     -12.636  15.561  70.968  1.00  0.00    -0.513 A  
HETATM   19  C   UNL     1     -13.532  15.247  71.988  1.00  0.00    -0.547 A  
HETATM   20  C   UNL     1     -13.769  13.914  72.324  1.00  0.00    -0.660 A  
ENDBRANCH  14  15
ENDBRANCH  13  14
ENDBRANCH   4  10
ENDBRANCH   3   4
ENDBRANCH   2   3
TORSDOF 6
ENDMDL
MODEL       59
REMARK 921   NORMALIZED FREE ENERGY PREDICTED BY IDOCK:   -4.84 KCAL/MOL
REMARK 922        TOTAL FREE ENERGY PREDICTED BY IDOCK:   -6.95 KCAL/MOL
REMARK 923 INTER-LIGAND FREE ENERGY PREDICTED BY IDOCK:   -6.40 KCAL/MOL
REMARK 924 INTRA-LIGAND FREE ENERGY PREDICTED BY IDOCK:   -0.54 KCAL/MOL
REMARK 927      BINDING AFFINITY PREDICTED BY RF-SCORE:    0.00 PKD
ROOT
HETATM    1  C   UNL     1      -6.825  13.160  67.522  1.00  0.00    -0.149 C  
HETATM    2  O   UNL     1      -7.402  14.446  67.349  1.00  0.00    -0.184 OA 
ENDROOT
BRANCH   2   3
HETATM    3  C   UNL     1      -8.727  14.369  66.812  1.00  0.00    -0.159 C  
BRANCH   3   4
HETATM    4  C   UNL     1      -9.590  15.469  67.441  1.00  0.00    -0.213 C  
BRANCH   4   5
HETATM    5  N   UNL     1      -9.902  16.531  66.468  1.00  0.00    -0.263 N  
HETATM    6  C   UNL     1      -9.689  18.429  68.058  1.00  0.00    -0.336 C  
HETATM    7  O   UNL     1     -10.177  18.618  65.728  1.00  0.00    -0.552 OA 
HETATM    8  H   UNL     1     -10.110  16.221  65.519  1.00  0.00     0.000 HD 
HETATM    9  C   UNL     1      -9.945  17.876  66.681  1.00  0.00    -0.355 C  
ENDBRANCH   4   5
BRANCH   4  10
HETATM   10  C   UNL     1     -10.871  14.818  67.986  1.00  0.00    -0.260 C  
HETATM   11  O   UNL     1     -11.963  15.003  67.453  1.00  0.00    -0.265 OA 
HETATM   12  H   UNL     1      -9.816  14.078  69.612  1.00  0.00     0.000 HD 
HETATM   13  N   UNL     1     -10.735  14.133  69.174  1.00  0.00    -0.227 N  
BRANCH  13  14
HETATM   14  C   UNL     1     -11.858  13.490  69.817  1.00  0.00    -0.329 C  
BRANCH  14  15
HETATM   15  C   UNL     1     -12.420  14.342  70.924  1.00  0.00    -0.424 A  
HETATM   16  C   UNL     1     -13.780  14.282  71.265  1.00  0.00    -0.328 A  
HETATM   17  C   UNL     1     -14.284  15.069  72.303  1.00  0.00    -0.594 A  
HETATM   18  C   UNL     1     -13.439  15.928  73.003  1.00  0.00    -0.653 A  
HETATM   19  C   UNL     1     -12.090  16.006  72.664  1.00  0.00    -0.640 A  
HETATM   20  C   UNL     1     -11.584  15.221  71.628  1.00  0.00    -0.473 A  
ENDBRANCH  14  15
ENDBRANCH  13  14
ENDBRANCH   4  10
ENDBRANCH   3   4
ENDBRANCH   2   3
TORSDOF 6
ENDMDL
MODEL       60
REMARK 921   NORMALIZED FREE ENERGY PREDICTED BY IDOCK:   -4.81 KCAL/MOL
REMARK 922        TOTAL FREE ENERGY PREDICTED BY IDOCK:   -6.90 KCAL/MOL
REMARK 923 INTER-LIGAND FREE ENERGY PREDICTED BY IDOCK:   -6.38 KCAL/MOL
REMARK 924 INTRA-LIGAND FREE ENERGY PREDICTED BY IDOCK:   -0.52 KCAL/MOL
REMARK 927      BINDING AFFINITY PREDICTED BY RF-SCORE:    0.00 PKD
ROOT
HETATM    1  C   UNL     1      -9.366   8.029  72.683  1.00  0.00    -0.248 C  
HETATM    2  O   UNL     1     -10.778   8.140  72.794  1.00  0.00    -0.345 OA 
ENDROOT
BRANCH   2   3
HETATM    3  C   UNL     1     -11.315   9.079  71.856  1.00  0.00    -0.368 C  
BRANCH   3   4
HETATM    4  C   UNL     1     -10.584   8.927  70.517  1.00  0.00    -0.220 C  
BRANCH   4   5
HETATM    5  N   UNL     1     -11.218   7.899  69.671  1.00  0.00    -0.448 N  
HETATM    6  C   UNL     1      -9.150   7.222  68.470  1.00  0.00    -0.136 C  
HETATM    7  O   UNL     1     -11.312   6.252  68.169  1.00  0.00    -0.278 OA 
HETATM    8  H   UNL     1     -12.223   7.778  69.792  1.00  0.00     0.000 HD 
HETATM    9  C   UNL     1     -10.624   7.092  68.748  1.00  0.00    -0.212 C  
ENDBRANCH   4   5
BRANCH   4  10
HETATM   10  C   UNL     1     -10.576  10.296  69.819  1.00  0.00    -0.271 C  
HETATM   11  O   UNL     1      -9.601  10.685  69.179  1.00  0.00    -0.201 OA 
HETATM   12  H   UNL     1     -12.411  10.754  70.672  1.00  0.00     0.000 HD 
HETATM   13  N   UNL     1     -11.667  11.101  70.068  1.00  0.00    -0.327 N  
BRANCH  13  14
HETATM   14  C   UNL     1     -11.784  12.423  69.499  1.00  0.00    -0.322 C  
BRANCH  14  15
HETATM   15  C   UNL     1     -12.409  13.389  70.472  1.00  0.00    -0.401 A  
HETATM   16  C   UNL     1     -13.129  12.930  71.585  1.00  0.00    -0.430 A  
HETATM   17  C   UNL     1     -13.693  13.838  72.485  1.00  0.00    -0.667 A  
HETATM   18  C   UNL     1     -13.549  15.209  72.278  1.00  0.00    -0.566 A  
HETATM   19  C   UNL     1     -12.847  15.675  71.169  1.00  0.00    -0.540 A  
HETATM   20  C   UNL     1     -12.284  14.771  70.269  1.00  0.00    -0.394 A  
ENDBRANCH  14  15
ENDBRANCH  13  14
ENDBRANCH   4  10
ENDBRANCH   3   4
ENDBRANCH   2   3
TORSDOF 6
ENDMDL
MODEL       61
REMARK 921   NORMALIZED FREE ENERGY PREDICTED BY IDOCK:   -4.81 KCAL/MOL
REMARK 922        TOTAL FREE ENERGY PREDICTED BY IDOCK:   -6.90 KCAL/MOL
REMARK 923 INTER-LIGAND FREE ENERGY PREDICTED BY IDOCK:   -6.36 KCAL/MOL
REMARK 924 INTRA-LIGAND FREE ENERGY PREDICTED BY IDOCK:   -0.54 KCAL/MOL
REMARK 927      BINDING AFFINITY PREDICTED BY RF-SCORE:    0.00 PKD
ROOT
HETATM    1  C   UNL     1      -8.920  18.185  68.065  1.00  0.00    -0.283 C  
HETATM    2  O   UNL     1      -9.965  17.814  68.954  1.00  0.00    -0.351 OA 
ENDROOT
BRANCH   2   3
HETATM    3  C   UNL     1     -10.974  17.039  68.298  1.00  0.00    -0.269 C  
BRANCH   3   4
HETATM    4  C   UNL     1     -11.225  15.757  69.101  1.00  0.00    -0.322 C  
BRANCH   4   5
HETATM    5  N   UNL     1     -12.586  15.733  69.666  1.00  0.00    -0.494 N  
HETATM    6  C   UNL     1     -11.903  15.223  72.000  1.00  0.00    -0.513 C  
HETATM    7  O   UNL     1     -14.143  15.583  71.256  1.00  0.00    -0.548 OA 
HETATM    8  H   UNL     1     -13.346  15.900  69.007  1.00  0.00     0.000 HD 
HETATM    9  C   UNL     1     -12.951  15.515  70.960  1.00  0.00    -0.489 C  
ENDBRANCH   4   5
BRANCH   4  10
HETATM   10  C   UNL     1     -10.986  14.557  68.171  1.00  0.00    -0.251 C  
HETATM   11  O   UNL     1     -10.144  14.594  67.276  1.00  0.00    -0.235 OA 
HETATM   12  H   UNL     1     -12.590  13.558  69.030  1.00  0.00     0.000 HD 
HETATM   13  N   UNL     1     -11.860  13.500  68.321  1.00  0.00    -0.356 N  
BRANCH  13  14
HETATM   14  C   UNL     1     -11.771  12.315  67.500  1.00  0.00    -0.332 C  
BRANCH  14  15
HETATM   15  C   UNL     1     -11.405  11.105  68.318  1.00  0.00    -0.365 A  
HETATM   16  C   UNL     1     -11.654  11.062  69.698  1.00  0.00    -0.390 A  
HETATM   17  C   UNL     1     -11.320   9.927  70.442  1.00  0.00    -0.376 A  
HETATM   18  C   UNL     1     -10.727   8.830  69.817  1.00  0.00    -0.220 A  
HETATM   19  C   UNL     1     -10.463   8.868  68.450  1.00  0.00    -0.230 A  
HETATM   20  C   UNL     1     -10.796  10.000  67.706  1.00  0.00    -0.337 A  
ENDBRANCH  14  15
ENDBRANCH  13  14
ENDBRANCH   4  10
ENDBRANCH   3   4
ENDBRANCH   2   3
TORSDOF 6
ENDMDL
MODEL       62
REMARK 921   NORMALIZED FREE ENERGY PREDICTED BY IDOCK:   -4.81 KCAL/MOL
REMARK 922        TOTAL FREE ENERGY PREDICTED BY IDOCK:   -6.90 KCAL/MOL
REMARK 923 INTER-LIGAND FREE ENERGY PREDICTED BY IDOCK:   -6.36 KCAL/MOL
REMARK 924 INTRA-LIGAND FREE ENERGY PREDICTED BY IDOCK:   -0.53 KCAL/MOL
REMARK 927      BINDING AFFINITY PREDICTED BY RF-SCORE:    0.00 PKD
ROOT
HETATM    1  C   UNL     1      -7.575  15.600  69.420  1.00  0.00    -0.221 C  
HETATM    2  O   UNL     1      -8.486  15.037  68.487  1.00  0.00    -0.149 OA 
ENDROOT
BRANCH   2   3
HETATM    3  C   UNL     1      -8.900  15.990  67.503  1.00  0.00    -0.189 C  
BRANCH   3   4
HETATM    4  C   UNL     1     -10.312  16.483  67.841  1.00  0.00    -0.294 C  
BRANCH   4   5
HETATM    5  N   UNL     1     -10.660  17.691  67.071  1.00  0.00    -0.300 N  
HETATM    6  C   UNL     1     -10.014  19.327  68.826  1.00  0.00    -0.511 C  
HETATM    7  O   UNL     1     -10.832  19.875  66.650  1.00  0.00    -0.443 OA 
HETATM    8  H   UNL     1     -11.042  17.532  66.139  1.00  0.00     0.000 HD 
HETATM    9  C   UNL     1     -10.534  18.992  67.453  1.00  0.00    -0.457 C  
ENDBRANCH   4   5
BRANCH   4  10
HETATM   10  C   UNL     1     -11.298  15.338  67.558  1.00  0.00    -0.297 C  
HETATM   11  O   UNL     1     -11.855  14.729  68.469  1.00  0.00    -0.329 OA 
HETATM   12  H   UNL     1     -10.862  15.449  65.532  1.00  0.00     0.000 HD 
HETATM   13  N   UNL     1     -11.409  14.957  66.237  1.00  0.00    -0.334 N  
BRANCH  13  14
HETATM   14  C   UNL     1     -12.280  13.880  65.826  1.00  0.00    -0.460 C  
BRANCH  14  15
HETATM   15  C   UNL     1     -11.495  12.711  65.293  1.00  0.00    -0.368 A  
HETATM   16  C   UNL     1     -11.334  12.515  63.913  1.00  0.00    -0.504 A  
HETATM   17  C   UNL     1     -10.593  11.431  63.434  1.00  0.00    -0.435 A  
HETATM   18  C   UNL     1     -10.013  10.531  64.327  1.00  0.00    -0.398 A  
HETATM   19  C   UNL     1     -10.177  10.709  65.699  1.00  0.00    -0.319 A  
HETATM   20  C   UNL     1     -10.917  11.790  66.179  1.00  0.00    -0.355 A  
ENDBRANCH  14  15
ENDBRANCH  13  14
ENDBRANCH   4  10
ENDBRANCH   3   4
ENDBRANCH   2   3
TORSDOF 6
ENDMDL
MODEL       63
REMARK 921   NORMALIZED FREE ENERGY PREDICTED BY IDOCK:   -4.80 KCAL/MOL
REMARK 922        TOTAL FREE ENERGY PREDICTED BY IDOCK:   -6.89 KCAL/MOL
REMARK 923 INTER-LIGAND FREE ENERGY PREDICTED BY IDOCK:   -6.36 KCAL/MOL
REMARK 924 INTRA-LIGAND FREE ENERGY PREDICTED BY IDOCK:   -0.53 KCAL/MOL
REMARK 927      BINDING AFFINITY PREDICTED BY RF-SCORE:    0.00 PKD
ROOT
HETATM    1  C   UNL     1      -6.964  19.019  69.066  1.00  0.00    -0.319 C  
HETATM    2  O   UNL     1      -7.374  18.232  67.956  1.00  0.00    -0.228 OA 
ENDROOT
BRANCH   2   3
HETATM    3  C   UNL     1      -8.082  17.057  68.367  1.00  0.00    -0.245 C  
BRANCH   3   4
HETATM    4  C   UNL     1      -9.590  17.320  68.272  1.00  0.00    -0.288 C  
BRANCH   4   5
HETATM    5  N   UNL     1      -9.944  17.969  66.997  1.00  0.00    -0.314 N  
HETATM    6  C   UNL     1     -10.535  20.177  67.971  1.00  0.00    -0.389 C  
HETATM    7  O   UNL     1     -10.562  19.633  65.645  1.00  0.00    -0.503 OA 
HETATM    8  H   UNL     1      -9.870  17.386  66.163  1.00  0.00     0.000 HD 
HETATM    9  C   UNL     1     -10.358  19.251  66.797  1.00  0.00    -0.432 C  
ENDBRANCH   4   5
BRANCH   4  10
HETATM   10  C   UNL     1     -10.319  15.977  68.436  1.00  0.00    -0.251 C  
HETATM   11  O   UNL     1     -10.105  15.242  69.397  1.00  0.00    -0.239 OA 
HETATM   12  H   UNL     1     -11.199  16.215  66.571  1.00  0.00     0.000 HD 
HETATM   13  N   UNL     1     -11.119  15.598  67.378  1.00  0.00    -0.297 N  
BRANCH  13  14
HETATM   14  C   UNL     1     -11.848  14.351  67.383  1.00  0.00    -0.400 C  
BRANCH  14  15
HETATM   15  C   UNL     1     -11.602  13.565  66.122  1.00  0.00    -0.371 A  
HETATM   16  C   UNL     1     -10.955  12.320  66.158  1.00  0.00    -0.328 A  
HETATM   17  C   UNL     1     -10.745  11.598  64.981  1.00  0.00    -0.351 A  
HETATM   18  C   UNL     1     -11.170  12.114  63.758  1.00  0.00    -0.509 A  
HETATM   19  C   UNL     1     -11.801  13.356  63.708  1.00  0.00    -0.483 A  
HETATM   20  C   UNL     1     -12.012  14.079  64.882  1.00  0.00    -0.416 A  
ENDBRANCH  14  15
ENDBRANCH  13  14
ENDBRANCH   4  10
ENDBRANCH   3   4
ENDBRANCH   2   3
TORSDOF 6
ENDMDL
MODEL       64
REMARK 921   NORMALIZED FREE ENERGY PREDICTED BY IDOCK:   -4.76 KCAL/MOL
REMARK 922        TOTAL FREE ENERGY PREDICTED BY IDOCK:   -6.84 KCAL/MOL
REMARK 923 INTER-LIGAND FREE ENERGY PREDICTED BY IDOCK:   -6.30 KCAL/MOL
REMARK 924 INTRA-LIGAND FREE ENERGY PREDICTED BY IDOCK:   -0.54 KCAL/MOL
REMARK 927      BINDING AFFINITY PREDICTED BY RF-SCORE:    0.00 PKD
ROOT
HETATM    1  C   UNL     1     -13.444   9.251  72.040  1.00  0.00    -0.451 C  
HETATM    2  O   UNL     1     -12.276  10.052  71.928  1.00  0.00    -0.351 OA 
ENDROOT
BRANCH   2   3
HETATM    3  C   UNL     1     -11.985  10.386  70.567  1.00  0.00    -0.334 C  
BRANCH   3   4
HETATM    4  C   UNL     1     -10.747   9.604  70.111  1.00  0.00    -0.275 C  
BRANCH   4   5
HETATM    5  N   UNL     1     -11.120   8.332  69.468  1.00  0.00    -0.442 N  
HETATM    6  C   UNL     1     -10.562   6.876  71.403  1.00  0.00    -0.242 C  
HETATM    7  O   UNL     1     -11.478   6.134  69.326  1.00  0.00    -0.404 OA 
HETATM    8  H   UNL     1     -11.453   8.398  68.507  1.00  0.00     0.000 HD 
HETATM    9  C   UNL     1     -11.075   7.079  70.002  1.00  0.00    -0.278 C  
ENDBRANCH   4   5
BRANCH   4  10
HETATM   10  C   UNL     1      -9.943  10.498  69.153  1.00  0.00    -0.220 C  
HETATM   11  O   UNL     1      -8.720  10.585  69.229  1.00  0.00    -0.163 OA 
HETATM   12  H   UNL     1     -11.707  11.229  68.339  1.00  0.00     0.000 HD 
HETATM   13  N   UNL     1     -10.690  11.287  68.304  1.00  0.00    -0.182 N  
BRANCH  13  14
HETATM   14  C   UNL     1     -10.071  12.194  67.365  1.00  0.00    -0.199 C  
BRANCH  14  15
HETATM   15  C   UNL     1     -10.794  12.197  66.044  1.00  0.00    -0.318 A  
HETATM   16  C   UNL     1     -10.207  11.641  64.896  1.00  0.00    -0.315 A  
HETATM   17  C   UNL     1     -10.895  11.641  63.680  1.00  0.00    -0.503 A  
HETATM   18  C   UNL     1     -12.169  12.201  63.597  1.00  0.00    -0.663 A  
HETATM   19  C   UNL     1     -12.755  12.767  64.727  1.00  0.00    -0.469 A  
HETATM   20  C   UNL     1     -12.070  12.769  65.942  1.00  0.00    -0.485 A  
ENDBRANCH  14  15
ENDBRANCH  13  14
ENDBRANCH   4  10
ENDBRANCH   3   4
ENDBRANCH   2   3
TORSDOF 6
ENDMDL
MODEL       65
REMARK 921   NORMALIZED FREE ENERGY PREDICTED BY IDOCK:   -4.75 KCAL/MOL
REMARK 922        TOTAL FREE ENERGY PREDICTED BY IDOCK:   -6.81 KCAL/MOL
REMARK 923 INTER-LIGAND FREE ENERGY PREDICTED BY IDOCK:   -6.17 KCAL/MOL
REMARK 924 INTRA-LIGAND FREE ENERGY PREDICTED BY IDOCK:   -0.64 KCAL/MOL
REMARK 927      BINDING AFFINITY PREDICTED BY RF-SCORE:    0.00 PKD
ROOT
HETATM    1  C   UNL     1     -10.626  19.351  65.832  1.00  0.00    -0.459 C  
HETATM    2  O   UNL     1     -10.928  19.298  67.220  1.00  0.00    -0.483 OA 
ENDROOT
BRANCH   2   3
HETATM    3  C   UNL     1     -10.582  18.033  67.794  1.00  0.00    -0.394 C  
BRANCH   3   4
HETATM    4  C   UNL     1      -9.094  17.759  67.549  1.00  0.00    -0.244 C  
BRANCH   4   5
HETATM    5  N   UNL     1      -8.261  18.287  68.645  1.00  0.00    -0.306 N  
HETATM    6  C   UNL     1      -7.373  20.242  67.394  1.00  0.00    -0.343 C  
HETATM    7  O   UNL     1      -6.892  19.717  69.674  1.00  0.00    -0.348 OA 
HETATM    8  H   UNL     1      -8.271  17.751  69.513  1.00  0.00     0.000 HD 
HETATM    9  C   UNL     1      -7.481  19.404  68.641  1.00  0.00    -0.350 C  
ENDBRANCH   4   5
BRANCH   4  10
HETATM   10  C   UNL     1      -8.907  16.242  67.389  1.00  0.00    -0.186 C  
HETATM   11  O   UNL     1      -7.839  15.761  67.018  1.00  0.00    -0.195 OA 
HETATM   12  H   UNL     1     -10.921  15.941  67.789  1.00  0.00     0.000 HD 
HETATM   13  N   UNL     1     -10.043  15.479  67.557  1.00  0.00    -0.239 N  
BRANCH  13  14
HETATM   14  C   UNL     1     -10.024  14.042  67.414  1.00  0.00    -0.243 C  
BRANCH  14  15
HETATM   15  C   UNL     1     -10.785  13.600  66.192  1.00  0.00    -0.286 A  
HETATM   16  C   UNL     1     -12.183  13.711  66.130  1.00  0.00    -0.490 A  
HETATM   17  C   UNL     1     -12.874  13.307  64.985  1.00  0.00    -0.356 A  
HETATM   18  C   UNL     1     -12.179  12.784  63.896  1.00  0.00    -0.543 A  
HETATM   19  C   UNL     1     -10.792  12.657  63.952  1.00  0.00    -0.468 A  
HETATM   20  C   UNL     1     -10.100  13.059  65.094  1.00  0.00    -0.238 A  
ENDBRANCH  14  15
ENDBRANCH  13  14
ENDBRANCH   4  10
ENDBRANCH   3   4
ENDBRANCH   2   3
TORSDOF 6
ENDMDL
MODEL       66
REMARK 921   NORMALIZED FREE ENERGY PREDICTED BY IDOCK:   -4.74 KCAL/MOL
REMARK 922        TOTAL FREE ENERGY PREDICTED BY IDOCK:   -6.81 KCAL/MOL
REMARK 923 INTER-LIGAND FREE ENERGY PREDICTED BY IDOCK:   -6.21 KCAL/MOL
REMARK 924 INTRA-LIGAND FREE ENERGY PREDICTED BY IDOCK:   -0.61 KCAL/MOL
REMARK 927      BINDING AFFINITY PREDICTED BY RF-SCORE:    0.00 PKD
ROOT
HETATM    1  C   UNL     1     -10.638   7.788  72.627  1.00  0.00    -0.317 C  
HETATM    2  O   UNL     1     -10.400   7.927  71.234  1.00  0.00    -0.191 OA 
ENDROOT
BRANCH   2   3
HETATM    3  C   UNL     1      -9.951   9.244  70.898  1.00  0.00    -0.297 C  
BRANCH   3   4
HETATM    4  C   UNL     1     -10.969   9.897  69.955  1.00  0.00    -0.281 C  
BRANCH   4   5
HETATM    5  N   UNL     1     -11.663  11.022  70.607  1.00  0.00    -0.393 N  
HETATM    6  C   UNL     1     -13.540   9.683  71.533  1.00  0.00    -0.376 C  
HETATM    7  O   UNL     1     -13.216  12.027  71.854  1.00  0.00    -0.480 OA 
HETATM    8  H   UNL     1     -11.232  11.940  70.494  1.00  0.00     0.000 HD 
HETATM    9  C   UNL     1     -12.810  10.985  71.342  1.00  0.00    -0.443 C  
ENDBRANCH   4   5
BRANCH   4  10
HETATM   10  C   UNL     1     -10.223  10.359  68.693  1.00  0.00    -0.181 C  
HETATM   11  O   UNL     1      -9.456   9.612  68.089  1.00  0.00    -0.133 OA 
HETATM   12  H   UNL     1     -10.956  12.283  68.950  1.00  0.00     0.000 HD 
HETATM   13  N   UNL     1     -10.367  11.691  68.366  1.00  0.00    -0.198 N  
BRANCH  13  14
HETATM   14  C   UNL     1      -9.706  12.271  67.220  1.00  0.00    -0.195 C  
BRANCH  14  15
HETATM   15  C   UNL     1     -10.561  12.176  65.984  1.00  0.00    -0.292 A  
HETATM   16  C   UNL     1     -11.830  12.772  65.934  1.00  0.00    -0.490 A  
HETATM   17  C   UNL     1     -12.606  12.686  64.776  1.00  0.00    -0.530 A  
HETATM   18  C   UNL     1     -12.127  11.997  63.662  1.00  0.00    -0.627 A  
HETATM   19  C   UNL     1     -10.875  11.388  63.706  1.00  0.00    -0.468 A  
HETATM   20  C   UNL     1     -10.098  11.474  64.862  1.00  0.00    -0.314 A  
ENDBRANCH  14  15
ENDBRANCH  13  14
ENDBRANCH   4  10
ENDBRANCH   3   4
ENDBRANCH   2   3
TORSDOF 6
ENDMDL
MODEL       67
REMARK 921   NORMALIZED FREE ENERGY PREDICTED BY IDOCK:   -4.73 KCAL/MOL
REMARK 922        TOTAL FREE ENERGY PREDICTED BY IDOCK:   -6.79 KCAL/MOL
REMARK 923 INTER-LIGAND FREE ENERGY PREDICTED BY IDOCK:   -6.23 KCAL/MOL
REMARK 924 INTRA-LIGAND FREE ENERGY PREDICTED BY IDOCK:   -0.56 KCAL/MOL
REMARK 927      BINDING AFFINITY PREDICTED BY RF-SCORE:    0.00 PKD
ROOT
HETATM    1  C   UNL     1      -9.276  14.631  67.389  1.00  0.00    -0.198 C  
HETATM    2  O   UNL     1     -10.175  13.978  66.504  1.00  0.00    -0.268 OA 
ENDROOT
BRANCH   2   3
HETATM    3  C   UNL     1     -11.082  13.119  67.202  1.00  0.00    -0.279 C  
BRANCH   3   4
HETATM    4  C   UNL     1     -11.176  11.779  66.462  1.00  0.00    -0.321 C  
BRANCH   4   5
HETATM    5  N   UNL     1     -10.339  11.773  65.249  1.00  0.00    -0.262 N  
HETATM    6  C   UNL     1     -12.215  11.842  63.622  1.00  0.00    -0.586 C  
HETATM    7  O   UNL     1      -9.893  11.855  63.065  1.00  0.00    -0.385 OA 
HETATM    8  H   UNL     1      -9.331  11.732  65.402  1.00  0.00     0.000 HD 
HETATM    9  C   UNL     1     -10.746  11.817  63.950  1.00  0.00    -0.399 C  
ENDBRANCH   4   5
BRANCH   4  10
HETATM   10  C   UNL     1     -10.756  10.666  67.435  1.00  0.00    -0.276 C  
HETATM   11  O   UNL     1     -10.774   9.483  67.105  1.00  0.00    -0.255 OA 
HETATM   12  H   UNL     1     -10.566  12.058  68.963  1.00  0.00     0.000 HD 
HETATM   13  N   UNL     1     -10.489  11.070  68.727  1.00  0.00    -0.190 N  
BRANCH  13  14
HETATM   14  C   UNL     1     -10.106  10.131  69.755  1.00  0.00    -0.231 C  
BRANCH  14  15
HETATM   15  C   UNL     1     -11.278   9.756  70.623  1.00  0.00    -0.402 A  
HETATM   16  C   UNL     1     -12.299  10.677  70.898  1.00  0.00    -0.502 A  
HETATM   17  C   UNL     1     -13.386  10.310  71.696  1.00  0.00    -0.451 A  
HETATM   18  C   UNL     1     -13.459   9.025  72.232  1.00  0.00    -0.529 A  
HETATM   19  C   UNL     1     -12.443   8.107  71.977  1.00  0.00    -0.375 A  
HETATM   20  C   UNL     1     -11.357   8.471  71.180  1.00  0.00    -0.319 A  
ENDBRANCH  14  15
ENDBRANCH  13  14
ENDBRANCH   4  10
ENDBRANCH   3   4
ENDBRANCH   2   3
TORSDOF 6
ENDMDL
MODEL       68
REMARK 921   NORMALIZED FREE ENERGY PREDICTED BY IDOCK:   -4.68 KCAL/MOL
REMARK 922        TOTAL FREE ENERGY PREDICTED BY IDOCK:   -6.73 KCAL/MOL
REMARK 923 INTER-LIGAND FREE ENERGY PREDICTED BY IDOCK:   -6.18 KCAL/MOL
REMARK 924 INTRA-LIGAND FREE ENERGY PREDICTED BY IDOCK:   -0.55 KCAL/MOL
REMARK 927      BINDING AFFINITY PREDICTED BY RF-SCORE:    0.00 PKD
ROOT
HETATM    1  C   UNL     1      -8.903   7.400  67.898  1.00  0.00    -0.132 C  
HETATM    2  O   UNL     1      -9.210   8.502  67.055  1.00  0.00    -0.142 OA 
ENDROOT
BRANCH   2   3
HETATM    3  C   UNL     1     -10.530   9.004  67.293  1.00  0.00    -0.273 C  
BRANCH   3   4
HETATM    4  C   UNL     1     -10.445  10.495  67.642  1.00  0.00    -0.234 C  
BRANCH   4   5
HETATM    5  N   UNL     1     -11.397  11.290  66.845  1.00  0.00    -0.239 N  
HETATM    6  C   UNL     1      -9.861  11.721  64.940  1.00  0.00    -0.251 C  
HETATM    7  O   UNL     1     -12.133  12.442  65.082  1.00  0.00    -0.424 OA 
HETATM    8  H   UNL     1     -12.316  11.437  67.262  1.00  0.00     0.000 HD 
HETATM    9  C   UNL     1     -11.198  11.851  65.619  1.00  0.00    -0.306 C  
ENDBRANCH   4   5
BRANCH   4  10
HETATM   10  C   UNL     1     -10.715  10.649  69.147  1.00  0.00    -0.228 C  
HETATM   11  O   UNL     1      -9.947  10.188  69.989  1.00  0.00    -0.240 OA 
HETATM   12  H   UNL     1     -12.561  11.506  68.740  1.00  0.00     0.000 HD 
HETATM   13  N   UNL     1     -11.928  11.212  69.484  1.00  0.00    -0.337 N  
BRANCH  13  14
HETATM   14  C   UNL     1     -12.327  11.398  70.859  1.00  0.00    -0.381 C  
BRANCH  14  15
HETATM   15  C   UNL     1     -12.708  12.829  71.134  1.00  0.00    -0.355 A  
HETATM   16  C   UNL     1     -12.331  13.859  70.260  1.00  0.00    -0.413 A  
HETATM   17  C   UNL     1     -12.703  15.180  70.522  1.00  0.00    -0.416 A  
HETATM   18  C   UNL     1     -13.446  15.485  71.662  1.00  0.00    -0.584 A  
HETATM   19  C   UNL     1     -13.813  14.471  72.544  1.00  0.00    -0.555 A  
HETATM   20  C   UNL     1     -13.443  13.152  72.284  1.00  0.00    -0.665 A  
ENDBRANCH  14  15
ENDBRANCH  13  14
ENDBRANCH   4  10
ENDBRANCH   3   4
ENDBRANCH   2   3
TORSDOF 6
ENDMDL
MODEL       69
REMARK 921   NORMALIZED FREE ENERGY PREDICTED BY IDOCK:   -4.67 KCAL/MOL
REMARK 922        TOTAL FREE ENERGY PREDICTED BY IDOCK:   -6.71 KCAL/MOL
REMARK 923 INTER-LIGAND FREE ENERGY PREDICTED BY IDOCK:   -6.22 KCAL/MOL
REMARK 924 INTRA-LIGAND FREE ENERGY PREDICTED BY IDOCK:   -0.49 KCAL/MOL
REMARK 927      BINDING AFFINITY PREDICTED BY RF-SCORE:    0.00 PKD
ROOT
HETATM    1  C   UNL     1     -10.579  10.870  68.241  1.00  0.00    -0.190 C  
HETATM    2  O   UNL     1     -10.143  10.078  69.338  1.00  0.00    -0.192 OA 
ENDROOT
BRANCH   2   3
HETATM    3  C   UNL     1     -10.898   8.868  69.457  1.00  0.00    -0.153 C  
BRANCH   3   4
HETATM    4  C   UNL     1     -11.106   8.549  70.942  1.00  0.00    -0.255 C  
BRANCH   4   5
HETATM    5  N   UNL     1      -9.945   8.962  71.750  1.00  0.00    -0.325 N  
HETATM    6  C   UNL     1      -9.568   6.758  72.833  1.00  0.00    -0.167 C  
HETATM    7  O   UNL     1      -8.232   8.711  73.157  1.00  0.00    -0.409 OA 
HETATM    8  H   UNL     1      -9.662   9.938  71.659  1.00  0.00     0.000 HD 
HETATM    9  C   UNL     1      -9.204   8.201  72.603  1.00  0.00    -0.263 C  
ENDBRANCH   4   5
BRANCH   4  10
HETATM   10  C   UNL     1     -12.389   9.255  71.407  1.00  0.00    -0.343 C  
HETATM   11  O   UNL     1     -13.451   8.648  71.525  1.00  0.00    -0.343 OA 
HETATM   12  H   UNL     1     -11.410  11.085  71.362  1.00  0.00     0.000 HD 
HETATM   13  N   UNL     1     -12.300  10.624  71.550  1.00  0.00    -0.344 N  
BRANCH  13  14
HETATM   14  C   UNL     1     -13.432  11.423  71.958  1.00  0.00    -0.183 C  
BRANCH  14  15
HETATM   15  C   UNL     1     -13.234  12.875  71.612  1.00  0.00    -0.416 A  
HETATM   16  C   UNL     1     -14.016  13.875  72.211  1.00  0.00    -0.663 A  
HETATM   17  C   UNL     1     -13.812  15.219  71.888  1.00  0.00    -0.624 A  
HETATM   18  C   UNL     1     -12.833  15.576  70.962  1.00  0.00    -0.543 A  
HETATM   19  C   UNL     1     -12.061  14.591  70.352  1.00  0.00    -0.389 A  
HETATM   20  C   UNL     1     -12.263  13.248  70.672  1.00  0.00    -0.417 A  
ENDBRANCH  14  15
ENDBRANCH  13  14
ENDBRANCH   4  10
ENDBRANCH   3   4
ENDBRANCH   2   3
TORSDOF 6
ENDMDL
MODEL       70
REMARK 921   NORMALIZED FREE ENERGY PREDICTED BY IDOCK:   -4.66 KCAL/MOL
REMARK 922        TOTAL FREE ENERGY PREDICTED BY IDOCK:   -6.70 KCAL/MOL
REMARK 923 INTER-LIGAND FREE ENERGY PREDICTED BY IDOCK:   -6.36 KCAL/MOL
REMARK 924 INTRA-LIGAND FREE ENERGY PREDICTED BY IDOCK:   -0.33 KCAL/MOL
REMARK 927      BINDING AFFINITY PREDICTED BY RF-SCORE:    0.00 PKD
ROOT
HETATM    1  C   UNL     1     -11.831  12.733  69.022  1.00  0.00    -0.297 C  
HETATM    2  O   UNL     1     -11.882  13.396  67.766  1.00  0.00    -0.340 OA 
ENDROOT
BRANCH   2   3
HETATM    3  C   UNL     1     -10.941  14.472  67.692  1.00  0.00    -0.288 C  
BRANCH   3   4
HETATM    4  C   UNL     1     -11.256  15.331  66.462  1.00  0.00    -0.228 C  
BRANCH   4   5
HETATM    5  N   UNL     1     -10.092  16.141  66.059  1.00  0.00    -0.329 N  
HETATM    6  C   UNL     1     -10.625  18.108  67.480  1.00  0.00    -0.419 C  
HETATM    7  O   UNL     1      -8.704  17.888  66.078  1.00  0.00    -0.492 OA 
HETATM    8  H   UNL     1      -9.469  15.718  65.371  1.00  0.00     0.000 HD 
HETATM    9  C   UNL     1      -9.748  17.386  66.493  1.00  0.00    -0.293 C  
ENDBRANCH   4   5
BRANCH   4  10
HETATM   10  C   UNL     1     -11.703  14.396  65.327  1.00  0.00    -0.364 C  
HETATM   11  O   UNL     1     -12.890  14.257  65.039  1.00  0.00    -0.674 OA 
HETATM   12  H   UNL     1      -9.751  13.734  65.087  1.00  0.00     0.000 HD 
HETATM   13  N   UNL     1     -10.709  13.632  64.753  1.00  0.00    -0.387 N  
BRANCH  13  14
HETATM   14  C   UNL     1     -10.986  12.692  63.693  1.00  0.00    -0.416 C  
BRANCH  14  15
HETATM   15  C   UNL     1     -10.246  11.396  63.898  1.00  0.00    -0.415 A  
HETATM   16  C   UNL     1      -9.573  10.771  62.838  1.00  0.00    -0.366 A  
HETATM   17  C   UNL     1      -8.881   9.575  63.048  1.00  0.00    -0.242 A  
HETATM   18  C   UNL     1      -8.862   8.990  64.313  1.00  0.00    -0.089 A  
HETATM   19  C   UNL     1      -9.539   9.595  65.369  1.00  0.00    -0.361 A  
HETATM   20  C   UNL     1     -10.230  10.789  65.162  1.00  0.00    -0.365 A  
ENDBRANCH  14  15
ENDBRANCH  13  14
ENDBRANCH   4  10
ENDBRANCH   3   4
ENDBRANCH   2   3
TORSDOF 6
ENDMDL
MODEL       71
REMARK 921   NORMALIZED FREE ENERGY PREDICTED BY IDOCK:   -4.65 KCAL/MOL
REMARK 922        TOTAL FREE ENERGY PREDICTED BY IDOCK:   -6.69 KCAL/MOL
REMARK 923 INTER-LIGAND FREE ENERGY PREDICTED BY IDOCK:   -6.22 KCAL/MOL
REMARK 924 INTRA-LIGAND FREE ENERGY PREDICTED BY IDOCK:   -0.47 KCAL/MOL
REMARK 927      BINDING AFFINITY PREDICTED BY RF-SCORE:    0.00 PKD
ROOT
HETATM    1  C   UNL     1     -12.037  10.953  69.869  1.00  0.00    -0.354 C  
HETATM    2  O   UNL     1     -12.170  11.489  68.560  1.00  0.00    -0.524 OA 
ENDROOT
BRANCH   2   3
HETATM    3  C   UNL     1     -11.704  12.840  68.486  1.00  0.00    -0.333 C  
BRANCH   3   4
HETATM    4  C   UNL     1     -10.823  13.000  67.241  1.00  0.00    -0.252 C  
BRANCH   4   5
HETATM    5  N   UNL     1     -10.877  11.802  66.385  1.00  0.00    -0.271 N  
HETATM    6  C   UNL     1      -8.439  11.325  66.428  1.00  0.00    -0.169 C  
HETATM    7  O   UNL     1     -10.091  10.007  65.318  1.00  0.00    -0.321 OA 
HETATM    8  H   UNL     1     -11.800  11.541  66.039  1.00  0.00     0.000 HD 
HETATM    9  C   UNL     1      -9.845  11.000  65.999  1.00  0.00    -0.229 C  
ENDBRANCH   4   5
BRANCH   4  10
HETATM   10  C   UNL     1     -11.293  14.250  66.480  1.00  0.00    -0.346 C  
HETATM   11  O   UNL     1     -12.423  14.325  66.002  1.00  0.00    -0.442 OA 
HETATM   12  H   UNL     1      -9.387  15.062  66.613  1.00  0.00     0.000 HD 
HETATM   13  N   UNL     1     -10.331  15.213  66.259  1.00  0.00    -0.282 N  
BRANCH  13  14
HETATM   14  C   UNL     1     -10.623  16.430  65.538  1.00  0.00    -0.330 C  
BRANCH  14  15
HETATM   15  C   UNL     1     -10.089  17.640  66.260  1.00  0.00    -0.344 A  
HETATM   16  C   UNL     1      -9.122  17.513  67.268  1.00  0.00    -0.240 A  
HETATM   17  C   UNL     1      -8.628  18.645  67.921  1.00  0.00    -0.305 A  
HETATM   18  C   UNL     1      -9.101  19.912  67.579  1.00  0.00    -0.432 A  
HETATM   19  C   UNL     1     -10.072  20.048  66.589  1.00  0.00    -0.607 A  
HETATM   20  C   UNL     1     -10.566  18.918  65.936  1.00  0.00    -0.438 A  
ENDBRANCH  14  15
ENDBRANCH  13  14
ENDBRANCH   4  10
ENDBRANCH   3   4
ENDBRANCH   2   3
TORSDOF 6
ENDMDL
MODEL       72
REMARK 921   NORMALIZED FREE ENERGY PREDICTED BY IDOCK:   -4.64 KCAL/MOL
REMARK 922        TOTAL FREE ENERGY PREDICTED BY IDOCK:   -6.67 KCAL/MOL
REMARK 923 INTER-LIGAND FREE ENERGY PREDICTED BY IDOCK:   -6.11 KCAL/MOL
REMARK 924 INTRA-LIGAND FREE ENERGY PREDICTED BY IDOCK:   -0.56 KCAL/MOL
REMARK 927      BINDING AFFINITY PREDICTED BY RF-SCORE:    0.00 PKD
ROOT
HETATM    1  C   UNL     1     -11.396   7.926  72.649  1.00  0.00    -0.408 C  
HETATM    2  O   UNL     1     -11.016   8.073  71.288  1.00  0.00    -0.230 OA 
ENDROOT
BRANCH   2   3
HETATM    3  C   UNL     1     -10.752   9.439  70.951  1.00  0.00    -0.323 C  
BRANCH   3   4
HETATM    4  C   UNL     1     -10.497   9.545  69.442  1.00  0.00    -0.217 C  
BRANCH   4   5
HETATM    5  N   UNL     1     -11.034   8.376  68.722  1.00  0.00    -0.428 N  
HETATM    6  C   UNL     1      -9.813   8.782  66.596  1.00  0.00    -0.335 C  
HETATM    7  O   UNL     1     -11.262   6.935  67.034  1.00  0.00    -0.369 OA 
HETATM    8  H   UNL     1     -11.697   7.798  69.239  1.00  0.00     0.000 HD 
HETATM    9  C   UNL     1     -10.752   7.973  67.451  1.00  0.00    -0.190 C  
ENDBRANCH   4   5
BRANCH   4  10
HETATM   10  C   UNL     1     -11.136  10.850  68.941  1.00  0.00    -0.252 C  
HETATM   11  O   UNL     1     -12.354  11.008  68.934  1.00  0.00    -0.516 OA 
HETATM   12  H   UNL     1      -9.273  11.544  68.344  1.00  0.00     0.000 HD 
HETATM   13  N   UNL     1     -10.268  11.764  68.382  1.00  0.00    -0.201 N  
BRANCH  13  14
HETATM   14  C   UNL     1     -10.729  13.024  67.847  1.00  0.00    -0.235 C  
BRANCH  14  15
HETATM   15  C   UNL     1     -10.962  12.940  66.361  1.00  0.00    -0.310 A  
HETATM   16  C   UNL     1      -9.974  12.437  65.501  1.00  0.00    -0.260 A  
HETATM   17  C   UNL     1     -10.210  12.354  64.126  1.00  0.00    -0.377 A  
HETATM   18  C   UNL     1     -11.428  12.780  63.598  1.00  0.00    -0.544 A  
HETATM   19  C   UNL     1     -12.410  13.294  64.442  1.00  0.00    -0.410 A  
HETATM   20  C   UNL     1     -12.177  13.378  65.815  1.00  0.00    -0.507 A  
ENDBRANCH  14  15
ENDBRANCH  13  14
ENDBRANCH   4  10
ENDBRANCH   3   4
ENDBRANCH   2   3
TORSDOF 6
ENDMDL
MODEL       73
REMARK 921   NORMALIZED FREE ENERGY PREDICTED BY IDOCK:   -4.62 KCAL/MOL
REMARK 922        TOTAL FREE ENERGY PREDICTED BY IDOCK:   -6.65 KCAL/MOL
REMARK 923 INTER-LIGAND FREE ENERGY PREDICTED BY IDOCK:   -6.17 KCAL/MOL
REMARK 924 INTRA-LIGAND FREE ENERGY PREDICTED BY IDOCK:   -0.48 KCAL/MOL
REMARK 927      BINDING AFFINITY PREDICTED BY RF-SCORE:    0.00 PKD
ROOT
HETATM    1  C   UNL     1     -11.610  15.312  71.742  1.00  0.00    -0.427 C  
HETATM    2  O   UNL     1     -12.144  15.064  70.449  1.00  0.00    -0.289 OA 
ENDROOT
BRANCH   2   3
HETATM    3  C   UNL     1     -12.329  13.665  70.207  1.00  0.00    -0.322 C  
BRANCH   3   4
HETATM    4  C   UNL     1     -11.332  13.202  69.139  1.00  0.00    -0.281 C  
BRANCH   4   5
HETATM    5  N   UNL     1     -11.576  11.804  68.744  1.00  0.00    -0.281 N  
HETATM    6  C   UNL     1      -9.281  11.354  67.903  1.00  0.00    -0.164 C  
HETATM    7  O   UNL     1     -11.066   9.770  67.980  1.00  0.00    -0.222 OA 
HETATM    8  H   UNL     1     -12.522  11.454  68.896  1.00  0.00     0.000 HD 
HETATM    9  C   UNL     1     -10.692  10.921  68.200  1.00  0.00    -0.214 C  
ENDBRANCH   4   5
BRANCH   4  10
HETATM   10  C   UNL     1     -11.447  14.150  67.935  1.00  0.00    -0.312 C  
HETATM   11  O   UNL     1     -12.365  14.050  67.123  1.00  0.00    -0.373 OA 
HETATM   12  H   UNL     1      -9.620  15.007  68.420  1.00  0.00     0.000 HD 
HETATM   13  N   UNL     1     -10.394  15.021  67.756  1.00  0.00    -0.243 N  
BRANCH  13  14
HETATM   14  C   UNL     1     -10.355  15.954  66.654  1.00  0.00    -0.300 C  
BRANCH  14  15
HETATM   15  C   UNL     1     -10.242  17.375  67.138  1.00  0.00    -0.323 A  
HETATM   16  C   UNL     1      -9.961  17.662  68.483  1.00  0.00    -0.368 A  
HETATM   17  C   UNL     1      -9.848  18.986  68.915  1.00  0.00    -0.464 A  
HETATM   18  C   UNL     1     -10.022  20.034  68.012  1.00  0.00    -0.550 A  
HETATM   19  C   UNL     1     -10.315  19.761  66.678  1.00  0.00    -0.614 A  
HETATM   20  C   UNL     1     -10.429  18.440  66.244  1.00  0.00    -0.421 A  
ENDBRANCH  14  15
ENDBRANCH  13  14
ENDBRANCH   4  10
ENDBRANCH   3   4
ENDBRANCH   2   3
TORSDOF 6
ENDMDL
MODEL       74
REMARK 921   NORMALIZED FREE ENERGY PREDICTED BY IDOCK:   -4.59 KCAL/MOL
REMARK 922        TOTAL FREE ENERGY PREDICTED BY IDOCK:   -6.60 KCAL/MOL
REMARK 923 INTER-LIGAND FREE ENERGY PREDICTED BY IDOCK:   -6.04 KCAL/MOL
REMARK 924 INTRA-LIGAND FREE ENERGY PREDICTED BY IDOCK:   -0.56 KCAL/MOL
REMARK 927      BINDING AFFINITY PREDICTED BY RF-SCORE:    0.00 PKD
ROOT
HETATM    1  C   UNL     1      -9.964   5.325  69.219  1.00  0.00    -0.215 C  
HETATM    2  O   UNL     1     -10.678   6.321  69.938  1.00  0.00    -0.235 OA 
ENDROOT
BRANCH   2   3
HETATM    3  C   UNL     1     -11.068   5.865  71.238  1.00  0.00    -0.241 C  
BRANCH   3   4
HETATM    4  C   UNL     1     -11.016   7.042  72.220  1.00  0.00    -0.245 C  
BRANCH   4   5
HETATM    5  N   UNL     1      -9.818   7.872  72.004  1.00  0.00    -0.180 N  
HETATM    6  C   UNL     1      -8.759   7.400  74.202  1.00  0.00    -0.267 C  
HETATM    7  O   UNL     1      -7.822   8.753  72.472  1.00  0.00    -0.363 OA 
HETATM    8  H   UNL     1      -9.771   8.366  71.113  1.00  0.00     0.000 HD 
HETATM    9  C   UNL     1      -8.765   8.058  72.848  1.00  0.00    -0.213 C  
ENDBRANCH   4   5
BRANCH   4  10
HETATM   10  C   UNL     1     -12.303   7.864  72.048  1.00  0.00    -0.308 C  
HETATM   11  O   UNL     1     -13.372   7.333  71.756  1.00  0.00    -0.350 OA 
HETATM   12  H   UNL     1     -11.223   9.622  72.278  1.00  0.00     0.000 HD 
HETATM   13  N   UNL     1     -12.150   9.234  72.110  1.00  0.00    -0.329 N  
BRANCH  13  14
HETATM   14  C   UNL     1     -13.267  10.133  71.942  1.00  0.00    -0.452 C  
BRANCH  14  15
HETATM   15  C   UNL     1     -12.833  11.446  71.346  1.00  0.00    -0.502 A  
HETATM   16  C   UNL     1     -11.985  11.489  70.229  1.00  0.00    -0.455 A  
HETATM   17  C   UNL     1     -11.600  12.714  69.679  1.00  0.00    -0.321 A  
HETATM   18  C   UNL     1     -12.051  13.907  70.244  1.00  0.00    -0.423 A  
HETATM   19  C   UNL     1     -12.882  13.876  71.362  1.00  0.00    -0.439 A  
HETATM   20  C   UNL     1     -13.267  12.654  71.912  1.00  0.00    -0.504 A  
ENDBRANCH  14  15
ENDBRANCH  13  14
ENDBRANCH   4  10
ENDBRANCH   3   4
ENDBRANCH   2   3
TORSDOF 6
ENDMDL
MODEL       75
REMARK 921   NORMALIZED FREE ENERGY PREDICTED BY IDOCK:   -4.58 KCAL/MOL
REMARK 922        TOTAL FREE ENERGY PREDICTED BY IDOCK:   -6.59 KCAL/MOL
REMARK 923 INTER-LIGAND FREE ENERGY PREDICTED BY IDOCK:   -6.18 KCAL/MOL
REMARK 924 INTRA-LIGAND FREE ENERGY PREDICTED BY IDOCK:   -0.41 KCAL/MOL
REMARK 927      BINDING AFFINITY PREDICTED BY RF-SCORE:    0.00 PKD
ROOT
HETATM    1  C   UNL     1      -7.374   8.666  70.630  1.00  0.00    -0.064 C  
HETATM    2  O   UNL     1      -8.694   8.449  70.152  1.00  0.00    -0.131 OA 
ENDROOT
BRANCH   2   3
HETATM    3  C   UNL     1      -9.624   9.384  70.708  1.00  0.00    -0.255 C  
BRANCH   3   4
HETATM    4  C   UNL     1     -10.969   9.248  69.983  1.00  0.00    -0.229 C  
BRANCH   4   5
HETATM    5  N   UNL     1     -11.961   8.544  70.815  1.00  0.00    -0.463 N  
HETATM    6  C   UNL     1     -11.486   6.268  69.935  1.00  0.00    -0.459 C  
HETATM    7  O   UNL     1     -13.062   6.793  71.651  1.00  0.00    -0.328 OA 
HETATM    8  H   UNL     1     -12.515   9.128  71.441  1.00  0.00     0.000 HD 
HETATM    9  C   UNL     1     -12.227   7.208  70.850  1.00  0.00    -0.312 C  
ENDBRANCH   4   5
BRANCH   4  10
HETATM   10  C   UNL     1     -11.454  10.658  69.610  1.00  0.00    -0.291 C  
HETATM   11  O   UNL     1     -12.047  11.369  70.418  1.00  0.00    -0.341 OA 
HETATM   12  H   UNL     1     -10.871  10.349  67.642  1.00  0.00     0.000 HD 
HETATM   13  N   UNL     1     -11.301  11.012  68.286  1.00  0.00    -0.277 N  
BRANCH  13  14
HETATM   14  C   UNL     1     -11.733  12.296  67.786  1.00  0.00    -0.337 C  
BRANCH  14  15
HETATM   15  C   UNL     1     -11.622  12.369  66.285  1.00  0.00    -0.449 A  
HETATM   16  C   UNL     1     -10.858  11.435  65.570  1.00  0.00    -0.282 A  
HETATM   17  C   UNL     1     -10.774  11.509  64.177  1.00  0.00    -0.428 A  
HETATM   18  C   UNL     1     -11.445  12.518  63.488  1.00  0.00    -0.570 A  
HETATM   19  C   UNL     1     -12.195  13.459  64.190  1.00  0.00    -0.457 A  
HETATM   20  C   UNL     1     -12.280  13.387  65.581  1.00  0.00    -0.510 A  
ENDBRANCH  14  15
ENDBRANCH  13  14
ENDBRANCH   4  10
ENDBRANCH   3   4
ENDBRANCH   2   3
TORSDOF 6
ENDMDL
MODEL       76
REMARK 921   NORMALIZED FREE ENERGY PREDICTED BY IDOCK:   -4.58 KCAL/MOL
REMARK 922        TOTAL FREE ENERGY PREDICTED BY IDOCK:   -6.59 KCAL/MOL
REMARK 923 INTER-LIGAND FREE ENERGY PREDICTED BY IDOCK:   -6.08 KCAL/MOL
REMARK 924 INTRA-LIGAND FREE ENERGY PREDICTED BY IDOCK:   -0.50 KCAL/MOL
REMARK 927      BINDING AFFINITY PREDICTED BY RF-SCORE:    0.00 PKD
ROOT
HETATM    1  C   UNL     1     -12.871  15.631  71.866  1.00  0.00    -0.449 C  
HETATM    2  O   UNL     1     -11.945  16.023  70.862  1.00  0.00    -0.398 OA 
ENDROOT
BRANCH   2   3
HETATM    3  C   UNL     1     -12.059  15.216  69.686  1.00  0.00    -0.304 C  
BRANCH   3   4
HETATM    4  C   UNL     1     -10.863  14.258  69.615  1.00  0.00    -0.064 C  
BRANCH   4   5
HETATM    5  N   UNL     1     -11.200  13.030  68.874  1.00  0.00    -0.266 N  
HETATM    6  C   UNL     1     -12.270  11.847  70.779  1.00  0.00    -0.401 C  
HETATM    7  O   UNL     1     -12.084  11.007  68.551  1.00  0.00    -0.573 OA 
HETATM    8  H   UNL     1     -10.916  13.007  67.894  1.00  0.00     0.000 HD 
HETATM    9  C   UNL     1     -11.845  11.922  69.337  1.00  0.00    -0.327 C  
ENDBRANCH   4   5
BRANCH   4  10
HETATM   10  C   UNL     1      -9.692  15.004  68.956  1.00  0.00    -0.229 C  
HETATM   11  O   UNL     1      -8.712  15.363  69.605  1.00  0.00    -0.257 OA 
HETATM   12  H   UNL     1     -10.742  15.096  67.168  1.00  0.00     0.000 HD 
HETATM   13  N   UNL     1      -9.874  15.354  67.635  1.00  0.00    -0.220 N  
BRANCH  13  14
HETATM   14  C   UNL     1      -8.868  16.078  66.893  1.00  0.00    -0.231 C  
BRANCH  14  15
HETATM   15  C   UNL     1      -9.136  17.560  66.903  1.00  0.00    -0.265 A  
HETATM   16  C   UNL     1     -10.409  18.068  66.604  1.00  0.00    -0.375 A  
HETATM   17  C   UNL     1     -10.645  19.445  66.629  1.00  0.00    -0.566 A  
HETATM   18  C   UNL     1      -9.612  20.326  66.945  1.00  0.00    -0.564 A  
HETATM   19  C   UNL     1      -8.340  19.834  67.230  1.00  0.00    -0.351 A  
HETATM   20  C   UNL     1      -8.103  18.459  67.206  1.00  0.00    -0.243 A  
ENDBRANCH  14  15
ENDBRANCH  13  14
ENDBRANCH   4  10
ENDBRANCH   3   4
ENDBRANCH   2   3
TORSDOF 6
ENDMDL
MODEL       77
REMARK 921   NORMALIZED FREE ENERGY PREDICTED BY IDOCK:   -4.55 KCAL/MOL
REMARK 922        TOTAL FREE ENERGY PREDICTED BY IDOCK:   -6.55 KCAL/MOL
REMARK 923 INTER-LIGAND FREE ENERGY PREDICTED BY IDOCK:   -5.98 KCAL/MOL
REMARK 924 INTRA-LIGAND FREE ENERGY PREDICTED BY IDOCK:   -0.57 KCAL/MOL
REMARK 927      BINDING AFFINITY PREDICTED BY RF-SCORE:    0.00 PKD
ROOT
HETATM    1  C   UNL     1     -11.257  15.403  65.194  1.00  0.00    -0.350 C  
HETATM    2  O   UNL     1     -10.104  14.592  65.374  1.00  0.00    -0.349 OA 
ENDROOT
BRANCH   2   3
HETATM    3  C   UNL     1     -10.425  13.197  65.362  1.00  0.00    -0.296 C  
BRANCH   3   4
HETATM    4  C   UNL     1      -9.706  12.506  66.526  1.00  0.00    -0.246 C  
BRANCH   4   5
HETATM    5  N   UNL     1      -8.830  13.443  67.252  1.00  0.00    -0.211 N  
HETATM    6  C   UNL     1      -6.827  11.974  67.288  1.00  0.00    -0.150 C  
HETATM    7  O   UNL     1      -6.939  14.190  68.170  1.00  0.00    -0.098 OA 
HETATM    8  H   UNL     1      -9.253  14.332  67.521  1.00  0.00     0.000 HD 
HETATM    9  C   UNL     1      -7.527  13.268  67.607  1.00  0.00    -0.171 C  
ENDBRANCH   4   5
BRANCH   4  10
HETATM   10  C   UNL     1     -10.771  11.904  67.456  1.00  0.00    -0.225 C  
HETATM   11  O   UNL     1     -11.495  10.980  67.092  1.00  0.00    -0.447 OA 
HETATM   12  H   UNL     1     -10.370  13.362  68.877  1.00  0.00     0.000 HD 
HETATM   13  N   UNL     1     -10.948  12.551  68.661  1.00  0.00    -0.245 N  
BRANCH  13  14
HETATM   14  C   UNL     1     -11.929  12.112  69.625  1.00  0.00    -0.284 C  
BRANCH  14  15
HETATM   15  C   UNL     1     -12.399  13.251  70.491  1.00  0.00    -0.389 A  
HETATM   16  C   UNL     1     -12.078  14.580  70.177  1.00  0.00    -0.394 A  
HETATM   17  C   UNL     1     -12.530  15.627  70.984  1.00  0.00    -0.501 A  
HETATM   18  C   UNL     1     -13.301  15.356  72.114  1.00  0.00    -0.541 A  
HETATM   19  C   UNL     1     -13.614  14.039  72.443  1.00  0.00    -0.658 A  
HETATM   20  C   UNL     1     -13.162  12.992  71.639  1.00  0.00    -0.426 A  
ENDBRANCH  14  15
ENDBRANCH  13  14
ENDBRANCH   4  10
ENDBRANCH   3   4
ENDBRANCH   2   3
TORSDOF 6
ENDMDL
MODEL       78
REMARK 921   NORMALIZED FREE ENERGY PREDICTED BY IDOCK:   -4.55 KCAL/MOL
REMARK 922        TOTAL FREE ENERGY PREDICTED BY IDOCK:   -6.55 KCAL/MOL
REMARK 923 INTER-LIGAND FREE ENERGY PREDICTED BY IDOCK:   -6.02 KCAL/MOL
REMARK 924 INTRA-LIGAND FREE ENERGY PREDICTED BY IDOCK:   -0.53 KCAL/MOL
REMARK 927      BINDING AFFINITY PREDICTED BY RF-SCORE:    0.00 PKD
ROOT
HETATM    1  C   UNL     1      -9.235   6.860  68.012  1.00  0.00    -0.121 C  
HETATM    2  O   UNL     1      -9.271   8.072  68.753  1.00  0.00    -0.144 OA 
ENDROOT
BRANCH   2   3
HETATM    3  C   UNL     1     -10.524   8.749  68.608  1.00  0.00    -0.183 C  
BRANCH   3   4
HETATM    4  C   UNL     1     -10.963   9.291  69.974  1.00  0.00    -0.229 C  
BRANCH   4   5
HETATM    5  N   UNL     1      -9.858   9.258  70.948  1.00  0.00    -0.285 N  
HETATM    6  C   UNL     1     -11.028   7.866  72.640  1.00  0.00    -0.440 C  
HETATM    7  O   UNL     1      -8.785   8.665  72.812  1.00  0.00    -0.387 OA 
HETATM    8  H   UNL     1      -9.017   9.773  70.687  1.00  0.00     0.000 HD 
HETATM    9  C   UNL     1      -9.822   8.622  72.152  1.00  0.00    -0.317 C  
ENDBRANCH   4   5
BRANCH   4  10
HETATM   10  C   UNL     1     -11.487  10.723  69.773  1.00  0.00    -0.311 C  
HETATM   11  O   UNL     1     -12.118  11.305  70.652  1.00  0.00    -0.355 OA 
HETATM   12  H   UNL     1     -10.854  10.689  67.797  1.00  0.00     0.000 HD 
HETATM   13  N   UNL     1     -11.318  11.250  68.510  1.00  0.00    -0.249 N  
BRANCH  13  14
HETATM   14  C   UNL     1     -11.781  12.575  68.170  1.00  0.00    -0.348 C  
BRANCH  14  15
HETATM   15  C   UNL     1     -11.809  12.782  66.678  1.00  0.00    -0.462 A  
HETATM   16  C   UNL     1     -12.343  13.953  66.120  1.00  0.00    -0.504 A  
HETATM   17  C   UNL     1     -12.352  14.135  64.734  1.00  0.00    -0.436 A  
HETATM   18  C   UNL     1     -11.836  13.149  63.895  1.00  0.00    -0.533 A  
HETATM   19  C   UNL     1     -11.316  11.976  64.439  1.00  0.00    -0.411 A  
HETATM   20  C   UNL     1     -11.307  11.792  65.822  1.00  0.00    -0.309 A  
ENDBRANCH  14  15
ENDBRANCH  13  14
ENDBRANCH   4  10
ENDBRANCH   3   4
ENDBRANCH   2   3
TORSDOF 6
ENDMDL
MODEL       79
REMARK 921   NORMALIZED FREE ENERGY PREDICTED BY IDOCK:   -4.55 KCAL/MOL
REMARK 922        TOTAL FREE ENERGY PREDICTED BY IDOCK:   -6.54 KCAL/MOL
REMARK 923 INTER-LIGAND FREE ENERGY PREDICTED BY IDOCK:   -6.63 KCAL/MOL
REMARK 924 INTRA-LIGAND FREE ENERGY PREDICTED BY IDOCK:    0.08 KCAL/MOL
REMARK 927      BINDING AFFINITY PREDICTED BY RF-SCORE:    0.00 PKD
ROOT
HETATM    1  C   UNL     1     -12.702  15.912  72.661  1.00  0.00    -0.463 C  
HETATM    2  O   UNL     1     -12.424  15.943  71.268  1.00  0.00    -0.442 OA 
ENDROOT
BRANCH   2   3
HETATM    3  C   UNL     1     -12.831  14.737  70.614  1.00  0.00    -0.343 C  
BRANCH   3   4
HETATM    4  C   UNL     1     -11.589  13.903  70.276  1.00  0.00    -0.147 C  
BRANCH   4   5
HETATM    5  N   UNL     1     -11.926  12.478  70.112  1.00  0.00    -0.458 N  
HETATM    6  C   UNL     1     -13.265  12.272  72.194  1.00  0.00    -0.466 C  
HETATM    7  O   UNL     1     -12.901  10.531  70.601  1.00  0.00    -0.358 OA 
HETATM    8  H   UNL     1     -11.542  12.020  69.285  1.00  0.00     0.000 HD 
HETATM    9  C   UNL     1     -12.686  11.697  70.929  1.00  0.00    -0.258 C  
ENDBRANCH   4   5
BRANCH   4  10
HETATM   10  C   UNL     1     -10.962  14.479  68.997  1.00  0.00    -0.257 C  
HETATM   11  O   UNL     1      -9.954  15.182  69.035  1.00  0.00    -0.221 OA 
HETATM   12  H   UNL     1     -12.544  13.742  67.875  1.00  0.00     0.000 HD 
HETATM   13  N   UNL     1     -11.672  14.268  67.834  1.00  0.00    -0.342 N  
BRANCH  13  14
HETATM   14  C   UNL     1     -11.216  14.771  66.560  1.00  0.00    -0.342 C  
BRANCH  14  15
HETATM   15  C   UNL     1     -11.257  13.704  65.499  1.00  0.00    -0.301 A  
HETATM   16  C   UNL     1     -10.413  12.585  65.563  1.00  0.00    -0.305 A  
HETATM   17  C   UNL     1     -10.472  11.597  64.577  1.00  0.00    -0.359 A  
HETATM   18  C   UNL     1     -11.367  11.720  63.516  1.00  0.00    -0.496 A  
HETATM   19  C   UNL     1     -12.201  12.833  63.434  1.00  0.00    -0.594 A  
HETATM   20  C   UNL     1     -12.143  13.821  64.418  1.00  0.00    -0.474 A  
ENDBRANCH  14  15
ENDBRANCH  13  14
ENDBRANCH   4  10
ENDBRANCH   3   4
ENDBRANCH   2   3
TORSDOF 6
ENDMDL
MODEL       80
REMARK 921   NORMALIZED FREE ENERGY PREDICTED BY IDOCK:   -4.53 KCAL/MOL
REMARK 922        TOTAL FREE ENERGY PREDICTED BY IDOCK:   -6.53 KCAL/MOL
REMARK 923 INTER-LIGAND FREE ENERGY PREDICTED BY IDOCK:   -5.94 KCAL/MOL
REMARK 924 INTRA-LIGAND FREE ENERGY PREDICTED BY IDOCK:   -0.59 KCAL/MOL
REMARK 927      BINDING AFFINITY PREDICTED BY RF-SCORE:    0.00 PKD
ROOT
HETATM    1  C   UNL     1     -12.403  13.396  64.894  1.00  0.00    -0.412 C  
HETATM    2  O   UNL     1     -11.803  14.672  64.725  1.00  0.00    -0.404 OA 
ENDROOT
BRANCH   2   3
HETATM    3  C   UNL     1     -10.649  14.835  65.556  1.00  0.00    -0.359 C  
BRANCH   3   4
HETATM    4  C   UNL     1     -11.022  14.501  67.006  1.00  0.00    -0.312 C  
BRANCH   4   5
HETATM    5  N   UNL     1     -10.031  13.602  67.623  1.00  0.00    -0.234 N  
HETATM    6  C   UNL     1     -11.665  11.919  68.444  1.00  0.00    -0.387 C  
HETATM    7  O   UNL     1      -9.292  11.780  68.678  1.00  0.00    -0.173 OA 
HETATM    8  H   UNL     1      -9.057  13.899  67.560  1.00  0.00     0.000 HD 
HETATM    9  C   UNL     1     -10.257  12.423  68.268  1.00  0.00    -0.229 C  
ENDBRANCH   4   5
BRANCH   4  10
HETATM   10  C   UNL     1     -11.139  15.821  67.785  1.00  0.00    -0.313 C  
HETATM   11  O   UNL     1     -11.782  15.895  68.830  1.00  0.00    -0.387 OA 
HETATM   12  H   UNL     1     -10.141  16.820  66.264  1.00  0.00     0.000 HD 
HETATM   13  N   UNL     1     -10.596  16.929  67.170  1.00  0.00    -0.290 N  
BRANCH  13  14
HETATM   14  C   UNL     1     -10.652  18.240  67.774  1.00  0.00    -0.393 C  
BRANCH  14  15
HETATM   15  C   UNL     1      -9.314  18.928  67.723  1.00  0.00    -0.330 A  
HETATM   16  C   UNL     1      -8.947  19.717  66.623  1.00  0.00    -0.437 A  
HETATM   17  C   UNL     1      -7.706  20.359  66.596  1.00  0.00    -0.280 A  
HETATM   18  C   UNL     1      -6.818  20.212  67.661  1.00  0.00    -0.290 A  
HETATM   19  C   UNL     1      -7.167  19.419  68.752  1.00  0.00    -0.390 A  
HETATM   20  C   UNL     1      -8.405  18.777  68.781  1.00  0.00    -0.322 A  
ENDBRANCH  14  15
ENDBRANCH  13  14
ENDBRANCH   4  10
ENDBRANCH   3   4
ENDBRANCH   2   3
TORSDOF 6
ENDMDL
MODEL       81
REMARK 921   NORMALIZED FREE ENERGY PREDICTED BY IDOCK:   -4.53 KCAL/MOL
REMARK 922        TOTAL FREE ENERGY PREDICTED BY IDOCK:   -6.52 KCAL/MOL
REMARK 923 INTER-LIGAND FREE ENERGY PREDICTED BY IDOCK:   -6.06 KCAL/MOL
REMARK 924 INTRA-LIGAND FREE ENERGY PREDICTED BY IDOCK:   -0.47 KCAL/MOL
REMARK 927      BINDING AFFINITY PREDICTED BY RF-SCORE:    0.00 PKD
ROOT
HETATM    1  C   UNL     1     -14.335   8.630  72.088  1.00  0.00    -0.427 C  
HETATM    2  O   UNL     1     -12.940   8.585  72.356  1.00  0.00    -0.351 OA 
ENDROOT
BRANCH   2   3
HETATM    3  C   UNL     1     -12.176   8.335  71.171  1.00  0.00    -0.233 C  
BRANCH   3   4
HETATM    4  C   UNL     1     -10.897   9.178  71.211  1.00  0.00    -0.332 C  
BRANCH   4   5
HETATM    5  N   UNL     1      -9.725   8.399  70.772  1.00  0.00    -0.171 N  
HETATM    6  C   UNL     1      -8.537   8.442  72.954  1.00  0.00    -0.232 C  
HETATM    7  O   UNL     1      -7.780   7.327  70.982  1.00  0.00    -0.087 OA 
HETATM    8  H   UNL     1      -9.723   8.105  69.795  1.00  0.00     0.000 HD 
HETATM    9  C   UNL     1      -8.644   8.024  71.512  1.00  0.00    -0.128 C  
ENDBRANCH   4   5
BRANCH   4  10
HETATM   10  C   UNL     1     -11.110  10.413  70.321  1.00  0.00    -0.307 C  
HETATM   11  O   UNL     1     -10.455  10.588  69.296  1.00  0.00    -0.210 OA 
HETATM   12  H   UNL     1     -12.438  11.198  71.710  1.00  0.00     0.000 HD 
HETATM   13  N   UNL     1     -11.980  11.363  70.814  1.00  0.00    -0.320 N  
BRANCH  13  14
HETATM   14  C   UNL     1     -12.260  12.585  70.097  1.00  0.00    -0.234 C  
BRANCH  14  15
HETATM   15  C   UNL     1     -12.367  13.760  71.033  1.00  0.00    -0.452 A  
HETATM   16  C   UNL     1     -13.213  13.720  72.152  1.00  0.00    -0.538 A  
HETATM   17  C   UNL     1     -13.292  14.814  73.017  1.00  0.00    -0.543 A  
HETATM   18  C   UNL     1     -12.534  15.958  72.770  1.00  0.00    -0.565 A  
HETATM   19  C   UNL     1     -11.701  16.014  71.655  1.00  0.00    -0.583 A  
HETATM   20  C   UNL     1     -11.621  14.923  70.789  1.00  0.00    -0.345 A  
ENDBRANCH  14  15
ENDBRANCH  13  14
ENDBRANCH   4  10
ENDBRANCH   3   4
ENDBRANCH   2   3
TORSDOF 6
ENDMDL
MODEL       82
REMARK 921   NORMALIZED FREE ENERGY PREDICTED BY IDOCK:   -4.52 KCAL/MOL
REMARK 922        TOTAL FREE ENERGY PREDICTED BY IDOCK:   -6.51 KCAL/MOL
REMARK 923 INTER-LIGAND FREE ENERGY PREDICTED BY IDOCK:   -5.94 KCAL/MOL
REMARK 924 INTRA-LIGAND FREE ENERGY PREDICTED BY IDOCK:   -0.57 KCAL/MOL
REMARK 927      BINDING AFFINITY PREDICTED BY RF-SCORE:    0.00 PKD
ROOT
HETATM    1  C   UNL     1     -10.954   6.002  69.626  1.00  0.00    -0.400 C  
HETATM    2  O   UNL     1     -11.373   7.283  70.075  1.00  0.00    -0.247 OA 
ENDROOT
BRANCH   2   3
HETATM    3  C   UNL     1     -11.841   7.249  71.428  1.00  0.00    -0.305 C  
BRANCH   3   4
HETATM    4  C   UNL     1     -11.337   8.494  72.167  1.00  0.00    -0.372 C  
BRANCH   4   5
HETATM    5  N   UNL     1      -9.917   8.759  71.870  1.00  0.00    -0.317 N  
HETATM    6  C   UNL     1      -9.006   7.670  73.909  1.00  0.00    -0.321 C  
HETATM    7  O   UNL     1      -7.708   8.666  72.169  1.00  0.00    -0.258 OA 
HETATM    8  H   UNL     1      -9.729   9.273  71.010  1.00  0.00     0.000 HD 
HETATM    9  C   UNL     1      -8.827   8.400  72.604  1.00  0.00    -0.217 C  
ENDBRANCH   4   5
BRANCH   4  10
HETATM   10  C   UNL     1     -12.222   9.682  71.759  1.00  0.00    -0.384 C  
HETATM   11  O   UNL     1     -13.413   9.730  72.060  1.00  0.00    -0.413 OA 
HETATM   12  H   UNL     1     -10.660  10.480  70.650  1.00  0.00     0.000 HD 
HETATM   13  N   UNL     1     -11.631  10.613  70.931  1.00  0.00    -0.293 N  
BRANCH  13  14
HETATM   14  C   UNL     1     -12.350  11.769  70.449  1.00  0.00    -0.277 C  
BRANCH  14  15
HETATM   15  C   UNL     1     -11.918  12.144  69.055  1.00  0.00    -0.302 A  
HETATM   16  C   UNL     1     -11.437  11.177  68.161  1.00  0.00    -0.373 A  
HETATM   17  C   UNL     1     -11.052  11.539  66.867  1.00  0.00    -0.366 A  
HETATM   18  C   UNL     1     -11.135  12.869  66.459  1.00  0.00    -0.318 A  
HETATM   19  C   UNL     1     -11.598  13.841  67.344  1.00  0.00    -0.393 A  
HETATM   20  C   UNL     1     -11.983  13.481  68.636  1.00  0.00    -0.378 A  
ENDBRANCH  14  15
ENDBRANCH  13  14
ENDBRANCH   4  10
ENDBRANCH   3   4
ENDBRANCH   2   3
TORSDOF 6
ENDMDL
MODEL       83
REMARK 921   NORMALIZED FREE ENERGY PREDICTED BY IDOCK:   -4.52 KCAL/MOL
REMARK 922        TOTAL FREE ENERGY PREDICTED BY IDOCK:   -6.50 KCAL/MOL
REMARK 923 INTER-LIGAND FREE ENERGY PREDICTED BY IDOCK:   -5.96 KCAL/MOL
REMARK 924 INTRA-LIGAND FREE ENERGY PREDICTED BY IDOCK:   -0.54 KCAL/MOL
REMARK 927      BINDING AFFINITY PREDICTED BY RF-SCORE:    0.00 PKD
ROOT
HETATM    1  C   UNL     1      -9.993   5.388  70.866  1.00  0.00    -0.202 C  
HETATM    2  O   UNL     1     -10.513   5.072  69.582  1.00  0.00    -0.255 OA 
ENDROOT
BRANCH   2   3
HETATM    3  C   UNL     1     -11.180   6.189  68.986  1.00  0.00    -0.304 C  
BRANCH   3   4
HETATM    4  C   UNL     1     -10.463   6.568  67.684  1.00  0.00    -0.230 C  
BRANCH   4   5
HETATM    5  N   UNL     1     -11.071   5.899  66.520  1.00  0.00    -0.760 N  
HETATM    6  C   UNL     1      -9.385   4.082  66.341  1.00  0.00    -0.186 C  
HETATM    7  O   UNL     1     -11.312   4.329  64.953  1.00  0.00    -0.278 OA 
HETATM    8  H   UNL     1     -11.915   6.332  66.145  1.00  0.00     0.000 HD 
HETATM    9  C   UNL     1     -10.642   4.772  65.884  1.00  0.00    -0.244 C  
ENDBRANCH   4   5
BRANCH   4  10
HETATM   10  C   UNL     1     -10.515   8.097  67.538  1.00  0.00    -0.256 C  
HETATM   11  O   UNL     1     -10.343   8.645  66.452  1.00  0.00    -0.262 OA 
HETATM   12  H   UNL     1     -10.694   8.299  69.596  1.00  0.00     0.000 HD 
HETATM   13  N   UNL     1     -10.633   8.807  68.714  1.00  0.00    -0.186 N  
BRANCH  13  14
HETATM   14  C   UNL     1     -10.670  10.251  68.733  1.00  0.00    -0.219 C  
BRANCH  14  15
HETATM   15  C   UNL     1     -11.562  10.764  69.832  1.00  0.00    -0.410 A  
HETATM   16  C   UNL     1     -11.801  12.138  69.989  1.00  0.00    -0.383 A  
HETATM   17  C   UNL     1     -12.640  12.598  71.007  1.00  0.00    -0.354 A  
HETATM   18  C   UNL     1     -13.241  11.694  71.881  1.00  0.00    -0.475 A  
HETATM   19  C   UNL     1     -12.999  10.329  71.743  1.00  0.00    -0.574 A  
HETATM   20  C   UNL     1     -12.162   9.867  70.728  1.00  0.00    -0.380 A  
ENDBRANCH  14  15
ENDBRANCH  13  14
ENDBRANCH   4  10
ENDBRANCH   3   4
ENDBRANCH   2   3
TORSDOF 6
ENDMDL
MODEL       84
REMARK 921   NORMALIZED FREE ENERGY PREDICTED BY IDOCK:   -4.48 KCAL/MOL
REMARK 922        TOTAL FREE ENERGY PREDICTED BY IDOCK:   -6.46 KCAL/MOL
REMARK 923 INTER-LIGAND FREE ENERGY PREDICTED BY IDOCK:   -5.98 KCAL/MOL
REMARK 924 INTRA-LIGAND FREE ENERGY PREDICTED BY IDOCK:   -0.48 KCAL/MOL
REMARK 927      BINDING AFFINITY PREDICTED BY RF-SCORE:    0.00 PKD
ROOT
HETATM    1  C   UNL     1      -7.772  11.410  68.544  1.00  0.00    -0.133 C  
HETATM    2  O   UNL     1      -8.738  12.041  67.716  1.00  0.00    -0.147 OA 
ENDROOT
BRANCH   2   3
HETATM    3  C   UNL     1      -9.373  13.141  68.378  1.00  0.00    -0.154 C  
BRANCH   3   4
HETATM    4  C   UNL     1     -10.890  13.037  68.183  1.00  0.00    -0.247 C  
BRANCH   4   5
HETATM    5  N   UNL     1     -11.610  13.220  69.456  1.00  0.00    -0.357 N  
HETATM    6  C   UNL     1     -11.868  10.803  69.972  1.00  0.00    -0.424 C  
HETATM    7  O   UNL     1     -12.600  12.604  71.359  1.00  0.00    -0.314 OA 
HETATM    8  H   UNL     1     -11.794  14.184  69.731  1.00  0.00     0.000 HD 
HETATM    9  C   UNL     1     -12.059  12.257  70.310  1.00  0.00    -0.295 C  
ENDBRANCH   4   5
BRANCH   4  10
HETATM   10  C   UNL     1     -11.312  14.091  67.148  1.00  0.00    -0.331 C  
HETATM   11  O   UNL     1     -12.270  13.910  66.400  1.00  0.00    -0.435 OA 
HETATM   12  H   UNL     1      -9.648  15.238  67.621  1.00  0.00     0.000 HD 
HETATM   13  N   UNL     1     -10.474  15.179  67.026  1.00  0.00    -0.276 N  
BRANCH  13  14
HETATM   14  C   UNL     1     -10.731  16.237  66.077  1.00  0.00    -0.214 C  
BRANCH  14  15
HETATM   15  C   UNL     1     -10.476  17.593  66.681  1.00  0.00    -0.286 A  
HETATM   16  C   UNL     1     -10.402  18.741  65.879  1.00  0.00    -0.385 A  
HETATM   17  C   UNL     1     -10.177  19.994  66.456  1.00  0.00    -0.598 A  
HETATM   18  C   UNL     1     -10.015  20.110  67.836  1.00  0.00    -0.537 A  
HETATM   19  C   UNL     1     -10.073  18.974  68.641  1.00  0.00    -0.449 A  
HETATM   20  C   UNL     1     -10.298  17.723  68.067  1.00  0.00    -0.395 A  
ENDBRANCH  14  15
ENDBRANCH  13  14
ENDBRANCH   4  10
ENDBRANCH   3   4
ENDBRANCH   2   3
TORSDOF 6
ENDMDL
MODEL       85
REMARK 921   NORMALIZED FREE ENERGY PREDICTED BY IDOCK:   -4.47 KCAL/MOL
REMARK 922        TOTAL FREE ENERGY PREDICTED BY IDOCK:   -6.44 KCAL/MOL
REMARK 923 INTER-LIGAND FREE ENERGY PREDICTED BY IDOCK:   -6.06 KCAL/MOL
REMARK 924 INTRA-LIGAND FREE ENERGY PREDICTED BY IDOCK:   -0.38 KCAL/MOL
REMARK 927      BINDING AFFINITY PREDICTED BY RF-SCORE:    0.00 PKD
ROOT
HETATM    1  C   UNL     1      -9.867   9.981  65.674  1.00  0.00    -0.295 C  
HETATM    2  O   UNL     1     -10.201  11.108  66.472  1.00  0.00    -0.216 OA 
ENDROOT
BRANCH   2   3
HETATM    3  C   UNL     1      -9.898  12.341  65.811  1.00  0.00    -0.244 C  
BRANCH   3   4
HETATM    4  C   UNL     1     -10.132  13.504  66.781  1.00  0.00    -0.268 C  
BRANCH   4   5
HETATM    5  N   UNL     1     -10.338  14.774  66.061  1.00  0.00    -0.290 N  
HETATM    6  C   UNL     1      -8.335  15.930  66.969  1.00  0.00    -0.255 C  
HETATM    7  O   UNL     1      -9.865  16.844  65.379  1.00  0.00    -0.537 OA 
HETATM    8  H   UNL     1     -11.166  14.821  65.467  1.00  0.00     0.000 HD 
HETATM    9  C   UNL     1      -9.558  15.890  66.092  1.00  0.00    -0.333 C  
ENDBRANCH   4   5
BRANCH   4  10
HETATM   10  C   UNL     1     -11.345  13.158  67.659  1.00  0.00    -0.298 C  
HETATM   11  O   UNL     1     -12.477  13.080  67.189  1.00  0.00    -0.242 OA 
HETATM   12  H   UNL     1     -10.150  13.223  69.355  1.00  0.00     0.000 HD 
HETATM   13  N   UNL     1     -11.099  13.073  69.013  1.00  0.00    -0.248 N  
BRANCH  13  14
HETATM   14  C   UNL     1     -12.147  12.778  69.962  1.00  0.00    -0.285 C  
BRANCH  14  15
HETATM   15  C   UNL     1     -12.063  11.356  70.451  1.00  0.00    -0.473 A  
HETATM   16  C   UNL     1     -12.914  10.887  71.463  1.00  0.00    -0.556 A  
HETATM   17  C   UNL     1     -12.831   9.562  71.898  1.00  0.00    -0.508 A  
HETATM   18  C   UNL     1     -11.895   8.697  71.334  1.00  0.00    -0.352 A  
HETATM   19  C   UNL     1     -11.035   9.156  70.339  1.00  0.00    -0.290 A  
HETATM   20  C   UNL     1     -11.116  10.479  69.903  1.00  0.00    -0.371 A  
ENDBRANCH  14  15
ENDBRANCH  13  14
ENDBRANCH   4  10
ENDBRANCH   3   4
ENDBRANCH   2   3
TORSDOF 6
ENDMDL
MODEL       86
REMARK 921   NORMALIZED FREE ENERGY PREDICTED BY IDOCK:   -4.46 KCAL/MOL
REMARK 922        TOTAL FREE ENERGY PREDICTED BY IDOCK:   -6.44 KCAL/MOL
REMARK 923 INTER-LIGAND FREE ENERGY PREDICTED BY IDOCK:   -6.00 KCAL/MOL
REMARK 924 INTRA-LIGAND FREE ENERGY PREDICTED BY IDOCK:   -0.44 KCAL/MOL
REMARK 927      BINDING AFFINITY PREDICTED BY RF-SCORE:    0.00 PKD
ROOT
HETATM    1  C   UNL     1      -6.454  12.827  68.966  1.00  0.00    -0.096 C  
HETATM    2  O   UNL     1      -7.609  13.627  68.758  1.00  0.00    -0.125 OA 
ENDROOT
BRANCH   2   3
HETATM    3  C   UNL     1      -7.547  14.346  67.521  1.00  0.00    -0.193 C  
BRANCH   3   4
HETATM    4  C   UNL     1      -8.340  15.651  67.657  1.00  0.00    -0.155 C  
BRANCH   4   5
HETATM    5  N   UNL     1      -8.040  16.580  66.553  1.00  0.00    -0.277 N  
HETATM    6  C   UNL     1      -6.624  18.131  67.881  1.00  0.00    -0.195 C  
HETATM    7  O   UNL     1      -7.087  18.328  65.546  1.00  0.00    -0.523 OA 
HETATM    8  H   UNL     1      -8.465  16.358  65.653  1.00  0.00     0.000 HD 
HETATM    9  C   UNL     1      -7.264  17.700  66.588  1.00  0.00    -0.229 C  
ENDBRANCH   4   5
BRANCH   4  10
HETATM   10  C   UNL     1      -9.835  15.298  67.698  1.00  0.00    -0.217 C  
HETATM   11  O   UNL     1     -10.431  14.904  66.698  1.00  0.00    -0.281 OA 
HETATM   12  H   UNL     1      -9.953  15.979  69.655  1.00  0.00     0.000 HD 
HETATM   13  N   UNL     1     -10.484  15.579  68.883  1.00  0.00    -0.215 N  
BRANCH  13  14
HETATM   14  C   UNL     1     -11.894  15.323  69.059  1.00  0.00    -0.318 C  
BRANCH  14  15
HETATM   15  C   UNL     1     -12.279  15.336  70.515  1.00  0.00    -0.415 A  
HETATM   16  C   UNL     1     -11.649  16.201  71.422  1.00  0.00    -0.495 A  
HETATM   17  C   UNL     1     -12.025  16.210  72.768  1.00  0.00    -0.638 A  
HETATM   18  C   UNL     1     -13.026  15.351  73.220  1.00  0.00    -0.648 A  
HETATM   19  C   UNL     1     -13.648  14.478  72.330  1.00  0.00    -0.566 A  
HETATM   20  C   UNL     1     -13.274  14.467  70.987  1.00  0.00    -0.414 A  
ENDBRANCH  14  15
ENDBRANCH  13  14
ENDBRANCH   4  10
ENDBRANCH   3   4
ENDBRANCH   2   3
TORSDOF 6
ENDMDL
MODEL       87
REMARK 921   NORMALIZED FREE ENERGY PREDICTED BY IDOCK:   -4.44 KCAL/MOL
REMARK 922        TOTAL FREE ENERGY PREDICTED BY IDOCK:   -6.40 KCAL/MOL
REMARK 923 INTER-LIGAND FREE ENERGY PREDICTED BY IDOCK:   -6.46 KCAL/MOL
REMARK 924 INTRA-LIGAND FREE ENERGY PREDICTED BY IDOCK:    0.06 KCAL/MOL
REMARK 927      BINDING AFFINITY PREDICTED BY RF-SCORE:    0.00 PKD
ROOT
HETATM    1  C   UNL     1      -7.846  11.513  68.284  1.00  0.00    -0.138 C  
HETATM    2  O   UNL     1      -8.514  12.017  67.136  1.00  0.00    -0.166 OA 
ENDROOT
BRANCH   2   3
HETATM    3  C   UNL     1      -9.582  12.903  67.485  1.00  0.00    -0.200 C  
BRANCH   3   4
HETATM    4  C   UNL     1      -9.363  14.254  66.793  1.00  0.00    -0.276 C  
BRANCH   4   5
HETATM    5  N   UNL     1     -10.025  14.299  65.478  1.00  0.00    -0.467 N  
HETATM    6  C   UNL     1     -12.326  13.875  66.317  1.00  0.00    -0.489 C  
HETATM    7  O   UNL     1     -11.730  14.273  64.038  1.00  0.00    -0.301 OA 
HETATM    8  H   UNL     1      -9.416  14.459  64.675  1.00  0.00     0.000 HD 
HETATM    9  C   UNL     1     -11.352  14.153  65.203  1.00  0.00    -0.336 C  
ENDBRANCH   4   5
BRANCH   4  10
HETATM   10  C   UNL     1      -9.891  15.358  67.722  1.00  0.00    -0.220 C  
HETATM   11  O   UNL     1      -9.954  16.530  67.358  1.00  0.00    -0.255 OA 
HETATM   12  H   UNL     1     -10.016  13.998  69.285  1.00  0.00     0.000 HD 
HETATM   13  N   UNL     1     -10.160  14.971  69.018  1.00  0.00    -0.234 N  
BRANCH  13  14
HETATM   14  C   UNL     1     -10.641  15.907  70.009  1.00  0.00    -0.316 C  
BRANCH  14  15
HETATM   15  C   UNL     1     -11.566  15.241  70.992  1.00  0.00    -0.399 A  
HETATM   16  C   UNL     1     -11.817  15.809  72.250  1.00  0.00    -0.598 A  
HETATM   17  C   UNL     1     -12.688  15.185  73.147  1.00  0.00    -0.592 A  
HETATM   18  C   UNL     1     -13.309  13.987  72.800  1.00  0.00    -0.603 A  
HETATM   19  C   UNL     1     -13.057  13.407  71.559  1.00  0.00    -0.427 A  
HETATM   20  C   UNL     1     -12.188  14.028  70.662  1.00  0.00    -0.442 A  
ENDBRANCH  14  15
ENDBRANCH  13  14
ENDBRANCH   4  10
ENDBRANCH   3   4
ENDBRANCH   2   3
TORSDOF 6
ENDMDL
MODEL       88
REMARK 921   NORMALIZED FREE ENERGY PREDICTED BY IDOCK:   -4.43 KCAL/MOL
REMARK 922        TOTAL FREE ENERGY PREDICTED BY IDOCK:   -6.39 KCAL/MOL
REMARK 923 INTER-LIGAND FREE ENERGY PREDICTED BY IDOCK:   -5.83 KCAL/MOL
REMARK 924 INTRA-LIGAND FREE ENERGY PREDICTED BY IDOCK:   -0.57 KCAL/MOL
REMARK 927      BINDING AFFINITY PREDICTED BY RF-SCORE:    0.00 PKD
ROOT
HETATM    1  C   UNL     1     -11.294  14.708  66.558  1.00  0.00    -0.353 C  
HETATM    2  O   UNL     1     -12.254  13.971  67.303  1.00  0.00    -0.405 OA 
ENDROOT
BRANCH   2   3
HETATM    3  C   UNL     1     -11.837  13.766  68.657  1.00  0.00    -0.374 C  
BRANCH   3   4
HETATM    4  C   UNL     1     -11.371  12.316  68.827  1.00  0.00    -0.289 C  
BRANCH   4   5
HETATM    5  N   UNL     1      -9.900  12.220  68.833  1.00  0.00    -0.422 N  
HETATM    6  C   UNL     1      -9.677  11.315  66.529  1.00  0.00    -0.230 C  
HETATM    7  O   UNL     1      -7.867  11.832  67.999  1.00  0.00    -0.118 OA 
HETATM    8  H   UNL     1      -9.437  12.507  69.695  1.00  0.00     0.000 HD 
HETATM    9  C   UNL     1      -9.085  11.795  67.828  1.00  0.00    -0.178 C  
ENDBRANCH   4   5
BRANCH   4  10
HETATM   10  C   UNL     1     -11.970  11.771  70.133  1.00  0.00    -0.339 C  
HETATM   11  O   UNL     1     -12.606  12.492  70.899  1.00  0.00    -0.334 OA 
HETATM   12  H   UNL     1     -11.041   9.944  69.810  1.00  0.00     0.000 HD 
HETATM   13  N   UNL     1     -11.637  10.471  70.448  1.00  0.00    -0.319 N  
BRANCH  13  14
HETATM   14  C   UNL     1     -12.108   9.834  71.655  1.00  0.00    -0.394 C  
BRANCH  14  15
HETATM   15  C   UNL     1     -11.646   8.403  71.740  1.00  0.00    -0.372 A  
HETATM   16  C   UNL     1     -11.186   7.861  72.950  1.00  0.00    -0.429 A  
HETATM   17  C   UNL     1     -10.772   6.528  73.015  1.00  0.00    -0.291 A  
HETATM   18  C   UNL     1     -10.805   5.728  71.874  1.00  0.00    -0.309 A  
HETATM   19  C   UNL     1     -11.247   6.260  70.664  1.00  0.00    -0.401 A  
HETATM   20  C   UNL     1     -11.661   7.591  70.597  1.00  0.00    -0.272 A  
ENDBRANCH  14  15
ENDBRANCH  13  14
ENDBRANCH   4  10
ENDBRANCH   3   4
ENDBRANCH   2   3
TORSDOF 6
ENDMDL
MODEL       89
REMARK 921   NORMALIZED FREE ENERGY PREDICTED BY IDOCK:   -4.42 KCAL/MOL
REMARK 922        TOTAL FREE ENERGY PREDICTED BY IDOCK:   -6.38 KCAL/MOL
REMARK 923 INTER-LIGAND FREE ENERGY PREDICTED BY IDOCK:   -5.81 KCAL/MOL
REMARK 924 INTRA-LIGAND FREE ENERGY PREDICTED BY IDOCK:   -0.57 KCAL/MOL
REMARK 927      BINDING AFFINITY PREDICTED BY RF-SCORE:    0.00 PKD
ROOT
HETATM    1  C   UNL     1     -12.226  10.859  69.761  1.00  0.00    -0.311 C  
HETATM    2  O   UNL     1     -12.140  11.289  68.409  1.00  0.00    -0.598 OA 
ENDROOT
BRANCH   2   3
HETATM    3  C   UNL     1     -11.142  10.566  67.681  1.00  0.00    -0.309 C  
BRANCH   3   4
HETATM    4  C   UNL     1     -10.888  11.268  66.342  1.00  0.00    -0.251 C  
BRANCH   4   5
HETATM    5  N   UNL     1     -11.841  12.371  66.123  1.00  0.00    -0.403 N  
HETATM    6  C   UNL     1     -12.071  12.050  63.670  1.00  0.00    -0.627 C  
HETATM    7  O   UNL     1     -13.235  13.679  64.972  1.00  0.00    -0.729 OA 
HETATM    8  H   UNL     1     -12.099  12.910  66.950  1.00  0.00     0.000 HD 
HETATM    9  C   UNL     1     -12.418  12.759  64.952  1.00  0.00    -0.497 C  
ENDBRANCH   4   5
BRANCH   4  10
HETATM   10  C   UNL     1      -9.437  11.775  66.336  1.00  0.00    -0.221 C  
HETATM   11  O   UNL     1      -8.575  11.247  65.636  1.00  0.00    -0.137 OA 
HETATM   12  H   UNL     1      -9.884  13.106  67.864  1.00  0.00     0.000 HD 
HETATM   13  N   UNL     1      -9.143  12.760  67.254  1.00  0.00    -0.192 N  
BRANCH  13  14
HETATM   14  C   UNL     1      -7.816  13.315  67.378  1.00  0.00    -0.153 C  
BRANCH  14  15
HETATM   15  C   UNL     1      -7.861  14.797  67.645  1.00  0.00    -0.191 A  
HETATM   16  C   UNL     1      -7.365  15.332  68.843  1.00  0.00    -0.146 A  
HETATM   17  C   UNL     1      -7.403  16.710  69.072  1.00  0.00    -0.228 A  
HETATM   18  C   UNL     1      -7.943  17.564  68.110  1.00  0.00    -0.250 A  
HETATM   19  C   UNL     1      -8.451  17.041  66.923  1.00  0.00    -0.244 A  
HETATM   20  C   UNL     1      -8.414  15.666  66.693  1.00  0.00    -0.323 A  
ENDBRANCH  14  15
ENDBRANCH  13  14
ENDBRANCH   4  10
ENDBRANCH   3   4
ENDBRANCH   2   3
TORSDOF 6
ENDMDL
MODEL       90
REMARK 921   NORMALIZED FREE ENERGY PREDICTED BY IDOCK:   -4.42 KCAL/MOL
REMARK 922        TOTAL FREE ENERGY PREDICTED BY IDOCK:   -6.37 KCAL/MOL
REMARK 923 INTER-LIGAND FREE ENERGY PREDICTED BY IDOCK:   -5.75 KCAL/MOL
REMARK 924 INTRA-LIGAND FREE ENERGY PREDICTED BY IDOCK:   -0.62 KCAL/MOL
REMARK 927      BINDING AFFINITY PREDICTED BY RF-SCORE:    0.00 PKD
ROOT
HETATM    1  C   UNL     1      -7.498   9.583  70.072  1.00  0.00    -0.126 C  
HETATM    2  O   UNL     1      -8.831   9.834  70.494  1.00  0.00    -0.182 OA 
ENDROOT
BRANCH   2   3
HETATM    3  C   UNL     1      -9.725   9.972  69.384  1.00  0.00    -0.225 C  
BRANCH   3   4
HETATM    4  C   UNL     1     -10.038   8.584  68.814  1.00  0.00    -0.196 C  
BRANCH   4   5
HETATM    5  N   UNL     1     -11.214   7.985  69.469  1.00  0.00    -0.441 N  
HETATM    6  C   UNL     1      -9.956   6.321  70.819  1.00  0.00    -0.220 C  
HETATM    7  O   UNL     1     -12.322   6.643  70.866  1.00  0.00    -0.353 OA 
HETATM    8  H   UNL     1     -12.120   8.370  69.201  1.00  0.00     0.000 HD 
HETATM    9  C   UNL     1     -11.240   6.979  70.389  1.00  0.00    -0.299 C  
ENDBRANCH   4   5
BRANCH   4  10
HETATM   10  C   UNL     1     -10.256   8.727  67.299  1.00  0.00    -0.263 C  
HETATM   11  O   UNL     1     -10.639   7.783  66.612  1.00  0.00    -0.276 OA 
HETATM   12  H   UNL     1      -9.487  10.654  67.360  1.00  0.00     0.000 HD 
HETATM   13  N   UNL     1      -9.871   9.933  66.751  1.00  0.00    -0.190 N  
BRANCH  13  14
HETATM   14  C   UNL     1      -9.996  10.201  65.337  1.00  0.00    -0.307 C  
BRANCH  14  15
HETATM   15  C   UNL     1     -10.784  11.459  65.083  1.00  0.00    -0.332 A  
HETATM   16  C   UNL     1     -11.204  11.802  63.789  1.00  0.00    -0.518 A  
HETATM   17  C   UNL     1     -11.944  12.967  63.571  1.00  0.00    -0.629 A  
HETATM   18  C   UNL     1     -12.265  13.802  64.640  1.00  0.00    -0.440 A  
HETATM   19  C   UNL     1     -11.841  13.479  65.927  1.00  0.00    -0.405 A  
HETATM   20  C   UNL     1     -11.102  12.316  66.147  1.00  0.00    -0.349 A  
ENDBRANCH  14  15
ENDBRANCH  13  14
ENDBRANCH   4  10
ENDBRANCH   3   4
ENDBRANCH   2   3
TORSDOF 6
ENDMDL
MODEL       91
REMARK 921   NORMALIZED FREE ENERGY PREDICTED BY IDOCK:   -4.41 KCAL/MOL
REMARK 922        TOTAL FREE ENERGY PREDICTED BY IDOCK:   -6.37 KCAL/MOL
REMARK 923 INTER-LIGAND FREE ENERGY PREDICTED BY IDOCK:   -5.86 KCAL/MOL
REMARK 924 INTRA-LIGAND FREE ENERGY PREDICTED BY IDOCK:   -0.50 KCAL/MOL
REMARK 927      BINDING AFFINITY PREDICTED BY RF-SCORE:    0.00 PKD
ROOT
HETATM    1  C   UNL     1     -10.984   6.464  67.215  1.00  0.00    -0.392 C  
HETATM    2  O   UNL     1     -10.384   6.554  68.500  1.00  0.00    -0.162 OA 
ENDROOT
BRANCH   2   3
HETATM    3  C   UNL     1      -9.756   7.823  68.708  1.00  0.00    -0.157 C  
BRANCH   3   4
HETATM    4  C   UNL     1     -10.750   8.770  69.392  1.00  0.00    -0.169 C  
BRANCH   4   5
HETATM    5  N   UNL     1     -10.613   8.728  70.859  1.00  0.00    -0.207 N  
HETATM    6  C   UNL     1     -12.554   7.232  71.270  1.00  0.00    -0.402 C  
HETATM    7  O   UNL     1     -11.081   8.088  72.944  1.00  0.00    -0.392 OA 
HETATM    8  H   UNL     1      -9.850   9.278  71.252  1.00  0.00     0.000 HD 
HETATM    9  C   UNL     1     -11.380   8.043  71.752  1.00  0.00    -0.270 C  
ENDBRANCH   4   5
BRANCH   4  10
HETATM   10  C   UNL     1     -10.508  10.188  68.850  1.00  0.00    -0.210 C  
HETATM   11  O   UNL     1      -9.516  10.839  69.172  1.00  0.00    -0.194 OA 
HETATM   12  H   UNL     1     -12.366  10.164  67.927  1.00  0.00     0.000 HD 
HETATM   13  N   UNL     1     -11.531  10.724  68.097  1.00  0.00    -0.309 N  
BRANCH  13  14
HETATM   14  C   UNL     1     -11.454  12.055  67.543  1.00  0.00    -0.333 C  
BRANCH  14  15
HETATM   15  C   UNL     1     -11.419  12.024  66.037  1.00  0.00    -0.399 A  
HETATM   16  C   UNL     1     -10.436  11.295  65.351  1.00  0.00    -0.326 A  
HETATM   17  C   UNL     1     -10.424  11.267  63.954  1.00  0.00    -0.452 A  
HETATM   18  C   UNL     1     -11.387  11.970  63.231  1.00  0.00    -0.396 A  
HETATM   19  C   UNL     1     -12.359  12.708  63.903  1.00  0.00    -0.546 A  
HETATM   20  C   UNL     1     -12.373  12.738  65.297  1.00  0.00    -0.546 A  
ENDBRANCH  14  15
ENDBRANCH  13  14
ENDBRANCH   4  10
ENDBRANCH   3   4
ENDBRANCH   2   3
TORSDOF 6
ENDMDL
MODEL       92
REMARK 921   NORMALIZED FREE ENERGY PREDICTED BY IDOCK:   -4.41 KCAL/MOL
REMARK 922        TOTAL FREE ENERGY PREDICTED BY IDOCK:   -6.36 KCAL/MOL
REMARK 923 INTER-LIGAND FREE ENERGY PREDICTED BY IDOCK:   -5.86 KCAL/MOL
REMARK 924 INTRA-LIGAND FREE ENERGY PREDICTED BY IDOCK:   -0.50 KCAL/MOL
REMARK 927      BINDING AFFINITY PREDICTED BY RF-SCORE:    0.00 PKD
ROOT
HETATM    1  C   UNL     1      -8.895  10.235  62.845  1.00  0.00    -0.227 C  
HETATM    2  O   UNL     1      -8.514   9.989  64.191  1.00  0.00    -0.152 OA 
ENDROOT
BRANCH   2   3
HETATM    3  C   UNL     1      -9.648   9.908  65.061  1.00  0.00    -0.297 C  
BRANCH   3   4
HETATM    4  C   UNL     1      -9.903  11.285  65.685  1.00  0.00    -0.234 C  
BRANCH   4   5
HETATM    5  N   UNL     1     -11.339  11.618  65.688  1.00  0.00    -0.230 N  
HETATM    6  C   UNL     1     -11.190  13.482  64.051  1.00  0.00    -0.259 C  
HETATM    7  O   UNL     1     -13.199  12.679  65.062  1.00  0.00    -0.753 OA 
HETATM    8  H   UNL     1     -11.926  11.059  66.307  1.00  0.00     0.000 HD 
HETATM    9  C   UNL     1     -11.977  12.581  64.965  1.00  0.00    -0.427 C  
ENDBRANCH   4   5
BRANCH   4  10
HETATM   10  C   UNL     1      -9.329  11.277  67.111  1.00  0.00    -0.163 C  
HETATM   11  O   UNL     1      -8.301  11.888  67.394  1.00  0.00    -0.148 OA 
HETATM   12  H   UNL     1     -10.767   9.898  67.693  1.00  0.00     0.000 HD 
HETATM   13  N   UNL     1      -9.963  10.441  68.006  1.00  0.00    -0.153 N  
BRANCH  13  14
HETATM   14  C   UNL     1      -9.520  10.313  69.374  1.00  0.00    -0.206 C  
BRANCH  14  15
HETATM   15  C   UNL     1     -10.681  10.121  70.314  1.00  0.00    -0.352 A  
HETATM   16  C   UNL     1     -10.750   9.006  71.162  1.00  0.00    -0.358 A  
HETATM   17  C   UNL     1     -11.828   8.848  72.037  1.00  0.00    -0.438 A  
HETATM   18  C   UNL     1     -12.850   9.797  72.067  1.00  0.00    -0.491 A  
HETATM   19  C   UNL     1     -12.798  10.901  71.219  1.00  0.00    -0.536 A  
HETATM   20  C   UNL     1     -11.723  11.060  70.344  1.00  0.00    -0.437 A  
ENDBRANCH  14  15
ENDBRANCH  13  14
ENDBRANCH   4  10
ENDBRANCH   3   4
ENDBRANCH   2   3
TORSDOF 6
ENDMDL
MODEL       93
REMARK 921   NORMALIZED FREE ENERGY PREDICTED BY IDOCK:   -4.40 KCAL/MOL
REMARK 922        TOTAL FREE ENERGY PREDICTED BY IDOCK:   -6.35 KCAL/MOL
REMARK 923 INTER-LIGAND FREE ENERGY PREDICTED BY IDOCK:   -5.89 KCAL/MOL
REMARK 924 INTRA-LIGAND FREE ENERGY PREDICTED BY IDOCK:   -0.45 KCAL/MOL
REMARK 927      BINDING AFFINITY PREDICTED BY RF-SCORE:    0.00 PKD
ROOT
HETATM    1  C   UNL     1     -11.558   6.793  72.150  1.00  0.00    -0.288 C  
HETATM    2  O   UNL     1     -11.566   8.168  72.510  1.00  0.00    -0.375 OA 
ENDROOT
BRANCH   2   3
HETATM    3  C   UNL     1     -12.520   8.914  71.748  1.00  0.00    -0.362 C  
BRANCH   3   4
HETATM    4  C   UNL     1     -11.784   9.968  70.912  1.00  0.00    -0.374 C  
BRANCH   4   5
HETATM    5  N   UNL     1     -11.759   9.602  69.484  1.00  0.00    -0.438 N  
HETATM    6  C   UNL     1      -9.354  10.108  69.116  1.00  0.00    -0.205 C  
HETATM    7  O   UNL     1     -10.857   9.236  67.477  1.00  0.00    -0.259 OA 
HETATM    8  H   UNL     1     -12.646   9.291  69.087  1.00  0.00     0.000 HD 
HETATM    9  C   UNL     1     -10.697   9.628  68.632  1.00  0.00    -0.201 C  
ENDBRANCH   4   5
BRANCH   4  10
HETATM   10  C   UNL     1     -12.480  11.321  71.129  1.00  0.00    -0.373 C  
HETATM   11  O   UNL     1     -13.439  11.436  71.889  1.00  0.00    -0.360 OA 
HETATM   12  H   UNL     1     -11.298  12.177  69.654  1.00  0.00     0.000 HD 
HETATM   13  N   UNL     1     -12.047  12.352  70.323  1.00  0.00    -0.341 N  
BRANCH  13  14
HETATM   14  C   UNL     1     -12.625  13.674  70.399  1.00  0.00    -0.227 C  
BRANCH  14  15
HETATM   15  C   UNL     1     -11.900  14.645  69.504  1.00  0.00    -0.374 A  
HETATM   16  C   UNL     1     -11.442  15.877  69.994  1.00  0.00    -0.354 A  
HETATM   17  C   UNL     1     -10.761  16.762  69.155  1.00  0.00    -0.329 A  
HETATM   18  C   UNL     1     -10.538  16.429  67.819  1.00  0.00    -0.321 A  
HETATM   19  C   UNL     1     -11.000  15.214  67.319  1.00  0.00    -0.327 A  
HETATM   20  C   UNL     1     -11.681  14.328  68.156  1.00  0.00    -0.385 A  
ENDBRANCH  14  15
ENDBRANCH  13  14
ENDBRANCH   4  10
ENDBRANCH   3   4
ENDBRANCH   2   3
TORSDOF 6
ENDMDL
MODEL       94
REMARK 921   NORMALIZED FREE ENERGY PREDICTED BY IDOCK:   -4.38 KCAL/MOL
REMARK 922        TOTAL FREE ENERGY PREDICTED BY IDOCK:   -6.32 KCAL/MOL
REMARK 923 INTER-LIGAND FREE ENERGY PREDICTED BY IDOCK:   -5.87 KCAL/MOL
REMARK 924 INTRA-LIGAND FREE ENERGY PREDICTED BY IDOCK:   -0.45 KCAL/MOL
REMARK 927      BINDING AFFINITY PREDICTED BY RF-SCORE:    0.00 PKD
ROOT
HETATM    1  C   UNL     1      -8.326  12.384  67.198  1.00  0.00    -0.181 C  
HETATM    2  O   UNL     1      -9.512  12.433  67.979  1.00  0.00    -0.195 OA 
ENDROOT
BRANCH   2   3
HETATM    3  C   UNL     1     -10.689  12.416  67.165  1.00  0.00    -0.235 C  
BRANCH   3   4
HETATM    4  C   UNL     1     -10.753  13.709  66.345  1.00  0.00    -0.281 C  
BRANCH   4   5
HETATM    5  N   UNL     1     -11.808  13.645  65.318  1.00  0.00    -0.334 N  
HETATM    6  C   UNL     1     -10.457  12.444  63.613  1.00  0.00    -0.460 C  
HETATM    7  O   UNL     1     -12.747  13.076  63.376  1.00  0.00    -0.694 OA 
HETATM    8  H   UNL     1     -12.698  14.079  65.563  1.00  0.00     0.000 HD 
HETATM    9  C   UNL     1     -11.740  13.077  64.081  1.00  0.00    -0.412 C  
ENDBRANCH   4   5
BRANCH   4  10
HETATM   10  C   UNL     1     -10.988  14.879  67.314  1.00  0.00    -0.323 C  
HETATM   11  O   UNL     1     -11.868  14.837  68.171  1.00  0.00    -0.326 OA 
HETATM   12  H   UNL     1      -9.584  16.019  66.296  1.00  0.00     0.000 HD 
HETATM   13  N   UNL     1     -10.246  16.015  67.072  1.00  0.00    -0.276 N  
BRANCH  13  14
HETATM   14  C   UNL     1     -10.379  17.200  67.886  1.00  0.00    -0.350 C  
BRANCH  14  15
HETATM   15  C   UNL     1      -9.034  17.738  68.300  1.00  0.00    -0.277 A  
HETATM   16  C   UNL     1      -7.981  16.874  68.638  1.00  0.00    -0.256 A  
HETATM   17  C   UNL     1      -6.736  17.389  69.008  1.00  0.00    -0.243 A  
HETATM   18  C   UNL     1      -6.533  18.767  69.052  1.00  0.00    -0.293 A  
HETATM   19  C   UNL     1      -7.575  19.634  68.731  1.00  0.00    -0.351 A  
HETATM   20  C   UNL     1      -8.820  19.123  68.361  1.00  0.00    -0.386 A  
ENDBRANCH  14  15
ENDBRANCH  13  14
ENDBRANCH   4  10
ENDBRANCH   3   4
ENDBRANCH   2   3
TORSDOF 6
ENDMDL
MODEL       95
REMARK 921   NORMALIZED FREE ENERGY PREDICTED BY IDOCK:   -4.37 KCAL/MOL
REMARK 922        TOTAL FREE ENERGY PREDICTED BY IDOCK:   -6.31 KCAL/MOL
REMARK 923 INTER-LIGAND FREE ENERGY PREDICTED BY IDOCK:   -5.77 KCAL/MOL
REMARK 924 INTRA-LIGAND FREE ENERGY PREDICTED BY IDOCK:   -0.54 KCAL/MOL
REMARK 927      BINDING AFFINITY PREDICTED BY RF-SCORE:    0.00 PKD
ROOT
HETATM    1  C   UNL     1     -10.095   8.047  67.319  1.00  0.00    -0.240 C  
HETATM    2  O   UNL     1     -10.907   9.209  67.413  1.00  0.00    -0.243 OA 
ENDROOT
BRANCH   2   3
HETATM    3  C   UNL     1     -10.331  10.195  68.275  1.00  0.00    -0.186 C  
BRANCH   3   4
HETATM    4  C   UNL     1     -11.212  10.353  69.520  1.00  0.00    -0.269 C  
BRANCH   4   5
HETATM    5  N   UNL     1     -10.494   9.949  70.742  1.00  0.00    -0.357 N  
HETATM    6  C   UNL     1     -11.435   7.652  70.864  1.00  0.00    -0.299 C  
HETATM    7  O   UNL     1      -9.828   8.576  72.370  1.00  0.00    -0.292 OA 
HETATM    8  H   UNL     1      -9.889  10.656  71.159  1.00  0.00     0.000 HD 
HETATM    9  C   UNL     1     -10.541   8.747  71.383  1.00  0.00    -0.279 C  
ENDBRANCH   4   5
BRANCH   4  10
HETATM   10  C   UNL     1     -11.669  11.818  69.599  1.00  0.00    -0.344 C  
HETATM   11  O   UNL     1     -12.383  12.220  70.515  1.00  0.00    -0.329 OA 
HETATM   12  H   UNL     1     -10.810  12.198  67.748  1.00  0.00     0.000 HD 
HETATM   13  N   UNL     1     -11.339  12.607  68.518  1.00  0.00    -0.272 N  
BRANCH  13  14
HETATM   14  C   UNL     1     -11.723  13.998  68.444  1.00  0.00    -0.354 C  
BRANCH  14  15
HETATM   15  C   UNL     1     -11.635  14.519  67.033  1.00  0.00    -0.402 A  
HETATM   16  C   UNL     1     -10.858  15.645  66.724  1.00  0.00    -0.277 A  
HETATM   17  C   UNL     1     -10.778  16.110  65.409  1.00  0.00    -0.374 A  
HETATM   18  C   UNL     1     -11.478  15.459  64.393  1.00  0.00    -0.260 A  
HETATM   19  C   UNL     1     -12.263  14.348  64.691  1.00  0.00    -0.479 A  
HETATM   20  C   UNL     1     -12.345  13.883  66.004  1.00  0.00    -0.511 A  
ENDBRANCH  14  15
ENDBRANCH  13  14
ENDBRANCH   4  10
ENDBRANCH   3   4
ENDBRANCH   2   3
TORSDOF 6
ENDMDL
MODEL       96
REMARK 921   NORMALIZED FREE ENERGY PREDICTED BY IDOCK:   -4.36 KCAL/MOL
REMARK 922        TOTAL FREE ENERGY PREDICTED BY IDOCK:   -6.30 KCAL/MOL
REMARK 923 INTER-LIGAND FREE ENERGY PREDICTED BY IDOCK:   -5.79 KCAL/MOL
REMARK 924 INTRA-LIGAND FREE ENERGY PREDICTED BY IDOCK:   -0.51 KCAL/MOL
REMARK 927      BINDING AFFINITY PREDICTED BY RF-SCORE:    0.00 PKD
ROOT
HETATM    1  C   UNL     1      -7.191  10.461  66.688  1.00  0.00    -0.113 C  
HETATM    2  O   UNL     1      -8.525  10.727  67.097  1.00  0.00    -0.124 OA 
ENDROOT
BRANCH   2   3
HETATM    3  C   UNL     1      -8.596  11.106  68.476  1.00  0.00    -0.157 C  
BRANCH   3   4
HETATM    4  C   UNL     1      -9.821  10.446  69.118  1.00  0.00    -0.223 C  
BRANCH   4   5
HETATM    5  N   UNL     1      -9.556  10.060  70.515  1.00  0.00    -0.321 N  
HETATM    6  C   UNL     1      -8.887   7.717  70.029  1.00  0.00    -0.142 C  
HETATM    7  O   UNL     1      -8.904   8.736  72.188  1.00  0.00    -0.345 OA 
HETATM    8  H   UNL     1      -9.718  10.783  71.217  1.00  0.00     0.000 HD 
HETATM    9  C   UNL     1      -9.119   8.858  70.984  1.00  0.00    -0.243 C  
ENDBRANCH   4   5
BRANCH   4  10
HETATM   10  C   UNL     1     -10.998  11.430  69.025  1.00  0.00    -0.236 C  
HETATM   11  O   UNL     1     -12.122  11.059  68.696  1.00  0.00    -0.551 OA 
HETATM   12  H   UNL     1      -9.713  13.017  69.397  1.00  0.00     0.000 HD 
HETATM   13  N   UNL     1     -10.680  12.761  69.202  1.00  0.00    -0.091 N  
BRANCH  13  14
HETATM   14  C   UNL     1     -11.680  13.800  69.120  1.00  0.00    -0.334 C  
BRANCH  14  15
HETATM   15  C   UNL     1     -12.006  14.359  70.480  1.00  0.00    -0.395 A  
HETATM   16  C   UNL     1     -11.381  15.522  70.954  1.00  0.00    -0.406 A  
HETATM   17  C   UNL     1     -11.703  16.035  72.213  1.00  0.00    -0.581 A  
HETATM   18  C   UNL     1     -12.646  15.389  73.011  1.00  0.00    -0.545 A  
HETATM   19  C   UNL     1     -13.263  14.226  72.556  1.00  0.00    -0.581 A  
HETATM   20  C   UNL     1     -12.942  13.712  71.299  1.00  0.00    -0.399 A  
ENDBRANCH  14  15
ENDBRANCH  13  14
ENDBRANCH   4  10
ENDBRANCH   3   4
ENDBRANCH   2   3
TORSDOF 6
ENDMDL
MODEL       97
REMARK 921   NORMALIZED FREE ENERGY PREDICTED BY IDOCK:   -4.35 KCAL/MOL
REMARK 922        TOTAL FREE ENERGY PREDICTED BY IDOCK:   -6.27 KCAL/MOL
REMARK 923 INTER-LIGAND FREE ENERGY PREDICTED BY IDOCK:   -5.80 KCAL/MOL
REMARK 924 INTRA-LIGAND FREE ENERGY PREDICTED BY IDOCK:   -0.47 KCAL/MOL
REMARK 927      BINDING AFFINITY PREDICTED BY RF-SCORE:    0.00 PKD
ROOT
HETATM    1  C   UNL     1      -9.307   9.492  68.130  1.00  0.00    -0.133 C  
HETATM    2  O   UNL     1     -10.377   9.168  69.007  1.00  0.00    -0.206 OA 
ENDROOT
BRANCH   2   3
HETATM    3  C   UNL     1     -10.410  10.028  70.151  1.00  0.00    -0.266 C  
BRANCH   3   4
HETATM    4  C   UNL     1     -11.665   9.719  70.976  1.00  0.00    -0.370 C  
BRANCH   4   5
HETATM    5  N   UNL     1     -11.338   8.939  72.183  1.00  0.00    -0.346 N  
HETATM    6  C   UNL     1     -12.100   6.744  71.304  1.00  0.00    -0.421 C  
HETATM    7  O   UNL     1     -11.115   7.115  73.448  1.00  0.00    -0.289 OA 
HETATM    8  H   UNL     1     -10.946   9.467  72.963  1.00  0.00     0.000 HD 
HETATM    9  C   UNL     1     -11.494   7.601  72.383  1.00  0.00    -0.340 C  
ENDBRANCH   4   5
BRANCH   4  10
HETATM   10  C   UNL     1     -12.338  11.053  71.339  1.00  0.00    -0.262 C  
HETATM   11  O   UNL     1     -13.263  11.107  72.145  1.00  0.00    -0.481 OA 
HETATM   12  H   UNL     1     -11.209  12.027  69.895  1.00  0.00     0.000 HD 
HETATM   13  N   UNL     1     -11.928  12.148  70.608  1.00  0.00    -0.254 N  
BRANCH  13  14
HETATM   14  C   UNL     1     -12.490  13.461  70.823  1.00  0.00    -0.341 C  
BRANCH  14  15
HETATM   15  C   UNL     1     -11.911  14.471  69.867  1.00  0.00    -0.382 A  
HETATM   16  C   UNL     1     -11.285  15.635  70.336  1.00  0.00    -0.374 A  
HETATM   17  C   UNL     1     -10.742  16.557  69.437  1.00  0.00    -0.330 A  
HETATM   18  C   UNL     1     -10.826  16.329  68.064  1.00  0.00    -0.339 A  
HETATM   19  C   UNL     1     -11.459  15.183  67.588  1.00  0.00    -0.319 A  
HETATM   20  C   UNL     1     -12.001  14.261  68.484  1.00  0.00    -0.352 A  
ENDBRANCH  14  15
ENDBRANCH  13  14
ENDBRANCH   4  10
ENDBRANCH   3   4
ENDBRANCH   2   3
TORSDOF 6
ENDMDL
MODEL       98
REMARK 921   NORMALIZED FREE ENERGY PREDICTED BY IDOCK:   -4.34 KCAL/MOL
REMARK 922        TOTAL FREE ENERGY PREDICTED BY IDOCK:   -6.27 KCAL/MOL
REMARK 923 INTER-LIGAND FREE ENERGY PREDICTED BY IDOCK:   -5.64 KCAL/MOL
REMARK 924 INTRA-LIGAND FREE ENERGY PREDICTED BY IDOCK:   -0.62 KCAL/MOL
REMARK 927      BINDING AFFINITY PREDICTED BY RF-SCORE:    0.00 PKD
ROOT
HETATM    1  C   UNL     1     -10.047  18.693  68.622  1.00  0.00    -0.368 C  
HETATM    2  O   UNL     1     -10.699  17.744  67.791  1.00  0.00    -0.390 OA 
ENDROOT
BRANCH   2   3
HETATM    3  C   UNL     1     -10.453  16.400  68.219  1.00  0.00    -0.302 C  
BRANCH   3   4
HETATM    4  C   UNL     1     -10.739  15.441  67.058  1.00  0.00    -0.321 C  
BRANCH   4   5
HETATM    5  N   UNL     1     -10.740  16.148  65.764  1.00  0.00    -0.312 N  
HETATM    6  C   UNL     1     -12.266  14.572  64.596  1.00  0.00    -0.474 C  
HETATM    7  O   UNL     1     -11.335  16.560  63.654  1.00  0.00    -0.730 OA 
HETATM    8  H   UNL     1     -10.163  16.987  65.713  1.00  0.00     0.000 HD 
HETATM    9  C   UNL     1     -11.418  15.816  64.629  1.00  0.00    -0.282 C  
ENDBRANCH   4   5
BRANCH   4  10
HETATM   10  C   UNL     1      -9.678  14.329  67.084  1.00  0.00    -0.254 C  
HETATM   11  O   UNL     1      -8.487  14.572  66.906  1.00  0.00    -0.211 OA 
HETATM   12  H   UNL     1     -11.170  12.896  67.254  1.00  0.00     0.000 HD 
HETATM   13  N   UNL     1     -10.163  13.042  67.187  1.00  0.00    -0.241 N  
BRANCH  13  14
HETATM   14  C   UNL     1      -9.285  11.896  67.200  1.00  0.00    -0.183 C  
BRANCH  14  15
HETATM   15  C   UNL     1      -9.221  11.235  65.848  1.00  0.00    -0.229 A  
HETATM   16  C   UNL     1      -8.195  10.332  65.532  1.00  0.00    -0.158 A  
HETATM   17  C   UNL     1      -8.156   9.718  64.277  1.00  0.00    -0.152 A  
HETATM   18  C   UNL     1      -9.134  10.005  63.326  1.00  0.00    -0.300 A  
HETATM   19  C   UNL     1     -10.150  10.911  63.626  1.00  0.00    -0.414 A  
HETATM   20  C   UNL     1     -10.190  11.526  64.877  1.00  0.00    -0.324 A  
ENDBRANCH  14  15
ENDBRANCH  13  14
ENDBRANCH   4  10
ENDBRANCH   3   4
ENDBRANCH   2   3
TORSDOF 6
ENDMDL
MODEL       99
REMARK 921   NORMALIZED FREE ENERGY PREDICTED BY IDOCK:   -4.34 KCAL/MOL
REMARK 922        TOTAL FREE ENERGY PREDICTED BY IDOCK:   -6.26 KCAL/MOL
REMARK 923 INTER-LIGAND FREE ENERGY PREDICTED BY IDOCK:   -5.70 KCAL/MOL
REMARK 924 INTRA-LIGAND FREE ENERGY PREDICTED BY IDOCK:   -0.56 KCAL/MOL
REMARK 927      BINDING AFFINITY PREDICTED BY RF-SCORE:    0.00 PKD
ROOT
HETATM    1  C   UNL     1     -11.909   9.642  71.049  1.00  0.00    -0.347 C  
HETATM    2  O   UNL     1     -10.832   9.335  70.175  1.00  0.00    -0.224 OA 
ENDROOT
BRANCH   2   3
HETATM    3  C   UNL     1     -10.550  10.411  69.275  1.00  0.00    -0.232 C  
BRANCH   3   4
HETATM    4  C   UNL     1     -10.302   9.842  67.873  1.00  0.00    -0.212 C  
BRANCH   4   5
HETATM    5  N   UNL     1     -10.993   8.554  67.684  1.00  0.00    -0.481 N  
HETATM    6  C   UNL     1      -9.159   7.442  66.430  1.00  0.00    -0.196 C  
HETATM    7  O   UNL     1     -11.233   6.430  67.045  1.00  0.00    -0.373 OA 
HETATM    8  H   UNL     1     -11.937   8.493  68.067  1.00  0.00     0.000 HD 
HETATM    9  C   UNL     1     -10.526   7.436  67.061  1.00  0.00    -0.333 C  
ENDBRANCH   4   5
BRANCH   4  10
HETATM   10  C   UNL     1     -10.773  10.883  66.845  1.00  0.00    -0.264 C  
HETATM   11  O   UNL     1     -10.386  10.855  65.678  1.00  0.00    -0.250 OA 
HETATM   12  H   UNL     1     -11.765  11.926  68.339  1.00  0.00     0.000 HD 
HETATM   13  N   UNL     1     -11.540  11.914  67.345  1.00  0.00    -0.316 N  
BRANCH  13  14
HETATM   14  C   UNL     1     -12.033  12.977  66.500  1.00  0.00    -0.391 C  
BRANCH  14  15
HETATM   15  C   UNL     1     -11.546  14.323  66.968  1.00  0.00    -0.406 A  
HETATM   16  C   UNL     1     -11.823  14.783  68.264  1.00  0.00    -0.316 A  
HETATM   17  C   UNL     1     -11.354  16.029  68.687  1.00  0.00    -0.383 A  
HETATM   18  C   UNL     1     -10.613  16.830  67.819  1.00  0.00    -0.341 A  
HETATM   19  C   UNL     1     -10.345  16.389  66.525  1.00  0.00    -0.306 A  
HETATM   20  C   UNL     1     -10.812  15.145  66.101  1.00  0.00    -0.330 A  
ENDBRANCH  14  15
ENDBRANCH  13  14
ENDBRANCH   4  10
ENDBRANCH   3   4
ENDBRANCH   2   3
TORSDOF 6
ENDMDL
MODEL      100
REMARK 921   NORMALIZED FREE ENERGY PREDICTED BY IDOCK:   -4.30 KCAL/MOL
REMARK 922        TOTAL FREE ENERGY PREDICTED BY IDOCK:   -6.22 KCAL/MOL
REMARK 923 INTER-LIGAND FREE ENERGY PREDICTED BY IDOCK:   -5.68 KCAL/MOL
REMARK 924 INTRA-LIGAND FREE ENERGY PREDICTED BY IDOCK:   -0.54 KCAL/MOL
REMARK 927      BINDING AFFINITY PREDICTED BY RF-SCORE:    0.00 PKD
ROOT
HETATM    1  C   UNL     1     -10.000   7.849  66.739  1.00  0.00    -0.263 C  
HETATM    2  O   UNL     1     -10.456   9.194  66.762  1.00  0.00    -0.249 OA 
ENDROOT
BRANCH   2   3
HETATM    3  C   UNL     1      -9.860   9.942  67.827  1.00  0.00    -0.155 C  
BRANCH   3   4
HETATM    4  C   UNL     1     -10.625  11.258  68.008  1.00  0.00    -0.195 C  
BRANCH   4   5
HETATM    5  N   UNL     1     -11.587  11.476  66.912  1.00  0.00    -0.191 N  
HETATM    6  C   UNL     1     -11.128  13.902  66.626  1.00  0.00    -0.310 C  
HETATM    7  O   UNL     1     -12.653  12.613  65.316  1.00  0.00    -0.630 OA 
HETATM    8  H   UNL     1     -12.125  10.660  66.621  1.00  0.00     0.000 HD 
HETATM    9  C   UNL     1     -11.845  12.634  66.242  1.00  0.00    -0.410 C  
ENDBRANCH   4   5
BRANCH   4  10
HETATM   10  C   UNL     1     -11.333  11.217  69.371  1.00  0.00    -0.283 C  
HETATM   11  O   UNL     1     -11.828  12.225  69.869  1.00  0.00    -0.321 OA 
HETATM   12  H   UNL     1     -10.763   9.236  69.618  1.00  0.00     0.000 HD 
HETATM   13  N   UNL     1     -11.256  10.018  70.049  1.00  0.00    -0.271 N  
BRANCH  13  14
HETATM   14  C   UNL     1     -11.854   9.840  71.351  1.00  0.00    -0.408 C  
BRANCH  14  15
HETATM   15  C   UNL     1     -11.565   8.470  71.907  1.00  0.00    -0.410 A  
HETATM   16  C   UNL     1     -10.477   8.251  72.765  1.00  0.00    -0.329 A  
HETATM   17  C   UNL     1     -10.228   6.977  73.282  1.00  0.00    -0.309 A  
HETATM   18  C   UNL     1     -11.058   5.910  72.941  1.00  0.00    -0.306 A  
HETATM   19  C   UNL     1     -12.133   6.113  72.078  1.00  0.00    -0.256 A  
HETATM   20  C   UNL     1     -12.383   7.384  71.561  1.00  0.00    -0.385 A  
ENDBRANCH  14  15
ENDBRANCH  13  14
ENDBRANCH   4  10
ENDBRANCH   3   4
ENDBRANCH   2   3
TORSDOF 6
ENDMDL
MODEL      101
REMARK 921   NORMALIZED FREE ENERGY PREDICTED BY IDOCK:   -4.30 KCAL/MOL
REMARK 922        TOTAL FREE ENERGY PREDICTED BY IDOCK:   -6.22 KCAL/MOL
REMARK 923 INTER-LIGAND FREE ENERGY PREDICTED BY IDOCK:   -5.75 KCAL/MOL
REMARK 924 INTRA-LIGAND FREE ENERGY PREDICTED BY IDOCK:   -0.47 KCAL/MOL
REMARK 927      BINDING AFFINITY PREDICTED BY RF-SCORE:    0.00 PKD
ROOT
HETATM    1  C   UNL     1     -12.213  13.621  64.554  1.00  0.00    -0.401 C  
HETATM    2  O   UNL     1     -12.448  13.348  65.928  1.00  0.00    -0.439 OA 
ENDROOT
BRANCH   2   3
HETATM    3  C   UNL     1     -11.906  14.366  66.776  1.00  0.00    -0.410 C  
BRANCH   3   4
HETATM    4  C   UNL     1     -10.787  13.764  67.634  1.00  0.00    -0.254 C  
BRANCH   4   5
HETATM    5  N   UNL     1      -9.584  14.614  67.625  1.00  0.00    -0.211 N  
HETATM    6  C   UNL     1      -7.955  12.787  68.050  1.00  0.00    -0.160 C  
HETATM    7  O   UNL     1      -7.404  15.084  67.699  1.00  0.00    -0.152 OA 
HETATM    8  H   UNL     1      -9.742  15.611  67.477  1.00  0.00     0.000 HD 
HETATM    9  C   UNL     1      -8.286  14.232  67.789  1.00  0.00    -0.171 C  
ENDBRANCH   4   5
BRANCH   4  10
HETATM   10  C   UNL     1     -11.327  13.577  69.061  1.00  0.00    -0.288 C  
HETATM   11  O   UNL     1     -11.227  14.463  69.907  1.00  0.00    -0.244 OA 
HETATM   12  H   UNL     1     -11.791  11.599  68.639  1.00  0.00     0.000 HD 
HETATM   13  N   UNL     1     -11.804  12.319  69.361  1.00  0.00    -0.315 N  
BRANCH  13  14
HETATM   14  C   UNL     1     -12.321  11.991  70.669  1.00  0.00    -0.304 C  
BRANCH  14  15
HETATM   15  C   UNL     1     -12.141  10.529  70.982  1.00  0.00    -0.492 A  
HETATM   16  C   UNL     1     -13.029   9.857  71.835  1.00  0.00    -0.545 A  
HETATM   17  C   UNL     1     -12.856   8.497  72.106  1.00  0.00    -0.413 A  
HETATM   18  C   UNL     1     -11.793   7.799  71.535  1.00  0.00    -0.324 A  
HETATM   19  C   UNL     1     -10.897   8.460  70.697  1.00  0.00    -0.256 A  
HETATM   20  C   UNL     1     -11.068   9.818  70.425  1.00  0.00    -0.367 A  
ENDBRANCH  14  15
ENDBRANCH  13  14
ENDBRANCH   4  10
ENDBRANCH   3   4
ENDBRANCH   2   3
TORSDOF 6
ENDMDL
MODEL      102
REMARK 921   NORMALIZED FREE ENERGY PREDICTED BY IDOCK:   -4.27 KCAL/MOL
REMARK 922        TOTAL FREE ENERGY PREDICTED BY IDOCK:   -6.17 KCAL/MOL
REMARK 923 INTER-LIGAND FREE ENERGY PREDICTED BY IDOCK:   -5.64 KCAL/MOL
REMARK 924 INTRA-LIGAND FREE ENERGY PREDICTED BY IDOCK:   -0.53 KCAL/MOL
REMARK 927      BINDING AFFINITY PREDICTED BY RF-SCORE:    0.00 PKD
ROOT
HETATM    1  C   UNL     1     -11.529  11.336  68.956  1.00  0.00    -0.302 C  
HETATM    2  O   UNL     1     -12.137  11.639  67.708  1.00  0.00    -0.613 OA 
ENDROOT
BRANCH   2   3
HETATM    3  C   UNL     1     -11.166  11.838  66.675  1.00  0.00    -0.323 C  
BRANCH   3   4
HETATM    4  C   UNL     1     -10.238  12.991  67.071  1.00  0.00    -0.245 C  
BRANCH   4   5
HETATM    5  N   UNL     1      -8.821  12.594  66.991  1.00  0.00    -0.209 N  
HETATM    6  C   UNL     1      -8.004  14.145  68.753  1.00  0.00    -0.102 C  
HETATM    7  O   UNL     1      -6.662  12.573  67.555  1.00  0.00    -0.122 OA 
HETATM    8  H   UNL     1      -8.595  11.881  66.298  1.00  0.00     0.000 HD 
HETATM    9  C   UNL     1      -7.776  13.063  67.730  1.00  0.00    -0.151 C  
ENDBRANCH   4   5
BRANCH   4  10
HETATM   10  C   UNL     1     -10.536  14.183  66.148  1.00  0.00    -0.296 C  
HETATM   11  O   UNL     1     -10.757  14.029  64.949  1.00  0.00    -0.371 OA 
HETATM   12  H   UNL     1     -10.144  15.500  67.704  1.00  0.00     0.000 HD 
HETATM   13  N   UNL     1     -10.407  15.431  66.721  1.00  0.00    -0.272 N  
BRANCH  13  14
HETATM   14  C   UNL     1     -10.633  16.643  65.968  1.00  0.00    -0.233 C  
BRANCH  14  15
HETATM   15  C   UNL     1     -10.039  17.841  66.661  1.00  0.00    -0.350 A  
HETATM   16  C   UNL     1     -10.239  19.137  66.164  1.00  0.00    -0.535 A  
HETATM   17  C   UNL     1      -9.691  20.240  66.825  1.00  0.00    -0.571 A  
HETATM   18  C   UNL     1      -8.934  20.057  67.982  1.00  0.00    -0.317 A  
HETATM   19  C   UNL     1      -8.718  18.773  68.476  1.00  0.00    -0.380 A  
HETATM   20  C   UNL     1      -9.264  17.671  67.818  1.00  0.00    -0.251 A  
ENDBRANCH  14  15
ENDBRANCH  13  14
ENDBRANCH   4  10
ENDBRANCH   3   4
ENDBRANCH   2   3
TORSDOF 6
ENDMDL
MODEL      103
REMARK 921   NORMALIZED FREE ENERGY PREDICTED BY IDOCK:   -4.26 KCAL/MOL
REMARK 922        TOTAL FREE ENERGY PREDICTED BY IDOCK:   -6.16 KCAL/MOL
REMARK 923 INTER-LIGAND FREE ENERGY PREDICTED BY IDOCK:   -5.57 KCAL/MOL
REMARK 924 INTRA-LIGAND FREE ENERGY PREDICTED BY IDOCK:   -0.59 KCAL/MOL
REMARK 927      BINDING AFFINITY PREDICTED BY RF-SCORE:    0.00 PKD
ROOT
HETATM    1  C   UNL     1      -9.220   3.752  65.565  1.00  0.00    -0.153 C  
HETATM    2  O   UNL     1      -9.949   4.176  66.708  1.00  0.00    -0.218 OA 
ENDROOT
BRANCH   2   3
HETATM    3  C   UNL     1     -10.654   5.399  66.468  1.00  0.00    -0.289 C  
BRANCH   3   4
HETATM    4  C   UNL     1      -9.822   6.572  67.000  1.00  0.00    -0.157 C  
BRANCH   4   5
HETATM    5  N   UNL     1     -10.305   7.860  66.470  1.00  0.00    -0.483 N  
HETATM    6  C   UNL     1      -8.066   8.908  66.220  1.00  0.00    -0.110 C  
HETATM    7  O   UNL     1     -10.146   9.915  65.618  1.00  0.00    -0.289 OA 
HETATM    8  H   UNL     1     -11.316   7.954  66.378  1.00  0.00     0.000 HD 
HETATM    9  C   UNL     1      -9.565   8.938  66.087  1.00  0.00    -0.265 C  
ENDBRANCH   4   5
BRANCH   4  10
HETATM   10  C   UNL     1      -9.882   6.543  68.536  1.00  0.00    -0.138 C  
HETATM   11  O   UNL     1      -8.863   6.587  69.220  1.00  0.00    -0.132 OA 
HETATM   12  H   UNL     1     -11.932   6.225  68.459  1.00  0.00     0.000 HD 
HETATM   13  N   UNL     1     -11.131   6.332  69.081  1.00  0.00    -0.372 N  
BRANCH  13  14
HETATM   14  C   UNL     1     -11.337   6.258  70.509  1.00  0.00    -0.361 C  
BRANCH  14  15
HETATM   15  C   UNL     1     -12.067   7.470  71.024  1.00  0.00    -0.305 A  
HETATM   16  C   UNL     1     -11.438   8.722  71.086  1.00  0.00    -0.344 A  
HETATM   17  C   UNL     1     -12.133   9.840  71.555  1.00  0.00    -0.493 A  
HETATM   18  C   UNL     1     -13.458   9.716  71.973  1.00  0.00    -0.514 A  
HETATM   19  C   UNL     1     -14.087   8.474  71.929  1.00  0.00    -0.519 A  
HETATM   20  C   UNL     1     -13.395   7.357  71.461  1.00  0.00    -0.435 A  
ENDBRANCH  14  15
ENDBRANCH  13  14
ENDBRANCH   4  10
ENDBRANCH   3   4
ENDBRANCH   2   3
TORSDOF 6
ENDMDL
MODEL      104
REMARK 921   NORMALIZED FREE ENERGY PREDICTED BY IDOCK:   -4.22 KCAL/MOL
REMARK 922        TOTAL FREE ENERGY PREDICTED BY IDOCK:   -6.10 KCAL/MOL
REMARK 923 INTER-LIGAND FREE ENERGY PREDICTED BY IDOCK:   -5.55 KCAL/MOL
REMARK 924 INTRA-LIGAND FREE ENERGY PREDICTED BY IDOCK:   -0.55 KCAL/MOL
REMARK 927      BINDING AFFINITY PREDICTED BY RF-SCORE:    0.00 PKD
ROOT
HETATM    1  C   UNL     1     -10.161   4.997  66.496  1.00  0.00    -0.248 C  
HETATM    2  O   UNL     1     -10.865   5.868  67.370  1.00  0.00    -0.276 OA 
ENDROOT
BRANCH   2   3
HETATM    3  C   UNL     1     -10.034   6.345  68.433  1.00  0.00    -0.141 C  
BRANCH   3   4
HETATM    4  C   UNL     1     -10.904   7.076  69.463  1.00  0.00    -0.238 C  
BRANCH   4   5
HETATM    5  N   UNL     1     -10.880   6.393  70.770  1.00  0.00    -0.252 N  
HETATM    6  C   UNL     1     -13.060   7.270  71.576  1.00  0.00    -0.434 C  
HETATM    7  O   UNL     1     -11.652   5.749  72.761  1.00  0.00    -0.281 OA 
HETATM    8  H   UNL     1     -10.055   5.825  70.962  1.00  0.00     0.000 HD 
HETATM    9  C   UNL     1     -11.824   6.429  71.751  1.00  0.00    -0.321 C  
ENDBRANCH   4   5
BRANCH   4  10
HETATM   10  C   UNL     1     -10.395   8.521  69.580  1.00  0.00    -0.218 C  
HETATM   11  O   UNL     1      -9.343   8.788  70.157  1.00  0.00    -0.157 OA 
HETATM   12  H   UNL     1     -12.148   9.220  68.718  1.00  0.00     0.000 HD 
HETATM   13  N   UNL     1     -11.253   9.497  69.118  1.00  0.00    -0.049 N  
BRANCH  13  14
HETATM   14  C   UNL     1     -10.918  10.900  69.184  1.00  0.00    -0.239 C  
BRANCH  14  15
HETATM   15  C   UNL     1     -11.807  11.633  70.154  1.00  0.00    -0.428 A  
HETATM   16  C   UNL     1     -12.581  10.938  71.095  1.00  0.00    -0.532 A  
HETATM   17  C   UNL     1     -13.392  11.633  71.995  1.00  0.00    -0.405 A  
HETATM   18  C   UNL     1     -13.444  13.026  71.959  1.00  0.00    -0.584 A  
HETATM   19  C   UNL     1     -12.690  13.725  71.020  1.00  0.00    -0.416 A  
HETATM   20  C   UNL     1     -11.879  13.033  70.120  1.00  0.00    -0.324 A  
ENDBRANCH  14  15
ENDBRANCH  13  14
ENDBRANCH   4  10
ENDBRANCH   3   4
ENDBRANCH   2   3
TORSDOF 6
ENDMDL
MODEL      105
REMARK 921   NORMALIZED FREE ENERGY PREDICTED BY IDOCK:   -4.21 KCAL/MOL
REMARK 922        TOTAL FREE ENERGY PREDICTED BY IDOCK:   -6.10 KCAL/MOL
REMARK 923 INTER-LIGAND FREE ENERGY PREDICTED BY IDOCK:   -5.53 KCAL/MOL
REMARK 924 INTRA-LIGAND FREE ENERGY PREDICTED BY IDOCK:   -0.57 KCAL/MOL
REMARK 927      BINDING AFFINITY PREDICTED BY RF-SCORE:    0.00 PKD
ROOT
HETATM    1  C   UNL     1     -13.717   9.121  72.278  1.00  0.00    -0.487 C  
HETATM    2  O   UNL     1     -12.603   9.062  71.397  1.00  0.00    -0.309 OA 
ENDROOT
BRANCH   2   3
HETATM    3  C   UNL     1     -11.872  10.292  71.377  1.00  0.00    -0.283 C  
BRANCH   3   4
HETATM    4  C   UNL     1     -11.053  10.369  70.083  1.00  0.00    -0.314 C  
BRANCH   4   5
HETATM    5  N   UNL     1     -10.978   9.058  69.414  1.00  0.00    -0.408 N  
HETATM    6  C   UNL     1      -8.498   8.952  69.300  1.00  0.00    -0.121 C  
HETATM    7  O   UNL     1      -9.997   7.253  68.544  1.00  0.00    -0.153 OA 
HETATM    8  H   UNL     1     -11.871   8.616  69.195  1.00  0.00     0.000 HD 
HETATM    9  C   UNL     1      -9.862   8.365  69.052  1.00  0.00    -0.183 C  
ENDBRANCH   4   5
BRANCH   4  10
HETATM   10  C   UNL     1     -11.699  11.424  69.171  1.00  0.00    -0.342 C  
HETATM   11  O   UNL     1     -12.266  11.111  68.127  1.00  0.00    -0.612 OA 
HETATM   12  H   UNL     1     -10.940  12.940  70.369  1.00  0.00     0.000 HD 
HETATM   13  N   UNL     1     -11.486  12.738  69.532  1.00  0.00    -0.254 N  
BRANCH  13  14
HETATM   14  C   UNL     1     -12.013  13.837  68.756  1.00  0.00    -0.365 C  
BRANCH  14  15
HETATM   15  C   UNL     1     -10.985  14.377  67.797  1.00  0.00    -0.283 A  
HETATM   16  C   UNL     1      -9.984  15.259  68.230  1.00  0.00    -0.222 A  
HETATM   17  C   UNL     1      -9.030  15.743  67.330  1.00  0.00    -0.204 A  
HETATM   18  C   UNL     1      -9.072  15.356  65.991  1.00  0.00    -0.284 A  
HETATM   19  C   UNL     1     -10.070  14.491  65.548  1.00  0.00    -0.394 A  
HETATM   20  C   UNL     1     -11.023  14.007  66.445  1.00  0.00    -0.308 A  
ENDBRANCH  14  15
ENDBRANCH  13  14
ENDBRANCH   4  10
ENDBRANCH   3   4
ENDBRANCH   2   3
TORSDOF 6
ENDMDL
MODEL      106
REMARK 921   NORMALIZED FREE ENERGY PREDICTED BY IDOCK:   -4.21 KCAL/MOL
REMARK 922        TOTAL FREE ENERGY PREDICTED BY IDOCK:   -6.09 KCAL/MOL
REMARK 923 INTER-LIGAND FREE ENERGY PREDICTED BY IDOCK:   -5.72 KCAL/MOL
REMARK 924 INTRA-LIGAND FREE ENERGY PREDICTED BY IDOCK:   -0.36 KCAL/MOL
REMARK 927      BINDING AFFINITY PREDICTED BY RF-SCORE:    0.00 PKD
ROOT
HETATM    1  C   UNL     1     -12.760  12.064  63.521  1.00  0.00    -0.443 C  
HETATM    2  O   UNL     1     -12.299  13.396  63.695  1.00  0.00    -0.680 OA 
ENDROOT
BRANCH   2   3
HETATM    3  C   UNL     1     -12.693  13.937  64.961  1.00  0.00    -0.336 C  
BRANCH   3   4
HETATM    4  C   UNL     1     -11.443  14.186  65.813  1.00  0.00    -0.327 C  
BRANCH   4   5
HETATM    5  N   UNL     1     -10.373  13.224  65.493  1.00  0.00    -0.286 N  
HETATM    6  C   UNL     1      -9.861  12.595  67.842  1.00  0.00    -0.218 C  
HETATM    7  O   UNL     1      -8.817  11.677  65.901  1.00  0.00    -0.164 OA 
HETATM    8  H   UNL     1     -10.156  13.109  64.503  1.00  0.00     0.000 HD 
HETATM    9  C   UNL     1      -9.639  12.469  66.359  1.00  0.00    -0.247 C  
ENDBRANCH   4   5
BRANCH   4  10
HETATM   10  C   UNL     1     -10.982  15.632  65.574  1.00  0.00    -0.300 C  
HETATM   11  O   UNL     1     -10.912  16.106  64.442  1.00  0.00    -0.612 OA 
HETATM   12  H   UNL     1     -10.539  15.836  67.591  1.00  0.00     0.000 HD 
HETATM   13  N   UNL     1     -10.530  16.308  66.688  1.00  0.00    -0.302 N  
BRANCH  13  14
HETATM   14  C   UNL     1     -10.044  17.666  66.610  1.00  0.00    -0.335 C  
BRANCH  14  15
HETATM   15  C   UNL     1      -8.615  17.767  67.076  1.00  0.00    -0.248 A  
HETATM   16  C   UNL     1      -8.297  17.771  68.442  1.00  0.00    -0.295 A  
HETATM   17  C   UNL     1      -6.965  17.853  68.858  1.00  0.00    -0.260 A  
HETATM   18  C   UNL     1      -5.942  17.940  67.915  1.00  0.00    -0.156 A  
HETATM   19  C   UNL     1      -6.248  17.951  66.555  1.00  0.00    -0.216 A  
HETATM   20  C   UNL     1      -7.576  17.869  66.138  1.00  0.00    -0.295 A  
ENDBRANCH  14  15
ENDBRANCH  13  14
ENDBRANCH   4  10
ENDBRANCH   3   4
ENDBRANCH   2   3
TORSDOF 6
ENDMDL
MODEL      107
REMARK 921   NORMALIZED FREE ENERGY PREDICTED BY IDOCK:   -4.20 KCAL/MOL
REMARK 922        TOTAL FREE ENERGY PREDICTED BY IDOCK:   -6.07 KCAL/MOL
REMARK 923 INTER-LIGAND FREE ENERGY PREDICTED BY IDOCK:   -5.52 KCAL/MOL
REMARK 924 INTRA-LIGAND FREE ENERGY PREDICTED BY IDOCK:   -0.55 KCAL/MOL
REMARK 927      BINDING AFFINITY PREDICTED BY RF-SCORE:    0.00 PKD
ROOT
HETATM    1  C   UNL     1     -10.286   6.267  74.315  1.00  0.00    -0.335 C  
HETATM    2  O   UNL     1      -9.798   6.884  73.132  1.00  0.00    -0.164 OA 
ENDROOT
BRANCH   2   3
HETATM    3  C   UNL     1     -10.608   7.996  72.737  1.00  0.00    -0.351 C  
BRANCH   3   4
HETATM    4  C   UNL     1      -9.870   8.797  71.657  1.00  0.00    -0.308 C  
BRANCH   4   5
HETATM    5  N   UNL     1      -9.081   7.916  70.777  1.00  0.00    -0.151 N  
HETATM    6  C   UNL     1      -7.084   9.388  70.638  1.00  0.00    -0.127 C  
HETATM    7  O   UNL     1      -7.302   7.241  69.614  1.00  0.00    -0.083 OA 
HETATM    8  H   UNL     1      -9.535   7.048  70.491  1.00  0.00     0.000 HD 
HETATM    9  C   UNL     1      -7.821   8.119  70.301  1.00  0.00    -0.093 C  
ENDBRANCH   4   5
BRANCH   4  10
HETATM   10  C   UNL     1     -10.913   9.594  70.858  1.00  0.00    -0.342 C  
HETATM   11  O   UNL     1     -10.720   9.912  69.687  1.00  0.00    -0.221 OA 
HETATM   12  H   UNL     1     -12.073   9.809  72.565  1.00  0.00     0.000 HD 
HETATM   13  N   UNL     1     -12.004  10.038  71.574  1.00  0.00    -0.378 N  
BRANCH  13  14
HETATM   14  C   UNL     1     -13.052  10.819  70.960  1.00  0.00    -0.248 C  
BRANCH  14  15
HETATM   15  C   UNL     1     -12.873  12.290  71.229  1.00  0.00    -0.337 A  
HETATM   16  C   UNL     1     -12.118  13.098  70.366  1.00  0.00    -0.392 A  
HETATM   17  C   UNL     1     -11.970  14.463  70.623  1.00  0.00    -0.393 A  
HETATM   18  C   UNL     1     -12.568  15.032  71.746  1.00  0.00    -0.409 A  
HETATM   19  C   UNL     1     -13.309  14.237  72.618  1.00  0.00    -0.619 A  
HETATM   20  C   UNL     1     -13.457  12.874  72.363  1.00  0.00    -0.573 A  
ENDBRANCH  14  15
ENDBRANCH  13  14
ENDBRANCH   4  10
ENDBRANCH   3   4
ENDBRANCH   2   3
TORSDOF 6
ENDMDL
MODEL      108
REMARK 921   NORMALIZED FREE ENERGY PREDICTED BY IDOCK:   -4.19 KCAL/MOL
REMARK 922        TOTAL FREE ENERGY PREDICTED BY IDOCK:   -6.07 KCAL/MOL
REMARK 923 INTER-LIGAND FREE ENERGY PREDICTED BY IDOCK:   -5.50 KCAL/MOL
REMARK 924 INTRA-LIGAND FREE ENERGY PREDICTED BY IDOCK:   -0.57 KCAL/MOL
REMARK 927      BINDING AFFINITY PREDICTED BY RF-SCORE:    0.00 PKD
ROOT
HETATM    1  C   UNL     1     -10.670  19.404  67.056  1.00  0.00    -0.474 C  
HETATM    2  O   UNL     1      -9.932  18.647  68.006  1.00  0.00    -0.318 OA 
ENDROOT
BRANCH   2   3
HETATM    3  C   UNL     1     -10.597  17.427  68.349  1.00  0.00    -0.355 C  
BRANCH   3   4
HETATM    4  C   UNL     1      -9.765  16.241  67.847  1.00  0.00    -0.233 C  
BRANCH   4   5
HETATM    5  N   UNL     1      -8.615  15.977  68.730  1.00  0.00    -0.209 N  
HETATM    6  C   UNL     1      -6.875  16.828  67.174  1.00  0.00    -0.231 C  
HETATM    7  O   UNL     1      -6.479  15.989  69.374  1.00  0.00    -0.154 OA 
HETATM    8  H   UNL     1      -8.832  15.550  69.631  1.00  0.00     0.000 HD 
HETATM    9  C   UNL     1      -7.299  16.234  68.490  1.00  0.00    -0.169 C  
ENDBRANCH   4   5
BRANCH   4  10
HETATM   10  C   UNL     1     -10.688  15.016  67.751  1.00  0.00    -0.278 C  
HETATM   11  O   UNL     1     -11.897  15.104  67.952  1.00  0.00    -0.320 OA 
HETATM   12  H   UNL     1      -9.041  13.783  67.479  1.00  0.00     0.000 HD 
HETATM   13  N   UNL     1     -10.057  13.805  67.562  1.00  0.00    -0.239 N  
BRANCH  13  14
HETATM   14  C   UNL     1     -10.794  12.566  67.476  1.00  0.00    -0.232 C  
BRANCH  14  15
HETATM   15  C   UNL     1     -11.024  12.159  66.045  1.00  0.00    -0.332 A  
HETATM   16  C   UNL     1     -12.112  12.661  65.315  1.00  0.00    -0.519 A  
HETATM   17  C   UNL     1     -12.306  12.283  63.984  1.00  0.00    -0.569 A  
HETATM   18  C   UNL     1     -11.420  11.397  63.372  1.00  0.00    -0.124 A  
HETATM   19  C   UNL     1     -10.343  10.882  64.092  1.00  0.00    -0.432 A  
HETATM   20  C   UNL     1     -10.149  11.258  65.421  1.00  0.00    -0.314 A  
ENDBRANCH  14  15
ENDBRANCH  13  14
ENDBRANCH   4  10
ENDBRANCH   3   4
ENDBRANCH   2   3
TORSDOF 6
ENDMDL
MODEL      109
REMARK 921   NORMALIZED FREE ENERGY PREDICTED BY IDOCK:   -4.18 KCAL/MOL
REMARK 922        TOTAL FREE ENERGY PREDICTED BY IDOCK:   -6.05 KCAL/MOL
REMARK 923 INTER-LIGAND FREE ENERGY PREDICTED BY IDOCK:   -5.44 KCAL/MOL
REMARK 924 INTRA-LIGAND FREE ENERGY PREDICTED BY IDOCK:   -0.61 KCAL/MOL
REMARK 927      BINDING AFFINITY PREDICTED BY RF-SCORE:    0.00 PKD
ROOT
HETATM    1  C   UNL     1     -11.868  12.262  64.072  1.00  0.00    -0.444 C  
HETATM    2  O   UNL     1     -10.809  12.356  65.014  1.00  0.00    -0.278 OA 
ENDROOT
BRANCH   2   3
HETATM    3  C   UNL     1     -11.252  12.075  66.346  1.00  0.00    -0.337 C  
BRANCH   3   4
HETATM    4  C   UNL     1     -10.473  12.955  67.331  1.00  0.00    -0.233 C  
BRANCH   4   5
HETATM    5  N   UNL     1      -9.082  13.158  66.888  1.00  0.00    -0.233 N  
HETATM    6  C   UNL     1      -8.047  11.585  68.510  1.00  0.00    -0.146 C  
HETATM    7  O   UNL     1      -6.877  12.820  66.834  1.00  0.00     0.004 OA 
HETATM    8  H   UNL     1      -8.947  13.827  66.131  1.00  0.00     0.000 HD 
HETATM    9  C   UNL     1      -7.955  12.560  67.367  1.00  0.00    -0.180 C  
ENDBRANCH   4   5
BRANCH   4  10
HETATM   10  C   UNL     1     -11.215  14.293  67.468  1.00  0.00    -0.307 C  
HETATM   11  O   UNL     1     -12.384  14.420  67.109  1.00  0.00    -0.335 OA 
HETATM   12  H   UNL     1      -9.465  15.212  68.100  1.00  0.00     0.000 HD 
HETATM   13  N   UNL     1     -10.451  15.361  67.889  1.00  0.00    -0.251 N  
BRANCH  13  14
HETATM   14  C   UNL     1     -11.009  16.685  68.041  1.00  0.00    -0.311 C  
BRANCH  14  15
HETATM   15  C   UNL     1     -10.127  17.730  67.410  1.00  0.00    -0.338 A  
HETATM   16  C   UNL     1      -8.799  17.442  67.062  1.00  0.00    -0.248 A  
HETATM   17  C   UNL     1      -7.997  18.419  66.466  1.00  0.00    -0.294 A  
HETATM   18  C   UNL     1      -8.510  19.691  66.220  1.00  0.00    -0.383 A  
HETATM   19  C   UNL     1      -9.824  19.992  66.574  1.00  0.00    -0.581 A  
HETATM   20  C   UNL     1     -10.626  19.018  67.169  1.00  0.00    -0.545 A  
ENDBRANCH  14  15
ENDBRANCH  13  14
ENDBRANCH   4  10
ENDBRANCH   3   4
ENDBRANCH   2   3
TORSDOF 6
ENDMDL
MODEL      110
REMARK 921   NORMALIZED FREE ENERGY PREDICTED BY IDOCK:   -4.18 KCAL/MOL
REMARK 922        TOTAL FREE ENERGY PREDICTED BY IDOCK:   -6.05 KCAL/MOL
REMARK 923 INTER-LIGAND FREE ENERGY PREDICTED BY IDOCK:   -5.48 KCAL/MOL
REMARK 924 INTRA-LIGAND FREE ENERGY PREDICTED BY IDOCK:   -0.56 KCAL/MOL
REMARK 927      BINDING AFFINITY PREDICTED BY RF-SCORE:    0.00 PKD
ROOT
HETATM    1  C   UNL     1      -7.394  14.819  68.179  1.00  0.00    -0.119 C  
HETATM    2  O   UNL     1      -8.060  14.080  67.164  1.00  0.00    -0.174 OA 
ENDROOT
BRANCH   2   3
HETATM    3  C   UNL     1      -8.121  12.684  67.471  1.00  0.00    -0.178 C  
BRANCH   3   4
HETATM    4  C   UNL     1      -9.168  12.016  66.572  1.00  0.00    -0.216 C  
BRANCH   4   5
HETATM    5  N   UNL     1      -8.796  10.626  66.253  1.00  0.00    -0.156 N  
HETATM    6  C   UNL     1      -9.822  10.583  63.990  1.00  0.00    -0.387 C  
HETATM    7  O   UNL     1      -8.611   8.789  65.000  1.00  0.00    -0.175 OA 
HETATM    8  H   UNL     1      -8.289  10.120  66.979  1.00  0.00     0.000 HD 
HETATM    9  C   UNL     1      -9.047   9.935  65.106  1.00  0.00    -0.211 C  
ENDBRANCH   4   5
BRANCH   4  10
HETATM   10  C   UNL     1     -10.525  12.078  67.292  1.00  0.00    -0.218 C  
HETATM   11  O   UNL     1     -11.579  12.191  66.669  1.00  0.00    -0.394 OA 
HETATM   12  H   UNL     1      -9.561  12.114  69.130  1.00  0.00     0.000 HD 
HETATM   13  N   UNL     1     -10.470  12.134  68.669  1.00  0.00    -0.230 N  
BRANCH  13  14
HETATM   14  C   UNL     1     -11.665  12.219  69.476  1.00  0.00    -0.332 C  
BRANCH  14  15
HETATM   15  C   UNL     1     -11.825  11.004  70.352  1.00  0.00    -0.460 A  
HETATM   16  C   UNL     1     -10.916   9.938  70.285  1.00  0.00    -0.366 A  
HETATM   17  C   UNL     1     -11.072   8.823  71.113  1.00  0.00    -0.340 A  
HETATM   18  C   UNL     1     -12.138   8.760  72.009  1.00  0.00    -0.447 A  
HETATM   19  C   UNL     1     -13.054   9.807  72.074  1.00  0.00    -0.546 A  
HETATM   20  C   UNL     1     -12.901  10.921  71.248  1.00  0.00    -0.536 A  
ENDBRANCH  14  15
ENDBRANCH  13  14
ENDBRANCH   4  10
ENDBRANCH   3   4
ENDBRANCH   2   3
TORSDOF 6
ENDMDL
MODEL      111
REMARK 921   NORMALIZED FREE ENERGY PREDICTED BY IDOCK:   -4.18 KCAL/MOL
REMARK 922        TOTAL FREE ENERGY PREDICTED BY IDOCK:   -6.05 KCAL/MOL
REMARK 923 INTER-LIGAND FREE ENERGY PREDICTED BY IDOCK:   -5.53 KCAL/MOL
REMARK 924 INTRA-LIGAND FREE ENERGY PREDICTED BY IDOCK:   -0.52 KCAL/MOL
REMARK 927      BINDING AFFINITY PREDICTED BY RF-SCORE:    0.00 PKD
ROOT
HETATM    1  C   UNL     1     -11.546  12.821  63.829  1.00  0.00    -0.481 C  
HETATM    2  O   UNL     1     -12.368  12.639  64.973  1.00  0.00    -0.467 OA 
ENDROOT
BRANCH   2   3
HETATM    3  C   UNL     1     -12.201  13.696  65.924  1.00  0.00    -0.461 C  
BRANCH   3   4
HETATM    4  C   UNL     1     -12.057  13.093  67.327  1.00  0.00    -0.274 C  
BRANCH   4   5
HETATM    5  N   UNL     1     -11.385  11.782  67.283  1.00  0.00    -0.309 N  
HETATM    6  C   UNL     1     -12.222  10.973  69.479  1.00  0.00    -0.352 C  
HETATM    7  O   UNL     1     -10.844   9.731  67.975  1.00  0.00    -0.250 OA 
HETATM    8  H   UNL     1     -10.814  11.599  66.458  1.00  0.00     0.000 HD 
HETATM    9  C   UNL     1     -11.435  10.784  68.209  1.00  0.00    -0.280 C  
ENDBRANCH   4   5
BRANCH   4  10
HETATM   10  C   UNL     1     -11.276  14.090  68.198  1.00  0.00    -0.275 C  
HETATM   11  O   UNL     1     -11.851  14.875  68.948  1.00  0.00    -0.311 OA 
HETATM   12  H   UNL     1      -9.502  13.511  67.289  1.00  0.00     0.000 HD 
HETATM   13  N   UNL     1      -9.915  14.135  67.982  1.00  0.00    -0.221 N  
BRANCH  13  14
HETATM   14  C   UNL     1      -9.057  15.040  68.711  1.00  0.00    -0.197 C  
BRANCH  14  15
HETATM   15  C   UNL     1      -8.755  16.278  67.909  1.00  0.00    -0.175 A  
HETATM   16  C   UNL     1      -7.813  16.256  66.870  1.00  0.00    -0.278 A  
HETATM   17  C   UNL     1      -7.553  17.410  66.127  1.00  0.00    -0.321 A  
HETATM   18  C   UNL     1      -8.223  18.597  66.420  1.00  0.00    -0.295 A  
HETATM   19  C   UNL     1      -9.150  18.634  67.459  1.00  0.00    -0.293 A  
HETATM   20  C   UNL     1      -9.411  17.483  68.202  1.00  0.00    -0.291 A  
ENDBRANCH  14  15
ENDBRANCH  13  14
ENDBRANCH   4  10
ENDBRANCH   3   4
ENDBRANCH   2   3
TORSDOF 6
ENDMDL
MODEL      112
REMARK 921   NORMALIZED FREE ENERGY PREDICTED BY IDOCK:   -4.16 KCAL/MOL
REMARK 922        TOTAL FREE ENERGY PREDICTED BY IDOCK:   -6.02 KCAL/MOL
REMARK 923 INTER-LIGAND FREE ENERGY PREDICTED BY IDOCK:   -5.56 KCAL/MOL
REMARK 924 INTRA-LIGAND FREE ENERGY PREDICTED BY IDOCK:   -0.46 KCAL/MOL
REMARK 927      BINDING AFFINITY PREDICTED BY RF-SCORE:    0.00 PKD
ROOT
HETATM    1  C   UNL     1     -10.276  11.897  63.773  1.00  0.00    -0.413 C  
HETATM    2  O   UNL     1     -10.274  10.930  64.813  1.00  0.00    -0.293 OA 
ENDROOT
BRANCH   2   3
HETATM    3  C   UNL     1     -10.858  11.439  66.017  1.00  0.00    -0.249 C  
BRANCH   3   4
HETATM    4  C   UNL     1      -9.950  12.531  66.594  1.00  0.00    -0.236 C  
BRANCH   4   5
HETATM    5  N   UNL     1     -10.673  13.806  66.751  1.00  0.00    -0.276 N  
HETATM    6  C   UNL     1      -8.693  15.279  66.460  1.00  0.00    -0.314 C  
HETATM    7  O   UNL     1     -10.939  16.021  66.791  1.00  0.00    -0.248 OA 
HETATM    8  H   UNL     1     -11.674  13.733  66.930  1.00  0.00     0.000 HD 
HETATM    9  C   UNL     1     -10.167  15.069  66.684  1.00  0.00    -0.268 C  
ENDBRANCH   4   5
BRANCH   4  10
HETATM   10  C   UNL     1      -9.400  12.034  67.940  1.00  0.00    -0.190 C  
HETATM   11  O   UNL     1      -8.497  12.628  68.525  1.00  0.00    -0.140 OA 
HETATM   12  H   UNL     1     -10.582  10.333  67.807  1.00  0.00     0.000 HD 
HETATM   13  N   UNL     1      -9.888  10.819  68.374  1.00  0.00    -0.163 N  
BRANCH  13  14
HETATM   14  C   UNL     1      -9.445  10.217  69.610  1.00  0.00    -0.200 C  
BRANCH  14  15
HETATM   15  C   UNL     1     -10.602   9.934  70.531  1.00  0.00    -0.359 A  
HETATM   16  C   UNL     1     -11.723  10.778  70.566  1.00  0.00    -0.449 A  
HETATM   17  C   UNL     1     -12.794  10.496  71.418  1.00  0.00    -0.551 A  
HETATM   18  C   UNL     1     -12.752   9.375  72.247  1.00  0.00    -0.416 A  
HETATM   19  C   UNL     1     -11.638   8.539  72.231  1.00  0.00    -0.444 A  
HETATM   20  C   UNL     1     -10.568   8.819  71.381  1.00  0.00    -0.349 A  
ENDBRANCH  14  15
ENDBRANCH  13  14
ENDBRANCH   4  10
ENDBRANCH   3   4
ENDBRANCH   2   3
TORSDOF 6
ENDMDL
MODEL      113
REMARK 921   NORMALIZED FREE ENERGY PREDICTED BY IDOCK:   -4.16 KCAL/MOL
REMARK 922        TOTAL FREE ENERGY PREDICTED BY IDOCK:   -6.02 KCAL/MOL
REMARK 923 INTER-LIGAND FREE ENERGY PREDICTED BY IDOCK:   -5.57 KCAL/MOL
REMARK 924 INTRA-LIGAND FREE ENERGY PREDICTED BY IDOCK:   -0.45 KCAL/MOL
REMARK 927      BINDING AFFINITY PREDICTED BY RF-SCORE:    0.00 PKD
ROOT
HETATM    1  C   UNL     1     -10.259  20.045  69.195  1.00  0.00    -0.131 C  
HETATM    2  O   UNL     1     -10.523  19.445  67.935  1.00  0.00    -0.410 OA 
ENDROOT
BRANCH   2   3
HETATM    3  C   UNL     1     -10.606  18.019  68.028  1.00  0.00    -0.347 C  
BRANCH   3   4
HETATM    4  C   UNL     1      -9.408  17.397  67.301  1.00  0.00    -0.238 C  
BRANCH   4   5
HETATM    5  N   UNL     1      -8.183  17.476  68.116  1.00  0.00    -0.242 N  
HETATM    6  C   UNL     1      -7.264  19.514  67.030  1.00  0.00    -0.236 C  
HETATM    7  O   UNL     1      -6.264  18.342  68.855  1.00  0.00    -0.207 OA 
HETATM    8  H   UNL     1      -8.061  16.742  68.813  1.00  0.00     0.000 HD 
HETATM    9  C   UNL     1      -7.193  18.411  68.053  1.00  0.00    -0.241 C  
ENDBRANCH   4   5
BRANCH   4  10
HETATM   10  C   UNL     1      -9.759  15.940  66.962  1.00  0.00    -0.228 C  
HETATM   11  O   UNL     1      -9.236  15.356  66.015  1.00  0.00    -0.316 OA 
HETATM   12  H   UNL     1     -11.233  15.944  68.423  1.00  0.00     0.000 HD 
HETATM   13  N   UNL     1     -10.783  15.384  67.699  1.00  0.00    -0.285 N  
BRANCH  13  14
HETATM   14  C   UNL     1     -11.237  14.031  67.475  1.00  0.00    -0.309 C  
BRANCH  14  15
HETATM   15  C   UNL     1     -11.709  13.390  68.753  1.00  0.00    -0.377 A  
HETATM   16  C   UNL     1     -12.155  14.168  69.832  1.00  0.00    -0.405 A  
HETATM   17  C   UNL     1     -12.601  13.558  71.007  1.00  0.00    -0.438 A  
HETATM   18  C   UNL     1     -12.599  12.168  71.118  1.00  0.00    -0.360 A  
HETATM   19  C   UNL     1     -12.146  11.386  70.058  1.00  0.00    -0.417 A  
HETATM   20  C   UNL     1     -11.699  11.993  68.884  1.00  0.00    -0.383 A  
ENDBRANCH  14  15
ENDBRANCH  13  14
ENDBRANCH   4  10
ENDBRANCH   3   4
ENDBRANCH   2   3
TORSDOF 6
ENDMDL
MODEL      114
REMARK 921   NORMALIZED FREE ENERGY PREDICTED BY IDOCK:   -4.15 KCAL/MOL
REMARK 922        TOTAL FREE ENERGY PREDICTED BY IDOCK:   -6.01 KCAL/MOL
REMARK 923 INTER-LIGAND FREE ENERGY PREDICTED BY IDOCK:   -5.43 KCAL/MOL
REMARK 924 INTRA-LIGAND FREE ENERGY PREDICTED BY IDOCK:   -0.58 KCAL/MOL
REMARK 927      BINDING AFFINITY PREDICTED BY RF-SCORE:    0.00 PKD
ROOT
HETATM    1  C   UNL     1      -6.689   9.444  70.236  1.00  0.00    -0.074 C  
HETATM    2  O   UNL     1      -8.026   9.575  70.699  1.00  0.00    -0.176 OA 
ENDROOT
BRANCH   2   3
HETATM    3  C   UNL     1      -8.882  10.147  69.705  1.00  0.00    -0.164 C  
BRANCH   3   4
HETATM    4  C   UNL     1     -10.314   9.645  69.924  1.00  0.00    -0.249 C  
BRANCH   4   5
HETATM    5  N   UNL     1     -10.520   9.193  71.312  1.00  0.00    -0.302 N  
HETATM    6  C   UNL     1     -12.060   7.322  70.764  1.00  0.00    -0.284 C  
HETATM    7  O   UNL     1     -11.288   7.890  72.952  1.00  0.00    -0.406 OA 
HETATM    8  H   UNL     1     -10.036   9.729  72.033  1.00  0.00     0.000 HD 
HETATM    9  C   UNL     1     -11.277   8.149  71.749  1.00  0.00    -0.272 C  
ENDBRANCH   4   5
BRANCH   4  10
HETATM   10  C   UNL     1     -11.281  10.783  69.560  1.00  0.00    -0.281 C  
HETATM   11  O   UNL     1     -12.391  10.557  69.085  1.00  0.00    -0.257 OA 
HETATM   12  H   UNL     1      -9.814  12.184  70.000  1.00  0.00     0.000 HD 
HETATM   13  N   UNL     1     -10.772  12.060  69.674  1.00  0.00     0.185 N  
BRANCH  13  14
HETATM   14  C   UNL     1     -11.557  13.226  69.343  1.00  0.00    -0.305 C  
BRANCH  14  15
HETATM   15  C   UNL     1     -12.164  13.848  70.573  1.00  0.00    -0.443 A  
HETATM   16  C   UNL     1     -13.262  13.257  71.217  1.00  0.00    -0.226 A  
HETATM   17  C   UNL     1     -13.807  13.840  72.364  1.00  0.00    -0.681 A  
HETATM   18  C   UNL     1     -13.266  15.020  72.873  1.00  0.00    -0.585 A  
HETATM   19  C   UNL     1     -12.185  15.622  72.234  1.00  0.00    -0.531 A  
HETATM   20  C   UNL     1     -11.640  15.042  71.089  1.00  0.00    -0.377 A  
ENDBRANCH  14  15
ENDBRANCH  13  14
ENDBRANCH   4  10
ENDBRANCH   3   4
ENDBRANCH   2   3
TORSDOF 6
ENDMDL
MODEL      115
REMARK 921   NORMALIZED FREE ENERGY PREDICTED BY IDOCK:   -4.15 KCAL/MOL
REMARK 922        TOTAL FREE ENERGY PREDICTED BY IDOCK:   -6.00 KCAL/MOL
REMARK 923 INTER-LIGAND FREE ENERGY PREDICTED BY IDOCK:   -5.50 KCAL/MOL
REMARK 924 INTRA-LIGAND FREE ENERGY PREDICTED BY IDOCK:   -0.50 KCAL/MOL
REMARK 927      BINDING AFFINITY PREDICTED BY RF-SCORE:    0.00 PKD
ROOT
HETATM    1  C   UNL     1     -10.410  12.250  65.363  1.00  0.00    -0.269 C  
HETATM    2  O   UNL     1     -10.561  13.292  66.317  1.00  0.00    -0.283 OA 
ENDROOT
BRANCH   2   3
HETATM    3  C   UNL     1     -11.019  14.507  65.714  1.00  0.00    -0.319 C  
BRANCH   3   4
HETATM    4  C   UNL     1     -11.097  15.602  66.785  1.00  0.00    -0.169 C  
BRANCH   4   5
HETATM    5  N   UNL     1     -10.237  15.288  67.940  1.00  0.00    -0.233 N  
HETATM    6  C   UNL     1     -11.950  15.733  69.684  1.00  0.00    -0.332 C  
HETATM    7  O   UNL     1      -9.723  14.969  70.087  1.00  0.00     0.021 OA 
HETATM    8  H   UNL     1      -9.277  15.020  67.722  1.00  0.00     0.000 HD 
HETATM    9  C   UNL     1     -10.567  15.313  69.261  1.00  0.00    -0.256 C  
ENDBRANCH   4   5
BRANCH   4  10
HETATM   10  C   UNL     1     -10.695  16.935  66.135  1.00  0.00    -0.109 C  
HETATM   11  O   UNL     1     -10.615  17.057  64.915  1.00  0.00    -0.673 OA 
HETATM   12  H   UNL     1     -10.317  17.746  68.008  1.00  0.00     0.000 HD 
HETATM   13  N   UNL     1     -10.304  17.931  67.005  1.00  0.00    -0.357 N  
BRANCH  13  14
HETATM   14  C   UNL     1      -9.877  19.229  66.536  1.00  0.00    -0.372 C  
BRANCH  14  15
HETATM   15  C   UNL     1      -8.611  19.672  67.220  1.00  0.00    -0.356 A  
HETATM   16  C   UNL     1      -7.724  20.562  66.595  1.00  0.00    -0.231 A  
HETATM   17  C   UNL     1      -6.559  20.974  67.247  1.00  0.00    -0.431 A  
HETATM   18  C   UNL     1      -6.265  20.495  68.523  1.00  0.00    -0.357 A  
HETATM   19  C   UNL     1      -7.131  19.600  69.147  1.00  0.00    -0.378 A  
HETATM   20  C   UNL     1      -8.295  19.187  68.498  1.00  0.00    -0.399 A  
ENDBRANCH  14  15
ENDBRANCH  13  14
ENDBRANCH   4  10
ENDBRANCH   3   4
ENDBRANCH   2   3
TORSDOF 6
ENDMDL
MODEL      116
REMARK 921   NORMALIZED FREE ENERGY PREDICTED BY IDOCK:   -4.13 KCAL/MOL
REMARK 922        TOTAL FREE ENERGY PREDICTED BY IDOCK:   -5.98 KCAL/MOL
REMARK 923 INTER-LIGAND FREE ENERGY PREDICTED BY IDOCK:   -5.49 KCAL/MOL
REMARK 924 INTRA-LIGAND FREE ENERGY PREDICTED BY IDOCK:   -0.49 KCAL/MOL
REMARK 927      BINDING AFFINITY PREDICTED BY RF-SCORE:    0.00 PKD
ROOT
HETATM    1  C   UNL     1      -5.924  14.521  70.745  1.00  0.00    -0.173 C  
HETATM    2  O   UNL     1      -6.817  15.375  70.045  1.00  0.00    -0.145 OA 
ENDROOT
BRANCH   2   3
HETATM    3  C   UNL     1      -7.142  14.862  68.749  1.00  0.00    -0.115 C  
BRANCH   3   4
HETATM    4  C   UNL     1      -8.571  15.283  68.385  1.00  0.00    -0.160 C  
BRANCH   4   5
HETATM    5  N   UNL     1      -8.586  16.199  67.231  1.00  0.00    -0.171 N  
HETATM    6  C   UNL     1     -10.221  17.810  68.183  1.00  0.00    -0.383 C  
HETATM    7  O   UNL     1      -9.137  18.020  66.065  1.00  0.00    -0.509 OA 
HETATM    8  H   UNL     1      -7.995  15.935  66.443  1.00  0.00     0.000 HD 
HETATM    9  C   UNL     1      -9.292  17.355  67.089  1.00  0.00    -0.245 C  
ENDBRANCH   4   5
BRANCH   4  10
HETATM   10  C   UNL     1      -9.385  14.011  68.098  1.00  0.00    -0.201 C  
HETATM   11  O   UNL     1      -8.853  12.904  68.050  1.00  0.00    -0.180 OA 
HETATM   12  H   UNL     1     -11.078  15.160  67.751  1.00  0.00     0.000 HD 
HETATM   13  N   UNL     1     -10.710  14.210  67.770  1.00  0.00    -0.245 N  
BRANCH  13  14
HETATM   14  C   UNL     1     -11.590  13.110  67.453  1.00  0.00    -0.356 C  
BRANCH  14  15
HETATM   15  C   UNL     1     -11.581  12.805  65.978  1.00  0.00    -0.432 A  
HETATM   16  C   UNL     1     -12.313  13.589  65.073  1.00  0.00    -0.468 A  
HETATM   17  C   UNL     1     -12.286  13.301  63.705  1.00  0.00    -0.508 A  
HETATM   18  C   UNL     1     -11.535  12.226  63.232  1.00  0.00    -0.420 A  
HETATM   19  C   UNL     1     -10.816  11.433  64.123  1.00  0.00    -0.431 A  
HETATM   20  C   UNL     1     -10.842  11.718  65.489  1.00  0.00    -0.348 A  
ENDBRANCH  14  15
ENDBRANCH  13  14
ENDBRANCH   4  10
ENDBRANCH   3   4
ENDBRANCH   2   3
TORSDOF 6
ENDMDL
MODEL      117
REMARK 921   NORMALIZED FREE ENERGY PREDICTED BY IDOCK:   -4.13 KCAL/MOL
REMARK 922        TOTAL FREE ENERGY PREDICTED BY IDOCK:   -5.98 KCAL/MOL
REMARK 923 INTER-LIGAND FREE ENERGY PREDICTED BY IDOCK:   -5.75 KCAL/MOL
REMARK 924 INTRA-LIGAND FREE ENERGY PREDICTED BY IDOCK:   -0.23 KCAL/MOL
REMARK 927      BINDING AFFINITY PREDICTED BY RF-SCORE:    0.00 PKD
ROOT
HETATM    1  C   UNL     1     -11.328   8.415  72.177  1.00  0.00    -0.366 C  
HETATM    2  O   UNL     1     -11.817   8.120  70.876  1.00  0.00    -0.285 OA 
ENDROOT
BRANCH   2   3
HETATM    3  C   UNL     1     -10.895   8.520  69.856  1.00  0.00    -0.205 C  
BRANCH   3   4
HETATM    4  C   UNL     1     -10.490   9.980  70.087  1.00  0.00    -0.284 C  
BRANCH   4   5
HETATM    5  N   UNL     1      -9.130  10.248  69.585  1.00  0.00    -0.371 N  
HETATM    6  C   UNL     1      -7.936   8.904  71.300  1.00  0.00    -0.172 C  
HETATM    7  O   UNL     1      -6.908  10.073  69.490  1.00  0.00    -0.056 OA 
HETATM    8  H   UNL     1      -9.067  10.858  68.770  1.00  0.00     0.000 HD 
HETATM    9  C   UNL     1      -7.948   9.780  70.076  1.00  0.00    -0.184 C  
ENDBRANCH   4   5
BRANCH   4  10
HETATM   10  C   UNL     1     -11.527  10.879  69.396  1.00  0.00    -0.302 C  
HETATM   11  O   UNL     1     -12.732  10.659  69.488  1.00  0.00    -0.229 OA 
HETATM   12  H   UNL     1     -10.004  11.943  68.471  1.00  0.00     0.000 HD 
HETATM   13  N   UNL     1     -11.015  11.857  68.569  1.00  0.00    -0.221 N  
BRANCH  13  14
HETATM   14  C   UNL     1     -11.870  12.760  67.836  1.00  0.00    -0.339 C  
BRANCH  14  15
HETATM   15  C   UNL     1     -11.714  12.583  66.349  1.00  0.00    -0.458 A  
HETATM   16  C   UNL     1     -10.896  11.572  65.822  1.00  0.00    -0.319 A  
HETATM   17  C   UNL     1     -10.770  11.412  64.440  1.00  0.00    -0.405 A  
HETATM   18  C   UNL     1     -11.452  12.264  63.572  1.00  0.00    -0.558 A  
HETATM   19  C   UNL     1     -12.256  13.280  64.084  1.00  0.00    -0.465 A  
HETATM   20  C   UNL     1     -12.383  13.441  65.464  1.00  0.00    -0.528 A  
ENDBRANCH  14  15
ENDBRANCH  13  14
ENDBRANCH   4  10
ENDBRANCH   3   4
ENDBRANCH   2   3
TORSDOF 6
ENDMDL
MODEL      118
REMARK 921   NORMALIZED FREE ENERGY PREDICTED BY IDOCK:   -4.12 KCAL/MOL
REMARK 922        TOTAL FREE ENERGY PREDICTED BY IDOCK:   -5.98 KCAL/MOL
REMARK 923 INTER-LIGAND FREE ENERGY PREDICTED BY IDOCK:   -5.50 KCAL/MOL
REMARK 924 INTRA-LIGAND FREE ENERGY PREDICTED BY IDOCK:   -0.48 KCAL/MOL
REMARK 927      BINDING AFFINITY PREDICTED BY RF-SCORE:    0.00 PKD
ROOT
HETATM    1  C   UNL     1     -10.500  10.147  69.862  1.00  0.00    -0.275 C  
HETATM    2  O   UNL     1     -11.363  11.254  69.644  1.00  0.00    -0.260 OA 
ENDROOT
BRANCH   2   3
HETATM    3  C   UNL     1     -10.802  12.195  68.722  1.00  0.00    -0.228 C  
BRANCH   3   4
HETATM    4  C   UNL     1     -11.860  13.249  68.373  1.00  0.00    -0.360 C  
BRANCH   4   5
HETATM    5  N   UNL     1     -11.494  14.575  68.901  1.00  0.00    -0.282 N  
HETATM    6  C   UNL     1     -12.721  14.361  71.051  1.00  0.00    -0.416 C  
HETATM    7  O   UNL     1     -11.391  16.232  70.392  1.00  0.00    -0.371 OA 
HETATM    8  H   UNL     1     -10.913  15.153  68.293  1.00  0.00     0.000 HD 
HETATM    9  C   UNL     1     -11.835  15.123  70.101  1.00  0.00    -0.313 C  
ENDBRANCH   4   5
BRANCH   4  10
HETATM   10  C   UNL     1     -12.017  13.280  66.845  1.00  0.00    -0.375 C  
HETATM   11  O   UNL     1     -12.928  13.903  66.305  1.00  0.00    -0.219 OA 
HETATM   12  H   UNL     1     -10.470  11.911  66.647  1.00  0.00     0.000 HD 
HETATM   13  N   UNL     1     -11.158  12.465  66.138  1.00  0.00    -0.289 N  
BRANCH  13  14
HETATM   14  C   UNL     1     -11.205  12.375  64.698  1.00  0.00    -0.312 C  
BRANCH  14  15
HETATM   15  C   UNL     1     -10.209  11.373  64.176  1.00  0.00    -0.376 A  
HETATM   16  C   UNL     1      -9.800  10.283  64.959  1.00  0.00    -0.397 A  
HETATM   17  C   UNL     1      -8.884   9.356  64.456  1.00  0.00    -0.235 A  
HETATM   18  C   UNL     1      -8.363   9.512  63.172  1.00  0.00    -0.180 A  
HETATM   19  C   UNL     1      -8.751  10.599  62.391  1.00  0.00    -0.307 A  
HETATM   20  C   UNL     1      -9.666  11.526  62.892  1.00  0.00    -0.302 A  
ENDBRANCH  14  15
ENDBRANCH  13  14
ENDBRANCH   4  10
ENDBRANCH   3   4
ENDBRANCH   2   3
TORSDOF 6
ENDMDL
MODEL      119
REMARK 921   NORMALIZED FREE ENERGY PREDICTED BY IDOCK:   -4.11 KCAL/MOL
REMARK 922        TOTAL FREE ENERGY PREDICTED BY IDOCK:   -5.96 KCAL/MOL
REMARK 923 INTER-LIGAND FREE ENERGY PREDICTED BY IDOCK:   -5.50 KCAL/MOL
REMARK 924 INTRA-LIGAND FREE ENERGY PREDICTED BY IDOCK:   -0.46 KCAL/MOL
REMARK 927      BINDING AFFINITY PREDICTED BY RF-SCORE:    0.00 PKD
ROOT
HETATM    1  C   UNL     1      -7.157  13.148  68.565  1.00  0.00    -0.105 C  
HETATM    2  O   UNL     1      -8.350  13.135  67.793  1.00  0.00    -0.145 OA 
ENDROOT
BRANCH   2   3
HETATM    3  C   UNL     1      -9.241  12.092  68.203  1.00  0.00    -0.197 C  
BRANCH   3   4
HETATM    4  C   UNL     1     -10.685  12.601  68.120  1.00  0.00    -0.225 C  
BRANCH   4   5
HETATM    5  N   UNL     1     -11.345  12.146  66.883  1.00  0.00    -0.323 N  
HETATM    6  C   UNL     1     -12.269  14.361  66.237  1.00  0.00    -0.366 C  
HETATM    7  O   UNL     1     -12.495  12.342  64.981  1.00  0.00    -0.549 OA 
HETATM    8  H   UNL     1     -11.260  11.152  66.670  1.00  0.00     0.000 HD 
HETATM    9  C   UNL     1     -12.056  12.891  65.991  1.00  0.00    -0.422 C  
ENDBRANCH   4   5
BRANCH   4  10
HETATM   10  C   UNL     1     -11.437  12.111  69.367  1.00  0.00    -0.290 C  
HETATM   11  O   UNL     1     -12.168  12.859  70.012  1.00  0.00    -0.291 OA 
HETATM   12  H   UNL     1     -10.461  10.283  69.251  1.00  0.00     0.000 HD 
HETATM   13  N   UNL     1     -11.135  10.832  69.783  1.00  0.00    -0.273 N  
BRANCH  13  14
HETATM   14  C   UNL     1     -11.748  10.247  70.953  1.00  0.00    -0.379 C  
BRANCH  14  15
HETATM   15  C   UNL     1     -11.540   8.756  70.997  1.00  0.00    -0.337 A  
HETATM   16  C   UNL     1     -12.120   7.973  72.006  1.00  0.00    -0.377 A  
HETATM   17  C   UNL     1     -11.928   6.589  72.026  1.00  0.00    -0.372 A  
HETATM   18  C   UNL     1     -11.149   5.977  71.045  1.00  0.00    -0.348 A  
HETATM   19  C   UNL     1     -10.557   6.747  70.046  1.00  0.00    -0.256 A  
HETATM   20  C   UNL     1     -10.747   8.128  70.025  1.00  0.00    -0.243 A  
ENDBRANCH  14  15
ENDBRANCH  13  14
ENDBRANCH   4  10
ENDBRANCH   3   4
ENDBRANCH   2   3
TORSDOF 6
ENDMDL
MODEL      120
REMARK 921   NORMALIZED FREE ENERGY PREDICTED BY IDOCK:   -4.07 KCAL/MOL
REMARK 922        TOTAL FREE ENERGY PREDICTED BY IDOCK:   -5.90 KCAL/MOL
REMARK 923 INTER-LIGAND FREE ENERGY PREDICTED BY IDOCK:   -5.53 KCAL/MOL
REMARK 924 INTRA-LIGAND FREE ENERGY PREDICTED BY IDOCK:   -0.37 KCAL/MOL
REMARK 927      BINDING AFFINITY PREDICTED BY RF-SCORE:    0.00 PKD
ROOT
HETATM    1  C   UNL     1     -10.447   6.814  73.868  1.00  0.00    -0.327 C  
HETATM    2  O   UNL     1     -10.622   7.971  73.062  1.00  0.00    -0.353 OA 
ENDROOT
BRANCH   2   3
HETATM    3  C   UNL     1     -11.530   7.736  71.980  1.00  0.00    -0.289 C  
BRANCH   3   4
HETATM    4  C   UNL     1     -11.057   8.516  70.748  1.00  0.00    -0.254 C  
BRANCH   4   5
HETATM    5  N   UNL     1     -11.397   7.810  69.500  1.00  0.00    -0.437 N  
HETATM    6  C   UNL     1      -9.407   6.322  69.478  1.00  0.00    -0.147 C  
HETATM    7  O   UNL     1     -11.174   6.301  67.871  1.00  0.00    -0.323 OA 
HETATM    8  H   UNL     1     -12.255   8.109  69.036  1.00  0.00     0.000 HD 
HETATM    9  C   UNL     1     -10.705   6.807  68.890  1.00  0.00    -0.240 C  
ENDBRANCH   4   5
BRANCH   4  10
HETATM   10  C   UNL     1     -11.699   9.912  70.792  1.00  0.00    -0.341 C  
HETATM   11  O   UNL     1     -12.684  10.145  71.488  1.00  0.00    -0.364 OA 
HETATM   12  H   UNL     1     -10.413  10.562  69.297  1.00  0.00     0.000 HD 
HETATM   13  N   UNL     1     -11.183  10.836  69.907  1.00  0.00    -0.289 N  
BRANCH  13  14
HETATM   14  C   UNL     1     -11.703  12.180  69.820  1.00  0.00    -0.310 C  
BRANCH  14  15
HETATM   15  C   UNL     1     -11.325  12.833  68.516  1.00  0.00    -0.326 A  
HETATM   16  C   UNL     1     -11.830  12.359  67.296  1.00  0.00    -0.357 A  
HETATM   17  C   UNL     1     -11.480  12.983  66.096  1.00  0.00    -0.381 A  
HETATM   18  C   UNL     1     -10.619  14.079  66.102  1.00  0.00    -0.290 A  
HETATM   19  C   UNL     1     -10.101  14.550  67.307  1.00  0.00    -0.247 A  
HETATM   20  C   UNL     1     -10.449  13.928  68.506  1.00  0.00    -0.253 A  
ENDBRANCH  14  15
ENDBRANCH  13  14
ENDBRANCH   4  10
ENDBRANCH   3   4
ENDBRANCH   2   3
TORSDOF 6
ENDMDL
MODEL      121
REMARK 921   NORMALIZED FREE ENERGY PREDICTED BY IDOCK:   -4.05 KCAL/MOL
REMARK 922        TOTAL FREE ENERGY PREDICTED BY IDOCK:   -5.88 KCAL/MOL
REMARK 923 INTER-LIGAND FREE ENERGY PREDICTED BY IDOCK:   -5.33 KCAL/MOL
REMARK 924 INTRA-LIGAND FREE ENERGY PREDICTED BY IDOCK:   -0.55 KCAL/MOL
REMARK 927      BINDING AFFINITY PREDICTED BY RF-SCORE:    0.00 PKD
ROOT
HETATM    1  C   UNL     1     -12.649  13.953  65.464  1.00  0.00    -0.526 C  
HETATM    2  O   UNL     1     -11.465  14.299  66.169  1.00  0.00    -0.338 OA 
ENDROOT
BRANCH   2   3
HETATM    3  C   UNL     1     -11.720  14.537  67.557  1.00  0.00    -0.386 C  
BRANCH   3   4
HETATM    4  C   UNL     1     -10.775  13.670  68.398  1.00  0.00    -0.258 C  
BRANCH   4   5
HETATM    5  N   UNL     1     -10.700  12.293  67.877  1.00  0.00    -0.209 N  
HETATM    6  C   UNL     1     -11.983  11.234  69.723  1.00  0.00    -0.431 C  
HETATM    7  O   UNL     1     -11.112  10.102  67.809  1.00  0.00    -0.295 OA 
HETATM    8  H   UNL     1     -10.185  12.173  67.006  1.00  0.00     0.000 HD 
HETATM    9  C   UNL     1     -11.236  11.163  68.418  1.00  0.00    -0.262 C  
ENDBRANCH   4   5
BRANCH   4  10
HETATM   10  C   UNL     1      -9.392  14.340  68.405  1.00  0.00    -0.208 C  
HETATM   11  O   UNL     1      -8.399  13.768  67.961  1.00  0.00    -0.149 OA 
HETATM   12  H   UNL     1     -10.161  15.943  69.476  1.00  0.00     0.000 HD 
HETATM   13  N   UNL     1      -9.317  15.553  69.057  1.00  0.00    -0.217 N  
BRANCH  13  14
HETATM   14  C   UNL     1      -8.077  16.286  69.164  1.00  0.00    -0.215 C  
BRANCH  14  15
HETATM   15  C   UNL     1      -8.047  17.457  68.218  1.00  0.00    -0.249 A  
HETATM   16  C   UNL     1      -8.769  18.628  68.491  1.00  0.00    -0.362 A  
HETATM   17  C   UNL     1      -8.721  19.710  67.609  1.00  0.00    -0.372 A  
HETATM   18  C   UNL     1      -7.958  19.631  66.445  1.00  0.00    -0.332 A  
HETATM   19  C   UNL     1      -7.248  18.467  66.157  1.00  0.00    -0.301 A  
HETATM   20  C   UNL     1      -7.295  17.385  67.036  1.00  0.00    -0.220 A  
ENDBRANCH  14  15
ENDBRANCH  13  14
ENDBRANCH   4  10
ENDBRANCH   3   4
ENDBRANCH   2   3
TORSDOF 6
ENDMDL
MODEL      122
REMARK 921   NORMALIZED FREE ENERGY PREDICTED BY IDOCK:   -4.03 KCAL/MOL
REMARK 922        TOTAL FREE ENERGY PREDICTED BY IDOCK:   -5.84 KCAL/MOL
REMARK 923 INTER-LIGAND FREE ENERGY PREDICTED BY IDOCK:   -5.47 KCAL/MOL
REMARK 924 INTRA-LIGAND FREE ENERGY PREDICTED BY IDOCK:   -0.37 KCAL/MOL
REMARK 927      BINDING AFFINITY PREDICTED BY RF-SCORE:    0.00 PKD
ROOT
HETATM    1  C   UNL     1     -13.004  15.180  71.684  1.00  0.00    -0.375 C  
HETATM    2  O   UNL     1     -12.613  15.870  70.505  1.00  0.00    -0.377 OA 
ENDROOT
BRANCH   2   3
HETATM    3  C   UNL     1     -11.936  15.010  69.582  1.00  0.00    -0.321 C  
BRANCH   3   4
HETATM    4  C   UNL     1     -11.445  15.839  68.389  1.00  0.00    -0.365 C  
BRANCH   4   5
HETATM    5  N   UNL     1     -10.118  16.425  68.650  1.00  0.00    -0.232 N  
HETATM    6  C   UNL     1     -10.557  18.601  67.534  1.00  0.00    -0.472 C  
HETATM    7  O   UNL     1      -8.537  17.999  68.656  1.00  0.00    -0.303 OA 
HETATM    8  H   UNL     1      -9.457  15.830  69.150  1.00  0.00     0.000 HD 
HETATM    9  C   UNL     1      -9.667  17.663  68.306  1.00  0.00    -0.315 C  
ENDBRANCH   4   5
BRANCH   4  10
HETATM   10  C   UNL     1     -11.419  14.927  67.152  1.00  0.00    -0.335 C  
HETATM   11  O   UNL     1     -12.433  14.366  66.744  1.00  0.00    -0.331 OA 
HETATM   12  H   UNL     1      -9.354  15.109  67.049  1.00  0.00     0.000 HD 
HETATM   13  N   UNL     1     -10.171  14.677  66.620  1.00  0.00    -0.269 N  
BRANCH  13  14
HETATM   14  C   UNL     1      -9.990  13.819  65.472  1.00  0.00    -0.238 C  
BRANCH  14  15
HETATM   15  C   UNL     1      -9.833  12.378  65.880  1.00  0.00    -0.265 A  
HETATM   16  C   UNL     1      -9.460  12.032  67.188  1.00  0.00    -0.187 A  
HETATM   17  C   UNL     1      -9.330  10.690  67.554  1.00  0.00    -0.158 A  
HETATM   18  C   UNL     1      -9.562   9.683  66.618  1.00  0.00    -0.241 A  
HETATM   19  C   UNL     1      -9.919  10.016  65.313  1.00  0.00    -0.368 A  
HETATM   20  C   UNL     1     -10.050  11.355  64.945  1.00  0.00    -0.323 A  
ENDBRANCH  14  15
ENDBRANCH  13  14
ENDBRANCH   4  10
ENDBRANCH   3   4
ENDBRANCH   2   3
TORSDOF 6
ENDMDL
MODEL      123
REMARK 921   NORMALIZED FREE ENERGY PREDICTED BY IDOCK:   -4.02 KCAL/MOL
REMARK 922        TOTAL FREE ENERGY PREDICTED BY IDOCK:   -5.84 KCAL/MOL
REMARK 923 INTER-LIGAND FREE ENERGY PREDICTED BY IDOCK:   -6.30 KCAL/MOL
REMARK 924 INTRA-LIGAND FREE ENERGY PREDICTED BY IDOCK:    0.46 KCAL/MOL
REMARK 927      BINDING AFFINITY PREDICTED BY RF-SCORE:    0.00 PKD
ROOT
HETATM    1  C   UNL     1     -12.313  14.905  72.247  1.00  0.00    -0.344 C  
HETATM    2  O   UNL     1     -12.319  16.011  71.355  1.00  0.00    -0.440 OA 
ENDROOT
BRANCH   2   3
HETATM    3  C   UNL     1     -11.245  15.942  70.411  1.00  0.00    -0.378 C  
BRANCH   3   4
HETATM    4  C   UNL     1     -11.801  15.526  69.044  1.00  0.00    -0.354 C  
BRANCH   4   5
HETATM    5  N   UNL     1     -11.523  16.545  68.016  1.00  0.00    -0.110 N  
HETATM    6  C   UNL     1      -9.222  17.083  68.782  1.00  0.00    -0.252 C  
HETATM    7  O   UNL     1     -10.314  18.041  66.887  1.00  0.00    -0.350 OA 
HETATM    8  H   UNL     1     -12.279  16.734  67.358  1.00  0.00     0.000 HD 
HETATM    9  C   UNL     1     -10.380  17.265  67.838  1.00  0.00    -0.360 C  
ENDBRANCH   4   5
BRANCH   4  10
HETATM   10  C   UNL     1     -11.181  14.171  68.669  1.00  0.00    -0.266 C  
HETATM   11  O   UNL     1      -9.968  13.980  68.731  1.00  0.00    -0.224 OA 
HETATM   12  H   UNL     1     -13.035  13.485  68.036  1.00  0.00     0.000 HD 
HETATM   13  N   UNL     1     -12.050  13.242  68.136  1.00  0.00    -0.289 N  
BRANCH  13  14
HETATM   14  C   UNL     1     -11.604  11.934  67.716  1.00  0.00    -0.323 C  
BRANCH  14  15
HETATM   15  C   UNL     1     -11.443  11.861  66.221  1.00  0.00    -0.367 A  
HETATM   16  C   UNL     1     -12.276  12.599  65.366  1.00  0.00    -0.517 A  
HETATM   17  C   UNL     1     -12.106  12.530  63.981  1.00  0.00    -0.557 A  
HETATM   18  C   UNL     1     -11.111  11.719  63.437  1.00  0.00    -0.448 A  
HETATM   19  C   UNL     1     -10.287  10.972  64.276  1.00  0.00    -0.430 A  
HETATM   20  C   UNL     1     -10.454  11.040  65.659  1.00  0.00    -0.293 A  
ENDBRANCH  14  15
ENDBRANCH  13  14
ENDBRANCH   4  10
ENDBRANCH   3   4
ENDBRANCH   2   3
TORSDOF 6
ENDMDL
MODEL      124
REMARK 921   NORMALIZED FREE ENERGY PREDICTED BY IDOCK:   -4.00 KCAL/MOL
REMARK 922        TOTAL FREE ENERGY PREDICTED BY IDOCK:   -5.81 KCAL/MOL
REMARK 923 INTER-LIGAND FREE ENERGY PREDICTED BY IDOCK:   -5.72 KCAL/MOL
REMARK 924 INTRA-LIGAND FREE ENERGY PREDICTED BY IDOCK:   -0.10 KCAL/MOL
REMARK 927      BINDING AFFINITY PREDICTED BY RF-SCORE:    0.00 PKD
ROOT
HETATM    1  C   UNL     1     -10.647  19.012  67.158  1.00  0.00    -0.462 C  
HETATM    2  O   UNL     1     -10.153  18.191  68.207  1.00  0.00    -0.345 OA 
ENDROOT
BRANCH   2   3
HETATM    3  C   UNL     1     -10.299  16.798  67.909  1.00  0.00    -0.319 C  
BRANCH   3   4
HETATM    4  C   UNL     1      -9.761  16.526  66.499  1.00  0.00    -0.272 C  
BRANCH   4   5
HETATM    5  N   UNL     1      -8.300  16.334  66.507  1.00  0.00    -0.279 N  
HETATM    6  C   UNL     1      -8.301  14.303  67.939  1.00  0.00    -0.162 C  
HETATM    7  O   UNL     1      -6.368  15.321  66.975  1.00  0.00    -0.240 OA 
HETATM    8  H   UNL     1      -7.755  17.024  65.991  1.00  0.00     0.000 HD 
HETATM    9  C   UNL     1      -7.589  15.347  67.121  1.00  0.00    -0.203 C  
ENDBRANCH   4   5
BRANCH   4  10
HETATM   10  C   UNL     1     -10.483  15.288  65.943  1.00  0.00    -0.331 C  
HETATM   11  O   UNL     1     -10.306  14.905  64.789  1.00  0.00    -0.368 OA 
HETATM   12  H   UNL     1     -11.589  15.134  67.693  1.00  0.00     0.000 HD 
HETATM   13  N   UNL     1     -11.430  14.725  66.772  1.00  0.00    -0.353 N  
BRANCH  13  14
HETATM   14  C   UNL     1     -12.203  13.572  66.374  1.00  0.00    -0.400 C  
BRANCH  14  15
HETATM   15  C   UNL     1     -11.657  12.306  66.981  1.00  0.00    -0.418 A  
HETATM   16  C   UNL     1     -10.939  11.383  66.207  1.00  0.00    -0.303 A  
HETATM   17  C   UNL     1     -10.429  10.219  66.788  1.00  0.00    -0.279 A  
HETATM   18  C   UNL     1     -10.637   9.963  68.142  1.00  0.00    -0.270 A  
HETATM   19  C   UNL     1     -11.361  10.866  68.917  1.00  0.00    -0.354 A  
HETATM   20  C   UNL     1     -11.871  12.029  68.339  1.00  0.00    -0.360 A  
ENDBRANCH  14  15
ENDBRANCH  13  14
ENDBRANCH   4  10
ENDBRANCH   3   4
ENDBRANCH   2   3
TORSDOF 6
ENDMDL
MODEL      125
REMARK 921   NORMALIZED FREE ENERGY PREDICTED BY IDOCK:   -4.00 KCAL/MOL
REMARK 922        TOTAL FREE ENERGY PREDICTED BY IDOCK:   -5.81 KCAL/MOL
REMARK 923 INTER-LIGAND FREE ENERGY PREDICTED BY IDOCK:   -5.52 KCAL/MOL
REMARK 924 INTRA-LIGAND FREE ENERGY PREDICTED BY IDOCK:   -0.28 KCAL/MOL
REMARK 927      BINDING AFFINITY PREDICTED BY RF-SCORE:    0.00 PKD
ROOT
HETATM    1  C   UNL     1      -9.253  16.736  66.027  1.00  0.00    -0.201 C  
HETATM    2  O   UNL     1      -9.420  15.396  65.586  1.00  0.00    -0.318 OA 
ENDROOT
BRANCH   2   3
HETATM    3  C   UNL     1     -10.762  14.935  65.773  1.00  0.00    -0.331 C  
BRANCH   3   4
HETATM    4  C   UNL     1     -10.750  13.415  65.970  1.00  0.00    -0.278 C  
BRANCH   4   5
HETATM    5  N   UNL     1     -10.120  12.729  64.827  1.00  0.00    -0.482 N  
HETATM    6  C   UNL     1     -12.220  12.311  63.568  1.00  0.00    -0.669 C  
HETATM    7  O   UNL     1     -10.023  11.728  62.836  1.00  0.00    -0.336 OA 
HETATM    8  H   UNL     1      -9.107  12.616  64.877  1.00  0.00     0.000 HD 
HETATM    9  C   UNL     1     -10.724  12.226  63.715  1.00  0.00    -0.449 C  
ENDBRANCH   4   5
BRANCH   4  10
HETATM   10  C   UNL     1     -10.010  13.109  67.281  1.00  0.00    -0.230 C  
HETATM   11  O   UNL     1      -9.853  13.967  68.146  1.00  0.00    -0.221 OA 
HETATM   12  H   UNL     1      -9.525  11.217  66.579  1.00  0.00     0.000 HD 
HETATM   13  N   UNL     1      -9.427  11.862  67.362  1.00  0.00    -0.173 N  
BRANCH  13  14
HETATM   14  C   UNL     1      -8.679  11.444  68.526  1.00  0.00    -0.149 C  
BRANCH  14  15
HETATM   15  C   UNL     1      -9.499  10.546  69.414  1.00  0.00    -0.158 A  
HETATM   16  C   UNL     1     -10.887  10.716  69.533  1.00  0.00    -0.303 A  
HETATM   17  C   UNL     1     -11.635   9.867  70.352  1.00  0.00    -0.356 A  
HETATM   18  C   UNL     1     -11.005   8.847  71.064  1.00  0.00    -0.341 A  
HETATM   19  C   UNL     1      -9.626   8.678  70.963  1.00  0.00    -0.264 A  
HETATM   20  C   UNL     1      -8.877   9.525  70.147  1.00  0.00    -0.266 A  
ENDBRANCH  14  15
ENDBRANCH  13  14
ENDBRANCH   4  10
ENDBRANCH   3   4
ENDBRANCH   2   3
TORSDOF 6
ENDMDL
MODEL      126
REMARK 921   NORMALIZED FREE ENERGY PREDICTED BY IDOCK:   -3.99 KCAL/MOL
REMARK 922        TOTAL FREE ENERGY PREDICTED BY IDOCK:   -5.80 KCAL/MOL
REMARK 923 INTER-LIGAND FREE ENERGY PREDICTED BY IDOCK:   -5.45 KCAL/MOL
REMARK 924 INTRA-LIGAND FREE ENERGY PREDICTED BY IDOCK:   -0.35 KCAL/MOL
REMARK 927      BINDING AFFINITY PREDICTED BY RF-SCORE:    0.00 PKD
ROOT
HETATM    1  C   UNL     1      -9.862  19.529  68.513  1.00  0.00    -0.429 C  
HETATM    2  O   UNL     1     -10.387  18.462  67.735  1.00  0.00    -0.368 OA 
ENDROOT
BRANCH   2   3
HETATM    3  C   UNL     1     -10.083  17.185  68.306  1.00  0.00    -0.314 C  
BRANCH   3   4
HETATM    4  C   UNL     1     -10.492  16.084  67.321  1.00  0.00    -0.308 C  
BRANCH   4   5
HETATM    5  N   UNL     1     -10.771  16.635  65.982  1.00  0.00    -0.214 N  
HETATM    6  C   UNL     1     -11.883  14.604  65.079  1.00  0.00    -0.377 C  
HETATM    7  O   UNL     1     -11.594  16.666  63.909  1.00  0.00    -1.204 OA 
HETATM    8  H   UNL     1     -10.450  17.588  65.816  1.00  0.00     0.000 HD 
HETATM    9  C   UNL     1     -11.405  16.025  64.942  1.00  0.00    -0.229 C  
ENDBRANCH   4   5
BRANCH   4  10
HETATM   10  C   UNL     1      -9.361  15.044  67.271  1.00  0.00    -0.202 C  
HETATM   11  O   UNL     1      -8.465  15.108  66.431  1.00  0.00    -0.198 OA 
HETATM   12  H   UNL     1     -10.298  13.938  68.756  1.00  0.00     0.000 HD 
HETATM   13  N   UNL     1      -9.491  13.977  68.134  1.00  0.00    -0.209 N  
BRANCH  13  14
HETATM   14  C   UNL     1      -8.517  12.911  68.181  1.00  0.00    -0.176 C  
BRANCH  14  15
HETATM   15  C   UNL     1      -9.173  11.573  68.394  1.00  0.00    -0.190 A  
HETATM   16  C   UNL     1      -8.444  10.477  68.880  1.00  0.00    -0.152 A  
HETATM   17  C   UNL     1      -9.071   9.245  69.083  1.00  0.00    -0.145 A  
HETATM   18  C   UNL     1     -10.427   9.094  68.797  1.00  0.00    -0.236 A  
HETATM   19  C   UNL     1     -11.157  10.171  68.301  1.00  0.00    -0.285 A  
HETATM   20  C   UNL     1     -10.534  11.403  68.097  1.00  0.00    -0.212 A  
ENDBRANCH  14  15
ENDBRANCH  13  14
ENDBRANCH   4  10
ENDBRANCH   3   4
ENDBRANCH   2   3
TORSDOF 6
ENDMDL
MODEL      127
REMARK 921   NORMALIZED FREE ENERGY PREDICTED BY IDOCK:   -3.99 KCAL/MOL
REMARK 922        TOTAL FREE ENERGY PREDICTED BY IDOCK:   -5.80 KCAL/MOL
REMARK 923 INTER-LIGAND FREE ENERGY PREDICTED BY IDOCK:   -5.30 KCAL/MOL
REMARK 924 INTRA-LIGAND FREE ENERGY PREDICTED BY IDOCK:   -0.49 KCAL/MOL
REMARK 927      BINDING AFFINITY PREDICTED BY RF-SCORE:    0.00 PKD
ROOT
HETATM    1  C   UNL     1     -10.157  20.182  67.719  1.00  0.00    -0.400 C  
HETATM    2  O   UNL     1     -10.602  18.883  67.353  1.00  0.00    -0.422 OA 
ENDROOT
BRANCH   2   3
HETATM    3  C   UNL     1     -10.444  17.944  68.422  1.00  0.00    -0.330 C  
BRANCH   3   4
HETATM    4  C   UNL     1      -9.920  16.619  67.854  1.00  0.00    -0.254 C  
BRANCH   4   5
HETATM    5  N   UNL     1      -8.739  16.144  68.598  1.00  0.00    -0.202 N  
HETATM    6  C   UNL     1      -7.043  17.155  67.090  1.00  0.00    -0.208 C  
HETATM    7  O   UNL     1      -6.573  15.927  69.084  1.00  0.00    -0.137 OA 
HETATM    8  H   UNL     1      -8.930  15.580  69.426  1.00  0.00     0.000 HD 
HETATM    9  C   UNL     1      -7.425  16.366  68.314  1.00  0.00    -0.161 C  
ENDBRANCH   4   5
BRANCH   4  10
HETATM   10  C   UNL     1     -11.062  15.592  67.906  1.00  0.00    -0.324 C  
HETATM   11  O   UNL     1     -11.967  15.678  68.733  1.00  0.00    -0.348 OA 
HETATM   12  H   UNL     1     -10.118  14.453  66.451  1.00  0.00     0.000 HD 
HETATM   13  N   UNL     1     -10.932  14.510  67.062  1.00  0.00    -0.305 N  
BRANCH  13  14
HETATM   14  C   UNL     1     -11.916  13.454  67.019  1.00  0.00    -0.379 C  
BRANCH  14  15
HETATM   15  C   UNL     1     -11.323  12.130  67.425  1.00  0.00    -0.393 A  
HETATM   16  C   UNL     1     -10.751  11.271  66.475  1.00  0.00    -0.323 A  
HETATM   17  C   UNL     1     -10.194  10.052  66.869  1.00  0.00    -0.299 A  
HETATM   18  C   UNL     1     -10.209   9.677  68.211  1.00  0.00    -0.216 A  
HETATM   19  C   UNL     1     -10.787  10.516  69.161  1.00  0.00    -0.277 A  
HETATM   20  C   UNL     1     -11.344  11.734  68.770  1.00  0.00    -0.325 A  
ENDBRANCH  14  15
ENDBRANCH  13  14
ENDBRANCH   4  10
ENDBRANCH   3   4
ENDBRANCH   2   3
TORSDOF 6
ENDMDL
MODEL      128
REMARK 921   NORMALIZED FREE ENERGY PREDICTED BY IDOCK:   -3.98 KCAL/MOL
REMARK 922        TOTAL FREE ENERGY PREDICTED BY IDOCK:   -5.78 KCAL/MOL
REMARK 923 INTER-LIGAND FREE ENERGY PREDICTED BY IDOCK:   -5.38 KCAL/MOL
REMARK 924 INTRA-LIGAND FREE ENERGY PREDICTED BY IDOCK:   -0.41 KCAL/MOL
REMARK 927      BINDING AFFINITY PREDICTED BY RF-SCORE:    0.00 PKD
ROOT
HETATM    1  C   UNL     1     -13.458  12.924  71.860  1.00  0.00    -0.387 C  
HETATM    2  O   UNL     1     -12.819  14.081  71.338  1.00  0.00    -0.325 OA 
ENDROOT
BRANCH   2   3
HETATM    3  C   UNL     1     -11.575  13.764  70.704  1.00  0.00     0.062 C  
BRANCH   3   4
HETATM    4  C   UNL     1     -11.823  13.500  69.214  1.00  0.00    -0.341 C  
BRANCH   4   5
HETATM    5  N   UNL     1     -10.889  14.265  68.369  1.00  0.00    -0.246 N  
HETATM    6  C   UNL     1     -12.132  13.954  66.239  1.00  0.00    -0.484 C  
HETATM    7  O   UNL     1     -10.126  15.224  66.504  1.00  0.00    -0.253 OA 
HETATM    8  H   UNL     1     -10.073  14.654  68.842  1.00  0.00     0.000 HD 
HETATM    9  C   UNL     1     -10.983  14.517  67.033  1.00  0.00    -0.312 C  
ENDBRANCH   4   5
BRANCH   4  10
HETATM   10  C   UNL     1     -11.687  11.989  68.968  1.00  0.00    -0.325 C  
HETATM   11  O   UNL     1     -12.646  11.306  68.616  1.00  0.00    -0.295 OA 
HETATM   12  H   UNL     1      -9.730  12.042  69.657  1.00  0.00     0.000 HD 
HETATM   13  N   UNL     1     -10.466  11.437  69.295  1.00  0.00    -0.129 N  
BRANCH  13  14
HETATM   14  C   UNL     1     -10.202  10.026  69.139  1.00  0.00    -0.210 C  
BRANCH  14  15
HETATM   15  C   UNL     1     -10.241   9.308  70.462  1.00  0.00    -0.309 A  
HETATM   16  C   UNL     1      -9.067   9.069  71.192  1.00  0.00    -0.316 A  
HETATM   17  C   UNL     1      -9.121   8.412  72.424  1.00  0.00    -0.326 A  
HETATM   18  C   UNL     1     -10.346   7.983  72.935  1.00  0.00    -0.397 A  
HETATM   19  C   UNL     1     -11.516   8.203  72.212  1.00  0.00    -0.435 A  
HETATM   20  C   UNL     1     -11.464   8.858  70.981  1.00  0.00    -0.351 A  
ENDBRANCH  14  15
ENDBRANCH  13  14
ENDBRANCH   4  10
ENDBRANCH   3   4
ENDBRANCH   2   3
TORSDOF 6
ENDMDL
MODEL      129
REMARK 921   NORMALIZED FREE ENERGY PREDICTED BY IDOCK:   -3.97 KCAL/MOL
REMARK 922        TOTAL FREE ENERGY PREDICTED BY IDOCK:   -5.76 KCAL/MOL
REMARK 923 INTER-LIGAND FREE ENERGY PREDICTED BY IDOCK:   -5.30 KCAL/MOL
REMARK 924 INTRA-LIGAND FREE ENERGY PREDICTED BY IDOCK:   -0.46 KCAL/MOL
REMARK 927      BINDING AFFINITY PREDICTED BY RF-SCORE:    0.00 PKD
ROOT
HETATM    1  C   UNL     1      -8.742  15.131  68.786  1.00  0.00    -0.194 C  
HETATM    2  O   UNL     1      -9.742  14.122  68.760  1.00  0.00    -0.215 OA 
ENDROOT
BRANCH   2   3
HETATM    3  C   UNL     1      -9.387  13.039  67.893  1.00  0.00    -0.212 C  
BRANCH   3   4
HETATM    4  C   UNL     1     -10.614  12.628  67.072  1.00  0.00    -0.240 C  
BRANCH   4   5
HETATM    5  N   UNL     1     -10.293  12.525  65.637  1.00  0.00    -0.266 N  
HETATM    6  C   UNL     1     -12.638  12.648  64.823  1.00  0.00    -0.530 C  
HETATM    7  O   UNL     1     -10.695  12.498  63.442  1.00  0.00    -0.426 OA 
HETATM    8  H   UNL     1      -9.304  12.428  65.406  1.00  0.00     0.000 HD 
HETATM    9  C   UNL     1     -11.155  12.545  64.582  1.00  0.00    -0.306 C  
ENDBRANCH   4   5
BRANCH   4  10
HETATM   10  C   UNL     1     -11.133  11.291  67.624  1.00  0.00    -0.277 C  
HETATM   11  O   UNL     1     -12.253  11.191  68.119  1.00  0.00    -0.612 OA 
HETATM   12  H   UNL     1      -9.277  10.423  67.293  1.00  0.00     0.000 HD 
HETATM   13  N   UNL     1     -10.219  10.259  67.648  1.00  0.00    -0.193 N  
BRANCH  13  14
HETATM   14  C   UNL     1     -10.558   8.952  68.161  1.00  0.00    -0.157 C  
BRANCH  14  15
HETATM   15  C   UNL     1     -10.191   8.820  69.616  1.00  0.00    -0.210 A  
HETATM   16  C   UNL     1     -11.175   8.842  70.616  1.00  0.00    -0.308 A  
HETATM   17  C   UNL     1     -10.820   8.706  71.960  1.00  0.00    -0.430 A  
HETATM   18  C   UNL     1      -9.481   8.554  72.318  1.00  0.00    -0.365 A  
HETATM   19  C   UNL     1      -8.495   8.545  71.334  1.00  0.00    -0.218 A  
HETATM   20  C   UNL     1      -8.847   8.680  69.992  1.00  0.00    -0.142 A  
ENDBRANCH  14  15
ENDBRANCH  13  14
ENDBRANCH   4  10
ENDBRANCH   3   4
ENDBRANCH   2   3
TORSDOF 6
ENDMDL
MODEL      130
REMARK 921   NORMALIZED FREE ENERGY PREDICTED BY IDOCK:   -3.96 KCAL/MOL
REMARK 922        TOTAL FREE ENERGY PREDICTED BY IDOCK:   -5.76 KCAL/MOL
REMARK 923 INTER-LIGAND FREE ENERGY PREDICTED BY IDOCK:   -5.28 KCAL/MOL
REMARK 924 INTRA-LIGAND FREE ENERGY PREDICTED BY IDOCK:   -0.47 KCAL/MOL
REMARK 927      BINDING AFFINITY PREDICTED BY RF-SCORE:    0.00 PKD
ROOT
HETATM    1  C   UNL     1      -9.581   4.325  69.754  1.00  0.00    -0.209 C  
HETATM    2  O   UNL     1     -10.687   5.189  69.533  1.00  0.00    -0.195 OA 
ENDROOT
BRANCH   2   3
HETATM    3  C   UNL     1     -10.960   6.010  70.674  1.00  0.00    -0.307 C  
BRANCH   3   4
HETATM    4  C   UNL     1     -11.424   7.392  70.200  1.00  0.00    -0.129 C  
BRANCH   4   5
HETATM    5  N   UNL     1     -11.811   8.249  71.335  1.00  0.00    -0.286 N  
HETATM    6  C   UNL     1     -14.186   7.524  71.426  1.00  0.00    -0.523 C  
HETATM    7  O   UNL     1     -13.151   9.080  72.913  1.00  0.00    -0.334 OA 
HETATM    8  H   UNL     1     -11.077   8.847  71.714  1.00  0.00     0.000 HD 
HETATM    9  C   UNL     1     -13.029   8.339  71.939  1.00  0.00    -0.347 C  
ENDBRANCH   4   5
BRANCH   4  10
HETATM   10  C   UNL     1     -10.284   8.026  69.386  1.00  0.00    -0.210 C  
HETATM   11  O   UNL     1      -9.156   8.159  69.855  1.00  0.00    -0.149 OA 
HETATM   12  H   UNL     1     -11.613   8.478  67.857  1.00  0.00     0.000 HD 
HETATM   13  N   UNL     1     -10.642   8.549  68.162  1.00  0.00    -0.170 N  
BRANCH  13  14
HETATM   14  C   UNL     1      -9.682   9.196  67.299  1.00  0.00    -0.173 C  
BRANCH  14  15
HETATM   15  C   UNL     1     -10.322  10.288  66.482  1.00  0.00    -0.276 A  
HETATM   16  C   UNL     1     -10.121  10.368  65.096  1.00  0.00    -0.379 A  
HETATM   17  C   UNL     1     -10.731  11.380  64.351  1.00  0.00    -0.405 A  
HETATM   18  C   UNL     1     -11.540  12.324  64.982  1.00  0.00    -0.394 A  
HETATM   19  C   UNL     1     -11.735  12.261  66.360  1.00  0.00    -0.431 A  
HETATM   20  C   UNL     1     -11.127  11.252  67.107  1.00  0.00    -0.364 A  
ENDBRANCH  14  15
ENDBRANCH  13  14
ENDBRANCH   4  10
ENDBRANCH   3   4
ENDBRANCH   2   3
TORSDOF 6
ENDMDL
MODEL      131
REMARK 921   NORMALIZED FREE ENERGY PREDICTED BY IDOCK:   -3.96 KCAL/MOL
REMARK 922        TOTAL FREE ENERGY PREDICTED BY IDOCK:   -5.75 KCAL/MOL
REMARK 923 INTER-LIGAND FREE ENERGY PREDICTED BY IDOCK:   -5.32 KCAL/MOL
REMARK 924 INTRA-LIGAND FREE ENERGY PREDICTED BY IDOCK:   -0.43 KCAL/MOL
REMARK 927      BINDING AFFINITY PREDICTED BY RF-SCORE:    0.00 PKD
ROOT
HETATM    1  C   UNL     1     -12.080  14.642  64.693  1.00  0.00    -0.454 C  
HETATM    2  O   UNL     1     -11.320  14.022  65.721  1.00  0.00    -0.304 OA 
ENDROOT
BRANCH   2   3
HETATM    3  C   UNL     1     -12.057  13.921  66.944  1.00  0.00    -0.430 C  
BRANCH   3   4
HETATM    4  C   UNL     1     -11.126  13.417  68.053  1.00  0.00    -0.255 C  
BRANCH   4   5
HETATM    5  N   UNL     1     -11.880  13.060  69.268  1.00  0.00    -0.317 N  
HETATM    6  C   UNL     1     -11.475  15.194  70.476  1.00  0.00    -0.342 C  
HETATM    7  O   UNL     1     -12.789  13.369  71.282  1.00  0.00    -0.347 OA 
HETATM    8  H   UNL     1     -12.298  12.130  69.278  1.00  0.00     0.000 HD 
HETATM    9  C   UNL     1     -12.085  13.820  70.380  1.00  0.00    -0.350 C  
ENDBRANCH   4   5
BRANCH   4  10
HETATM   10  C   UNL     1     -10.343  12.212  67.508  1.00  0.00    -0.205 C  
HETATM   11  O   UNL     1      -9.150  12.294  67.227  1.00  0.00    -0.172 OA 
HETATM   12  H   UNL     1     -12.095  11.102  67.415  1.00  0.00     0.000 HD 
HETATM   13  N   UNL     1     -11.092  11.087  67.233  1.00  0.00    -0.301 N  
BRANCH  13  14
HETATM   14  C   UNL     1     -10.495   9.887  66.695  1.00  0.00    -0.169 C  
BRANCH  14  15
HETATM   15  C   UNL     1     -10.581   8.743  67.671  1.00  0.00    -0.281 A  
HETATM   16  C   UNL     1     -10.768   8.974  69.042  1.00  0.00    -0.163 A  
HETATM   17  C   UNL     1     -10.858   7.902  69.934  1.00  0.00    -0.221 A  
HETATM   18  C   UNL     1     -10.755   6.592  69.466  1.00  0.00    -0.305 A  
HETATM   19  C   UNL     1     -10.556   6.352  68.108  1.00  0.00    -0.314 A  
HETATM   20  C   UNL     1     -10.465   7.421  67.216  1.00  0.00    -0.385 A  
ENDBRANCH  14  15
ENDBRANCH  13  14
ENDBRANCH   4  10
ENDBRANCH   3   4
ENDBRANCH   2   3
TORSDOF 6
ENDMDL
MODEL      132
REMARK 921   NORMALIZED FREE ENERGY PREDICTED BY IDOCK:   -3.95 KCAL/MOL
REMARK 922        TOTAL FREE ENERGY PREDICTED BY IDOCK:   -5.75 KCAL/MOL
REMARK 923 INTER-LIGAND FREE ENERGY PREDICTED BY IDOCK:   -5.25 KCAL/MOL
REMARK 924 INTRA-LIGAND FREE ENERGY PREDICTED BY IDOCK:   -0.50 KCAL/MOL
REMARK 927      BINDING AFFINITY PREDICTED BY RF-SCORE:    0.00 PKD
ROOT
HETATM    1  C   UNL     1     -11.624  14.640  64.514  1.00  0.00    -0.370 C  
HETATM    2  O   UNL     1     -11.089  14.161  65.739  1.00  0.00    -0.301 OA 
ENDROOT
BRANCH   2   3
HETATM    3  C   UNL     1     -12.099  14.016  66.743  1.00  0.00    -0.447 C  
BRANCH   3   4
HETATM    4  C   UNL     1     -11.476  14.263  68.123  1.00  0.00    -0.308 C  
BRANCH   4   5
HETATM    5  N   UNL     1     -12.497  14.241  69.186  1.00  0.00    -0.528 N  
HETATM    6  C   UNL     1     -11.399  15.921  70.651  1.00  0.00    -0.421 C  
HETATM    7  O   UNL     1     -13.492  14.856  71.085  1.00  0.00    -0.386 OA 
HETATM    8  H   UNL     1     -13.277  13.599  69.044  1.00  0.00     0.000 HD 
HETATM    9  C   UNL     1     -12.525  14.973  70.334  1.00  0.00    -0.356 C  
ENDBRANCH   4   5
BRANCH   4  10
HETATM   10  C   UNL     1     -10.400  13.191  68.360  1.00  0.00    -0.253 C  
HETATM   11  O   UNL     1      -9.204  13.471  68.361  1.00  0.00    -0.195 OA 
HETATM   12  H   UNL     1     -11.856  11.712  68.353  1.00  0.00     0.000 HD 
HETATM   13  N   UNL     1     -10.856  11.892  68.438  1.00  0.00    -0.216 N  
BRANCH  13  14
HETATM   14  C   UNL     1      -9.957  10.779  68.635  1.00  0.00    -0.182 C  
BRANCH  14  15
HETATM   15  C   UNL     1      -9.582  10.136  67.326  1.00  0.00    -0.189 A  
HETATM   16  C   UNL     1     -10.077  10.627  66.109  1.00  0.00    -0.306 A  
HETATM   17  C   UNL     1      -9.710  10.026  64.902  1.00  0.00    -0.377 A  
HETATM   18  C   UNL     1      -8.852   8.927  64.900  1.00  0.00    -0.161 A  
HETATM   19  C   UNL     1      -8.365   8.423  66.104  1.00  0.00    -0.127 A  
HETATM   20  C   UNL     1      -8.730   9.021  67.310  1.00  0.00    -0.122 A  
ENDBRANCH  14  15
ENDBRANCH  13  14
ENDBRANCH   4  10
ENDBRANCH   3   4
ENDBRANCH   2   3
TORSDOF 6
ENDMDL
MODEL      133
REMARK 921   NORMALIZED FREE ENERGY PREDICTED BY IDOCK:   -3.94 KCAL/MOL
REMARK 922        TOTAL FREE ENERGY PREDICTED BY IDOCK:   -5.73 KCAL/MOL
REMARK 923 INTER-LIGAND FREE ENERGY PREDICTED BY IDOCK:   -5.31 KCAL/MOL
REMARK 924 INTRA-LIGAND FREE ENERGY PREDICTED BY IDOCK:   -0.42 KCAL/MOL
REMARK 927      BINDING AFFINITY PREDICTED BY RF-SCORE:    0.00 PKD
ROOT
HETATM    1  C   UNL     1      -9.278   8.025  67.272  1.00  0.00    -0.139 C  
HETATM    2  O   UNL     1     -10.310   8.720  67.958  1.00  0.00    -0.208 OA 
ENDROOT
BRANCH   2   3
HETATM    3  C   UNL     1      -9.786   9.607  68.952  1.00  0.00    -0.174 C  
BRANCH   3   4
HETATM    4  C   UNL     1     -10.841  10.669  69.284  1.00  0.00    -0.239 C  
BRANCH   4   5
HETATM    5  N   UNL     1     -11.634  11.032  68.096  1.00  0.00    -0.298 N  
HETATM    6  C   UNL     1     -10.116  12.829  67.295  1.00  0.00    -0.226 C  
HETATM    7  O   UNL     1     -12.112  12.107  66.201  1.00  0.00    -0.621 OA 
HETATM    8  H   UNL     1     -12.499  10.509  67.959  1.00  0.00     0.000 HD 
HETATM    9  C   UNL     1     -11.352  11.980  67.159  1.00  0.00    -0.333 C  
ENDBRANCH   4   5
BRANCH   4  10
HETATM   10  C   UNL     1     -11.737  10.119  70.405  1.00  0.00    -0.308 C  
HETATM   11  O   UNL     1     -12.801  10.658  70.702  1.00  0.00    -0.355 OA 
HETATM   12  H   UNL     1     -10.286   8.716  70.891  1.00  0.00     0.000 HD 
HETATM   13  N   UNL     1     -11.209   9.073  71.134  1.00  0.00    -0.280 N  
BRANCH  13  14
HETATM   14  C   UNL     1     -11.928   8.471  72.232  1.00  0.00    -0.385 C  
BRANCH  14  15
HETATM   15  C   UNL     1     -11.208   7.259  72.762  1.00  0.00    -0.348 A  
HETATM   16  C   UNL     1     -11.558   5.967  72.341  1.00  0.00    -0.341 A  
HETATM   17  C   UNL     1     -10.872   4.853  72.833  1.00  0.00    -0.313 A  
HETATM   18  C   UNL     1      -9.839   5.018  73.755  1.00  0.00    -0.167 A  
HETATM   19  C   UNL     1      -9.494   6.295  74.190  1.00  0.00    -0.195 A  
HETATM   20  C   UNL     1     -10.177   7.409  73.700  1.00  0.00    -0.380 A  
ENDBRANCH  14  15
ENDBRANCH  13  14
ENDBRANCH   4  10
ENDBRANCH   3   4
ENDBRANCH   2   3
TORSDOF 6
ENDMDL
MODEL      134
REMARK 921   NORMALIZED FREE ENERGY PREDICTED BY IDOCK:   -3.94 KCAL/MOL
REMARK 922        TOTAL FREE ENERGY PREDICTED BY IDOCK:   -5.72 KCAL/MOL
REMARK 923 INTER-LIGAND FREE ENERGY PREDICTED BY IDOCK:   -5.19 KCAL/MOL
REMARK 924 INTRA-LIGAND FREE ENERGY PREDICTED BY IDOCK:   -0.53 KCAL/MOL
REMARK 927      BINDING AFFINITY PREDICTED BY RF-SCORE:    0.00 PKD
ROOT
HETATM    1  C   UNL     1     -10.249   5.546  66.781  1.00  0.00    -0.233 C  
HETATM    2  O   UNL     1     -10.828   6.622  67.506  1.00  0.00    -0.275 OA 
ENDROOT
BRANCH   2   3
HETATM    3  C   UNL     1      -9.837   7.525  68.005  1.00  0.00    -0.151 C  
BRANCH   3   4
HETATM    4  C   UNL     1     -10.516   8.582  68.885  1.00  0.00    -0.188 C  
BRANCH   4   5
HETATM    5  N   UNL     1     -10.079   8.475  70.289  1.00  0.00    -0.183 N  
HETATM    6  C   UNL     1     -12.115   9.494  71.285  1.00  0.00    -0.443 C  
HETATM    7  O   UNL     1     -10.251   8.637  72.507  1.00  0.00    -0.290 OA 
HETATM    8  H   UNL     1      -9.156   8.070  70.440  1.00  0.00     0.000 HD 
HETATM    9  C   UNL     1     -10.759   8.851  71.408  1.00  0.00    -0.312 C  
ENDBRANCH   4   5
BRANCH   4  10
HETATM   10  C   UNL     1     -10.192   9.967  68.304  1.00  0.00    -0.173 C  
HETATM   11  O   UNL     1      -9.032  10.340  68.138  1.00  0.00    -0.127 OA 
HETATM   12  H   UNL     1     -12.206  10.465  68.340  1.00  0.00     0.000 HD 
HETATM   13  N   UNL     1     -11.272  10.802  68.111  1.00  0.00    -0.282 N  
BRANCH  13  14
HETATM   14  C   UNL     1     -11.116  12.142  67.593  1.00  0.00    -0.268 C  
BRANCH  14  15
HETATM   15  C   UNL     1     -11.588  13.173  68.584  1.00  0.00    -0.356 A  
HETATM   16  C   UNL     1     -12.018  12.802  69.867  1.00  0.00    -0.368 A  
HETATM   17  C   UNL     1     -12.441  13.772  70.779  1.00  0.00    -0.441 A  
HETATM   18  C   UNL     1     -12.446  15.118  70.417  1.00  0.00    -0.416 A  
HETATM   19  C   UNL     1     -12.034  15.497  69.141  1.00  0.00    -0.331 A  
HETATM   20  C   UNL     1     -11.611  14.530  68.229  1.00  0.00    -0.358 A  
ENDBRANCH  14  15
ENDBRANCH  13  14
ENDBRANCH   4  10
ENDBRANCH   3   4
ENDBRANCH   2   3
TORSDOF 6
ENDMDL
MODEL      135
REMARK 921   NORMALIZED FREE ENERGY PREDICTED BY IDOCK:   -3.92 KCAL/MOL
REMARK 922        TOTAL FREE ENERGY PREDICTED BY IDOCK:   -5.70 KCAL/MOL
REMARK 923 INTER-LIGAND FREE ENERGY PREDICTED BY IDOCK:   -5.21 KCAL/MOL
REMARK 924 INTRA-LIGAND FREE ENERGY PREDICTED BY IDOCK:   -0.49 KCAL/MOL
REMARK 927      BINDING AFFINITY PREDICTED BY RF-SCORE:    0.00 PKD
ROOT
HETATM    1  C   UNL     1     -10.970  15.933  67.551  1.00  0.00    -0.280 C  
HETATM    2  O   UNL     1     -10.670  14.545  67.612  1.00  0.00    -0.250 OA 
ENDROOT
BRANCH   2   3
HETATM    3  C   UNL     1     -11.843  13.738  67.468  1.00  0.00    -0.387 C  
BRANCH   3   4
HETATM    4  C   UNL     1     -11.442  12.361  66.925  1.00  0.00    -0.360 C  
BRANCH   4   5
HETATM    5  N   UNL     1     -10.778  12.471  65.614  1.00  0.00    -0.260 N  
HETATM    6  C   UNL     1     -12.851  12.360  64.249  1.00  0.00    -0.356 C  
HETATM    7  O   UNL     1     -10.639  12.642  63.394  1.00  0.00    -0.360 OA 
HETATM    8  H   UNL     1      -9.760  12.539  65.633  1.00  0.00     0.000 HD 
HETATM    9  C   UNL     1     -11.357  12.492  64.381  1.00  0.00    -0.343 C  
ENDBRANCH   4   5
BRANCH   4  10
HETATM   10  C   UNL     1     -10.527  11.687  67.960  1.00  0.00    -0.194 C  
HETATM   11  O   UNL     1      -9.312  11.611  67.790  1.00  0.00    -0.169 OA 
HETATM   12  H   UNL     1     -12.185  11.096  69.059  1.00  0.00     0.000 HD 
HETATM   13  N   UNL     1     -11.167  11.066  69.011  1.00  0.00    -0.234 N  
BRANCH  13  14
HETATM   14  C   UNL     1     -10.436  10.373  70.046  1.00  0.00    -0.182 C  
BRANCH  14  15
HETATM   15  C   UNL     1     -10.708   8.892  70.015  1.00  0.00    -0.241 A  
HETATM   16  C   UNL     1     -10.071   8.058  69.084  1.00  0.00    -0.202 A  
HETATM   17  C   UNL     1     -10.325   6.684  69.075  1.00  0.00    -0.216 A  
HETATM   18  C   UNL     1     -11.221   6.132  69.990  1.00  0.00    -0.471 A  
HETATM   19  C   UNL     1     -11.869   6.953  70.910  1.00  0.00    -0.424 A  
HETATM   20  C   UNL     1     -11.618   8.325  70.920  1.00  0.00    -0.282 A  
ENDBRANCH  14  15
ENDBRANCH  13  14
ENDBRANCH   4  10
ENDBRANCH   3   4
ENDBRANCH   2   3
TORSDOF 6
ENDMDL
MODEL      136
REMARK 921   NORMALIZED FREE ENERGY PREDICTED BY IDOCK:   -3.90 KCAL/MOL
REMARK 922        TOTAL FREE ENERGY PREDICTED BY IDOCK:   -5.68 KCAL/MOL
REMARK 923 INTER-LIGAND FREE ENERGY PREDICTED BY IDOCK:   -5.15 KCAL/MOL
REMARK 924 INTRA-LIGAND FREE ENERGY PREDICTED BY IDOCK:   -0.53 KCAL/MOL
REMARK 927      BINDING AFFINITY PREDICTED BY RF-SCORE:    0.00 PKD
ROOT
HETATM    1  C   UNL     1      -6.033  12.527  69.068  1.00  0.00    -0.076 C  
HETATM    2  O   UNL     1      -7.035  13.528  68.946  1.00  0.00    -0.106 OA 
ENDROOT
BRANCH   2   3
HETATM    3  C   UNL     1      -7.049  14.114  67.641  1.00  0.00    -0.183 C  
BRANCH   3   4
HETATM    4  C   UNL     1      -8.119  15.211  67.593  1.00  0.00    -0.162 C  
BRANCH   4   5
HETATM    5  N   UNL     1      -7.837  16.193  66.531  1.00  0.00    -0.258 N  
HETATM    6  C   UNL     1      -8.559  18.196  67.813  1.00  0.00    -0.258 C  
HETATM    7  O   UNL     1      -7.659  18.214  65.601  1.00  0.00    -0.538 OA 
HETATM    8  H   UNL     1      -7.477  15.814  65.655  1.00  0.00     0.000 HD 
HETATM    9  C   UNL     1      -7.998  17.546  66.577  1.00  0.00    -0.274 C  
ENDBRANCH   4   5
BRANCH   4  10
HETATM   10  C   UNL     1      -9.484  14.538  67.381  1.00  0.00    -0.202 C  
HETATM   11  O   UNL     1      -9.794  14.038  66.302  1.00  0.00    -0.286 OA 
HETATM   12  H   UNL     1     -10.089  15.145  69.271  1.00  0.00     0.000 HD 
HETATM   13  N   UNL     1     -10.376  14.650  68.427  1.00  0.00    -0.231 N  
BRANCH  13  14
HETATM   14  C   UNL     1     -11.704  14.087  68.361  1.00  0.00    -0.354 C  
BRANCH  14  15
HETATM   15  C   UNL     1     -11.826  12.860  69.226  1.00  0.00    -0.363 A  
HETATM   16  C   UNL     1     -11.326  11.621  68.800  1.00  0.00    -0.324 A  
HETATM   17  C   UNL     1     -11.436  10.494  69.619  1.00  0.00    -0.349 A  
HETATM   18  C   UNL     1     -12.053  10.593  70.865  1.00  0.00    -0.489 A  
HETATM   19  C   UNL     1     -12.565  11.816  71.293  1.00  0.00    -0.401 A  
HETATM   20  C   UNL     1     -12.456  12.942  70.476  1.00  0.00    -0.294 A  
ENDBRANCH  14  15
ENDBRANCH  13  14
ENDBRANCH   4  10
ENDBRANCH   3   4
ENDBRANCH   2   3
TORSDOF 6
ENDMDL
MODEL      137
REMARK 921   NORMALIZED FREE ENERGY PREDICTED BY IDOCK:   -3.90 KCAL/MOL
REMARK 922        TOTAL FREE ENERGY PREDICTED BY IDOCK:   -5.68 KCAL/MOL
REMARK 923 INTER-LIGAND FREE ENERGY PREDICTED BY IDOCK:   -5.06 KCAL/MOL
REMARK 924 INTRA-LIGAND FREE ENERGY PREDICTED BY IDOCK:   -0.62 KCAL/MOL
REMARK 927      BINDING AFFINITY PREDICTED BY RF-SCORE:    0.00 PKD
ROOT
HETATM    1  C   UNL     1      -7.064   9.851  65.669  1.00  0.00    -0.112 C  
HETATM    2  O   UNL     1      -8.258  10.489  65.237  1.00  0.00    -0.161 OA 
ENDROOT
BRANCH   2   3
HETATM    3  C   UNL     1      -8.797  11.353  66.244  1.00  0.00    -0.195 C  
BRANCH   3   4
HETATM    4  C   UNL     1     -10.239  10.932  66.549  1.00  0.00    -0.232 C  
BRANCH   4   5
HETATM    5  N   UNL     1     -10.328  10.202  67.826  1.00  0.00    -0.195 N  
HETATM    6  C   UNL     1     -10.301   7.922  66.838  1.00  0.00    -0.400 C  
HETATM    7  O   UNL     1     -10.372   8.423  69.172  1.00  0.00    -0.215 OA 
HETATM    8  H   UNL     1     -10.386  10.776  68.667  1.00  0.00     0.000 HD 
HETATM    9  C   UNL     1     -10.344   8.853  68.021  1.00  0.00    -0.219 C  
ENDBRANCH   4   5
BRANCH   4  10
HETATM   10  C   UNL     1     -11.112  12.197  66.568  1.00  0.00    -0.307 C  
HETATM   11  O   UNL     1     -12.230  12.199  67.076  1.00  0.00    -0.522 OA 
HETATM   12  H   UNL     1      -9.714  13.192  65.400  1.00  0.00     0.000 HD 
HETATM   13  N   UNL     1     -10.616  13.277  65.868  1.00  0.00    -0.278 N  
BRANCH  13  14
HETATM   14  C   UNL     1     -11.338  14.524  65.779  1.00  0.00    -0.336 C  
BRANCH  14  15
HETATM   15  C   UNL     1     -10.662  15.610  66.574  1.00  0.00    -0.293 A  
HETATM   16  C   UNL     1      -9.564  16.312  66.053  1.00  0.00    -0.371 A  
HETATM   17  C   UNL     1      -8.955  17.325  66.798  1.00  0.00    -0.269 A  
HETATM   18  C   UNL     1      -9.430  17.640  68.071  1.00  0.00    -0.282 A  
HETATM   19  C   UNL     1     -10.510  16.940  68.603  1.00  0.00    -0.352 A  
HETATM   20  C   UNL     1     -11.120  15.928  67.861  1.00  0.00    -0.317 A  
ENDBRANCH  14  15
ENDBRANCH  13  14
ENDBRANCH   4  10
ENDBRANCH   3   4
ENDBRANCH   2   3
TORSDOF 6
ENDMDL
MODEL      138
REMARK 921   NORMALIZED FREE ENERGY PREDICTED BY IDOCK:   -3.90 KCAL/MOL
REMARK 922        TOTAL FREE ENERGY PREDICTED BY IDOCK:   -5.67 KCAL/MOL
REMARK 923 INTER-LIGAND FREE ENERGY PREDICTED BY IDOCK:   -5.16 KCAL/MOL
REMARK 924 INTRA-LIGAND FREE ENERGY PREDICTED BY IDOCK:   -0.51 KCAL/MOL
REMARK 927      BINDING AFFINITY PREDICTED BY RF-SCORE:    0.00 PKD
ROOT
HETATM    1  C   UNL     1     -13.692  13.808  72.318  1.00  0.00    -0.575 C  
HETATM    2  O   UNL     1     -12.544  14.294  71.636  1.00  0.00    -0.329 OA 
ENDROOT
BRANCH   2   3
HETATM    3  C   UNL     1     -12.315  13.594  70.409  1.00  0.00    -0.345 C  
BRANCH   3   4
HETATM    4  C   UNL     1     -11.539  14.502  69.448  1.00  0.00    -0.303 C  
BRANCH   4   5
HETATM    5  N   UNL     1     -10.106  14.547  69.788  1.00  0.00    -0.414 N  
HETATM    6  C   UNL     1      -9.715  16.876  69.015  1.00  0.00    -0.231 C  
HETATM    7  O   UNL     1      -8.082  15.456  70.023  1.00  0.00    -0.030 OA 
HETATM    8  H   UNL     1      -9.714  13.695  70.188  1.00  0.00     0.000 HD 
HETATM    9  C   UNL     1      -9.240  15.588  69.633  1.00  0.00    -0.203 C  
ENDBRANCH   4   5
BRANCH   4  10
HETATM   10  C   UNL     1     -11.757  13.983  68.018  1.00  0.00    -0.359 C  
HETATM   11  O   UNL     1     -12.204  14.707  67.132  1.00  0.00    -0.301 OA 
HETATM   12  H   UNL     1     -11.252  12.064  68.627  1.00  0.00     0.000 HD 
HETATM   13  N   UNL     1     -11.548  12.632  67.834  1.00  0.00    -0.328 N  
BRANCH  13  14
HETATM   14  C   UNL     1     -11.737  12.000  66.550  1.00  0.00    -0.256 C  
BRANCH  14  15
HETATM   15  C   UNL     1     -10.453  11.407  66.033  1.00  0.00    -0.305 A  
HETATM   16  C   UNL     1     -10.400  10.768  64.785  1.00  0.00    -0.380 A  
HETATM   17  C   UNL     1      -9.198  10.233  64.314  1.00  0.00    -0.300 A  
HETATM   18  C   UNL     1      -8.041  10.326  65.087  1.00  0.00    -0.151 A  
HETATM   19  C   UNL     1      -8.085  10.946  66.333  1.00  0.00    -0.164 A  
HETATM   20  C   UNL     1      -9.284  11.480  66.805  1.00  0.00    -0.187 A  
ENDBRANCH  14  15
ENDBRANCH  13  14
ENDBRANCH   4  10
ENDBRANCH   3   4
ENDBRANCH   2   3
TORSDOF 6
ENDMDL
MODEL      139
REMARK 921   NORMALIZED FREE ENERGY PREDICTED BY IDOCK:   -3.89 KCAL/MOL
REMARK 922        TOTAL FREE ENERGY PREDICTED BY IDOCK:   -5.66 KCAL/MOL
REMARK 923 INTER-LIGAND FREE ENERGY PREDICTED BY IDOCK:   -5.11 KCAL/MOL
REMARK 924 INTRA-LIGAND FREE ENERGY PREDICTED BY IDOCK:   -0.55 KCAL/MOL
REMARK 927      BINDING AFFINITY PREDICTED BY RF-SCORE:    0.00 PKD
ROOT
HETATM    1  C   UNL     1     -12.384  12.158  63.275  1.00  0.00    -0.436 C  
HETATM    2  O   UNL     1     -11.420  11.356  63.944  1.00  0.00    -0.341 OA 
ENDROOT
BRANCH   2   3
HETATM    3  C   UNL     1     -10.314  12.133  64.417  1.00  0.00    -0.319 C  
BRANCH   3   4
HETATM    4  C   UNL     1      -9.802  11.531  65.731  1.00  0.00    -0.234 C  
BRANCH   4   5
HETATM    5  N   UNL     1      -8.336  11.386  65.721  1.00  0.00    -0.376 N  
HETATM    6  C   UNL     1      -8.282   9.097  66.686  1.00  0.00    -0.115 C  
HETATM    7  O   UNL     1      -6.375  10.356  65.992  1.00  0.00    -0.093 OA 
HETATM    8  H   UNL     1      -7.809  12.187  65.372  1.00  0.00     0.000 HD 
HETATM    9  C   UNL     1      -7.598  10.313  66.121  1.00  0.00    -0.124 C  
ENDBRANCH   4   5
BRANCH   4  10
HETATM   10  C   UNL     1     -10.266  12.437  66.883  1.00  0.00    -0.225 C  
HETATM   11  O   UNL     1      -9.823  12.306  68.022  1.00  0.00    -0.192 OA 
HETATM   12  H   UNL     1     -11.677  13.315  65.640  1.00  0.00     0.000 HD 
HETATM   13  N   UNL     1     -11.295  13.304  66.585  1.00  0.00    -0.310 N  
BRANCH  13  14
HETATM   14  C   UNL     1     -11.849  14.198  67.575  1.00  0.00    -0.401 C  
BRANCH  14  15
HETATM   15  C   UNL     1     -11.159  15.537  67.556  1.00  0.00    -0.305 A  
HETATM   16  C   UNL     1     -11.047  16.311  68.721  1.00  0.00    -0.355 A  
HETATM   17  C   UNL     1     -10.394  17.545  68.690  1.00  0.00    -0.369 A  
HETATM   18  C   UNL     1      -9.852  18.021  67.496  1.00  0.00    -0.309 A  
HETATM   19  C   UNL     1      -9.969  17.266  66.330  1.00  0.00    -0.319 A  
HETATM   20  C   UNL     1     -10.622  16.034  66.359  1.00  0.00    -0.284 A  
ENDBRANCH  14  15
ENDBRANCH  13  14
ENDBRANCH   4  10
ENDBRANCH   3   4
ENDBRANCH   2   3
TORSDOF 6
ENDMDL
MODEL      140
REMARK 921   NORMALIZED FREE ENERGY PREDICTED BY IDOCK:   -3.89 KCAL/MOL
REMARK 922        TOTAL FREE ENERGY PREDICTED BY IDOCK:   -5.66 KCAL/MOL
REMARK 923 INTER-LIGAND FREE ENERGY PREDICTED BY IDOCK:   -5.16 KCAL/MOL
REMARK 924 INTRA-LIGAND FREE ENERGY PREDICTED BY IDOCK:   -0.50 KCAL/MOL
REMARK 927      BINDING AFFINITY PREDICTED BY RF-SCORE:    0.00 PKD
ROOT
HETATM    1  C   UNL     1      -7.260   9.252  70.849  1.00  0.00    -0.102 C  
HETATM    2  O   UNL     1      -8.640   9.591  70.820  1.00  0.00    -0.220 OA 
ENDROOT
BRANCH   2   3
HETATM    3  C   UNL     1      -9.120   9.761  69.482  1.00  0.00    -0.216 C  
BRANCH   3   4
HETATM    4  C   UNL     1     -10.623   9.461  69.444  1.00  0.00    -0.221 C  
BRANCH   4   5
HETATM    5  N   UNL     1     -11.185   9.355  70.803  1.00  0.00    -0.278 N  
HETATM    6  C   UNL     1     -11.609   6.907  70.731  1.00  0.00    -0.397 C  
HETATM    7  O   UNL     1     -12.021   8.334  72.602  1.00  0.00    -0.399 OA 
HETATM    8  H   UNL     1     -11.249  10.226  71.329  1.00  0.00     0.000 HD 
HETATM    9  C   UNL     1     -11.629   8.235  71.440  1.00  0.00    -0.280 C  
ENDBRANCH   4   5
BRANCH   4  10
HETATM   10  C   UNL     1     -11.312  10.575  68.641  1.00  0.00    -0.252 C  
HETATM   11  O   UNL     1     -12.341  11.115  69.042  1.00  0.00    -0.479 OA 
HETATM   12  H   UNL     1      -9.971  10.296  67.082  1.00  0.00     0.000 HD 
HETATM   13  N   UNL     1     -10.781  10.831  67.395  1.00  0.00    -0.249 N  
BRANCH  13  14
HETATM   14  C   UNL     1     -11.340  11.834  66.519  1.00  0.00    -0.305 C  
BRANCH  14  15
HETATM   15  C   UNL     1     -10.774  13.199  66.813  1.00  0.00    -0.274 A  
HETATM   16  C   UNL     1     -11.564  14.200  67.397  1.00  0.00    -0.399 A  
HETATM   17  C   UNL     1     -11.021  15.457  67.674  1.00  0.00    -0.315 A  
HETATM   18  C   UNL     1      -9.689  15.728  67.364  1.00  0.00    -0.223 A  
HETATM   19  C   UNL     1      -8.899  14.745  66.771  1.00  0.00    -0.281 A  
HETATM   20  C   UNL     1      -9.439  13.490  66.493  1.00  0.00    -0.265 A  
ENDBRANCH  14  15
ENDBRANCH  13  14
ENDBRANCH   4  10
ENDBRANCH   3   4
ENDBRANCH   2   3
TORSDOF 6
ENDMDL
MODEL      141
REMARK 921   NORMALIZED FREE ENERGY PREDICTED BY IDOCK:   -3.88 KCAL/MOL
REMARK 922        TOTAL FREE ENERGY PREDICTED BY IDOCK:   -5.64 KCAL/MOL
REMARK 923 INTER-LIGAND FREE ENERGY PREDICTED BY IDOCK:   -5.49 KCAL/MOL
REMARK 924 INTRA-LIGAND FREE ENERGY PREDICTED BY IDOCK:   -0.15 KCAL/MOL
REMARK 927      BINDING AFFINITY PREDICTED BY RF-SCORE:    0.00 PKD
ROOT
HETATM    1  C   UNL     1     -12.106  13.994  69.981  1.00  0.00    -0.348 C  
HETATM    2  O   UNL     1     -11.306  14.160  68.819  1.00  0.00    -0.247 OA 
ENDROOT
BRANCH   2   3
HETATM    3  C   UNL     1     -11.335  15.508  68.338  1.00  0.00    -0.354 C  
BRANCH   3   4
HETATM    4  C   UNL     1     -11.155  15.504  66.816  1.00  0.00    -0.206 C  
BRANCH   4   5
HETATM    5  N   UNL     1      -9.754  15.761  66.438  1.00  0.00    -0.262 N  
HETATM    6  C   UNL     1      -9.944  18.237  66.354  1.00  0.00    -0.385 C  
HETATM    7  O   UNL     1      -7.948  16.984  65.970  1.00  0.00    -0.435 OA 
HETATM    8  H   UNL     1      -9.166  14.936  66.315  1.00  0.00     0.000 HD 
HETATM    9  C   UNL     1      -9.149  16.964  66.233  1.00  0.00    -0.267 C  
ENDBRANCH   4   5
BRANCH   4  10
HETATM   10  C   UNL     1     -11.636  14.145  66.282  1.00  0.00    -0.370 C  
HETATM   11  O   UNL     1     -12.831  13.898  66.137  1.00  0.00    -0.384 OA 
HETATM   12  H   UNL     1      -9.689  13.429  66.319  1.00  0.00     0.000 HD 
HETATM   13  N   UNL     1     -10.657  13.190  66.108  1.00  0.00    -0.275 N  
BRANCH  13  14
HETATM   14  C   UNL     1     -10.965  11.860  65.635  1.00  0.00    -0.304 C  
BRANCH  14  15
HETATM   15  C   UNL     1     -10.783  10.833  66.722  1.00  0.00    -0.291 A  
HETATM   16  C   UNL     1     -11.315  11.035  68.004  1.00  0.00    -0.374 A  
HETATM   17  C   UNL     1     -11.148  10.067  68.998  1.00  0.00    -0.221 A  
HETATM   18  C   UNL     1     -10.444   8.896  68.724  1.00  0.00    -0.223 A  
HETATM   19  C   UNL     1      -9.900   8.692  67.458  1.00  0.00    -0.234 A  
HETATM   20  C   UNL     1     -10.065   9.657  66.463  1.00  0.00    -0.314 A  
ENDBRANCH  14  15
ENDBRANCH  13  14
ENDBRANCH   4  10
ENDBRANCH   3   4
ENDBRANCH   2   3
TORSDOF 6
ENDMDL
MODEL      142
REMARK 921   NORMALIZED FREE ENERGY PREDICTED BY IDOCK:   -3.88 KCAL/MOL
REMARK 922        TOTAL FREE ENERGY PREDICTED BY IDOCK:   -5.64 KCAL/MOL
REMARK 923 INTER-LIGAND FREE ENERGY PREDICTED BY IDOCK:   -5.88 KCAL/MOL
REMARK 924 INTRA-LIGAND FREE ENERGY PREDICTED BY IDOCK:    0.24 KCAL/MOL
REMARK 927      BINDING AFFINITY PREDICTED BY RF-SCORE:    0.00 PKD
ROOT
HETATM    1  C   UNL     1      -6.924  10.042  70.249  1.00  0.00    -0.150 C  
HETATM    2  O   UNL     1      -8.305   9.853  70.523  1.00  0.00    -0.182 OA 
ENDROOT
BRANCH   2   3
HETATM    3  C   UNL     1      -9.123  10.176  69.393  1.00  0.00    -0.203 C  
BRANCH   3   4
HETATM    4  C   UNL     1     -10.086   9.015  69.120  1.00  0.00    -0.195 C  
BRANCH   4   5
HETATM    5  N   UNL     1     -11.327   9.149  69.903  1.00  0.00    -0.430 N  
HETATM    6  C   UNL     1     -11.586  11.600  69.587  1.00  0.00    -0.401 C  
HETATM    7  O   UNL     1     -13.099  10.186  70.776  1.00  0.00    -0.369 OA 
HETATM    8  H   UNL     1     -11.685   8.291  70.323  1.00  0.00     0.000 HD 
HETATM    9  C   UNL     1     -12.054  10.278  70.134  1.00  0.00    -0.202 C  
ENDBRANCH   4   5
BRANCH   4  10
HETATM   10  C   UNL     1     -10.380   8.983  67.611  1.00  0.00    -0.257 C  
HETATM   11  O   UNL     1     -10.766   7.959  67.053  1.00  0.00    -0.339 OA 
HETATM   12  H   UNL     1      -9.664  10.922  67.420  1.00  0.00     0.000 HD 
HETATM   13  N   UNL     1     -10.055  10.128  66.914  1.00  0.00    -0.213 N  
BRANCH  13  14
HETATM   14  C   UNL     1     -10.254  10.233  65.487  1.00  0.00    -0.238 C  
BRANCH  14  15
HETATM   15  C   UNL     1     -10.961  11.512  65.123  1.00  0.00    -0.298 A  
HETATM   16  C   UNL     1     -11.440  12.382  66.113  1.00  0.00    -0.430 A  
HETATM   17  C   UNL     1     -12.084  13.571  65.759  1.00  0.00    -0.473 A  
HETATM   18  C   UNL     1     -12.261  13.896  64.415  1.00  0.00    -0.449 A  
HETATM   19  C   UNL     1     -11.802  13.033  63.423  1.00  0.00    -0.543 A  
HETATM   20  C   UNL     1     -11.159  11.845  63.775  1.00  0.00    -0.510 A  
ENDBRANCH  14  15
ENDBRANCH  13  14
ENDBRANCH   4  10
ENDBRANCH   3   4
ENDBRANCH   2   3
TORSDOF 6
ENDMDL
MODEL      143
REMARK 921   NORMALIZED FREE ENERGY PREDICTED BY IDOCK:   -3.87 KCAL/MOL
REMARK 922        TOTAL FREE ENERGY PREDICTED BY IDOCK:   -5.63 KCAL/MOL
REMARK 923 INTER-LIGAND FREE ENERGY PREDICTED BY IDOCK:   -5.15 KCAL/MOL
REMARK 924 INTRA-LIGAND FREE ENERGY PREDICTED BY IDOCK:   -0.48 KCAL/MOL
REMARK 927      BINDING AFFINITY PREDICTED BY RF-SCORE:    0.00 PKD
ROOT
HETATM    1  C   UNL     1     -13.268  11.498  71.957  1.00  0.00    -0.337 C  
HETATM    2  O   UNL     1     -12.214  11.404  71.009  1.00  0.00    -0.346 OA 
ENDROOT
BRANCH   2   3
HETATM    3  C   UNL     1     -12.247  10.164  70.294  1.00  0.00    -0.173 C  
BRANCH   3   4
HETATM    4  C   UNL     1     -10.811   9.679  70.061  1.00  0.00    -0.264 C  
BRANCH   4   5
HETATM    5  N   UNL     1      -9.918  10.795  69.699  1.00  0.00    -0.442 N  
HETATM    6  C   UNL     1     -10.427  10.772  67.267  1.00  0.00    -0.282 C  
HETATM    7  O   UNL     1      -8.964  12.307  68.365  1.00  0.00    -0.188 OA 
HETATM    8  H   UNL     1      -9.387  11.209  70.465  1.00  0.00     0.000 HD 
HETATM    9  C   UNL     1      -9.716  11.339  68.466  1.00  0.00    -0.198 C  
ENDBRANCH   4   5
BRANCH   4  10
HETATM   10  C   UNL     1     -10.331   8.973  71.339  1.00  0.00    -0.326 C  
HETATM   11  O   UNL     1      -9.204   9.159  71.792  1.00  0.00    -0.338 OA 
HETATM   12  H   UNL     1     -12.083   7.862  71.396  1.00  0.00     0.000 HD 
HETATM   13  N   UNL     1     -11.191   8.029  71.860  1.00  0.00    -0.264 N  
BRANCH  13  14
HETATM   14  C   UNL     1     -10.863   7.271  73.044  1.00  0.00    -0.355 C  
BRANCH  14  15
HETATM   15  C   UNL     1     -10.564   5.833  72.712  1.00  0.00    -0.262 A  
HETATM   16  C   UNL     1     -10.980   4.792  73.556  1.00  0.00    -0.398 A  
HETATM   17  C   UNL     1     -10.705   3.462  73.227  1.00  0.00    -0.291 A  
HETATM   18  C   UNL     1     -10.006   3.160  72.059  1.00  0.00    -0.223 A  
HETATM   19  C   UNL     1      -9.576   4.186  71.221  1.00  0.00    -0.242 A  
HETATM   20  C   UNL     1      -9.850   5.515  71.547  1.00  0.00    -0.221 A  
ENDBRANCH  14  15
ENDBRANCH  13  14
ENDBRANCH   4  10
ENDBRANCH   3   4
ENDBRANCH   2   3
TORSDOF 6
ENDMDL
MODEL      144
REMARK 921   NORMALIZED FREE ENERGY PREDICTED BY IDOCK:   -3.86 KCAL/MOL
REMARK 922        TOTAL FREE ENERGY PREDICTED BY IDOCK:   -5.62 KCAL/MOL
REMARK 923 INTER-LIGAND FREE ENERGY PREDICTED BY IDOCK:   -5.19 KCAL/MOL
REMARK 924 INTRA-LIGAND FREE ENERGY PREDICTED BY IDOCK:   -0.43 KCAL/MOL
REMARK 927      BINDING AFFINITY PREDICTED BY RF-SCORE:    0.00 PKD
ROOT
HETATM    1  C   UNL     1     -12.616  13.740  70.995  1.00  0.00    -0.371 C  
HETATM    2  O   UNL     1     -12.331  14.871  70.184  1.00  0.00    -0.316 OA 
ENDROOT
BRANCH   2   3
HETATM    3  C   UNL     1     -11.210  14.643  69.323  1.00  0.00    -0.282 C  
BRANCH   3   4
HETATM    4  C   UNL     1     -11.700  14.012  68.015  1.00  0.00    -0.359 C  
BRANCH   4   5
HETATM    5  N   UNL     1     -11.130  14.696  66.840  1.00  0.00    -0.325 N  
HETATM    6  C   UNL     1     -12.770  13.821  65.192  1.00  0.00    -0.439 C  
HETATM    7  O   UNL     1     -10.995  15.343  64.710  1.00  0.00    -0.420 OA 
HETATM    8  H   UNL     1     -10.300  15.264  67.013  1.00  0.00     0.000 HD 
HETATM    9  C   UNL     1     -11.575  14.662  65.553  1.00  0.00    -0.335 C  
ENDBRANCH   4   5
BRANCH   4  10
HETATM   10  C   UNL     1     -11.321  12.522  68.031  1.00  0.00    -0.289 C  
HETATM   11  O   UNL     1     -12.171  11.641  67.928  1.00  0.00    -0.560 OA 
HETATM   12  H   UNL     1      -9.350  13.018  68.454  1.00  0.00     0.000 HD 
HETATM   13  N   UNL     1      -9.997  12.245  68.300  1.00  0.00    -0.214 N  
BRANCH  13  14
HETATM   14  C   UNL     1      -9.501  10.890  68.371  1.00  0.00    -0.178 C  
BRANCH  14  15
HETATM   15  C   UNL     1      -8.916  10.449  67.055  1.00  0.00    -0.150 A  
HETATM   16  C   UNL     1      -9.701   9.793  66.096  1.00  0.00    -0.309 A  
HETATM   17  C   UNL     1      -9.146   9.400  64.876  1.00  0.00    -0.258 A  
HETATM   18  C   UNL     1      -7.802   9.652  64.605  1.00  0.00    -0.133 A  
HETATM   19  C   UNL     1      -7.009  10.291  65.556  1.00  0.00    -0.138 A  
HETATM   20  C   UNL     1      -7.561  10.683  66.775  1.00  0.00    -0.120 A  
ENDBRANCH  14  15
ENDBRANCH  13  14
ENDBRANCH   4  10
ENDBRANCH   3   4
ENDBRANCH   2   3
TORSDOF 6
ENDMDL
MODEL      145
REMARK 921   NORMALIZED FREE ENERGY PREDICTED BY IDOCK:   -3.86 KCAL/MOL
REMARK 922        TOTAL FREE ENERGY PREDICTED BY IDOCK:   -5.62 KCAL/MOL
REMARK 923 INTER-LIGAND FREE ENERGY PREDICTED BY IDOCK:   -5.05 KCAL/MOL
REMARK 924 INTRA-LIGAND FREE ENERGY PREDICTED BY IDOCK:   -0.57 KCAL/MOL
REMARK 927      BINDING AFFINITY PREDICTED BY RF-SCORE:    0.00 PKD
ROOT
HETATM    1  C   UNL     1     -12.827  11.739  71.265  1.00  0.00    -0.308 C  
HETATM    2  O   UNL     1     -11.925  12.550  70.526  1.00  0.00    -0.326 OA 
ENDROOT
BRANCH   2   3
HETATM    3  C   UNL     1     -12.142  12.441  69.115  1.00  0.00    -0.146 C  
BRANCH   3   4
HETATM    4  C   UNL     1     -10.793  12.510  68.391  1.00  0.00    -0.243 C  
BRANCH   4   5
HETATM    5  N   UNL     1      -9.976  13.635  68.881  1.00  0.00    -0.422 N  
HETATM    6  C   UNL     1     -10.772  15.297  67.214  1.00  0.00    -0.311 C  
HETATM    7  O   UNL     1      -9.223  15.733  68.979  1.00  0.00    -0.209 OA 
HETATM    8  H   UNL     1      -9.366  13.433  69.673  1.00  0.00     0.000 HD 
HETATM    9  C   UNL     1      -9.936  14.911  68.405  1.00  0.00    -0.222 C  
ENDBRANCH   4   5
BRANCH   4  10
HETATM   10  C   UNL     1     -10.072  11.168  68.594  1.00  0.00    -0.200 C  
HETATM   11  O   UNL     1      -8.847  11.100  68.666  1.00  0.00    -0.159 OA 
HETATM   12  H   UNL     1     -11.877  10.160  68.413  1.00  0.00     0.000 HD 
HETATM   13  N   UNL     1     -10.874  10.047  68.554  1.00  0.00    -0.233 N  
BRANCH  13  14
HETATM   14  C   UNL     1     -10.332   8.717  68.706  1.00  0.00    -0.208 C  
BRANCH  14  15
HETATM   15  C   UNL     1     -10.688   8.126  70.045  1.00  0.00    -0.243 A  
HETATM   16  C   UNL     1     -11.209   6.828  70.149  1.00  0.00    -0.387 A  
HETATM   17  C   UNL     1     -11.523   6.290  71.399  1.00  0.00    -0.352 A  
HETATM   18  C   UNL     1     -11.328   7.045  72.555  1.00  0.00    -0.301 A  
HETATM   19  C   UNL     1     -10.825   8.341  72.462  1.00  0.00    -0.421 A  
HETATM   20  C   UNL     1     -10.511   8.880  71.215  1.00  0.00    -0.357 A  
ENDBRANCH  14  15
ENDBRANCH  13  14
ENDBRANCH   4  10
ENDBRANCH   3   4
ENDBRANCH   2   3
TORSDOF 6
ENDMDL
MODEL      146
REMARK 921   NORMALIZED FREE ENERGY PREDICTED BY IDOCK:   -3.84 KCAL/MOL
REMARK 922        TOTAL FREE ENERGY PREDICTED BY IDOCK:   -5.59 KCAL/MOL
REMARK 923 INTER-LIGAND FREE ENERGY PREDICTED BY IDOCK:   -5.02 KCAL/MOL
REMARK 924 INTRA-LIGAND FREE ENERGY PREDICTED BY IDOCK:   -0.57 KCAL/MOL
REMARK 927      BINDING AFFINITY PREDICTED BY RF-SCORE:    0.00 PKD
ROOT
HETATM    1  C   UNL     1     -10.952  10.253  69.639  1.00  0.00    -0.270 C  
HETATM    2  O   UNL     1     -10.967  10.308  68.219  1.00  0.00    -0.240 OA 
ENDROOT
BRANCH   2   3
HETATM    3  C   UNL     1      -9.650  10.457  67.677  1.00  0.00    -0.149 C  
BRANCH   3   4
HETATM    4  C   UNL     1      -9.603  11.722  66.811  1.00  0.00    -0.200 C  
BRANCH   4   5
HETATM    5  N   UNL     1     -10.949  12.289  66.612  1.00  0.00    -0.265 N  
HETATM    6  C   UNL     1     -10.926  12.182  64.130  1.00  0.00    -0.416 C  
HETATM    7  O   UNL     1     -12.750  12.943  65.470  1.00  0.00    -0.568 OA 
HETATM    8  H   UNL     1     -11.453  12.552  67.459  1.00  0.00     0.000 HD 
HETATM    9  C   UNL     1     -11.602  12.504  65.436  1.00  0.00    -0.375 C  
ENDBRANCH   4   5
BRANCH   4  10
HETATM   10  C   UNL     1      -8.667  12.732  67.492  1.00  0.00    -0.185 C  
HETATM   11  O   UNL     1      -7.896  12.393  68.387  1.00  0.00    -0.138 OA 
HETATM   12  H   UNL     1      -9.554  14.283  66.434  1.00  0.00     0.000 HD 
HETATM   13  N   UNL     1      -8.844  14.051  67.128  1.00  0.00    -0.219 N  
BRANCH  13  14
HETATM   14  C   UNL     1      -8.051  15.113  67.703  1.00  0.00    -0.162 C  
BRANCH  14  15
HETATM   15  C   UNL     1      -8.652  16.464  67.418  1.00  0.00    -0.193 A  
HETATM   16  C   UNL     1      -7.925  17.449  66.733  1.00  0.00    -0.278 A  
HETATM   17  C   UNL     1      -8.500  18.694  66.466  1.00  0.00    -0.302 A  
HETATM   18  C   UNL     1      -9.801  18.969  66.885  1.00  0.00    -0.385 A  
HETATM   19  C   UNL     1     -10.527  18.003  67.579  1.00  0.00    -0.408 A  
HETATM   20  C   UNL     1      -9.954  16.759  67.847  1.00  0.00    -0.268 A  
ENDBRANCH  14  15
ENDBRANCH  13  14
ENDBRANCH   4  10
ENDBRANCH   3   4
ENDBRANCH   2   3
TORSDOF 6
ENDMDL
MODEL      147
REMARK 921   NORMALIZED FREE ENERGY PREDICTED BY IDOCK:   -3.81 KCAL/MOL
REMARK 922        TOTAL FREE ENERGY PREDICTED BY IDOCK:   -5.56 KCAL/MOL
REMARK 923 INTER-LIGAND FREE ENERGY PREDICTED BY IDOCK:   -5.05 KCAL/MOL
REMARK 924 INTRA-LIGAND FREE ENERGY PREDICTED BY IDOCK:   -0.51 KCAL/MOL
REMARK 927      BINDING AFFINITY PREDICTED BY RF-SCORE:    0.00 PKD
ROOT
HETATM    1  C   UNL     1      -9.696  10.802  63.314  1.00  0.00    -0.355 C  
HETATM    2  O   UNL     1     -10.511  10.963  64.467  1.00  0.00    -0.346 OA 
ENDROOT
BRANCH   2   3
HETATM    3  C   UNL     1     -10.625  12.337  64.854  1.00  0.00    -0.293 C  
BRANCH   3   4
HETATM    4  C   UNL     1     -10.898  12.415  66.360  1.00  0.00    -0.258 C  
BRANCH   4   5
HETATM    5  N   UNL     1      -9.716  12.013  67.144  1.00  0.00    -0.195 N  
HETATM    6  C   UNL     1     -10.873  10.303  68.526  1.00  0.00    -0.281 C  
HETATM    7  O   UNL     1      -8.546  10.828  68.628  1.00  0.00    -0.136 OA 
HETATM    8  H   UNL     1      -8.850  12.508  66.932  1.00  0.00     0.000 HD 
HETATM    9  C   UNL     1      -9.639  11.062  68.116  1.00  0.00    -0.171 C  
ENDBRANCH   4   5
BRANCH   4  10
HETATM   10  C   UNL     1     -11.326  13.852  66.694  1.00  0.00    -0.331 C  
HETATM   11  O   UNL     1     -12.251  14.084  67.470  1.00  0.00    -0.366 OA 
HETATM   12  H   UNL     1      -9.994  14.588  65.284  1.00  0.00     0.000 HD 
HETATM   13  N   UNL     1     -10.700  14.846  65.972  1.00  0.00    -0.312 N  
BRANCH  13  14
HETATM   14  C   UNL     1     -11.018  16.242  66.162  1.00  0.00     0.006 C  
BRANCH  14  15
HETATM   15  C   UNL     1      -9.772  17.082  66.263  1.00  0.00    -0.302 A  
HETATM   16  C   UNL     1      -9.848  18.477  66.398  1.00  0.00    -0.376 A  
HETATM   17  C   UNL     1      -8.683  19.241  66.503  1.00  0.00    -0.362 A  
HETATM   18  C   UNL     1      -7.434  18.622  66.466  1.00  0.00    -0.267 A  
HETATM   19  C   UNL     1      -7.347  17.239  66.318  1.00  0.00    -0.342 A  
HETATM   20  C   UNL     1      -8.509  16.474  66.214  1.00  0.00    -0.363 A  
ENDBRANCH  14  15
ENDBRANCH  13  14
ENDBRANCH   4  10
ENDBRANCH   3   4
ENDBRANCH   2   3
TORSDOF 6
ENDMDL
MODEL      148
REMARK 921   NORMALIZED FREE ENERGY PREDICTED BY IDOCK:   -3.81 KCAL/MOL
REMARK 922        TOTAL FREE ENERGY PREDICTED BY IDOCK:   -5.55 KCAL/MOL
REMARK 923 INTER-LIGAND FREE ENERGY PREDICTED BY IDOCK:   -5.04 KCAL/MOL
REMARK 924 INTRA-LIGAND FREE ENERGY PREDICTED BY IDOCK:   -0.50 KCAL/MOL
REMARK 927      BINDING AFFINITY PREDICTED BY RF-SCORE:    0.00 PKD
ROOT
HETATM    1  C   UNL     1     -12.475  12.365  63.616  1.00  0.00    -0.508 C  
HETATM    2  O   UNL     1     -12.974  12.543  64.934  1.00  0.00    -0.821 OA 
ENDROOT
BRANCH   2   3
HETATM    3  C   UNL     1     -12.290  13.593  65.627  1.00  0.00    -0.478 C  
BRANCH   3   4
HETATM    4  C   UNL     1     -11.581  13.007  66.855  1.00  0.00    -0.366 C  
BRANCH   4   5
HETATM    5  N   UNL     1     -10.321  12.340  66.482  1.00  0.00    -0.224 N  
HETATM    6  C   UNL     1     -10.861  10.142  67.507  1.00  0.00    -0.349 C  
HETATM    7  O   UNL     1      -8.869  10.656  66.296  1.00  0.00    -0.151 OA 
HETATM    8  H   UNL     1      -9.646  12.912  65.974  1.00  0.00     0.000 HD 
HETATM    9  C   UNL     1      -9.948  11.054  66.732  1.00  0.00    -0.203 C  
ENDBRANCH   4   5
BRANCH   4  10
HETATM   10  C   UNL     1     -11.334  14.148  67.854  1.00  0.00    -0.294 C  
HETATM   11  O   UNL     1     -12.263  14.713  68.427  1.00  0.00    -0.231 OA 
HETATM   12  H   UNL     1      -9.309  14.121  67.400  1.00  0.00     0.000 HD 
HETATM   13  N   UNL     1     -10.028  14.578  67.960  1.00  0.00    -0.219 N  
BRANCH  13  14
HETATM   14  C   UNL     1      -9.650  15.658  68.841  1.00  0.00    -0.224 C  
BRANCH  14  15
HETATM   15  C   UNL     1      -8.155  15.739  69.004  1.00  0.00    -0.224 A  
HETATM   16  C   UNL     1      -7.495  16.976  69.027  1.00  0.00    -0.211 A  
HETATM   17  C   UNL     1      -6.109  17.036  69.191  1.00  0.00    -0.197 A  
HETATM   18  C   UNL     1      -5.370  15.861  69.325  1.00  0.00    -0.110 A  
HETATM   19  C   UNL     1      -6.013  14.626  69.290  1.00  0.00    -0.103 A  
HETATM   20  C   UNL     1      -7.397  14.565  69.127  1.00  0.00    -0.133 A  
ENDBRANCH  14  15
ENDBRANCH  13  14
ENDBRANCH   4  10
ENDBRANCH   3   4
ENDBRANCH   2   3
TORSDOF 6
ENDMDL
MODEL      149
REMARK 921   NORMALIZED FREE ENERGY PREDICTED BY IDOCK:   -3.80 KCAL/MOL
REMARK 922        TOTAL FREE ENERGY PREDICTED BY IDOCK:   -5.54 KCAL/MOL
REMARK 923 INTER-LIGAND FREE ENERGY PREDICTED BY IDOCK:   -5.79 KCAL/MOL
REMARK 924 INTRA-LIGAND FREE ENERGY PREDICTED BY IDOCK:    0.26 KCAL/MOL
REMARK 927      BINDING AFFINITY PREDICTED BY RF-SCORE:    0.00 PKD
ROOT
HETATM    1  C   UNL     1     -12.193  13.805  70.619  1.00  0.00    -0.363 C  
HETATM    2  O   UNL     1     -11.134  14.592  70.091  1.00  0.00    -0.221 OA 
ENDROOT
BRANCH   2   3
HETATM    3  C   UNL     1     -11.117  14.575  68.660  1.00  0.00    -0.257 C  
BRANCH   3   4
HETATM    4  C   UNL     1     -11.791  13.290  68.164  1.00  0.00    -0.353 C  
BRANCH   4   5
HETATM    5  N   UNL     1     -12.650  13.549  66.995  1.00  0.00    -0.206 N  
HETATM    6  C   UNL     1     -10.852  14.433  65.526  1.00  0.00    -0.335 C  
HETATM    7  O   UNL     1     -13.140  14.147  64.902  1.00  0.00    -0.677 OA 
HETATM    8  H   UNL     1     -13.640  13.330  67.111  1.00  0.00     0.000 HD 
HETATM    9  C   UNL     1     -12.285  14.045  65.780  1.00  0.00    -0.453 C  
ENDBRANCH   4   5
BRANCH   4  10
HETATM   10  C   UNL     1     -10.690  12.270  67.832  1.00  0.00    -0.215 C  
HETATM   11  O   UNL     1      -9.500  12.575  67.867  1.00  0.00    -0.183 OA 
HETATM   12  H   UNL     1     -12.129  10.878  67.286  1.00  0.00     0.000 HD 
HETATM   13  N   UNL     1     -11.127  11.048  67.368  1.00  0.00    -0.296 N  
BRANCH  13  14
HETATM   14  C   UNL     1     -10.206  10.000  66.994  1.00  0.00    -0.237 C  
BRANCH  14  15
HETATM   15  C   UNL     1     -10.471   8.733  67.763  1.00  0.00    -0.292 A  
HETATM   16  C   UNL     1     -10.731   7.524  67.099  1.00  0.00    -0.379 A  
HETATM   17  C   UNL     1     -10.964   6.354  67.827  1.00  0.00    -0.425 A  
HETATM   18  C   UNL     1     -10.947   6.381  69.221  1.00  0.00    -0.418 A  
HETATM   19  C   UNL     1     -10.703   7.579  69.890  1.00  0.00    -0.254 A  
HETATM   20  C   UNL     1     -10.471   8.748  69.165  1.00  0.00    -0.230 A  
ENDBRANCH  14  15
ENDBRANCH  13  14
ENDBRANCH   4  10
ENDBRANCH   3   4
ENDBRANCH   2   3
TORSDOF 6
ENDMDL
MODEL      150
REMARK 921   NORMALIZED FREE ENERGY PREDICTED BY IDOCK:   -3.79 KCAL/MOL
REMARK 922        TOTAL FREE ENERGY PREDICTED BY IDOCK:   -5.53 KCAL/MOL
REMARK 923 INTER-LIGAND FREE ENERGY PREDICTED BY IDOCK:   -5.09 KCAL/MOL
REMARK 924 INTRA-LIGAND FREE ENERGY PREDICTED BY IDOCK:   -0.44 KCAL/MOL
REMARK 927      BINDING AFFINITY PREDICTED BY RF-SCORE:    0.00 PKD
ROOT
HETATM    1  C   UNL     1     -10.877  14.892  64.831  1.00  0.00    -0.413 C  
HETATM    2  O   UNL     1     -11.206  13.530  65.063  1.00  0.00    -0.306 OA 
ENDROOT
BRANCH   2   3
HETATM    3  C   UNL     1     -10.316  12.917  66.001  1.00  0.00    -0.283 C  
BRANCH   3   4
HETATM    4  C   UNL     1     -10.662  11.429  66.126  1.00  0.00    -0.267 C  
BRANCH   4   5
HETATM    5  N   UNL     1      -9.523  10.576  65.741  1.00  0.00    -0.190 N  
HETATM    6  C   UNL     1      -9.830  10.805  63.286  1.00  0.00    -0.394 C  
HETATM    7  O   UNL     1      -8.083   9.580  64.359  1.00  0.00    -0.124 OA 
HETATM    8  H   UNL     1      -8.994  10.164  66.509  1.00  0.00     0.000 HD 
HETATM    9  C   UNL     1      -9.091  10.273  64.485  1.00  0.00    -0.234 C  
ENDBRANCH   4   5
BRANCH   4  10
HETATM   10  C   UNL     1     -11.095  11.159  67.576  1.00  0.00    -0.291 C  
HETATM   11  O   UNL     1     -12.253  11.343  67.946  1.00  0.00    -0.592 OA 
HETATM   12  H   UNL     1      -9.127  10.767  68.103  1.00  0.00     0.000 HD 
HETATM   13  N   UNL     1     -10.082  10.830  68.451  1.00  0.00    -0.163 N  
BRANCH  13  14
HETATM   14  C   UNL     1     -10.338  10.572  69.849  1.00  0.00    -0.114 C  
BRANCH  14  15
HETATM   15  C   UNL     1     -10.663   9.121  70.092  1.00  0.00    -0.263 A  
HETATM   16  C   UNL     1      -9.874   8.100  69.540  1.00  0.00    -0.181 A  
HETATM   17  C   UNL     1     -10.182   6.759  69.784  1.00  0.00    -0.207 A  
HETATM   18  C   UNL     1     -11.282   6.426  70.572  1.00  0.00    -0.414 A  
HETATM   19  C   UNL     1     -12.080   7.432  71.114  1.00  0.00    -0.357 A  
HETATM   20  C   UNL     1     -11.775   8.771  70.871  1.00  0.00    -0.299 A  
ENDBRANCH  14  15
ENDBRANCH  13  14
ENDBRANCH   4  10
ENDBRANCH   3   4
ENDBRANCH   2   3
TORSDOF 6
ENDMDL
MODEL      151
REMARK 921   NORMALIZED FREE ENERGY PREDICTED BY IDOCK:   -3.78 KCAL/MOL
REMARK 922        TOTAL FREE ENERGY PREDICTED BY IDOCK:   -5.51 KCAL/MOL
REMARK 923 INTER-LIGAND FREE ENERGY PREDICTED BY IDOCK:   -5.00 KCAL/MOL
REMARK 924 INTRA-LIGAND FREE ENERGY PREDICTED BY IDOCK:   -0.50 KCAL/MOL
REMARK 927      BINDING AFFINITY PREDICTED BY RF-SCORE:    0.00 PKD
ROOT
HETATM    1  C   UNL     1     -12.539  12.048  63.212  1.00  0.00    -0.385 C  
HETATM    2  O   UNL     1     -11.280  11.397  63.315  1.00  0.00    -0.294 OA 
ENDROOT
BRANCH   2   3
HETATM    3  C   UNL     1     -10.358  12.141  64.119  1.00  0.00    -0.354 C  
BRANCH   3   4
HETATM    4  C   UNL     1     -10.129  11.396  65.440  1.00  0.00    -0.261 C  
BRANCH   4   5
HETATM    5  N   UNL     1      -8.761  11.609  65.947  1.00  0.00    -0.388 N  
HETATM    6  C   UNL     1      -8.390   9.275  66.714  1.00  0.00    -0.123 C  
HETATM    7  O   UNL     1      -6.793  11.046  66.834  1.00  0.00    -0.103 OA 
HETATM    8  H   UNL     1      -8.396  12.557  65.863  1.00  0.00     0.000 HD 
HETATM    9  C   UNL     1      -7.926  10.693  66.514  1.00  0.00    -0.138 C  
ENDBRANCH   4   5
BRANCH   4  10
HETATM   10  C   UNL     1     -11.180  11.880  66.451  1.00  0.00    -0.331 C  
HETATM   11  O   UNL     1     -11.665  11.122  67.287  1.00  0.00    -0.540 OA 
HETATM   12  H   UNL     1     -11.249  13.729  65.509  1.00  0.00     0.000 HD 
HETATM   13  N   UNL     1     -11.633  13.170  66.271  1.00  0.00    -0.339 N  
BRANCH  13  14
HETATM   14  C   UNL     1     -12.638  13.752  67.130  1.00  0.00     0.176 C  
BRANCH  14  15
HETATM   15  C   UNL     1     -12.017  14.430  68.323  1.00  0.00    -0.323 A  
HETATM   16  C   UNL     1     -11.442  15.705  68.213  1.00  0.00    -0.353 A  
HETATM   17  C   UNL     1     -10.880  16.326  69.332  1.00  0.00    -0.331 A  
HETATM   18  C   UNL     1     -10.880  15.677  70.566  1.00  0.00    -0.347 A  
HETATM   19  C   UNL     1     -11.436  14.405  70.683  1.00  0.00    -0.170 A  
HETATM   20  C   UNL     1     -11.997  13.783  69.567  1.00  0.00    -0.399 A  
ENDBRANCH  14  15
ENDBRANCH  13  14
ENDBRANCH   4  10
ENDBRANCH   3   4
ENDBRANCH   2   3
TORSDOF 6
ENDMDL
MODEL      152
REMARK 921   NORMALIZED FREE ENERGY PREDICTED BY IDOCK:   -3.77 KCAL/MOL
REMARK 922        TOTAL FREE ENERGY PREDICTED BY IDOCK:   -5.49 KCAL/MOL
REMARK 923 INTER-LIGAND FREE ENERGY PREDICTED BY IDOCK:   -5.08 KCAL/MOL
REMARK 924 INTRA-LIGAND FREE ENERGY PREDICTED BY IDOCK:   -0.41 KCAL/MOL
REMARK 927      BINDING AFFINITY PREDICTED BY RF-SCORE:    0.00 PKD
ROOT
HETATM    1  C   UNL     1     -11.388  13.486  66.673  1.00  0.00    -0.322 C  
HETATM    2  O   UNL     1     -10.332  12.575  66.401  1.00  0.00    -0.237 OA 
ENDROOT
BRANCH   2   3
HETATM    3  C   UNL     1     -10.657  11.687  65.326  1.00  0.00    -0.281 C  
BRANCH   3   4
HETATM    4  C   UNL     1      -9.751  10.453  65.402  1.00  0.00    -0.265 C  
BRANCH   4   5
HETATM    5  N   UNL     1      -8.485  10.668  64.678  1.00  0.00    -0.308 N  
HETATM    6  C   UNL     1      -9.257   9.752  62.502  1.00  0.00    -0.281 C  
HETATM    7  O   UNL     1      -7.101  10.687  62.928  1.00  0.00    -0.089 OA 
HETATM    8  H   UNL     1      -7.723  11.076  65.221  1.00  0.00     0.000 HD 
HETATM    9  C   UNL     1      -8.208  10.389  63.374  1.00  0.00    -0.142 C  
ENDBRANCH   4   5
BRANCH   4  10
HETATM   10  C   UNL     1      -9.498  10.136  66.885  1.00  0.00    -0.169 C  
HETATM   11  O   UNL     1      -8.410  10.353  67.412  1.00  0.00    -0.120 OA 
HETATM   12  H   UNL     1     -11.372   9.254  67.027  1.00  0.00     0.000 HD 
HETATM   13  N   UNL     1     -10.519   9.478  67.538  1.00  0.00    -0.259 N  
BRANCH  13  14
HETATM   14  C   UNL     1     -10.413   9.095  68.927  1.00  0.00    -0.218 C  
BRANCH  14  15
HETATM   15  C   UNL     1     -11.283   9.956  69.803  1.00  0.00    -0.279 A  
HETATM   16  C   UNL     1     -11.419  11.332  69.562  1.00  0.00    -0.376 A  
HETATM   17  C   UNL     1     -12.241  12.115  70.377  1.00  0.00    -0.378 A  
HETATM   18  C   UNL     1     -12.926  11.535  71.443  1.00  0.00    -0.450 A  
HETATM   19  C   UNL     1     -12.787  10.173  71.701  1.00  0.00    -0.559 A  
HETATM   20  C   UNL     1     -11.968   9.389  70.888  1.00  0.00    -0.351 A  
ENDBRANCH  14  15
ENDBRANCH  13  14
ENDBRANCH   4  10
ENDBRANCH   3   4
ENDBRANCH   2   3
TORSDOF 6
ENDMDL
MODEL      153
REMARK 921   NORMALIZED FREE ENERGY PREDICTED BY IDOCK:   -3.75 KCAL/MOL
REMARK 922        TOTAL FREE ENERGY PREDICTED BY IDOCK:   -5.46 KCAL/MOL
REMARK 923 INTER-LIGAND FREE ENERGY PREDICTED BY IDOCK:   -5.07 KCAL/MOL
REMARK 924 INTRA-LIGAND FREE ENERGY PREDICTED BY IDOCK:   -0.39 KCAL/MOL
REMARK 927      BINDING AFFINITY PREDICTED BY RF-SCORE:    0.00 PKD
ROOT
HETATM    1  C   UNL     1      -6.834  14.679  69.816  1.00  0.00    -0.154 C  
HETATM    2  O   UNL     1      -7.574  14.839  68.614  1.00  0.00    -0.113 OA 
ENDROOT
BRANCH   2   3
HETATM    3  C   UNL     1      -7.237  13.844  67.642  1.00  0.00    -0.174 C  
BRANCH   3   4
HETATM    4  C   UNL     1      -8.362  12.804  67.576  1.00  0.00    -0.179 C  
BRANCH   4   5
HETATM    5  N   UNL     1      -8.354  11.925  68.759  1.00  0.00    -0.346 N  
HETATM    6  C   UNL     1      -6.938  10.142  67.763  1.00  0.00    -0.084 C  
HETATM    7  O   UNL     1      -7.786  10.157  69.995  1.00  0.00    -0.173 OA 
HETATM    8  H   UNL     1      -8.887  12.253  69.564  1.00  0.00     0.000 HD 
HETATM    9  C   UNL     1      -7.720  10.728  68.908  1.00  0.00    -0.129 C  
ENDBRANCH   4   5
BRANCH   4  10
HETATM   10  C   UNL     1      -9.698  13.553  67.448  1.00  0.00    -0.229 C  
HETATM   11  O   UNL     1      -9.939  14.278  66.485  1.00  0.00    -0.264 OA 
HETATM   12  H   UNL     1     -10.253  12.910  69.341  1.00  0.00     0.000 HD 
HETATM   13  N   UNL     1     -10.541  13.464  68.536  1.00  0.00    -0.250 N  
BRANCH  13  14
HETATM   14  C   UNL     1     -11.819  14.136  68.566  1.00  0.00    -0.355 C  
BRANCH  14  15
HETATM   15  C   UNL     1     -12.461  14.037  69.925  1.00  0.00    -0.301 A  
HETATM   16  C   UNL     1     -12.547  12.809  70.598  1.00  0.00    -0.248 A  
HETATM   17  C   UNL     1     -13.134  12.737  71.864  1.00  0.00    -0.474 A  
HETATM   18  C   UNL     1     -13.647  13.886  72.465  1.00  0.00    -0.680 A  
HETATM   19  C   UNL     1     -13.579  15.108  71.799  1.00  0.00    -0.553 A  
HETATM   20  C   UNL     1     -12.993  15.183  70.535  1.00  0.00    -0.366 A  
ENDBRANCH  14  15
ENDBRANCH  13  14
ENDBRANCH   4  10
ENDBRANCH   3   4
ENDBRANCH   2   3
TORSDOF 6
ENDMDL
MODEL      154
REMARK 921   NORMALIZED FREE ENERGY PREDICTED BY IDOCK:   -3.74 KCAL/MOL
REMARK 922        TOTAL FREE ENERGY PREDICTED BY IDOCK:   -5.46 KCAL/MOL
REMARK 923 INTER-LIGAND FREE ENERGY PREDICTED BY IDOCK:   -5.07 KCAL/MOL
REMARK 924 INTRA-LIGAND FREE ENERGY PREDICTED BY IDOCK:   -0.39 KCAL/MOL
REMARK 927      BINDING AFFINITY PREDICTED BY RF-SCORE:    0.00 PKD
ROOT
HETATM    1  C   UNL     1      -8.653   5.554  73.490  1.00  0.00    -0.114 C  
HETATM    2  O   UNL     1      -9.245   6.555  72.675  1.00  0.00    -0.139 OA 
ENDROOT
BRANCH   2   3
HETATM    3  C   UNL     1     -10.503   6.132  72.138  1.00  0.00    -0.202 C  
BRANCH   3   4
HETATM    4  C   UNL     1     -10.865   7.021  70.943  1.00  0.00    -0.241 C  
BRANCH   4   5
HETATM    5  N   UNL     1     -11.060   6.224  69.718  1.00  0.00    -0.372 N  
HETATM    6  C   UNL     1      -8.751   6.501  68.842  1.00  0.00    -0.127 C  
HETATM    7  O   UNL     1     -10.480   5.212  67.816  1.00  0.00    -0.137 OA 
HETATM    8  H   UNL     1     -11.993   5.836  69.581  1.00  0.00     0.000 HD 
HETATM    9  C   UNL     1     -10.146   5.942  68.748  1.00  0.00    -0.172 C  
ENDBRANCH   4   5
BRANCH   4  10
HETATM   10  C   UNL     1     -12.133   7.811  71.301  1.00  0.00    -0.306 C  
HETATM   11  O   UNL     1     -13.097   7.271  71.838  1.00  0.00    -0.313 OA 
HETATM   12  H   UNL     1     -11.367   9.492  70.354  1.00  0.00     0.000 HD 
HETATM   13  N   UNL     1     -12.167   9.119  70.864  1.00  0.00    -0.236 N  
BRANCH  13  14
HETATM   14  C   UNL     1     -13.304   9.975  71.108  1.00  0.00    -0.305 C  
BRANCH  14  15
HETATM   15  C   UNL     1     -12.913  11.429  71.089  1.00  0.00    -0.349 A  
HETATM   16  C   UNL     1     -12.156  11.962  70.035  1.00  0.00    -0.366 A  
HETATM   17  C   UNL     1     -11.811  13.316  70.026  1.00  0.00    -0.365 A  
HETATM   18  C   UNL     1     -12.212  14.147  71.071  1.00  0.00    -0.432 A  
HETATM   19  C   UNL     1     -12.952  13.625  72.130  1.00  0.00    -0.421 A  
HETATM   20  C   UNL     1     -13.297  12.274  72.141  1.00  0.00    -0.473 A  
ENDBRANCH  14  15
ENDBRANCH  13  14
ENDBRANCH   4  10
ENDBRANCH   3   4
ENDBRANCH   2   3
TORSDOF 6
ENDMDL
MODEL      155
REMARK 921   NORMALIZED FREE ENERGY PREDICTED BY IDOCK:   -3.73 KCAL/MOL
REMARK 922        TOTAL FREE ENERGY PREDICTED BY IDOCK:   -5.45 KCAL/MOL
REMARK 923 INTER-LIGAND FREE ENERGY PREDICTED BY IDOCK:   -5.00 KCAL/MOL
REMARK 924 INTRA-LIGAND FREE ENERGY PREDICTED BY IDOCK:   -0.44 KCAL/MOL
REMARK 927      BINDING AFFINITY PREDICTED BY RF-SCORE:    0.00 PKD
ROOT
HETATM    1  C   UNL     1      -9.001  10.582  68.692  1.00  0.00    -0.162 C  
HETATM    2  O   UNL     1      -8.582  10.449  67.341  1.00  0.00    -0.125 OA 
ENDROOT
BRANCH   2   3
HETATM    3  C   UNL     1      -9.693  10.331  66.446  1.00  0.00    -0.201 C  
BRANCH   3   4
HETATM    4  C   UNL     1      -9.456  11.230  65.227  1.00  0.00    -0.221 C  
BRANCH   4   5
HETATM    5  N   UNL     1      -9.639  10.488  63.967  1.00  0.00    -0.287 N  
HETATM    6  C   UNL     1      -7.414   9.382  63.975  1.00  0.00    -0.113 C  
HETATM    7  O   UNL     1      -9.118   9.061  62.333  1.00  0.00    -0.186 OA 
HETATM    8  H   UNL     1     -10.528  10.633  63.488  1.00  0.00     0.000 HD 
HETATM    9  C   UNL     1      -8.767   9.632  63.364  1.00  0.00    -0.226 C  
ENDBRANCH   4   5
BRANCH   4  10
HETATM   10  C   UNL     1     -10.420  12.423  65.317  1.00  0.00    -0.286 C  
HETATM   11  O   UNL     1     -10.436  13.303  64.461  1.00  0.00    -0.394 OA 
HETATM   12  H   UNL     1     -11.050  11.785  67.189  1.00  0.00     0.000 HD 
HETATM   13  N   UNL     1     -11.162  12.506  66.477  1.00  0.00    -0.291 N  
BRANCH  13  14
HETATM   14  C   UNL     1     -12.092  13.586  66.711  1.00  0.00    -0.375 C  
BRANCH  14  15
HETATM   15  C   UNL     1     -11.736  14.361  67.952  1.00  0.00    -0.388 A  
HETATM   16  C   UNL     1     -11.026  15.569  67.872  1.00  0.00    -0.316 A  
HETATM   17  C   UNL     1     -10.713  16.282  69.032  1.00  0.00    -0.300 A  
HETATM   18  C   UNL     1     -11.098  15.794  70.280  1.00  0.00    -0.372 A  
HETATM   19  C   UNL     1     -11.791  14.589  70.371  1.00  0.00    -0.378 A  
HETATM   20  C   UNL     1     -12.105  13.874  69.214  1.00  0.00    -0.383 A  
ENDBRANCH  14  15
ENDBRANCH  13  14
ENDBRANCH   4  10
ENDBRANCH   3   4
ENDBRANCH   2   3
TORSDOF 6
ENDMDL
MODEL      156
REMARK 921   NORMALIZED FREE ENERGY PREDICTED BY IDOCK:   -3.73 KCAL/MOL
REMARK 922        TOTAL FREE ENERGY PREDICTED BY IDOCK:   -5.44 KCAL/MOL
REMARK 923 INTER-LIGAND FREE ENERGY PREDICTED BY IDOCK:   -4.90 KCAL/MOL
REMARK 924 INTRA-LIGAND FREE ENERGY PREDICTED BY IDOCK:   -0.54 KCAL/MOL
REMARK 927      BINDING AFFINITY PREDICTED BY RF-SCORE:    0.00 PKD
ROOT
HETATM    1  C   UNL     1     -10.731   5.766  67.097  1.00  0.00    -0.275 C  
HETATM    2  O   UNL     1      -9.775   6.521  66.366  1.00  0.00    -0.156 OA 
ENDROOT
BRANCH   2   3
HETATM    3  C   UNL     1      -8.613   6.813  67.149  1.00  0.00    -0.120 C  
BRANCH   3   4
HETATM    4  C   UNL     1      -8.307   8.313  67.056  1.00  0.00    -0.122 C  
BRANCH   4   5
HETATM    5  N   UNL     1      -9.338   9.026  66.279  1.00  0.00    -0.205 N  
HETATM    6  C   UNL     1      -7.783  10.027  64.620  1.00  0.00    -0.146 C  
HETATM    7  O   UNL     1     -10.158  10.274  64.622  1.00  0.00    -0.345 OA 
HETATM    8  H   UNL     1     -10.296   8.930  66.615  1.00  0.00     0.000 HD 
HETATM    9  C   UNL     1      -9.165   9.796  65.169  1.00  0.00    -0.240 C  
ENDBRANCH   4   5
BRANCH   4  10
HETATM   10  C   UNL     1      -8.203   8.868  68.485  1.00  0.00    -0.116 C  
HETATM   11  O   UNL     1      -7.125   9.208  68.966  1.00  0.00    -0.065 OA 
HETATM   12  H   UNL     1     -10.215   8.467  68.800  1.00  0.00     0.000 HD 
HETATM   13  N   UNL     1      -9.365   8.833  69.227  1.00  0.00    -0.149 N  
BRANCH  13  14
HETATM   14  C   UNL     1      -9.412   9.300  70.593  1.00  0.00    -0.272 C  
BRANCH  14  15
HETATM   15  C   UNL     1     -10.830   9.431  71.082  1.00  0.00    -0.427 A  
HETATM   16  C   UNL     1     -11.386   8.482  71.953  1.00  0.00    -0.399 A  
HETATM   17  C   UNL     1     -12.700   8.623  72.408  1.00  0.00    -0.423 A  
HETATM   18  C   UNL     1     -13.471   9.707  71.992  1.00  0.00    -0.514 A  
HETATM   19  C   UNL     1     -12.934  10.648  71.116  1.00  0.00    -0.483 A  
HETATM   20  C   UNL     1     -11.622  10.509  70.661  1.00  0.00    -0.445 A  
ENDBRANCH  14  15
ENDBRANCH  13  14
ENDBRANCH   4  10
ENDBRANCH   3   4
ENDBRANCH   2   3
TORSDOF 6
ENDMDL
MODEL      157
REMARK 921   NORMALIZED FREE ENERGY PREDICTED BY IDOCK:   -3.71 KCAL/MOL
REMARK 922        TOTAL FREE ENERGY PREDICTED BY IDOCK:   -5.41 KCAL/MOL
REMARK 923 INTER-LIGAND FREE ENERGY PREDICTED BY IDOCK:   -4.87 KCAL/MOL
REMARK 924 INTRA-LIGAND FREE ENERGY PREDICTED BY IDOCK:   -0.54 KCAL/MOL
REMARK 927      BINDING AFFINITY PREDICTED BY RF-SCORE:    0.00 PKD
ROOT
HETATM    1  C   UNL     1      -9.233   9.968  64.047  1.00  0.00    -0.272 C  
HETATM    2  O   UNL     1      -9.418   9.713  65.433  1.00  0.00    -0.242 OA 
ENDROOT
BRANCH   2   3
HETATM    3  C   UNL     1     -10.497  10.480  65.978  1.00  0.00    -0.156 C  
BRANCH   3   4
HETATM    4  C   UNL     1     -10.708  10.080  67.444  1.00  0.00    -0.274 C  
BRANCH   4   5
HETATM    5  N   UNL     1      -9.494   9.470  68.016  1.00  0.00    -0.133 N  
HETATM    6  C   UNL     1     -10.652   7.612  69.191  1.00  0.00    -0.195 C  
HETATM    7  O   UNL     1      -8.290   7.964  69.138  1.00  0.00    -0.129 OA 
HETATM    8  H   UNL     1      -8.614   9.941  67.804  1.00  0.00     0.000 HD 
HETATM    9  C   UNL     1      -9.404   8.354  68.793  1.00  0.00    -0.143 C  
ENDBRANCH   4   5
BRANCH   4  10
HETATM   10  C   UNL     1     -11.122  11.336  68.226  1.00  0.00    -0.240 C  
HETATM   11  O   UNL     1     -11.149  11.349  69.455  1.00  0.00    -0.244 OA 
HETATM   12  H   UNL     1     -11.612  12.294  66.451  1.00  0.00     0.000 HD 
HETATM   13  N   UNL     1     -11.584  12.390  67.466  1.00  0.00    -0.348 N  
BRANCH  13  14
HETATM   14  C   UNL     1     -12.030  13.625  68.066  1.00  0.00    -0.350 C  
BRANCH  14  15
HETATM   15  C   UNL     1     -11.419  14.821  67.385  1.00  0.00    -0.376 A  
HETATM   16  C   UNL     1     -11.130  15.993  68.101  1.00  0.00    -0.344 A  
HETATM   17  C   UNL     1     -10.551  17.090  67.457  1.00  0.00    -0.310 A  
HETATM   18  C   UNL     1     -10.263  17.030  66.094  1.00  0.00    -0.346 A  
HETATM   19  C   UNL     1     -10.558  15.876  65.371  1.00  0.00    -0.439 A  
HETATM   20  C   UNL     1     -11.136  14.780  66.012  1.00  0.00    -0.330 A  
ENDBRANCH  14  15
ENDBRANCH  13  14
ENDBRANCH   4  10
ENDBRANCH   3   4
ENDBRANCH   2   3
TORSDOF 6
ENDMDL
MODEL      158
REMARK 921   NORMALIZED FREE ENERGY PREDICTED BY IDOCK:   -3.70 KCAL/MOL
REMARK 922        TOTAL FREE ENERGY PREDICTED BY IDOCK:   -5.41 KCAL/MOL
REMARK 923 INTER-LIGAND FREE ENERGY PREDICTED BY IDOCK:   -4.89 KCAL/MOL
REMARK 924 INTRA-LIGAND FREE ENERGY PREDICTED BY IDOCK:   -0.52 KCAL/MOL
REMARK 927      BINDING AFFINITY PREDICTED BY RF-SCORE:    0.00 PKD
ROOT
HETATM    1  C   UNL     1     -10.905   6.108  68.068  1.00  0.00    -0.313 C  
HETATM    2  O   UNL     1     -11.040   7.072  67.033  1.00  0.00    -0.373 OA 
ENDROOT
BRANCH   2   3
HETATM    3  C   UNL     1      -9.877   7.897  66.916  1.00  0.00    -0.239 C  
BRANCH   3   4
HETATM    4  C   UNL     1     -10.051   9.140  67.796  1.00  0.00    -0.203 C  
BRANCH   4   5
HETATM    5  N   UNL     1      -9.302   9.016  69.059  1.00  0.00    -0.140 N  
HETATM    6  C   UNL     1     -11.043  10.035  70.509  1.00  0.00    -0.400 C  
HETATM    7  O   UNL     1      -8.953   9.153  71.258  1.00  0.00    -0.237 OA 
HETATM    8  H   UNL     1      -8.371   8.603  68.988  1.00  0.00     0.000 HD 
HETATM    9  C   UNL     1      -9.700   9.383  70.309  1.00  0.00    -0.246 C  
ENDBRANCH   4   5
BRANCH   4  10
HETATM   10  C   UNL     1      -9.586  10.364  66.990  1.00  0.00    -0.166 C  
HETATM   11  O   UNL     1      -8.418  10.746  67.017  1.00  0.00    -0.125 OA 
HETATM   12  H   UNL     1     -11.546  10.753  66.430  1.00  0.00     0.000 HD 
HETATM   13  N   UNL     1     -10.582  11.074  66.353  1.00  0.00    -0.262 N  
BRANCH  13  14
HETATM   14  C   UNL     1     -10.296  12.260  65.579  1.00  0.00    -0.267 C  
BRANCH  14  15
HETATM   15  C   UNL     1     -10.517  13.511  66.387  1.00  0.00    -0.287 A  
HETATM   16  C   UNL     1     -11.517  13.572  67.369  1.00  0.00    -0.366 A  
HETATM   17  C   UNL     1     -11.702  14.736  68.119  1.00  0.00    -0.353 A  
HETATM   18  C   UNL     1     -10.897  15.851  67.889  1.00  0.00    -0.327 A  
HETATM   19  C   UNL     1      -9.911  15.807  66.906  1.00  0.00    -0.243 A  
HETATM   20  C   UNL     1      -9.725  14.645  66.157  1.00  0.00    -0.344 A  
ENDBRANCH  14  15
ENDBRANCH  13  14
ENDBRANCH   4  10
ENDBRANCH   3   4
ENDBRANCH   2   3
TORSDOF 6
ENDMDL
MODEL      159
REMARK 921   NORMALIZED FREE ENERGY PREDICTED BY IDOCK:   -3.70 KCAL/MOL
REMARK 922        TOTAL FREE ENERGY PREDICTED BY IDOCK:   -5.40 KCAL/MOL
REMARK 923 INTER-LIGAND FREE ENERGY PREDICTED BY IDOCK:   -5.64 KCAL/MOL
REMARK 924 INTRA-LIGAND FREE ENERGY PREDICTED BY IDOCK:    0.24 KCAL/MOL
REMARK 927      BINDING AFFINITY PREDICTED BY RF-SCORE:    0.00 PKD
ROOT
HETATM    1  C   UNL     1     -12.918  14.364  71.775  1.00  0.00    -0.345 C  
HETATM    2  O   UNL     1     -12.351  15.026  70.654  1.00  0.00    -0.300 OA 
ENDROOT
BRANCH   2   3
HETATM    3  C   UNL     1     -11.634  14.123  69.806  1.00  0.00    -0.290 C  
BRANCH   3   4
HETATM    4  C   UNL     1     -10.753  14.928  68.843  1.00  0.00    -0.245 C  
BRANCH   4   5
HETATM    5  N   UNL     1      -9.364  14.436  68.844  1.00  0.00    -0.354 N  
HETATM    6  C   UNL     1      -9.906  12.089  68.235  1.00  0.00    -0.204 C  
HETATM    7  O   UNL     1      -7.709  12.966  68.567  1.00  0.00    -0.129 OA 
HETATM    8  H   UNL     1      -8.648  15.121  69.085  1.00  0.00     0.000 HD 
HETATM    9  C   UNL     1      -8.920  13.179  68.564  1.00  0.00    -0.048 C  
ENDBRANCH   4   5
BRANCH   4  10
HETATM   10  C   UNL     1     -11.375  14.839  67.440  1.00  0.00    -0.351 C  
HETATM   11  O   UNL     1     -12.399  14.193  67.230  1.00  0.00    -0.350 OA 
HETATM   12  H   UNL     1      -9.758  15.871  66.647  1.00  0.00     0.000 HD 
HETATM   13  N   UNL     1     -10.642  15.415  66.424  1.00  0.00    -0.302 N  
BRANCH  13  14
HETATM   14  C   UNL     1     -11.090  15.388  65.051  1.00  0.00    -0.418 C  
BRANCH  14  15
HETATM   15  C   UNL     1     -11.070  13.989  64.492  1.00  0.00    -0.360 A  
HETATM   16  C   UNL     1      -9.912  13.200  64.558  1.00  0.00    -0.137 A  
HETATM   17  C   UNL     1      -9.913  11.900  64.046  1.00  0.00    -0.318 A  
HETATM   18  C   UNL     1     -11.065  11.380  63.457  1.00  0.00    -0.373 A  
HETATM   19  C   UNL     1     -12.216  12.160  63.374  1.00  0.00    -0.635 A  
HETATM   20  C   UNL     1     -12.218  13.459  63.885  1.00  0.00    -0.478 A  
ENDBRANCH  14  15
ENDBRANCH  13  14
ENDBRANCH   4  10
ENDBRANCH   3   4
ENDBRANCH   2   3
TORSDOF 6
ENDMDL
MODEL      160
REMARK 921   NORMALIZED FREE ENERGY PREDICTED BY IDOCK:   -3.69 KCAL/MOL
REMARK 922        TOTAL FREE ENERGY PREDICTED BY IDOCK:   -5.39 KCAL/MOL
REMARK 923 INTER-LIGAND FREE ENERGY PREDICTED BY IDOCK:   -4.79 KCAL/MOL
REMARK 924 INTRA-LIGAND FREE ENERGY PREDICTED BY IDOCK:   -0.60 KCAL/MOL
REMARK 927      BINDING AFFINITY PREDICTED BY RF-SCORE:    0.00 PKD
ROOT
HETATM    1  C   UNL     1      -8.636   9.122  71.065  1.00  0.00    -0.177 C  
HETATM    2  O   UNL     1      -9.891   8.473  71.209  1.00  0.00    -0.183 OA 
ENDROOT
BRANCH   2   3
HETATM    3  C   UNL     1     -10.961   9.249  70.658  1.00  0.00    -0.276 C  
BRANCH   3   4
HETATM    4  C   UNL     1     -10.578   9.701  69.243  1.00  0.00    -0.219 C  
BRANCH   4   5
HETATM    5  N   UNL     1     -10.709   8.600  68.272  1.00  0.00    -0.436 N  
HETATM    6  C   UNL     1      -8.435   8.825  67.296  1.00  0.00    -0.111 C  
HETATM    7  O   UNL     1     -10.053   7.179  66.682  1.00  0.00    -0.209 OA 
HETATM    8  H   UNL     1     -11.607   8.116  68.264  1.00  0.00     0.000 HD 
HETATM    9  C   UNL     1      -9.778   8.150  67.385  1.00  0.00    -0.170 C  
ENDBRANCH   4   5
BRANCH   4  10
HETATM   10  C   UNL     1     -11.474  10.890  68.863  1.00  0.00    -0.300 C  
HETATM   11  O   UNL     1     -12.463  11.188  69.527  1.00  0.00    -0.254 OA 
HETATM   12  H   UNL     1     -10.384  11.166  67.118  1.00  0.00     0.000 HD 
HETATM   13  N   UNL     1     -11.172  11.507  67.667  1.00  0.00    -0.260 N  
BRANCH  13  14
HETATM   14  C   UNL     1     -11.943  12.623  67.170  1.00  0.00    -0.256 C  
BRANCH  14  15
HETATM   15  C   UNL     1     -11.051  13.724  66.659  1.00  0.00    -0.316 A  
HETATM   16  C   UNL     1     -11.493  14.613  65.668  1.00  0.00    -0.340 A  
HETATM   17  C   UNL     1     -10.658  15.637  65.213  1.00  0.00    -0.448 A  
HETATM   18  C   UNL     1      -9.374  15.778  65.737  1.00  0.00    -0.298 A  
HETATM   19  C   UNL     1      -8.920  14.892  66.712  1.00  0.00    -0.295 A  
HETATM   20  C   UNL     1      -9.752  13.869  67.168  1.00  0.00    -0.244 A  
ENDBRANCH  14  15
ENDBRANCH  13  14
ENDBRANCH   4  10
ENDBRANCH   3   4
ENDBRANCH   2   3
TORSDOF 6
ENDMDL
MODEL      161
REMARK 921   NORMALIZED FREE ENERGY PREDICTED BY IDOCK:   -3.68 KCAL/MOL
REMARK 922        TOTAL FREE ENERGY PREDICTED BY IDOCK:   -5.38 KCAL/MOL
REMARK 923 INTER-LIGAND FREE ENERGY PREDICTED BY IDOCK:   -4.89 KCAL/MOL
REMARK 924 INTRA-LIGAND FREE ENERGY PREDICTED BY IDOCK:   -0.48 KCAL/MOL
REMARK 927      BINDING AFFINITY PREDICTED BY RF-SCORE:    0.00 PKD
ROOT
HETATM    1  C   UNL     1      -9.037   5.597  66.033  1.00  0.00    -0.156 C  
HETATM    2  O   UNL     1      -9.399   6.970  66.052  1.00  0.00    -0.096 OA 
ENDROOT
BRANCH   2   3
HETATM    3  C   UNL     1      -9.967   7.356  67.308  1.00  0.00    -0.198 C  
BRANCH   3   4
HETATM    4  C   UNL     1      -9.819   8.872  67.483  1.00  0.00    -0.184 C  
BRANCH   4   5
HETATM    5  N   UNL     1     -10.307   9.601  66.299  1.00  0.00    -0.208 N  
HETATM    6  C   UNL     1      -8.115  10.579  65.659  1.00  0.00    -0.161 C  
HETATM    7  O   UNL     1     -10.163  10.863  64.464  1.00  0.00    -0.311 OA 
HETATM    8  H   UNL     1     -11.305   9.520  66.104  1.00  0.00     0.000 HD 
HETATM    9  C   UNL     1      -9.588  10.369  65.433  1.00  0.00    -0.246 C  
ENDBRANCH   4   5
BRANCH   4  10
HETATM   10  C   UNL     1     -10.589   9.284  68.748  1.00  0.00    -0.193 C  
HETATM   11  O   UNL     1     -10.751   8.505  69.685  1.00  0.00    -0.229 OA 
HETATM   12  H   UNL     1     -11.088  11.096  67.867  1.00  0.00     0.000 HD 
HETATM   13  N   UNL     1     -11.192  10.523  68.704  1.00  0.00    -0.268 N  
BRANCH  13  14
HETATM   14  C   UNL     1     -11.968  11.033  69.810  1.00  0.00    -0.356 C  
BRANCH  14  15
HETATM   15  C   UNL     1     -12.035  12.537  69.789  1.00  0.00    -0.359 A  
HETATM   16  C   UNL     1     -12.478  13.258  70.908  1.00  0.00    -0.424 A  
HETATM   17  C   UNL     1     -12.523  14.654  70.878  1.00  0.00    -0.406 A  
HETATM   18  C   UNL     1     -12.135  15.342  69.729  1.00  0.00    -0.373 A  
HETATM   19  C   UNL     1     -11.706  14.636  68.607  1.00  0.00    -0.362 A  
HETATM   20  C   UNL     1     -11.661  13.241  68.635  1.00  0.00    -0.362 A  
ENDBRANCH  14  15
ENDBRANCH  13  14
ENDBRANCH   4  10
ENDBRANCH   3   4
ENDBRANCH   2   3
TORSDOF 6
ENDMDL
MODEL      162
REMARK 921   NORMALIZED FREE ENERGY PREDICTED BY IDOCK:   -3.67 KCAL/MOL
REMARK 922        TOTAL FREE ENERGY PREDICTED BY IDOCK:   -5.36 KCAL/MOL
REMARK 923 INTER-LIGAND FREE ENERGY PREDICTED BY IDOCK:   -4.85 KCAL/MOL
REMARK 924 INTRA-LIGAND FREE ENERGY PREDICTED BY IDOCK:   -0.51 KCAL/MOL
REMARK 927      BINDING AFFINITY PREDICTED BY RF-SCORE:    0.00 PKD
ROOT
HETATM    1  C   UNL     1     -10.950   9.224  71.331  1.00  0.00    -0.359 C  
HETATM    2  O   UNL     1     -10.600   8.415  70.216  1.00  0.00    -0.217 OA 
ENDROOT
BRANCH   2   3
HETATM    3  C   UNL     1     -10.111   9.197  69.121  1.00  0.00    -0.194 C  
BRANCH   3   4
HETATM    4  C   UNL     1      -9.297   8.298  68.184  1.00  0.00    -0.133 C  
BRANCH   4   5
HETATM    5  N   UNL     1     -10.044   7.080  67.821  1.00  0.00    -0.155 N  
HETATM    6  C   UNL     1      -8.110   5.526  67.947  1.00  0.00    -0.100 C  
HETATM    7  O   UNL     1     -10.361   4.904  67.448  1.00  0.00    -0.151 OA 
HETATM    8  H   UNL     1     -11.037   7.207  67.626  1.00  0.00     0.000 HD 
HETATM    9  C   UNL     1      -9.570   5.807  67.715  1.00  0.00    -0.115 C  
ENDBRANCH   4   5
BRANCH   4  10
HETATM   10  C   UNL     1      -8.927   9.117  66.937  1.00  0.00    -0.123 C  
HETATM   11  O   UNL     1      -7.810   9.611  66.801  1.00  0.00    -0.101 OA 
HETATM   12  H   UNL     1     -10.886   8.999  66.265  1.00  0.00     0.000 HD 
HETATM   13  N   UNL     1      -9.959   9.370  66.059  1.00  0.00    -0.300 N  
BRANCH  13  14
HETATM   14  C   UNL     1      -9.765  10.147  64.857  1.00  0.00    -0.324 C  
BRANCH  14  15
HETATM   15  C   UNL     1     -10.677  11.344  64.821  1.00  0.00    -0.362 A  
HETATM   16  C   UNL     1     -11.401  11.669  63.664  1.00  0.00    -0.485 A  
HETATM   17  C   UNL     1     -12.252  12.777  63.650  1.00  0.00    -0.597 A  
HETATM   18  C   UNL     1     -12.384  13.573  64.787  1.00  0.00    -0.435 A  
HETATM   19  C   UNL     1     -11.659  13.267  65.938  1.00  0.00    -0.380 A  
HETATM   20  C   UNL     1     -10.808  12.162  65.953  1.00  0.00    -0.316 A  
ENDBRANCH  14  15
ENDBRANCH  13  14
ENDBRANCH   4  10
ENDBRANCH   3   4
ENDBRANCH   2   3
TORSDOF 6
ENDMDL
MODEL      163
REMARK 921   NORMALIZED FREE ENERGY PREDICTED BY IDOCK:   -3.64 KCAL/MOL
REMARK 922        TOTAL FREE ENERGY PREDICTED BY IDOCK:   -5.33 KCAL/MOL
REMARK 923 INTER-LIGAND FREE ENERGY PREDICTED BY IDOCK:   -4.70 KCAL/MOL
REMARK 924 INTRA-LIGAND FREE ENERGY PREDICTED BY IDOCK:   -0.63 KCAL/MOL
REMARK 927      BINDING AFFINITY PREDICTED BY RF-SCORE:    0.00 PKD
ROOT
HETATM    1  C   UNL     1     -12.104  13.758  70.014  1.00  0.00    -0.349 C  
HETATM    2  O   UNL     1     -12.028  14.689  68.943  1.00  0.00    -0.307 OA 
ENDROOT
BRANCH   2   3
HETATM    3  C   UNL     1     -11.657  14.059  67.712  1.00  0.00    -0.345 C  
BRANCH   3   4
HETATM    4  C   UNL     1     -10.278  14.572  67.280  1.00  0.00    -0.255 C  
BRANCH   4   5
HETATM    5  N   UNL     1      -9.934  15.832  67.963  1.00  0.00    -0.221 N  
HETATM    6  C   UNL     1      -9.867  17.241  65.917  1.00  0.00    -0.148 C  
HETATM    7  O   UNL     1      -9.517  18.016  68.148  1.00  0.00    -0.271 OA 
HETATM    8  H   UNL     1      -9.817  15.775  68.974  1.00  0.00     0.000 HD 
HETATM    9  C   UNL     1      -9.753  17.063  67.407  1.00  0.00    -0.252 C  
ENDBRANCH   4   5
BRANCH   4  10
HETATM   10  C   UNL     1      -9.244  13.475  67.580  1.00  0.00    -0.214 C  
HETATM   11  O   UNL     1      -8.038  13.685  67.484  1.00  0.00    -0.160 OA 
HETATM   12  H   UNL     1     -10.770  12.089  67.821  1.00  0.00     0.000 HD 
HETATM   13  N   UNL     1      -9.759  12.220  67.831  1.00  0.00    -0.196 N  
BRANCH  13  14
HETATM   14  C   UNL     1      -8.906  11.088  68.105  1.00  0.00    -0.141 C  
BRANCH  14  15
HETATM   15  C   UNL     1      -9.385  10.316  69.307  1.00  0.00    -0.221 A  
HETATM   16  C   UNL     1      -8.483   9.625  70.130  1.00  0.00    -0.231 A  
HETATM   17  C   UNL     1      -8.942   8.924  71.249  1.00  0.00    -0.312 A  
HETATM   18  C   UNL     1     -10.303   8.900  71.550  1.00  0.00    -0.394 A  
HETATM   19  C   UNL     1     -11.208   9.572  70.732  1.00  0.00    -0.383 A  
HETATM   20  C   UNL     1     -10.753  10.272  69.615  1.00  0.00    -0.299 A  
ENDBRANCH  14  15
ENDBRANCH  13  14
ENDBRANCH   4  10
ENDBRANCH   3   4
ENDBRANCH   2   3
TORSDOF 6
ENDMDL
MODEL      164
REMARK 921   NORMALIZED FREE ENERGY PREDICTED BY IDOCK:   -3.64 KCAL/MOL
REMARK 922        TOTAL FREE ENERGY PREDICTED BY IDOCK:   -5.33 KCAL/MOL
REMARK 923 INTER-LIGAND FREE ENERGY PREDICTED BY IDOCK:   -5.06 KCAL/MOL
REMARK 924 INTRA-LIGAND FREE ENERGY PREDICTED BY IDOCK:   -0.27 KCAL/MOL
REMARK 927      BINDING AFFINITY PREDICTED BY RF-SCORE:    0.00 PKD
ROOT
HETATM    1  C   UNL     1     -11.955  13.221  64.115  1.00  0.00    -0.447 C  
HETATM    2  O   UNL     1     -11.926  12.033  64.895  1.00  0.00    -0.316 OA 
ENDROOT
BRANCH   2   3
HETATM    3  C   UNL     1     -10.588  11.641  65.221  1.00  0.00    -0.281 C  
BRANCH   3   4
HETATM    4  C   UNL     1     -10.634  10.474  66.214  1.00  0.00    -0.133 C  
BRANCH   4   5
HETATM    5  N   UNL     1      -9.519   9.535  65.994  1.00  0.00    -0.213 N  
HETATM    6  C   UNL     1     -10.625   7.556  67.011  1.00  0.00    -0.409 C  
HETATM    7  O   UNL     1      -8.459   7.572  66.005  1.00  0.00    -0.134 OA 
HETATM    8  H   UNL     1      -8.689   9.924  65.547  1.00  0.00     0.000 HD 
HETATM    9  C   UNL     1      -9.462   8.212  66.314  1.00  0.00    -0.190 C  
ENDBRANCH   4   5
BRANCH   4  10
HETATM   10  C   UNL     1     -10.601  11.055  67.637  1.00  0.00    -0.217 C  
HETATM   11  O   UNL     1      -9.560  11.099  68.289  1.00  0.00    -0.171 OA 
HETATM   12  H   UNL     1     -12.665  11.264  67.611  1.00  0.00     0.000 HD 
HETATM   13  N   UNL     1     -11.825  11.395  68.173  1.00  0.00    -0.266 N  
BRANCH  13  14
HETATM   14  C   UNL     1     -11.950  11.931  69.508  1.00  0.00    -0.292 C  
BRANCH  14  15
HETATM   15  C   UNL     1     -11.925  13.437  69.502  1.00  0.00    -0.377 A  
HETATM   16  C   UNL     1     -12.344  14.173  70.620  1.00  0.00    -0.435 A  
HETATM   17  C   UNL     1     -12.304  15.570  70.603  1.00  0.00    -0.462 A  
HETATM   18  C   UNL     1     -11.853  16.243  69.469  1.00  0.00    -0.009 A  
HETATM   19  C   UNL     1     -11.447  15.522  68.347  1.00  0.00    -0.370 A  
HETATM   20  C   UNL     1     -11.487  14.128  68.362  1.00  0.00    -0.334 A  
ENDBRANCH  14  15
ENDBRANCH  13  14
ENDBRANCH   4  10
ENDBRANCH   3   4
ENDBRANCH   2   3
TORSDOF 6
ENDMDL
MODEL      165
REMARK 921   NORMALIZED FREE ENERGY PREDICTED BY IDOCK:   -3.64 KCAL/MOL
REMARK 922        TOTAL FREE ENERGY PREDICTED BY IDOCK:   -5.33 KCAL/MOL
REMARK 923 INTER-LIGAND FREE ENERGY PREDICTED BY IDOCK:   -4.77 KCAL/MOL
REMARK 924 INTRA-LIGAND FREE ENERGY PREDICTED BY IDOCK:   -0.56 KCAL/MOL
REMARK 927      BINDING AFFINITY PREDICTED BY RF-SCORE:    0.00 PKD
ROOT
HETATM    1  C   UNL     1     -12.108  14.069  69.132  1.00  0.00    -0.337 C  
HETATM    2  O   UNL     1     -11.771  15.367  68.662  1.00  0.00    -0.353 OA 
ENDROOT
BRANCH   2   3
HETATM    3  C   UNL     1     -11.257  15.336  67.327  1.00  0.00    -0.306 C  
BRANCH   3   4
HETATM    4  C   UNL     1      -9.907  16.062  67.289  1.00  0.00    -0.236 C  
BRANCH   4   5
HETATM    5  N   UNL     1      -9.911  17.250  68.161  1.00  0.00    -0.277 N  
HETATM    6  C   UNL     1     -10.498  18.888  66.387  1.00  0.00    -0.505 C  
HETATM    7  O   UNL     1     -10.186  19.398  68.699  1.00  0.00    -0.421 OA 
HETATM    8  H   UNL     1      -9.680  17.087  69.141  1.00  0.00     0.000 HD 
HETATM    9  C   UNL     1     -10.184  18.540  67.817  1.00  0.00    -0.382 C  
ENDBRANCH   4   5
BRANCH   4  10
HETATM   10  C   UNL     1      -8.817  15.064  67.711  1.00  0.00    -0.171 C  
HETATM   11  O   UNL     1      -7.821  15.426  68.333  1.00  0.00    -0.123 OA 
HETATM   12  H   UNL     1      -9.773  13.556  66.654  1.00  0.00     0.000 HD 
HETATM   13  N   UNL     1      -8.964  13.779  67.232  1.00  0.00    -0.214 N  
BRANCH  13  14
HETATM   14  C   UNL     1      -8.004  12.742  67.527  1.00  0.00    -0.177 C  
BRANCH  14  15
HETATM   15  C   UNL     1      -8.447  11.410  66.982  1.00  0.00    -0.159 A  
HETATM   16  C   UNL     1      -7.740  10.235  67.276  1.00  0.00    -0.095 A  
HETATM   17  C   UNL     1      -8.171   9.005  66.773  1.00  0.00    -0.115 A  
HETATM   18  C   UNL     1      -9.305   8.938  65.965  1.00  0.00    -0.306 A  
HETATM   19  C   UNL     1     -10.008  10.101  65.655  1.00  0.00    -0.348 A  
HETATM   20  C   UNL     1      -9.579  11.330  66.157  1.00  0.00    -0.241 A  
ENDBRANCH  14  15
ENDBRANCH  13  14
ENDBRANCH   4  10
ENDBRANCH   3   4
ENDBRANCH   2   3
TORSDOF 6
ENDMDL
MODEL      166
REMARK 921   NORMALIZED FREE ENERGY PREDICTED BY IDOCK:   -3.63 KCAL/MOL
REMARK 922        TOTAL FREE ENERGY PREDICTED BY IDOCK:   -5.31 KCAL/MOL
REMARK 923 INTER-LIGAND FREE ENERGY PREDICTED BY IDOCK:   -4.73 KCAL/MOL
REMARK 924 INTRA-LIGAND FREE ENERGY PREDICTED BY IDOCK:   -0.57 KCAL/MOL
REMARK 927      BINDING AFFINITY PREDICTED BY RF-SCORE:    0.00 PKD
ROOT
HETATM    1  C   UNL     1     -11.228   6.020  68.757  1.00  0.00    -0.132 C  
HETATM    2  O   UNL     1     -10.940   6.597  67.490  1.00  0.00    -0.309 OA 
ENDROOT
BRANCH   2   3
HETATM    3  C   UNL     1      -9.545   6.879  67.336  1.00  0.00    -0.136 C  
BRANCH   3   4
HETATM    4  C   UNL     1      -9.235   8.243  67.965  1.00  0.00    -0.136 C  
BRANCH   4   5
HETATM    5  N   UNL     1      -8.206   8.131  69.014  1.00  0.00    -0.125 N  
HETATM    6  C   UNL     1      -9.618   8.985  70.872  1.00  0.00    -0.328 C  
HETATM    7  O   UNL     1      -7.364   8.226  71.078  1.00  0.00    -0.054 OA 
HETATM    8  H   UNL     1      -7.296   7.785  68.712  1.00  0.00     0.000 HD 
HETATM    9  C   UNL     1      -8.324   8.433  70.337  1.00  0.00    -0.121 C  
ENDBRANCH   4   5
BRANCH   4  10
HETATM   10  C   UNL     1      -8.788   9.195  66.844  1.00  0.00    -0.123 C  
HETATM   11  O   UNL     1      -7.676   9.718  66.851  1.00  0.00    -0.098 OA 
HETATM   12  H   UNL     1     -10.685   9.117  66.005  1.00  0.00     0.000 HD 
HETATM   13  N   UNL     1      -9.754   9.522  65.916  1.00  0.00    -0.265 N  
BRANCH  13  14
HETATM   14  C   UNL     1      -9.484  10.424  64.821  1.00  0.00    -0.273 C  
BRANCH  14  15
HETATM   15  C   UNL     1     -10.461  11.570  64.797  1.00  0.00    -0.354 A  
HETATM   16  C   UNL     1     -11.046  11.997  63.595  1.00  0.00    -0.525 A  
HETATM   17  C   UNL     1     -11.960  13.054  63.591  1.00  0.00    -0.608 A  
HETATM   18  C   UNL     1     -12.292  13.697  64.783  1.00  0.00    -0.429 A  
HETATM   19  C   UNL     1     -11.706  13.290  65.979  1.00  0.00    -0.408 A  
HETATM   20  C   UNL     1     -10.793  12.235  65.986  1.00  0.00    -0.310 A  
ENDBRANCH  14  15
ENDBRANCH  13  14
ENDBRANCH   4  10
ENDBRANCH   3   4
ENDBRANCH   2   3
TORSDOF 6
ENDMDL
MODEL      167
REMARK 921   NORMALIZED FREE ENERGY PREDICTED BY IDOCK:   -3.59 KCAL/MOL
REMARK 922        TOTAL FREE ENERGY PREDICTED BY IDOCK:   -5.26 KCAL/MOL
REMARK 923 INTER-LIGAND FREE ENERGY PREDICTED BY IDOCK:   -4.69 KCAL/MOL
REMARK 924 INTRA-LIGAND FREE ENERGY PREDICTED BY IDOCK:   -0.57 KCAL/MOL
REMARK 927      BINDING AFFINITY PREDICTED BY RF-SCORE:    0.00 PKD
ROOT
HETATM    1  C   UNL     1      -6.191  10.093  64.863  1.00  0.00    -0.125 C  
HETATM    2  O   UNL     1      -7.100   9.084  64.445  1.00  0.00    -0.088 OA 
ENDROOT
BRANCH   2   3
HETATM    3  C   UNL     1      -7.562   8.293  65.545  1.00  0.00    -0.087 C  
BRANCH   3   4
HETATM    4  C   UNL     1      -8.816   8.943  66.141  1.00  0.00    -0.161 C  
BRANCH   4   5
HETATM    5  N   UNL     1      -9.678   9.513  65.090  1.00  0.00    -0.448 N  
HETATM    6  C   UNL     1      -9.673  11.838  65.966  1.00  0.00    -0.254 C  
HETATM    7  O   UNL     1     -10.767  11.108  63.972  1.00  0.00    -0.368 OA 
HETATM    8  H   UNL     1     -10.012   8.859  64.382  1.00  0.00     0.000 HD 
HETATM    9  C   UNL     1     -10.083  10.806  64.949  1.00  0.00    -0.322 C  
ENDBRANCH   4   5
BRANCH   4  10
HETATM   10  C   UNL     1      -9.564   7.877  66.958  1.00  0.00    -0.192 C  
HETATM   11  O   UNL     1     -10.734   7.588  66.719  1.00  0.00    -0.319 OA 
HETATM   12  H   UNL     1      -7.943   7.709  68.242  1.00  0.00     0.000 HD 
HETATM   13  N   UNL     1      -8.885   7.373  68.047  1.00  0.00    -0.127 N  
BRANCH  13  14
HETATM   14  C   UNL     1      -9.472   6.383  68.920  1.00  0.00    -0.128 C  
BRANCH  14  15
HETATM   15  C   UNL     1     -10.290   7.025  70.010  1.00  0.00    -0.217 A  
HETATM   16  C   UNL     1     -11.605   6.611  70.267  1.00  0.00    -0.454 A  
HETATM   17  C   UNL     1     -12.346   7.208  71.290  1.00  0.00    -0.418 A  
HETATM   18  C   UNL     1     -11.785   8.227  72.058  1.00  0.00    -0.407 A  
HETATM   19  C   UNL     1     -10.484   8.655  71.802  1.00  0.00    -0.394 A  
HETATM   20  C   UNL     1      -9.742   8.061  70.781  1.00  0.00    -0.179 A  
ENDBRANCH  14  15
ENDBRANCH  13  14
ENDBRANCH   4  10
ENDBRANCH   3   4
ENDBRANCH   2   3
TORSDOF 6
ENDMDL
MODEL      168
REMARK 921   NORMALIZED FREE ENERGY PREDICTED BY IDOCK:   -3.54 KCAL/MOL
REMARK 922        TOTAL FREE ENERGY PREDICTED BY IDOCK:   -5.19 KCAL/MOL
REMARK 923 INTER-LIGAND FREE ENERGY PREDICTED BY IDOCK:   -4.63 KCAL/MOL
REMARK 924 INTRA-LIGAND FREE ENERGY PREDICTED BY IDOCK:   -0.56 KCAL/MOL
REMARK 927      BINDING AFFINITY PREDICTED BY RF-SCORE:    0.00 PKD
ROOT
HETATM    1  C   UNL     1     -10.125  11.152  68.408  1.00  0.00    -0.184 C  
HETATM    2  O   UNL     1      -9.199  10.244  67.827  1.00  0.00    -0.140 OA 
ENDROOT
BRANCH   2   3
HETATM    3  C   UNL     1      -9.844   9.300  66.967  1.00  0.00    -0.198 C  
BRANCH   3   4
HETATM    4  C   UNL     1      -8.880   8.901  65.843  1.00  0.00    -0.179 C  
BRANCH   4   5
HETATM    5  N   UNL     1      -9.052   7.488  65.461  1.00  0.00    -0.380 N  
HETATM    6  C   UNL     1      -6.684   6.822  65.809  1.00  0.00    -0.052 C  
HETATM    7  O   UNL     1      -8.452   5.363  65.141  1.00  0.00    -0.141 OA 
HETATM    8  H   UNL     1      -9.992   7.213  65.177  1.00  0.00     0.000 HD 
HETATM    9  C   UNL     1      -8.109   6.505  65.442  1.00  0.00    -0.129 C  
ENDBRANCH   4   5
BRANCH   4  10
HETATM   10  C   UNL     1      -9.126   9.836  64.648  1.00  0.00    -0.245 C  
HETATM   11  O   UNL     1      -8.263  10.031  63.796  1.00  0.00    -0.146 OA 
HETATM   12  H   UNL     1     -10.962  10.388  65.444  1.00  0.00     0.000 HD 
HETATM   13  N   UNL     1     -10.316  10.533  64.669  1.00  0.00    -0.303 N  
BRANCH  13  14
HETATM   14  C   UNL     1     -10.672  11.465  63.625  1.00  0.00    -0.401 C  
BRANCH  14  15
HETATM   15  C   UNL     1     -10.877  12.853  64.171  1.00  0.00    -0.445 A  
HETATM   16  C   UNL     1     -11.975  13.632  63.776  1.00  0.00    -0.425 A  
HETATM   17  C   UNL     1     -12.159  14.913  64.301  1.00  0.00    -0.373 A  
HETATM   18  C   UNL     1     -11.245  15.431  65.218  1.00  0.00    -0.313 A  
HETATM   19  C   UNL     1     -10.143  14.672  65.606  1.00  0.00    -0.389 A  
HETATM   20  C   UNL     1      -9.958  13.392  65.083  1.00  0.00    -0.190 A  
ENDBRANCH  14  15
ENDBRANCH  13  14
ENDBRANCH   4  10
ENDBRANCH   3   4
ENDBRANCH   2   3
TORSDOF 6
ENDMDL
MODEL      169
REMARK 921   NORMALIZED FREE ENERGY PREDICTED BY IDOCK:   -3.52 KCAL/MOL
REMARK 922        TOTAL FREE ENERGY PREDICTED BY IDOCK:   -5.16 KCAL/MOL
REMARK 923 INTER-LIGAND FREE ENERGY PREDICTED BY IDOCK:   -5.49 KCAL/MOL
REMARK 924 INTRA-LIGAND FREE ENERGY PREDICTED BY IDOCK:    0.33 KCAL/MOL
REMARK 927      BINDING AFFINITY PREDICTED BY RF-SCORE:    0.00 PKD
ROOT
HETATM    1  C   UNL     1      -6.528  10.705  67.061  1.00  0.00    -0.079 C  
HETATM    2  O   UNL     1      -7.346  11.433  67.967  1.00  0.00    -0.083 OA 
ENDROOT
BRANCH   2   3
HETATM    3  C   UNL     1      -8.734  11.334  67.631  1.00  0.00    -0.131 C  
BRANCH   3   4
HETATM    4  C   UNL     1      -9.104  12.478  66.680  1.00  0.00    -0.203 C  
BRANCH   4   5
HETATM    5  N   UNL     1      -9.339  11.986  65.310  1.00  0.00    -0.433 N  
HETATM    6  C   UNL     1     -10.249   9.770  65.970  1.00  0.00    -0.263 C  
HETATM    7  O   UNL     1     -10.033  10.572  63.731  1.00  0.00    -0.323 OA 
HETATM    8  H   UNL     1      -9.075  12.620  64.556  1.00  0.00     0.000 HD 
HETATM    9  C   UNL     1      -9.865  10.788  64.930  1.00  0.00    -0.292 C  
ENDBRANCH   4   5
BRANCH   4  10
HETATM   10  C   UNL     1     -10.350  13.182  67.241  1.00  0.00    -0.243 C  
HETATM   11  O   UNL     1     -11.192  13.686  66.501  1.00  0.00    -0.302 OA 
HETATM   12  H   UNL     1      -9.623  12.953  69.171  1.00  0.00     0.000 HD 
HETATM   13  N   UNL     1     -10.390  13.324  68.612  1.00  0.00    -0.227 N  
BRANCH  13  14
HETATM   14  C   UNL     1     -11.488  13.986  69.277  1.00  0.00    -0.295 C  
BRANCH  14  15
HETATM   15  C   UNL     1     -12.157  13.075  70.273  1.00  0.00    -0.388 A  
HETATM   16  C   UNL     1     -12.863  13.595  71.369  1.00  0.00    -0.442 A  
HETATM   17  C   UNL     1     -13.488  12.737  72.278  1.00  0.00    -0.591 A  
HETATM   18  C   UNL     1     -13.408  11.356  72.106  1.00  0.00    -0.271 A  
HETATM   19  C   UNL     1     -12.697  10.829  71.030  1.00  0.00    -0.513 A  
HETATM   20  C   UNL     1     -12.072  11.684  70.121  1.00  0.00    -0.414 A  
ENDBRANCH  14  15
ENDBRANCH  13  14
ENDBRANCH   4  10
ENDBRANCH   3   4
ENDBRANCH   2   3
TORSDOF 6
ENDMDL
MODEL      170
REMARK 921   NORMALIZED FREE ENERGY PREDICTED BY IDOCK:   -3.52 KCAL/MOL
REMARK 922        TOTAL FREE ENERGY PREDICTED BY IDOCK:   -5.16 KCAL/MOL
REMARK 923 INTER-LIGAND FREE ENERGY PREDICTED BY IDOCK:   -4.57 KCAL/MOL
REMARK 924 INTRA-LIGAND FREE ENERGY PREDICTED BY IDOCK:   -0.59 KCAL/MOL
REMARK 927      BINDING AFFINITY PREDICTED BY RF-SCORE:    0.00 PKD
ROOT
HETATM    1  C   UNL     1      -9.555  11.241  68.318  1.00  0.00    -0.193 C  
HETATM    2  O   UNL     1      -8.872  10.693  67.199  1.00  0.00    -0.136 OA 
ENDROOT
BRANCH   2   3
HETATM    3  C   UNL     1      -9.780  10.202  66.207  1.00  0.00    -0.218 C  
BRANCH   3   4
HETATM    4  C   UNL     1      -9.246  10.560  64.815  1.00  0.00    -0.227 C  
BRANCH   4   5
HETATM    5  N   UNL     1      -9.251   9.389  63.919  1.00  0.00    -0.415 N  
HETATM    6  C   UNL     1      -7.080   9.883  62.814  1.00  0.00    -0.121 C  
HETATM    7  O   UNL     1      -8.455   7.978  62.385  1.00  0.00    -0.157 OA 
HETATM    8  H   UNL     1     -10.064   8.778  63.986  1.00  0.00     0.000 HD 
HETATM    9  C   UNL     1      -8.301   9.024  63.013  1.00  0.00    -0.197 C  
ENDBRANCH   4   5
BRANCH   4  10
HETATM   10  C   UNL     1     -10.110  11.698  64.249  1.00  0.00    -0.287 C  
HETATM   11  O   UNL     1      -9.940  12.129  63.111  1.00  0.00    -0.393 OA 
HETATM   12  H   UNL     1     -11.027  11.934  66.096  1.00  0.00     0.000 HD 
HETATM   13  N   UNL     1     -10.985  12.284  65.139  1.00  0.00    -0.294 N  
BRANCH  13  14
HETATM   14  C   UNL     1     -11.842  13.381  64.755  1.00  0.00    -0.380 C  
BRANCH  14  15
HETATM   15  C   UNL     1     -11.324  14.695  65.277  1.00  0.00    -0.354 A  
HETATM   16  C   UNL     1     -11.427  15.868  64.514  1.00  0.00    -0.287 A  
HETATM   17  C   UNL     1     -10.952  17.082  65.018  1.00  0.00     0.010 A  
HETATM   18  C   UNL     1     -10.364  17.134  66.281  1.00  0.00    -0.315 A  
HETATM   19  C   UNL     1     -10.244  15.972  67.040  1.00  0.00    -0.282 A  
HETATM   20  C   UNL     1     -10.718  14.759  66.540  1.00  0.00    -0.319 A  
ENDBRANCH  14  15
ENDBRANCH  13  14
ENDBRANCH   4  10
ENDBRANCH   3   4
ENDBRANCH   2   3
TORSDOF 6
ENDMDL
MODEL      171
REMARK 921   NORMALIZED FREE ENERGY PREDICTED BY IDOCK:   -3.51 KCAL/MOL
REMARK 922        TOTAL FREE ENERGY PREDICTED BY IDOCK:   -5.15 KCAL/MOL
REMARK 923 INTER-LIGAND FREE ENERGY PREDICTED BY IDOCK:   -4.64 KCAL/MOL
REMARK 924 INTRA-LIGAND FREE ENERGY PREDICTED BY IDOCK:   -0.50 KCAL/MOL
REMARK 927      BINDING AFFINITY PREDICTED BY RF-SCORE:    0.00 PKD
ROOT
HETATM    1  C   UNL     1     -11.796  12.184  68.809  1.00  0.00    -0.303 C  
HETATM    2  O   UNL     1     -12.091  12.536  67.464  1.00  0.00    -0.453 OA 
ENDROOT
BRANCH   2   3
HETATM    3  C   UNL     1     -11.146  11.978  66.546  1.00  0.00    -0.314 C  
BRANCH   3   4
HETATM    4  C   UNL     1      -9.774  12.619  66.784  1.00  0.00    -0.240 C  
BRANCH   4   5
HETATM    5  N   UNL     1      -8.686  11.777  66.254  1.00  0.00    -0.334 N  
HETATM    6  C   UNL     1      -8.329  10.458  68.330  1.00  0.00    -0.119 C  
HETATM    7  O   UNL     1      -7.161  10.148  66.269  1.00  0.00    -0.100 OA 
HETATM    8  H   UNL     1      -8.405  11.963  65.292  1.00  0.00     0.000 HD 
HETATM    9  C   UNL     1      -8.011  10.781  66.894  1.00  0.00    -0.133 C  
ENDBRANCH   4   5
BRANCH   4  10
HETATM   10  C   UNL     1      -9.774  14.008  66.125  1.00  0.00    -0.280 C  
HETATM   11  O   UNL     1     -10.238  14.186  65.001  1.00  0.00    -0.394 OA 
HETATM   12  H   UNL     1      -8.675  14.773  67.710  1.00  0.00     0.000 HD 
HETATM   13  N   UNL     1      -9.108  14.998  66.815  1.00  0.00    -0.245 N  
BRANCH  13  14
HETATM   14  C   UNL     1      -9.007  16.346  66.306  1.00  0.00    -0.333 C  
BRANCH  14  15
HETATM   15  C   UNL     1      -8.097  17.190  67.160  1.00  0.00    -0.215 A  
HETATM   16  C   UNL     1      -7.554  16.690  68.353  1.00  0.00    -0.197 A  
HETATM   17  C   UNL     1      -6.701  17.482  69.127  1.00  0.00    -0.243 A  
HETATM   18  C   UNL     1      -6.391  18.779  68.722  1.00  0.00    -0.252 A  
HETATM   19  C   UNL     1      -6.936  19.290  67.547  1.00  0.00    -0.229 A  
HETATM   20  C   UNL     1      -7.787  18.502  66.772  1.00  0.00    -0.257 A  
ENDBRANCH  14  15
ENDBRANCH  13  14
ENDBRANCH   4  10
ENDBRANCH   3   4
ENDBRANCH   2   3
TORSDOF 6
ENDMDL
MODEL      172
REMARK 921   NORMALIZED FREE ENERGY PREDICTED BY IDOCK:   -3.50 KCAL/MOL
REMARK 922        TOTAL FREE ENERGY PREDICTED BY IDOCK:   -5.13 KCAL/MOL
REMARK 923 INTER-LIGAND FREE ENERGY PREDICTED BY IDOCK:   -4.63 KCAL/MOL
REMARK 924 INTRA-LIGAND FREE ENERGY PREDICTED BY IDOCK:   -0.50 KCAL/MOL
REMARK 927      BINDING AFFINITY PREDICTED BY RF-SCORE:    0.00 PKD
ROOT
HETATM    1  C   UNL     1     -10.781  19.665  66.788  1.00  0.00    -0.447 C  
HETATM    2  O   UNL     1     -10.887  18.441  67.502  1.00  0.00    -0.408 OA 
ENDROOT
BRANCH   2   3
HETATM    3  C   UNL     1      -9.619  18.002  68.000  1.00  0.00    -0.295 C  
BRANCH   3   4
HETATM    4  C   UNL     1      -9.792  16.644  68.691  1.00  0.00    -0.252 C  
BRANCH   4   5
HETATM    5  N   UNL     1     -11.216  16.305  68.861  1.00  0.00    -0.343 N  
HETATM    6  C   UNL     1     -11.065  15.698  71.266  1.00  0.00    -0.315 C  
HETATM    7  O   UNL     1     -13.063  15.701  69.958  1.00  0.00    -0.129 OA 
HETATM    8  H   UNL     1     -11.799  16.390  68.029  1.00  0.00     0.000 HD 
HETATM    9  C   UNL     1     -11.848  15.891  69.995  1.00  0.00    -0.311 C  
ENDBRANCH   4   5
BRANCH   4  10
HETATM   10  C   UNL     1      -9.063  15.584  67.850  1.00  0.00    -0.175 C  
HETATM   11  O   UNL     1      -8.502  15.874  66.796  1.00  0.00    -0.210 OA 
HETATM   12  H   UNL     1      -9.741  14.092  69.123  1.00  0.00     0.000 HD 
HETATM   13  N   UNL     1      -9.196  14.282  68.283  1.00  0.00    -0.192 N  
BRANCH  13  14
HETATM   14  C   UNL     1      -8.586  13.178  67.578  1.00  0.00    -0.196 C  
BRANCH  14  15
HETATM   15  C   UNL     1      -9.262  11.873  67.907  1.00  0.00    -0.187 A  
HETATM   16  C   UNL     1     -10.547  11.583  67.425  1.00  0.00    -0.252 A  
HETATM   17  C   UNL     1     -11.157  10.363  67.728  1.00  0.00    -0.365 A  
HETATM   18  C   UNL     1     -10.493   9.427  68.520  1.00  0.00    -0.239 A  
HETATM   19  C   UNL     1      -9.223   9.711  69.015  1.00  0.00    -0.156 A  
HETATM   20  C   UNL     1      -8.612  10.928  68.714  1.00  0.00    -0.159 A  
ENDBRANCH  14  15
ENDBRANCH  13  14
ENDBRANCH   4  10
ENDBRANCH   3   4
ENDBRANCH   2   3
TORSDOF 6
ENDMDL
MODEL      173
REMARK 921   NORMALIZED FREE ENERGY PREDICTED BY IDOCK:   -3.49 KCAL/MOL
REMARK 922        TOTAL FREE ENERGY PREDICTED BY IDOCK:   -5.12 KCAL/MOL
REMARK 923 INTER-LIGAND FREE ENERGY PREDICTED BY IDOCK:   -4.64 KCAL/MOL
REMARK 924 INTRA-LIGAND FREE ENERGY PREDICTED BY IDOCK:   -0.48 KCAL/MOL
REMARK 927      BINDING AFFINITY PREDICTED BY RF-SCORE:    0.00 PKD
ROOT
HETATM    1  C   UNL     1     -10.722  14.240  65.318  1.00  0.00    -0.366 C  
HETATM    2  O   UNL     1     -11.105  12.975  65.839  1.00  0.00    -0.276 OA 
ENDROOT
BRANCH   2   3
HETATM    3  C   UNL     1     -10.307  12.597  66.965  1.00  0.00    -0.232 C  
BRANCH   3   4
HETATM    4  C   UNL     1     -10.694  11.179  67.403  1.00  0.00    -0.250 C  
BRANCH   4   5
HETATM    5  N   UNL     1      -9.505  10.324  67.568  1.00  0.00    -0.151 N  
HETATM    6  C   UNL     1      -9.314   9.658  65.182  1.00  0.00    -0.322 C  
HETATM    7  O   UNL     1      -7.823   9.005  66.929  1.00  0.00    -0.100 OA 
HETATM    8  H   UNL     1      -9.142  10.242  68.518  1.00  0.00     0.000 HD 
HETATM    9  C   UNL     1      -8.832   9.630  66.608  1.00  0.00    -0.138 C  
ENDBRANCH   4   5
BRANCH   4  10
HETATM   10  C   UNL     1     -11.492  11.284  68.712  1.00  0.00    -0.293 C  
HETATM   11  O   UNL     1     -12.459  12.035  68.817  1.00  0.00    -0.085 OA 
HETATM   12  H   UNL     1     -10.124  10.043  69.658  1.00  0.00     0.000 HD 
HETATM   13  N   UNL     1     -10.975  10.589  69.785  1.00  0.00    -0.276 N  
BRANCH  13  14
HETATM   14  C   UNL     1     -11.606  10.614  71.084  1.00  0.00    -0.036 C  
BRANCH  14  15
HETATM   15  C   UNL     1     -12.425   9.372  71.322  1.00  0.00    -0.416 A  
HETATM   16  C   UNL     1     -12.017   8.128  70.818  1.00  0.00    -0.120 A  
HETATM   17  C   UNL     1     -12.782   6.983  71.058  1.00  0.00    -0.300 A  
HETATM   18  C   UNL     1     -13.962   7.072  71.795  1.00  0.00    -0.342 A  
HETATM   19  C   UNL     1     -14.383   8.305  72.288  1.00  0.00    -0.432 A  
HETATM   20  C   UNL     1     -13.622   9.449  72.050  1.00  0.00    -0.505 A  
ENDBRANCH  14  15
ENDBRANCH  13  14
ENDBRANCH   4  10
ENDBRANCH   3   4
ENDBRANCH   2   3
TORSDOF 6
ENDMDL
MODEL      174
REMARK 921   NORMALIZED FREE ENERGY PREDICTED BY IDOCK:   -3.48 KCAL/MOL
REMARK 922        TOTAL FREE ENERGY PREDICTED BY IDOCK:   -5.11 KCAL/MOL
REMARK 923 INTER-LIGAND FREE ENERGY PREDICTED BY IDOCK:   -4.61 KCAL/MOL
REMARK 924 INTRA-LIGAND FREE ENERGY PREDICTED BY IDOCK:   -0.50 KCAL/MOL
REMARK 927      BINDING AFFINITY PREDICTED BY RF-SCORE:    0.00 PKD
ROOT
HETATM    1  C   UNL     1     -11.506  13.960  66.978  1.00  0.00    -0.346 C  
HETATM    2  O   UNL     1     -10.590  12.910  67.255  1.00  0.00    -0.232 OA 
ENDROOT
BRANCH   2   3
HETATM    3  C   UNL     1     -10.961  11.692  66.601  1.00  0.00    -0.299 C  
BRANCH   3   4
HETATM    4  C   UNL     1     -10.039  10.564  67.079  1.00  0.00    -0.213 C  
BRANCH   4   5
HETATM    5  N   UNL     1      -8.661  10.751  66.589  1.00  0.00    -0.143 N  
HETATM    6  C   UNL     1      -8.918   9.390  64.526  1.00  0.00    -0.227 C  
HETATM    7  O   UNL     1      -6.945  10.569  65.176  1.00  0.00    -0.113 OA 
HETATM    8  H   UNL     1      -8.050  11.314  67.180  1.00  0.00     0.000 HD 
HETATM    9  C   UNL     1      -8.105  10.264  65.445  1.00  0.00    -0.147 C  
ENDBRANCH   4   5
BRANCH   4  10
HETATM   10  C   UNL     1     -10.085  10.527  68.614  1.00  0.00    -0.180 C  
HETATM   11  O   UNL     1      -9.074  10.696  69.292  1.00  0.00    -0.175 OA 
HETATM   12  H   UNL     1     -12.080   9.958  68.552  1.00  0.00     0.000 HD 
HETATM   13  N   UNL     1     -11.294  10.162  69.168  1.00  0.00    -0.185 N  
BRANCH  13  14
HETATM   14  C   UNL     1     -11.479  10.062  70.597  1.00  0.00    -0.345 C  
BRANCH  14  15
HETATM   15  C   UNL     1     -11.351   8.638  71.071  1.00  0.00    -0.322 A  
HETATM   16  C   UNL     1     -11.206   8.338  72.433  1.00  0.00    -0.451 A  
HETATM   17  C   UNL     1     -11.100   7.012  72.858  1.00  0.00    -0.314 A  
HETATM   18  C   UNL     1     -11.130   5.974  71.927  1.00  0.00    -0.331 A  
HETATM   19  C   UNL     1     -11.259   6.261  70.570  1.00  0.00    -0.420 A  
HETATM   20  C   UNL     1     -11.365   7.586  70.144  1.00  0.00    -0.170 A  
ENDBRANCH  14  15
ENDBRANCH  13  14
ENDBRANCH   4  10
ENDBRANCH   3   4
ENDBRANCH   2   3
TORSDOF 6
ENDMDL
MODEL      175
REMARK 921   NORMALIZED FREE ENERGY PREDICTED BY IDOCK:   -3.48 KCAL/MOL
REMARK 922        TOTAL FREE ENERGY PREDICTED BY IDOCK:   -5.11 KCAL/MOL
REMARK 923 INTER-LIGAND FREE ENERGY PREDICTED BY IDOCK:   -4.70 KCAL/MOL
REMARK 924 INTRA-LIGAND FREE ENERGY PREDICTED BY IDOCK:   -0.41 KCAL/MOL
REMARK 927      BINDING AFFINITY PREDICTED BY RF-SCORE:    0.00 PKD
ROOT
HETATM    1  C   UNL     1     -11.876  13.934  69.149  1.00  0.00    -0.358 C  
HETATM    2  O   UNL     1     -11.127  12.731  69.058  1.00  0.00    -0.251 OA 
ENDROOT
BRANCH   2   3
HETATM    3  C   UNL     1     -11.968  11.591  68.850  1.00  0.00    -0.299 C  
BRANCH   3   4
HETATM    4  C   UNL     1     -11.092  10.344  68.681  1.00  0.00    -0.262 C  
BRANCH   4   5
HETATM    5  N   UNL     1      -9.882  10.638  67.892  1.00  0.00    -0.159 N  
HETATM    6  C   UNL     1      -9.825   8.477  66.667  1.00  0.00    -0.342 C  
HETATM    7  O   UNL     1      -8.294  10.285  66.365  1.00  0.00    -0.126 OA 
HETATM    8  H   UNL     1      -9.446  11.543  68.064  1.00  0.00     0.000 HD 
HETATM    9  C   UNL     1      -9.276   9.847  66.963  1.00  0.00    -0.142 C  
ENDBRANCH   4   5
BRANCH   4  10
HETATM   10  C   UNL     1     -10.733   9.820  70.080  1.00  0.00    -0.283 C  
HETATM   11  O   UNL     1      -9.576   9.837  70.495  1.00  0.00    -0.239 OA 
HETATM   12  H   UNL     1     -12.682   9.159  70.345  1.00  0.00     0.000 HD 
HETATM   13  N   UNL     1     -11.759   9.214  70.774  1.00  0.00    -0.277 N  
BRANCH  13  14
HETATM   14  C   UNL     1     -11.562   8.654  72.090  1.00  0.00    -0.370 C  
BRANCH  14  15
HETATM   15  C   UNL     1     -11.089   7.226  72.017  1.00  0.00    -0.277 A  
HETATM   16  C   UNL     1     -11.055   6.536  70.795  1.00  0.00    -0.354 A  
HETATM   17  C   UNL     1     -10.602   5.216  70.741  1.00  0.00    -0.205 A  
HETATM   18  C   UNL     1     -10.186   4.570  71.905  1.00  0.00    -0.241 A  
HETATM   19  C   UNL     1     -10.228   5.241  73.125  1.00  0.00    -0.213 A  
HETATM   20  C   UNL     1     -10.681   6.560  73.181  1.00  0.00    -0.297 A  
ENDBRANCH  14  15
ENDBRANCH  13  14
ENDBRANCH   4  10
ENDBRANCH   3   4
ENDBRANCH   2   3
TORSDOF 6
ENDMDL
MODEL      176
REMARK 921   NORMALIZED FREE ENERGY PREDICTED BY IDOCK:   -3.47 KCAL/MOL
REMARK 922        TOTAL FREE ENERGY PREDICTED BY IDOCK:   -5.09 KCAL/MOL
REMARK 923 INTER-LIGAND FREE ENERGY PREDICTED BY IDOCK:   -4.62 KCAL/MOL
REMARK 924 INTRA-LIGAND FREE ENERGY PREDICTED BY IDOCK:   -0.47 KCAL/MOL
REMARK 927      BINDING AFFINITY PREDICTED BY RF-SCORE:    0.00 PKD
ROOT
HETATM    1  C   UNL     1      -9.592   5.220  68.322  1.00  0.00    -0.130 C  
HETATM    2  O   UNL     1     -10.657   6.149  68.463  1.00  0.00    -0.212 OA 
ENDROOT
BRANCH   2   3
HETATM    3  C   UNL     1     -11.051   6.306  69.831  1.00  0.00    -0.401 C  
BRANCH   3   4
HETATM    4  C   UNL     1     -11.490   7.756  70.064  1.00  0.00     0.036 C  
BRANCH   4   5
HETATM    5  N   UNL     1     -11.999   7.951  71.434  1.00  0.00    -0.297 N  
HETATM    6  C   UNL     1     -13.270  10.032  70.959  1.00  0.00    -0.399 C  
HETATM    7  O   UNL     1     -13.176   8.913  73.067  1.00  0.00    -0.312 OA 
HETATM    8  H   UNL     1     -11.704   7.258  72.123  1.00  0.00     0.000 HD 
HETATM    9  C   UNL     1     -12.813   8.942  71.892  1.00  0.00    -0.380 C  
ENDBRANCH   4   5
BRANCH   4  10
HETATM   10  C   UNL     1     -10.289   8.671  69.780  1.00  0.00    -0.212 C  
HETATM   11  O   UNL     1      -9.200   8.489  70.320  1.00  0.00    -0.151 OA 
HETATM   12  H   UNL     1     -11.493   9.915  68.636  1.00  0.00     0.000 HD 
HETATM   13  N   UNL     1     -10.549   9.773  68.994  1.00  0.00    -0.213 N  
BRANCH  13  14
HETATM   14  C   UNL     1      -9.521  10.733  68.663  1.00  0.00    -0.188 C  
BRANCH  14  15
HETATM   15  C   UNL     1     -10.102  11.956  68.004  1.00  0.00    -0.199 A  
HETATM   16  C   UNL     1     -11.275  12.552  68.489  1.00  0.00    -0.322 A  
HETATM   17  C   UNL     1     -11.795  13.694  67.874  1.00  0.00    -0.402 A  
HETATM   18  C   UNL     1     -11.153  14.246  66.766  1.00  0.00    -0.316 A  
HETATM   19  C   UNL     1      -9.995  13.654  66.267  1.00  0.00    -0.305 A  
HETATM   20  C   UNL     1      -9.474  12.514  66.880  1.00  0.00    -0.219 A  
ENDBRANCH  14  15
ENDBRANCH  13  14
ENDBRANCH   4  10
ENDBRANCH   3   4
ENDBRANCH   2   3
TORSDOF 6
ENDMDL
MODEL      177
REMARK 921   NORMALIZED FREE ENERGY PREDICTED BY IDOCK:   -3.47 KCAL/MOL
REMARK 922        TOTAL FREE ENERGY PREDICTED BY IDOCK:   -5.09 KCAL/MOL
REMARK 923 INTER-LIGAND FREE ENERGY PREDICTED BY IDOCK:   -4.64 KCAL/MOL
REMARK 924 INTRA-LIGAND FREE ENERGY PREDICTED BY IDOCK:   -0.45 KCAL/MOL
REMARK 927      BINDING AFFINITY PREDICTED BY RF-SCORE:    0.00 PKD
ROOT
HETATM    1  C   UNL     1     -11.996  11.248  68.920  1.00  0.00    -0.310 C  
HETATM    2  O   UNL     1     -11.597  10.611  67.714  1.00  0.00    -0.501 OA 
ENDROOT
BRANCH   2   3
HETATM    3  C   UNL     1     -10.305  10.006  67.831  1.00  0.00    -0.207 C  
BRANCH   3   4
HETATM    4  C   UNL     1      -9.433  10.451  66.652  1.00  0.00    -0.165 C  
BRANCH   4   5
HETATM    5  N   UNL     1     -10.254  10.911  65.517  1.00  0.00    -0.264 N  
HETATM    6  C   UNL     1      -8.592  10.385  63.747  1.00  0.00    -0.178 C  
HETATM    7  O   UNL     1     -10.778  11.274  63.379  1.00  0.00    -0.370 OA 
HETATM    8  H   UNL     1     -11.171  11.289  65.754  1.00  0.00     0.000 HD 
HETATM    9  C   UNL     1      -9.938  10.891  64.192  1.00  0.00    -0.344 C  
ENDBRANCH   4   5
BRANCH   4  10
HETATM   10  C   UNL     1      -8.492  11.561  67.145  1.00  0.00    -0.158 C  
HETATM   11  O   UNL     1      -7.272  11.412  67.158  1.00  0.00    -0.117 OA 
HETATM   12  H   UNL     1     -10.126  12.703  67.723  1.00  0.00     0.000 HD 
HETATM   13  N   UNL     1      -9.107  12.668  67.690  1.00  0.00    -0.183 N  
BRANCH  13  14
HETATM   14  C   UNL     1      -8.350  13.780  68.216  1.00  0.00    -0.161 C  
BRANCH  14  15
HETATM   15  C   UNL     1      -9.163  15.048  68.219  1.00  0.00    -0.184 A  
HETATM   16  C   UNL     1      -9.691  15.566  69.411  1.00  0.00    -0.283 A  
HETATM   17  C   UNL     1     -10.434  16.749  69.400  1.00  0.00    -0.312 A  
HETATM   18  C   UNL     1     -10.660  17.422  68.200  1.00  0.00    -0.376 A  
HETATM   19  C   UNL     1     -10.152  16.909  67.009  1.00  0.00    -0.289 A  
HETATM   20  C   UNL     1      -9.411  15.727  67.018  1.00  0.00    -0.235 A  
ENDBRANCH  14  15
ENDBRANCH  13  14
ENDBRANCH   4  10
ENDBRANCH   3   4
ENDBRANCH   2   3
TORSDOF 6
ENDMDL
MODEL      178
REMARK 921   NORMALIZED FREE ENERGY PREDICTED BY IDOCK:   -3.46 KCAL/MOL
REMARK 922        TOTAL FREE ENERGY PREDICTED BY IDOCK:   -5.07 KCAL/MOL
REMARK 923 INTER-LIGAND FREE ENERGY PREDICTED BY IDOCK:   -4.50 KCAL/MOL
REMARK 924 INTRA-LIGAND FREE ENERGY PREDICTED BY IDOCK:   -0.57 KCAL/MOL
REMARK 927      BINDING AFFINITY PREDICTED BY RF-SCORE:    0.00 PKD
ROOT
HETATM    1  C   UNL     1     -12.213  11.286  69.926  1.00  0.00    -0.288 C  
HETATM    2  O   UNL     1     -11.100  10.479  70.288  1.00  0.00    -0.298 OA 
ENDROOT
BRANCH   2   3
HETATM    3  C   UNL     1     -10.782   9.521  69.273  1.00  0.00    -0.222 C  
BRANCH   3   4
HETATM    4  C   UNL     1      -9.261   9.470  69.088  1.00  0.00    -0.163 C  
BRANCH   4   5
HETATM    5  N   UNL     1      -8.835   8.198  68.477  1.00  0.00    -0.134 N  
HETATM    6  C   UNL     1      -8.517   6.965  70.611  1.00  0.00    -0.136 C  
HETATM    7  O   UNL     1      -8.219   6.054  68.424  1.00  0.00    -0.109 OA 
HETATM    8  H   UNL     1      -8.782   8.187  67.459  1.00  0.00     0.000 HD 
HETATM    9  C   UNL     1      -8.504   7.036  69.107  1.00  0.00    -0.129 C  
ENDBRANCH   4   5
BRANCH   4  10
HETATM   10  C   UNL     1      -8.844  10.671  68.223  1.00  0.00    -0.139 C  
HETATM   11  O   UNL     1      -8.169  11.589  68.682  1.00  0.00    -0.149 OA 
HETATM   12  H   UNL     1     -10.002   9.958  66.656  1.00  0.00     0.000 HD 
HETATM   13  N   UNL     1      -9.385  10.711  66.955  1.00  0.00    -0.155 N  
BRANCH  13  14
HETATM   14  C   UNL     1      -9.100  11.791  66.040  1.00  0.00    -0.155 C  
BRANCH  14  15
HETATM   15  C   UNL     1     -10.337  12.595  65.735  1.00  0.00    -0.298 A  
HETATM   16  C   UNL     1     -10.818  12.713  64.422  1.00  0.00    -0.386 A  
HETATM   17  C   UNL     1     -11.974  13.452  64.157  1.00  0.00    -0.505 A  
HETATM   18  C   UNL     1     -12.654  14.085  65.197  1.00  0.00    -0.453 A  
HETATM   19  C   UNL     1     -12.177  13.985  66.502  1.00  0.00    -0.485 A  
HETATM   20  C   UNL     1     -11.024  13.248  66.769  1.00  0.00    -0.302 A  
ENDBRANCH  14  15
ENDBRANCH  13  14
ENDBRANCH   4  10
ENDBRANCH   3   4
ENDBRANCH   2   3
TORSDOF 6
ENDMDL
MODEL      179
REMARK 921   NORMALIZED FREE ENERGY PREDICTED BY IDOCK:   -3.45 KCAL/MOL
REMARK 922        TOTAL FREE ENERGY PREDICTED BY IDOCK:   -5.06 KCAL/MOL
REMARK 923 INTER-LIGAND FREE ENERGY PREDICTED BY IDOCK:   -4.57 KCAL/MOL
REMARK 924 INTRA-LIGAND FREE ENERGY PREDICTED BY IDOCK:   -0.50 KCAL/MOL
REMARK 927      BINDING AFFINITY PREDICTED BY RF-SCORE:    0.00 PKD
ROOT
HETATM    1  C   UNL     1      -5.846  10.082  70.623  1.00  0.00    -0.087 C  
HETATM    2  O   UNL     1      -7.263   9.986  70.675  1.00  0.00    -0.298 OA 
ENDROOT
BRANCH   2   3
HETATM    3  C   UNL     1      -7.812   9.510  69.442  1.00  0.00    -0.097 C  
BRANCH   3   4
HETATM    4  C   UNL     1      -9.103   8.736  69.731  1.00  0.00    -0.151 C  
BRANCH   4   5
HETATM    5  N   UNL     1      -9.079   8.131  71.075  1.00  0.00    -0.147 N  
HETATM    6  C   UNL     1      -9.004   5.769  70.309  1.00  0.00    -0.149 C  
HETATM    7  O   UNL     1      -8.955   6.493  72.584  1.00  0.00    -0.132 OA 
HETATM    8  H   UNL     1      -9.112   8.783  71.859  1.00  0.00     0.000 HD 
HETATM    9  C   UNL     1      -9.018   6.809  71.397  1.00  0.00    -0.142 C  
ENDBRANCH   4   5
BRANCH   4  10
HETATM   10  C   UNL     1     -10.286   9.706  69.577  1.00  0.00    -0.218 C  
HETATM   11  O   UNL     1     -11.268   9.644  70.313  1.00  0.00    -0.246 OA 
HETATM   12  H   UNL     1      -9.423  10.504  67.867  1.00  0.00     0.000 HD 
HETATM   13  N   UNL     1     -10.229  10.550  68.489  1.00  0.00    -0.166 N  
BRANCH  13  14
HETATM   14  C   UNL     1     -11.281  11.499  68.204  1.00  0.00    -0.271 C  
BRANCH  14  15
HETATM   15  C   UNL     1     -11.323  11.853  66.741  1.00  0.00    -0.393 A  
HETATM   16  C   UNL     1     -12.152  12.880  66.268  1.00  0.00    -0.433 A  
HETATM   17  C   UNL     1     -12.171  13.205  64.909  1.00  0.00    -0.477 A  
HETATM   18  C   UNL     1     -11.368  12.503  64.011  1.00  0.00    -0.467 A  
HETATM   19  C   UNL     1     -10.551  11.472  64.468  1.00  0.00    -0.387 A  
HETATM   20  C   UNL     1     -10.531  11.146  65.824  1.00  0.00    -0.305 A  
ENDBRANCH  14  15
ENDBRANCH  13  14
ENDBRANCH   4  10
ENDBRANCH   3   4
ENDBRANCH   2   3
TORSDOF 6
ENDMDL
MODEL      180
REMARK 921   NORMALIZED FREE ENERGY PREDICTED BY IDOCK:   -3.45 KCAL/MOL
REMARK 922        TOTAL FREE ENERGY PREDICTED BY IDOCK:   -5.06 KCAL/MOL
REMARK 923 INTER-LIGAND FREE ENERGY PREDICTED BY IDOCK:   -4.61 KCAL/MOL
REMARK 924 INTRA-LIGAND FREE ENERGY PREDICTED BY IDOCK:   -0.45 KCAL/MOL
REMARK 927      BINDING AFFINITY PREDICTED BY RF-SCORE:    0.00 PKD
ROOT
HETATM    1  C   UNL     1      -8.955   5.440  65.823  1.00  0.00    -0.158 C  
HETATM    2  O   UNL     1      -8.932   6.822  65.494  1.00  0.00    -0.038 OA 
ENDROOT
BRANCH   2   3
HETATM    3  C   UNL     1      -9.522   7.625  66.521  1.00  0.00    -0.190 C  
BRANCH   3   4
HETATM    4  C   UNL     1      -9.330   9.106  66.174  1.00  0.00    -0.228 C  
BRANCH   4   5
HETATM    5  N   UNL     1      -9.573   9.360  64.743  1.00  0.00    -0.425 N  
HETATM    6  C   UNL     1      -7.226   9.937  64.166  1.00  0.00    -0.134 C  
HETATM    7  O   UNL     1      -9.050   9.840  62.628  1.00  0.00    -0.260 OA 
HETATM    8  H   UNL     1     -10.537   9.254  64.428  1.00  0.00     0.000 HD 
HETATM    9  C   UNL     1      -8.668   9.719  63.790  1.00  0.00    -0.224 C  
ENDBRANCH   4   5
BRANCH   4  10
HETATM   10  C   UNL     1     -10.280   9.931  67.057  1.00  0.00    -0.233 C  
HETATM   11  O   UNL     1     -10.808   9.451  68.057  1.00  0.00    -0.220 OA 
HETATM   12  H   UNL     1     -10.189  11.503  65.704  1.00  0.00     0.000 HD 
HETATM   13  N   UNL     1     -10.599  11.186  66.582  1.00  0.00    -0.255 N  
BRANCH  13  14
HETATM   14  C   UNL     1     -11.498  12.064  67.294  1.00  0.00    -0.335 C  
BRANCH  14  15
HETATM   15  C   UNL     1     -11.131  13.510  67.091  1.00  0.00    -0.308 A  
HETATM   16  C   UNL     1     -10.556  13.950  65.890  1.00  0.00    -0.293 A  
HETATM   17  C   UNL     1     -10.232  15.298  65.713  1.00  0.00    -0.372 A  
HETATM   18  C   UNL     1     -10.471  16.215  66.735  1.00  0.00    -0.294 A  
HETATM   19  C   UNL     1     -11.028  15.787  67.938  1.00  0.00    -0.324 A  
HETATM   20  C   UNL     1     -11.353  14.442  68.116  1.00  0.00    -0.317 A  
ENDBRANCH  14  15
ENDBRANCH  13  14
ENDBRANCH   4  10
ENDBRANCH   3   4
ENDBRANCH   2   3
TORSDOF 6
ENDMDL
MODEL      181
REMARK 921   NORMALIZED FREE ENERGY PREDICTED BY IDOCK:   -3.44 KCAL/MOL
REMARK 922        TOTAL FREE ENERGY PREDICTED BY IDOCK:   -5.05 KCAL/MOL
REMARK 923 INTER-LIGAND FREE ENERGY PREDICTED BY IDOCK:   -4.47 KCAL/MOL
REMARK 924 INTRA-LIGAND FREE ENERGY PREDICTED BY IDOCK:   -0.58 KCAL/MOL
REMARK 927      BINDING AFFINITY PREDICTED BY RF-SCORE:    0.00 PKD
ROOT
HETATM    1  C   UNL     1      -6.370   8.960  69.228  1.00  0.00    -0.042 C  
HETATM    2  O   UNL     1      -6.792   7.925  68.351  1.00  0.00    -0.067 OA 
ENDROOT
BRANCH   2   3
HETATM    3  C   UNL     1      -7.460   8.444  67.196  1.00  0.00    -0.089 C  
BRANCH   3   4
HETATM    4  C   UNL     1      -8.890   7.891  67.150  1.00  0.00    -0.132 C  
BRANCH   4   5
HETATM    5  N   UNL     1      -9.043   6.723  68.036  1.00  0.00    -0.120 N  
HETATM    6  C   UNL     1     -10.648   5.494  66.590  1.00  0.00    -0.365 C  
HETATM    7  O   UNL     1      -9.767   4.709  68.666  1.00  0.00    -0.155 OA 
HETATM    8  H   UNL     1      -8.516   6.751  68.908  1.00  0.00     0.000 HD 
HETATM    9  C   UNL     1      -9.804   5.611  67.831  1.00  0.00    -0.133 C  
ENDBRANCH   4   5
BRANCH   4  10
HETATM   10  C   UNL     1      -9.852   9.021  67.546  1.00  0.00    -0.179 C  
HETATM   11  O   UNL     1     -10.602   9.545  66.725  1.00  0.00    -0.212 OA 
HETATM   12  H   UNL     1      -9.029   9.070  69.451  1.00  0.00     0.000 HD 
HETATM   13  N   UNL     1      -9.724   9.492  68.836  1.00  0.00    -0.160 N  
BRANCH  13  14
HETATM   14  C   UNL     1     -10.546  10.568  69.340  1.00  0.00    -0.240 C  
BRANCH  14  15
HETATM   15  C   UNL     1     -11.473  10.090  70.426  1.00  0.00    -0.389 A  
HETATM   16  C   UNL     1     -12.471  10.928  70.947  1.00  0.00    -0.507 A  
HETATM   17  C   UNL     1     -13.331  10.466  71.946  1.00  0.00    -0.469 A  
HETATM   18  C   UNL     1     -13.200   9.168  72.438  1.00  0.00    -0.512 A  
HETATM   19  C   UNL     1     -12.204   8.332  71.937  1.00  0.00    -0.383 A  
HETATM   20  C   UNL     1     -11.343   8.792  70.940  1.00  0.00    -0.322 A  
ENDBRANCH  14  15
ENDBRANCH  13  14
ENDBRANCH   4  10
ENDBRANCH   3   4
ENDBRANCH   2   3
TORSDOF 6
ENDMDL
MODEL      182
REMARK 921   NORMALIZED FREE ENERGY PREDICTED BY IDOCK:   -3.41 KCAL/MOL
REMARK 922        TOTAL FREE ENERGY PREDICTED BY IDOCK:   -5.01 KCAL/MOL
REMARK 923 INTER-LIGAND FREE ENERGY PREDICTED BY IDOCK:   -4.39 KCAL/MOL
REMARK 924 INTRA-LIGAND FREE ENERGY PREDICTED BY IDOCK:   -0.63 KCAL/MOL
REMARK 927      BINDING AFFINITY PREDICTED BY RF-SCORE:    0.00 PKD
ROOT
HETATM    1  C   UNL     1      -8.905   7.822  66.605  1.00  0.00    -0.148 C  
HETATM    2  O   UNL     1      -7.708   7.317  67.179  1.00  0.00    -0.107 OA 
ENDROOT
BRANCH   2   3
HETATM    3  C   UNL     1      -7.892   6.929  68.545  1.00  0.00    -0.118 C  
BRANCH   3   4
HETATM    4  C   UNL     1      -8.968   5.840  68.618  1.00  0.00    -0.112 C  
BRANCH   4   5
HETATM    5  N   UNL     1      -8.393   4.499  68.404  1.00  0.00    -0.089 N  
HETATM    6  C   UNL     1      -9.531   4.058  66.239  1.00  0.00    -0.199 C  
HETATM    7  O   UNL     1      -7.985   2.593  67.319  1.00  0.00    -0.069 OA 
HETATM    8  H   UNL     1      -7.767   4.159  69.134  1.00  0.00     0.000 HD 
HETATM    9  C   UNL     1      -8.595   3.660  67.349  1.00  0.00    -0.104 C  
ENDBRANCH   4   5
BRANCH   4  10
HETATM   10  C   UNL     1      -9.655   5.938  69.989  1.00  0.00    -0.163 C  
HETATM   11  O   UNL     1     -10.247   4.981  70.483  1.00  0.00    -0.246 OA 
HETATM   12  H   UNL     1      -9.235   7.970  70.065  1.00  0.00     0.000 HD 
HETATM   13  N   UNL     1      -9.677   7.194  70.559  1.00  0.00    -0.176 N  
BRANCH  13  14
HETATM   14  C   UNL     1     -10.308   7.442  71.834  1.00  0.00    -0.192 C  
BRANCH  14  15
HETATM   15  C   UNL     1     -11.344   8.531  71.733  1.00  0.00    -0.377 A  
HETATM   16  C   UNL     1     -12.584   8.413  72.379  1.00  0.00    -0.372 A  
HETATM   17  C   UNL     1     -13.530   9.437  72.286  1.00  0.00    -0.539 A  
HETATM   18  C   UNL     1     -13.251  10.582  71.541  1.00  0.00    -0.470 A  
HETATM   19  C   UNL     1     -12.029  10.703  70.884  1.00  0.00    -0.469 A  
HETATM   20  C   UNL     1     -11.082   9.682  70.976  1.00  0.00    -0.438 A  
ENDBRANCH  14  15
ENDBRANCH  13  14
ENDBRANCH   4  10
ENDBRANCH   3   4
ENDBRANCH   2   3
TORSDOF 6
ENDMDL
MODEL      183
REMARK 921   NORMALIZED FREE ENERGY PREDICTED BY IDOCK:   -3.38 KCAL/MOL
REMARK 922        TOTAL FREE ENERGY PREDICTED BY IDOCK:   -4.97 KCAL/MOL
REMARK 923 INTER-LIGAND FREE ENERGY PREDICTED BY IDOCK:   -4.59 KCAL/MOL
REMARK 924 INTRA-LIGAND FREE ENERGY PREDICTED BY IDOCK:   -0.38 KCAL/MOL
REMARK 927      BINDING AFFINITY PREDICTED BY RF-SCORE:    0.00 PKD
ROOT
HETATM    1  C   UNL     1     -10.373   7.166  71.126  1.00  0.00    -0.202 C  
HETATM    2  O   UNL     1      -9.983   6.904  69.785  1.00  0.00    -0.176 OA 
ENDROOT
BRANCH   2   3
HETATM    3  C   UNL     1     -10.648   7.767  68.856  1.00  0.00    -0.150 C  
BRANCH   3   4
HETATM    4  C   UNL     1      -9.712   8.053  67.676  1.00  0.00    -0.158 C  
BRANCH   4   5
HETATM    5  N   UNL     1      -9.665   6.917  66.738  1.00  0.00    -0.174 N  
HETATM    6  C   UNL     1      -7.322   7.277  65.993  1.00  0.00    -0.075 C  
HETATM    7  O   UNL     1      -8.749   5.500  65.278  1.00  0.00    -0.153 OA 
HETATM    8  H   UNL     1     -10.521   6.369  66.656  1.00  0.00     0.000 HD 
HETATM    9  C   UNL     1      -8.617   6.510  65.969  1.00  0.00    -0.148 C  
ENDBRANCH   4   5
BRANCH   4  10
HETATM   10  C   UNL     1     -10.201   9.332  66.978  1.00  0.00    -0.262 C  
HETATM   11  O   UNL     1      -9.971   9.544  65.790  1.00  0.00    -0.300 OA 
HETATM   12  H   UNL     1     -10.884  10.074  68.792  1.00  0.00     0.000 HD 
HETATM   13  N   UNL     1     -10.789  10.273  67.797  1.00  0.00    -0.273 N  
BRANCH  13  14
HETATM   14  C   UNL     1     -11.275  11.533  67.284  1.00  0.00    -0.301 C  
BRANCH  14  15
HETATM   15  C   UNL     1     -11.646  12.476  68.398  1.00  0.00    -0.368 A  
HETATM   16  C   UNL     1     -11.700  13.862  68.187  1.00  0.00    -0.388 A  
HETATM   17  C   UNL     1     -12.057  14.722  69.228  1.00  0.00    -0.296 A  
HETATM   18  C   UNL     1     -12.356  14.209  70.489  1.00  0.00    -0.434 A  
HETATM   19  C   UNL     1     -12.291  12.835  70.714  1.00  0.00    -0.375 A  
HETATM   20  C   UNL     1     -11.935  11.974  69.676  1.00  0.00    -0.360 A  
ENDBRANCH  14  15
ENDBRANCH  13  14
ENDBRANCH   4  10
ENDBRANCH   3   4
ENDBRANCH   2   3
TORSDOF 6
ENDMDL
MODEL      184
REMARK 921   NORMALIZED FREE ENERGY PREDICTED BY IDOCK:   -3.37 KCAL/MOL
REMARK 922        TOTAL FREE ENERGY PREDICTED BY IDOCK:   -4.96 KCAL/MOL
REMARK 923 INTER-LIGAND FREE ENERGY PREDICTED BY IDOCK:   -4.39 KCAL/MOL
REMARK 924 INTRA-LIGAND FREE ENERGY PREDICTED BY IDOCK:   -0.57 KCAL/MOL
REMARK 927      BINDING AFFINITY PREDICTED BY RF-SCORE:    0.00 PKD
ROOT
HETATM    1  C   UNL     1      -6.480   8.972  71.632  1.00  0.00    -0.053 C  
HETATM    2  O   UNL     1      -7.779   8.743  71.105  1.00  0.00    -0.101 OA 
ENDROOT
BRANCH   2   3
HETATM    3  C   UNL     1      -7.731   8.157  69.800  1.00  0.00    -0.100 C  
BRANCH   3   4
HETATM    4  C   UNL     1      -9.106   8.295  69.135  1.00  0.00    -0.148 C  
BRANCH   4   5
HETATM    5  N   UNL     1     -10.174   7.743  69.988  1.00  0.00    -0.206 N  
HETATM    6  C   UNL     1     -10.906   5.977  68.400  1.00  0.00    -0.361 C  
HETATM    7  O   UNL     1     -11.807   6.344  70.581  1.00  0.00    -0.367 OA 
HETATM    8  H   UNL     1     -10.309   8.202  70.889  1.00  0.00     0.000 HD 
HETATM    9  C   UNL     1     -11.003   6.695  69.720  1.00  0.00    -0.313 C  
ENDBRANCH   4   5
BRANCH   4  10
HETATM   10  C   UNL     1      -9.344   9.783  68.835  1.00  0.00    -0.158 C  
HETATM   11  O   UNL     1     -10.260  10.407  69.366  1.00  0.00    -0.215 OA 
HETATM   12  H   UNL     1      -7.863   9.738  67.381  1.00  0.00     0.000 HD 
HETATM   13  N   UNL     1      -8.556  10.327  67.842  1.00  0.00    -0.118 N  
BRANCH  13  14
HETATM   14  C   UNL     1      -8.686  11.707  67.437  1.00  0.00    -0.155 C  
BRANCH  14  15
HETATM   15  C   UNL     1      -9.375  11.828  66.104  1.00  0.00    -0.236 A  
HETATM   16  C   UNL     1     -10.043  13.006  65.738  1.00  0.00    -0.294 A  
HETATM   17  C   UNL     1     -10.668  13.106  64.492  1.00  0.00    -0.416 A  
HETATM   18  C   UNL     1     -10.638  12.031  63.605  1.00  0.00    -0.503 A  
HETATM   19  C   UNL     1      -9.989  10.851  63.964  1.00  0.00    -0.403 A  
HETATM   20  C   UNL     1      -9.365  10.749  65.207  1.00  0.00    -0.247 A  
ENDBRANCH  14  15
ENDBRANCH  13  14
ENDBRANCH   4  10
ENDBRANCH   3   4
ENDBRANCH   2   3
TORSDOF 6
ENDMDL
MODEL      185
REMARK 921   NORMALIZED FREE ENERGY PREDICTED BY IDOCK:   -3.37 KCAL/MOL
REMARK 922        TOTAL FREE ENERGY PREDICTED BY IDOCK:   -4.95 KCAL/MOL
REMARK 923 INTER-LIGAND FREE ENERGY PREDICTED BY IDOCK:   -5.17 KCAL/MOL
REMARK 924 INTRA-LIGAND FREE ENERGY PREDICTED BY IDOCK:    0.22 KCAL/MOL
REMARK 927      BINDING AFFINITY PREDICTED BY RF-SCORE:    0.00 PKD
ROOT
HETATM    1  C   UNL     1      -8.254   4.349  66.002  1.00  0.00    -0.109 C  
HETATM    2  O   UNL     1      -7.977   5.742  66.030  1.00  0.00    -0.099 OA 
ENDROOT
BRANCH   2   3
HETATM    3  C   UNL     1      -8.429   6.352  67.243  1.00  0.00    -0.111 C  
BRANCH   3   4
HETATM    4  C   UNL     1      -9.725   7.123  66.966  1.00  0.00    -0.170 C  
BRANCH   4   5
HETATM    5  N   UNL     1     -10.801   6.715  67.886  1.00  0.00    -0.351 N  
HETATM    6  C   UNL     1      -9.620   7.337  69.982  1.00  0.00    -0.167 C  
HETATM    7  O   UNL     1     -11.835   6.454  69.846  1.00  0.00    -0.384 OA 
HETATM    8  H   UNL     1     -11.635   6.319  67.451  1.00  0.00     0.000 HD 
HETATM    9  C   UNL     1     -10.819   6.801  69.246  1.00  0.00    -0.264 C  
ENDBRANCH   4   5
BRANCH   4  10
HETATM   10  C   UNL     1      -9.424   8.625  67.092  1.00  0.00    -0.160 C  
HETATM   11  O   UNL     1      -8.293   9.035  67.342  1.00  0.00    -0.111 OA 
HETATM   12  H   UNL     1     -11.445   9.057  66.907  1.00  0.00     0.000 HD 
HETATM   13  N   UNL     1     -10.519   9.461  67.039  1.00  0.00    -0.248 N  
BRANCH  13  14
HETATM   14  C   UNL     1     -10.391  10.894  67.167  1.00  0.00    -0.220 C  
BRANCH  14  15
HETATM   15  C   UNL     1     -10.931  11.606  65.955  1.00  0.00    -0.334 A  
HETATM   16  C   UNL     1     -11.870  12.640  66.081  1.00  0.00    -0.477 A  
HETATM   17  C   UNL     1     -12.353  13.299  64.947  1.00  0.00    -0.476 A  
HETATM   18  C   UNL     1     -11.909  12.926  63.679  1.00  0.00    -0.599 A  
HETATM   19  C   UNL     1     -10.987  11.891  63.541  1.00  0.00    -0.505 A  
HETATM   20  C   UNL     1     -10.504  11.232  64.672  1.00  0.00    -0.387 A  
ENDBRANCH  14  15
ENDBRANCH  13  14
ENDBRANCH   4  10
ENDBRANCH   3   4
ENDBRANCH   2   3
TORSDOF 6
ENDMDL
MODEL      186
REMARK 921   NORMALIZED FREE ENERGY PREDICTED BY IDOCK:   -3.36 KCAL/MOL
REMARK 922        TOTAL FREE ENERGY PREDICTED BY IDOCK:   -4.95 KCAL/MOL
REMARK 923 INTER-LIGAND FREE ENERGY PREDICTED BY IDOCK:   -4.39 KCAL/MOL
REMARK 924 INTRA-LIGAND FREE ENERGY PREDICTED BY IDOCK:   -0.55 KCAL/MOL
REMARK 927      BINDING AFFINITY PREDICTED BY RF-SCORE:    0.00 PKD
ROOT
HETATM    1  C   UNL     1     -10.721  14.892  68.764  1.00  0.00    -0.252 C  
HETATM    2  O   UNL     1     -10.805  13.492  68.994  1.00  0.00    -0.246 OA 
ENDROOT
BRANCH   2   3
HETATM    3  C   UNL     1     -12.006  12.933  68.452  1.00  0.00    -0.248 C  
BRANCH   3   4
HETATM    4  C   UNL     1     -11.675  11.607  67.758  1.00  0.00    -0.245 C  
BRANCH   4   5
HETATM    5  N   UNL     1     -10.698  11.797  66.671  1.00  0.00    -0.251 N  
HETATM    6  C   UNL     1     -12.325  12.620  64.983  1.00  0.00    -0.561 C  
HETATM    7  O   UNL     1      -9.970  12.402  64.651  1.00  0.00    -0.252 OA 
HETATM    8  H   UNL     1      -9.733  11.549  66.889  1.00  0.00     0.000 HD 
HETATM    9  C   UNL     1     -10.927  12.263  65.411  1.00  0.00    -0.301 C  
ENDBRANCH   4   5
BRANCH   4  10
HETATM   10  C   UNL     1     -11.144  10.631  68.820  1.00  0.00    -0.265 C  
HETATM   11  O   UNL     1     -11.787  10.374  69.835  1.00  0.00    -0.258 OA 
HETATM   12  H   UNL     1      -9.343  10.483  67.800  1.00  0.00     0.000 HD 
HETATM   13  N   UNL     1      -9.858  10.174  68.624  1.00  0.00    -0.157 N  
BRANCH  13  14
HETATM   14  C   UNL     1      -9.220   9.270  69.553  1.00  0.00    -0.165 C  
BRANCH  14  15
HETATM   15  C   UNL     1      -9.491   7.832  69.196  1.00  0.00    -0.151 A  
HETATM   16  C   UNL     1     -10.232   7.002  70.050  1.00  0.00    -0.206 A  
HETATM   17  C   UNL     1     -10.485   5.673  69.700  1.00  0.00    -0.374 A  
HETATM   18  C   UNL     1      -9.995   5.160  68.499  1.00  0.00    -0.221 A  
HETATM   19  C   UNL     1      -9.247   5.972  67.650  1.00  0.00    -0.107 A  
HETATM   20  C   UNL     1      -8.993   7.299  67.998  1.00  0.00    -0.131 A  
ENDBRANCH  14  15
ENDBRANCH  13  14
ENDBRANCH   4  10
ENDBRANCH   3   4
ENDBRANCH   2   3
TORSDOF 6
ENDMDL
MODEL      187
REMARK 921   NORMALIZED FREE ENERGY PREDICTED BY IDOCK:   -3.34 KCAL/MOL
REMARK 922        TOTAL FREE ENERGY PREDICTED BY IDOCK:   -4.91 KCAL/MOL
REMARK 923 INTER-LIGAND FREE ENERGY PREDICTED BY IDOCK:   -4.52 KCAL/MOL
REMARK 924 INTRA-LIGAND FREE ENERGY PREDICTED BY IDOCK:   -0.39 KCAL/MOL
REMARK 927      BINDING AFFINITY PREDICTED BY RF-SCORE:    0.00 PKD
ROOT
HETATM    1  C   UNL     1      -8.017   5.684  68.839  1.00  0.00    -0.097 C  
HETATM    2  O   UNL     1      -8.594   6.886  69.328  1.00  0.00    -0.131 OA 
ENDROOT
BRANCH   2   3
HETATM    3  C   UNL     1      -9.936   6.687  69.786  1.00  0.00    -0.173 C  
BRANCH   3   4
HETATM    4  C   UNL     1     -10.447   7.984  70.425  1.00  0.00    -0.218 C  
BRANCH   4   5
HETATM    5  N   UNL     1      -9.476   8.528  71.392  1.00  0.00    -0.191 N  
HETATM    6  C   UNL     1     -10.089   7.019  73.269  1.00  0.00    -0.289 C  
HETATM    7  O   UNL     1      -8.363   8.669  73.320  1.00  0.00    -0.408 OA 
HETATM    8  H   UNL     1      -8.898   9.299  71.059  1.00  0.00     0.000 HD 
HETATM    9  C   UNL     1      -9.258   8.126  72.675  1.00  0.00    -0.263 C  
ENDBRANCH   4   5
BRANCH   4  10
HETATM   10  C   UNL     1     -10.735   8.990  69.299  1.00  0.00    -0.174 C  
HETATM   11  O   UNL     1     -10.956   8.621  68.148  1.00  0.00    -0.017 OA 
HETATM   12  H   UNL     1     -10.334  10.566  70.589  1.00  0.00     0.000 HD 
HETATM   13  N   UNL     1     -10.596  10.320  69.635  1.00  0.00    -0.240 N  
BRANCH  13  14
HETATM   14  C   UNL     1     -10.812  11.376  68.673  1.00  0.00    -0.208 C  
BRANCH  14  15
HETATM   15  C   UNL     1     -11.334  12.625  69.333  1.00  0.00    -0.273 A  
HETATM   16  C   UNL     1     -11.122  13.889  68.763  1.00  0.00    -0.291 A  
HETATM   17  C   UNL     1     -11.622  15.037  69.381  1.00  0.00    -0.337 A  
HETATM   18  C   UNL     1     -12.332  14.935  70.577  1.00  0.00    -0.400 A  
HETATM   19  C   UNL     1     -12.536  13.686  71.160  1.00  0.00    -0.452 A  
HETATM   20  C   UNL     1     -12.037  12.538  70.544  1.00  0.00    -0.361 A  
ENDBRANCH  14  15
ENDBRANCH  13  14
ENDBRANCH   4  10
ENDBRANCH   3   4
ENDBRANCH   2   3
TORSDOF 6
ENDMDL
MODEL      188
REMARK 921   NORMALIZED FREE ENERGY PREDICTED BY IDOCK:   -3.30 KCAL/MOL
REMARK 922        TOTAL FREE ENERGY PREDICTED BY IDOCK:   -4.86 KCAL/MOL
REMARK 923 INTER-LIGAND FREE ENERGY PREDICTED BY IDOCK:   -4.39 KCAL/MOL
REMARK 924 INTRA-LIGAND FREE ENERGY PREDICTED BY IDOCK:   -0.48 KCAL/MOL
REMARK 927      BINDING AFFINITY PREDICTED BY RF-SCORE:    0.00 PKD
ROOT
HETATM    1  C   UNL     1     -12.600  14.404  64.168  1.00  0.00    -0.037 C  
HETATM    2  O   UNL     1     -11.496  13.643  64.637  1.00  0.00    -0.338 OA 
ENDROOT
BRANCH   2   3
HETATM    3  C   UNL     1     -11.821  12.902  65.818  1.00  0.00    -0.419 C  
BRANCH   3   4
HETATM    4  C   UNL     1     -10.535  12.616  66.603  1.00  0.00    -0.245 C  
BRANCH   4   5
HETATM    5  N   UNL     1     -10.547  13.282  67.918  1.00  0.00    -0.233 N  
HETATM    6  C   UNL     1      -9.125  15.211  67.259  1.00  0.00    -0.210 C  
HETATM    7  O   UNL     1     -10.110  14.883  69.409  1.00  0.00    -0.214 OA 
HETATM    8  H   UNL     1     -11.067  12.807  68.655  1.00  0.00     0.000 HD 
HETATM    9  C   UNL     1      -9.947  14.454  68.268  1.00  0.00    -0.232 C  
ENDBRANCH   4   5
BRANCH   4  10
HETATM   10  C   UNL     1     -10.395  11.093  66.751  1.00  0.00    -0.241 C  
HETATM   11  O   UNL     1     -10.082  10.381  65.799  1.00  0.00    -0.251 OA 
HETATM   12  H   UNL     1     -11.094  11.207  68.701  1.00  0.00     0.000 HD 
HETATM   13  N   UNL     1     -10.768  10.573  67.972  1.00  0.00    -0.224 N  
BRANCH  13  14
HETATM   14  C   UNL     1     -10.711   9.156  68.247  1.00  0.00    -0.122 C  
BRANCH  14  15
HETATM   15  C   UNL     1     -10.369   8.888  69.689  1.00  0.00    -0.214 A  
HETATM   16  C   UNL     1      -9.093   9.177  70.196  1.00  0.00    -0.229 A  
HETATM   17  C   UNL     1      -8.795   8.934  71.539  1.00  0.00    -0.253 A  
HETATM   18  C   UNL     1      -9.763   8.394  72.385  1.00  0.00    -0.376 A  
HETATM   19  C   UNL     1     -11.029   8.091  71.888  1.00  0.00    -0.321 A  
HETATM   20  C   UNL     1     -11.329   8.333  70.547  1.00  0.00    -0.225 A  
ENDBRANCH  14  15
ENDBRANCH  13  14
ENDBRANCH   4  10
ENDBRANCH   3   4
ENDBRANCH   2   3
TORSDOF 6
ENDMDL
MODEL      189
REMARK 921   NORMALIZED FREE ENERGY PREDICTED BY IDOCK:   -3.30 KCAL/MOL
REMARK 922        TOTAL FREE ENERGY PREDICTED BY IDOCK:   -4.86 KCAL/MOL
REMARK 923 INTER-LIGAND FREE ENERGY PREDICTED BY IDOCK:   -4.40 KCAL/MOL
REMARK 924 INTRA-LIGAND FREE ENERGY PREDICTED BY IDOCK:   -0.46 KCAL/MOL
REMARK 927      BINDING AFFINITY PREDICTED BY RF-SCORE:    0.00 PKD
ROOT
HETATM    1  C   UNL     1      -6.437   8.883  69.518  1.00  0.00    -0.043 C  
HETATM    2  O   UNL     1      -7.767   8.396  69.410  1.00  0.00    -0.093 OA 
ENDROOT
BRANCH   2   3
HETATM    3  C   UNL     1      -8.523   9.119  68.432  1.00  0.00    -0.128 C  
BRANCH   3   4
HETATM    4  C   UNL     1      -9.612   9.934  69.139  1.00  0.00    -0.199 C  
BRANCH   4   5
HETATM    5  N   UNL     1      -9.501   9.823  70.605  1.00  0.00    -0.334 N  
HETATM    6  C   UNL     1     -11.560   8.470  70.932  1.00  0.00    -0.295 C  
HETATM    7  O   UNL     1     -10.051   9.141  72.657  1.00  0.00     0.278 OA 
HETATM    8  H   UNL     1      -8.704  10.296  71.030  1.00  0.00     0.000 HD 
HETATM    9  C   UNL     1     -10.334   9.167  71.460  1.00  0.00    -0.344 C  
ENDBRANCH   4   5
BRANCH   4  10
HETATM   10  C   UNL     1      -9.489  11.396  68.680  1.00  0.00    -0.163 C  
HETATM   11  O   UNL     1      -8.393  11.919  68.489  1.00  0.00    -0.156 OA 
HETATM   12  H   UNL     1     -11.541  11.640  68.872  1.00  0.00     0.000 HD 
HETATM   13  N   UNL     1     -10.668  12.108  68.627  1.00  0.00    -0.229 N  
BRANCH  13  14
HETATM   14  C   UNL     1     -10.703  13.497  68.235  1.00  0.00    -0.258 C  
BRANCH  14  15
HETATM   15  C   UNL     1     -11.208  13.660  66.826  1.00  0.00    -0.327 A  
HETATM   16  C   UNL     1     -10.815  14.751  66.037  1.00  0.00    -0.318 A  
HETATM   17  C   UNL     1     -11.282  14.882  64.727  1.00  0.00    -0.393 A  
HETATM   18  C   UNL     1     -12.151  13.930  64.196  1.00  0.00    -0.464 A  
HETATM   19  C   UNL     1     -12.559  12.849  64.975  1.00  0.00    -0.538 A  
HETATM   20  C   UNL     1     -12.093  12.717  66.284  1.00  0.00    -0.400 A  
ENDBRANCH  14  15
ENDBRANCH  13  14
ENDBRANCH   4  10
ENDBRANCH   3   4
ENDBRANCH   2   3
TORSDOF 6
ENDMDL
MODEL      190
REMARK 921   NORMALIZED FREE ENERGY PREDICTED BY IDOCK:   -3.29 KCAL/MOL
REMARK 922        TOTAL FREE ENERGY PREDICTED BY IDOCK:   -4.84 KCAL/MOL
REMARK 923 INTER-LIGAND FREE ENERGY PREDICTED BY IDOCK:   -4.75 KCAL/MOL
REMARK 924 INTRA-LIGAND FREE ENERGY PREDICTED BY IDOCK:   -0.09 KCAL/MOL
REMARK 927      BINDING AFFINITY PREDICTED BY RF-SCORE:    0.00 PKD
ROOT
HETATM    1  C   UNL     1      -9.914  10.969  65.229  1.00  0.00    -0.266 C  
HETATM    2  O   UNL     1      -9.263  11.620  66.312  1.00  0.00    -0.209 OA 
ENDROOT
BRANCH   2   3
HETATM    3  C   UNL     1      -9.824  12.910  66.575  1.00  0.00    -0.254 C  
BRANCH   3   4
HETATM    4  C   UNL     1      -8.722  13.841  67.095  1.00  0.00    -0.221 C  
BRANCH   4   5
HETATM    5  N   UNL     1      -7.391  13.219  66.977  1.00  0.00    -0.332 N  
HETATM    6  C   UNL     1      -6.529  14.004  69.171  1.00  0.00    -0.113 C  
HETATM    7  O   UNL     1      -5.343  12.620  67.628  1.00  0.00    -0.105 OA 
HETATM    8  H   UNL     1      -7.212  12.708  66.112  1.00  0.00     0.000 HD 
HETATM    9  C   UNL     1      -6.372  13.244  67.881  1.00  0.00    -0.144 C  
ENDBRANCH   4   5
BRANCH   4  10
HETATM   10  C   UNL     1      -8.795  15.156  66.303  1.00  0.00    -0.176 C  
HETATM   11  O   UNL     1      -9.552  15.288  65.344  1.00  0.00    -0.279 OA 
HETATM   12  H   UNL     1      -7.214  15.922  67.408  1.00  0.00     0.000 HD 
HETATM   13  N   UNL     1      -7.871  16.118  66.653  1.00  0.00    -0.257 N  
BRANCH  13  14
HETATM   14  C   UNL     1      -7.806  17.394  65.980  1.00  0.00    -0.183 C  
BRANCH  14  15
HETATM   15  C   UNL     1      -8.746  18.393  66.602  1.00  0.00    -0.295 A  
HETATM   16  C   UNL     1      -9.922  17.978  67.244  1.00  0.00    -0.324 A  
HETATM   17  C   UNL     1     -10.778  18.917  67.827  1.00  0.00    -0.426 A  
HETATM   18  C   UNL     1     -10.471  20.276  67.766  1.00  0.00    -0.323 A  
HETATM   19  C   UNL     1      -9.313  20.699  67.118  1.00  0.00    -0.464 A  
HETATM   20  C   UNL     1      -8.457  19.764  66.536  1.00  0.00    -0.380 A  
ENDBRANCH  14  15
ENDBRANCH  13  14
ENDBRANCH   4  10
ENDBRANCH   3   4
ENDBRANCH   2   3
TORSDOF 6
ENDMDL
MODEL      191
REMARK 921   NORMALIZED FREE ENERGY PREDICTED BY IDOCK:   -3.28 KCAL/MOL
REMARK 922        TOTAL FREE ENERGY PREDICTED BY IDOCK:   -4.83 KCAL/MOL
REMARK 923 INTER-LIGAND FREE ENERGY PREDICTED BY IDOCK:   -4.58 KCAL/MOL
REMARK 924 INTRA-LIGAND FREE ENERGY PREDICTED BY IDOCK:   -0.25 KCAL/MOL
REMARK 927      BINDING AFFINITY PREDICTED BY RF-SCORE:    0.00 PKD
ROOT
HETATM    1  C   UNL     1     -12.779  11.934  63.548  1.00  0.00    -0.405 C  
HETATM    2  O   UNL     1     -11.398  12.079  63.245  1.00  0.00    -0.381 OA 
ENDROOT
BRANCH   2   3
HETATM    3  C   UNL     1     -10.580  11.236  64.064  1.00  0.00    -0.386 C  
BRANCH   3   4
HETATM    4  C   UNL     1     -10.019  12.058  65.230  1.00  0.00    -0.247 C  
BRANCH   4   5
HETATM    5  N   UNL     1     -10.106  13.504  64.960  1.00  0.00    -0.551 N  
HETATM    6  C   UNL     1      -8.557  14.212  66.769  1.00  0.00    -0.097 C  
HETATM    7  O   UNL     1      -9.621  15.668  65.204  1.00  0.00    -0.255 OA 
HETATM    8  H   UNL     1     -10.724  13.780  64.197  1.00  0.00     0.000 HD 
HETATM    9  C   UNL     1      -9.462  14.517  65.605  1.00  0.00    -0.036 C  
ENDBRANCH   4   5
BRANCH   4  10
HETATM   10  C   UNL     1     -10.798  11.679  66.500  1.00  0.00    -0.284 C  
HETATM   11  O   UNL     1     -11.751  12.348  66.893  1.00  0.00    -0.393 OA 
HETATM   12  H   UNL     1      -9.437  10.163  66.895  1.00  0.00     0.000 HD 
HETATM   13  N   UNL     1     -10.278  10.632  67.230  1.00  0.00    -0.198 N  
BRANCH  13  14
HETATM   14  C   UNL     1     -10.890  10.181  68.458  1.00  0.00    -0.237 C  
BRANCH  14  15
HETATM   15  C   UNL     1     -10.312   8.867  68.912  1.00  0.00    -0.229 A  
HETATM   16  C   UNL     1     -10.350   7.734  68.085  1.00  0.00    -0.248 A  
HETATM   17  C   UNL     1      -9.798   6.525  68.516  1.00  0.00    -0.140 A  
HETATM   18  C   UNL     1      -9.211   6.434  69.778  1.00  0.00    -0.145 A  
HETATM   19  C   UNL     1      -9.179   7.549  70.612  1.00  0.00    -0.159 A  
HETATM   20  C   UNL     1      -9.730   8.757  70.184  1.00  0.00    -0.188 A  
ENDBRANCH  14  15
ENDBRANCH  13  14
ENDBRANCH   4  10
ENDBRANCH   3   4
ENDBRANCH   2   3
TORSDOF 6
ENDMDL
MODEL      192
REMARK 921   NORMALIZED FREE ENERGY PREDICTED BY IDOCK:   -3.27 KCAL/MOL
REMARK 922        TOTAL FREE ENERGY PREDICTED BY IDOCK:   -4.83 KCAL/MOL
REMARK 923 INTER-LIGAND FREE ENERGY PREDICTED BY IDOCK:   -4.37 KCAL/MOL
REMARK 924 INTRA-LIGAND FREE ENERGY PREDICTED BY IDOCK:   -0.46 KCAL/MOL
REMARK 927      BINDING AFFINITY PREDICTED BY RF-SCORE:    0.00 PKD
ROOT
HETATM    1  C   UNL     1      -7.239   9.508  65.365  1.00  0.00    -0.095 C  
HETATM    2  O   UNL     1      -8.495   9.405  66.021  1.00  0.00    -0.119 OA 
ENDROOT
BRANCH   2   3
HETATM    3  C   UNL     1      -8.377   9.596  67.435  1.00  0.00    -0.114 C  
BRANCH   3   4
HETATM    4  C   UNL     1      -9.379   8.684  68.152  1.00  0.00    -0.137 C  
BRANCH   4   5
HETATM    5  N   UNL     1      -8.703   7.543  68.795  1.00  0.00    -0.129 N  
HETATM    6  C   UNL     1     -10.395   5.835  68.166  1.00  0.00    -0.264 C  
HETATM    7  O   UNL     1      -8.376   5.412  69.370  1.00  0.00    -0.095 OA 
HETATM    8  H   UNL     1      -7.831   7.755  69.280  1.00  0.00     0.000 HD 
HETATM    9  C   UNL     1      -9.102   6.240  68.822  1.00  0.00    -0.127 C  
ENDBRANCH   4   5
BRANCH   4  10
HETATM   10  C   UNL     1     -10.145   9.531  69.180  1.00  0.00    -0.195 C  
HETATM   11  O   UNL     1      -9.975   9.384  70.389  1.00  0.00    -0.216 OA 
HETATM   12  H   UNL     1     -11.269  10.383  67.658  1.00  0.00     0.000 HD 
HETATM   13  N   UNL     1     -11.119  10.360  68.666  1.00  0.00    -0.258 N  
BRANCH  13  14
HETATM   14  C   UNL     1     -11.935  11.196  69.515  1.00  0.00    -0.355 C  
BRANCH  14  15
HETATM   15  C   UNL     1     -11.842  12.645  69.115  1.00  0.00    -0.349 A  
HETATM   16  C   UNL     1     -11.960  13.669  70.067  1.00  0.00    -0.413 A  
HETATM   17  C   UNL     1     -11.859  15.008  69.681  1.00  0.00    -0.358 A  
HETATM   18  C   UNL     1     -11.648  15.337  68.343  1.00  0.00    -0.365 A  
HETATM   19  C   UNL     1     -11.543  14.328  67.387  1.00  0.00    -0.394 A  
HETATM   20  C   UNL     1     -11.643  12.991  67.770  1.00  0.00    -0.385 A  
ENDBRANCH  14  15
ENDBRANCH  13  14
ENDBRANCH   4  10
ENDBRANCH   3   4
ENDBRANCH   2   3
TORSDOF 6
ENDMDL
MODEL      193
REMARK 921   NORMALIZED FREE ENERGY PREDICTED BY IDOCK:   -3.27 KCAL/MOL
REMARK 922        TOTAL FREE ENERGY PREDICTED BY IDOCK:   -4.83 KCAL/MOL
REMARK 923 INTER-LIGAND FREE ENERGY PREDICTED BY IDOCK:   -4.29 KCAL/MOL
REMARK 924 INTRA-LIGAND FREE ENERGY PREDICTED BY IDOCK:   -0.54 KCAL/MOL
REMARK 927      BINDING AFFINITY PREDICTED BY RF-SCORE:    0.00 PKD
ROOT
HETATM    1  C   UNL     1      -6.304  10.295  63.802  1.00  0.00    -0.102 C  
HETATM    2  O   UNL     1      -7.215   9.517  64.566  1.00  0.00    -0.101 OA 
ENDROOT
BRANCH   2   3
HETATM    3  C   UNL     1      -8.115  10.335  65.321  1.00  0.00    -0.151 C  
BRANCH   3   4
HETATM    4  C   UNL     1      -9.266   9.467  65.843  1.00  0.00    -0.206 C  
BRANCH   4   5
HETATM    5  N   UNL     1      -8.827   8.599  66.950  1.00  0.00    -0.130 N  
HETATM    6  C   UNL     1      -8.780   6.489  65.639  1.00  0.00    -0.102 C  
HETATM    7  O   UNL     1      -8.167   6.710  67.937  1.00  0.00    -0.118 OA 
HETATM    8  H   UNL     1      -8.695   9.057  67.852  1.00  0.00     0.000 HD 
HETATM    9  C   UNL     1      -8.577   7.260  66.916  1.00  0.00    -0.124 C  
ENDBRANCH   4   5
BRANCH   4  10
HETATM   10  C   UNL     1     -10.405  10.400  66.283  1.00  0.00    -0.203 C  
HETATM   11  O   UNL     1     -11.020  10.214  67.331  1.00  0.00    -0.292 OA 
HETATM   12  H   UNL     1     -10.278  11.424  64.482  1.00  0.00     0.000 HD 
HETATM   13  N   UNL     1     -10.774  11.366  65.371  1.00  0.00    -0.272 N  
BRANCH  13  14
HETATM   14  C   UNL     1     -11.845  12.298  65.639  1.00  0.00    -0.360 C  
BRANCH  14  15
HETATM   15  C   UNL     1     -11.313  13.661  65.993  1.00  0.00    -0.322 A  
HETATM   16  C   UNL     1     -11.473  14.189  67.283  1.00  0.00    -0.371 A  
HETATM   17  C   UNL     1     -10.963  15.450  67.600  1.00  0.00    -0.315 A  
HETATM   18  C   UNL     1     -10.296  16.199  66.631  1.00  0.00    -0.297 A  
HETATM   19  C   UNL     1     -10.144  15.691  65.342  1.00  0.00    -0.370 A  
HETATM   20  C   UNL     1     -10.652  14.431  65.024  1.00  0.00    -0.452 A  
ENDBRANCH  14  15
ENDBRANCH  13  14
ENDBRANCH   4  10
ENDBRANCH   3   4
ENDBRANCH   2   3
TORSDOF 6
ENDMDL
MODEL      194
REMARK 921   NORMALIZED FREE ENERGY PREDICTED BY IDOCK:   -3.27 KCAL/MOL
REMARK 922        TOTAL FREE ENERGY PREDICTED BY IDOCK:   -4.82 KCAL/MOL
REMARK 923 INTER-LIGAND FREE ENERGY PREDICTED BY IDOCK:   -5.07 KCAL/MOL
REMARK 924 INTRA-LIGAND FREE ENERGY PREDICTED BY IDOCK:    0.25 KCAL/MOL
REMARK 927      BINDING AFFINITY PREDICTED BY RF-SCORE:    0.00 PKD
ROOT
HETATM    1  C   UNL     1      -6.322  13.198  68.224  1.00  0.00    -0.096 C  
HETATM    2  O   UNL     1      -7.372  12.762  69.077  1.00  0.00    -0.057 OA 
ENDROOT
BRANCH   2   3
HETATM    3  C   UNL     1      -8.446  12.167  68.341  1.00  0.00    -0.145 C  
BRANCH   3   4
HETATM    4  C   UNL     1      -8.883  13.125  67.226  1.00  0.00    -0.208 C  
BRANCH   4   5
HETATM    5  N   UNL     1      -9.438  12.392  66.074  1.00  0.00    -0.363 N  
HETATM    6  C   UNL     1     -11.078  11.049  67.371  1.00  0.00    -0.370 C  
HETATM    7  O   UNL     1     -10.801  10.991  64.999  1.00  0.00    -0.233 OA 
HETATM    8  H   UNL     1      -9.027  12.609  65.166  1.00  0.00     0.000 HD 
HETATM    9  C   UNL     1     -10.434  11.462  66.074  1.00  0.00    -0.255 C  
ENDBRANCH   4   5
BRANCH   4  10
HETATM   10  C   UNL     1      -9.912  14.104  67.813  1.00  0.00    -0.235 C  
HETATM   11  O   UNL     1     -10.477  13.880  68.881  1.00  0.00    -0.237 OA 
HETATM   12  H   UNL     1      -9.806  15.262  66.094  1.00  0.00     0.000 HD 
HETATM   13  N   UNL     1     -10.252  15.169  67.006  1.00  0.00    -0.258 N  
BRANCH  13  14
HETATM   14  C   UNL     1     -11.222  16.157  67.416  1.00  0.00    -0.048 C  
BRANCH  14  15
HETATM   15  C   UNL     1     -10.624  17.539  67.443  1.00  0.00    -0.311 A  
HETATM   16  C   UNL     1     -10.313  18.216  66.255  1.00  0.00    -0.407 A  
HETATM   17  C   UNL     1      -9.769  19.503  66.296  1.00  0.00    -0.481 A  
HETATM   18  C   UNL     1      -9.526  20.121  67.522  1.00  0.00    -0.523 A  
HETATM   19  C   UNL     1      -9.819  19.452  68.708  1.00  0.00    -0.530 A  
HETATM   20  C   UNL     1     -10.361  18.167  68.669  1.00  0.00    -0.315 A  
ENDBRANCH  14  15
ENDBRANCH  13  14
ENDBRANCH   4  10
ENDBRANCH   3   4
ENDBRANCH   2   3
TORSDOF 6
ENDMDL
MODEL      195
REMARK 921   NORMALIZED FREE ENERGY PREDICTED BY IDOCK:   -3.23 KCAL/MOL
REMARK 922        TOTAL FREE ENERGY PREDICTED BY IDOCK:   -4.77 KCAL/MOL
REMARK 923 INTER-LIGAND FREE ENERGY PREDICTED BY IDOCK:   -4.20 KCAL/MOL
REMARK 924 INTRA-LIGAND FREE ENERGY PREDICTED BY IDOCK:   -0.57 KCAL/MOL
REMARK 927      BINDING AFFINITY PREDICTED BY RF-SCORE:    0.00 PKD
ROOT
HETATM    1  C   UNL     1     -12.155   6.834  71.759  1.00  0.00    -0.350 C  
HETATM    2  O   UNL     1     -12.205   6.713  70.344  1.00  0.00    -0.332 OA 
ENDROOT
BRANCH   2   3
HETATM    3  C   UNL     1     -10.929   6.368  69.792  1.00  0.00    -0.356 C  
BRANCH   3   4
HETATM    4  C   UNL     1      -9.898   7.421  70.212  1.00  0.00    -0.187 C  
BRANCH   4   5
HETATM    5  N   UNL     1      -8.751   6.805  70.904  1.00  0.00    -0.141 N  
HETATM    6  C   UNL     1      -8.619   8.469  72.745  1.00  0.00    -0.168 C  
HETATM    7  O   UNL     1      -7.225   6.544  72.511  1.00  0.00    -0.080 OA 
HETATM    8  H   UNL     1      -8.365   5.967  70.471  1.00  0.00     0.000 HD 
HETATM    9  C   UNL     1      -8.144   7.220  72.052  1.00  0.00    -0.094 C  
ENDBRANCH   4   5
BRANCH   4  10
HETATM   10  C   UNL     1      -9.448   8.178  68.953  1.00  0.00    -0.151 C  
HETATM   11  O   UNL     1      -9.190   7.589  67.906  1.00  0.00    -0.136 OA 
HETATM   12  H   UNL     1      -9.385   9.952  70.029  1.00  0.00     0.000 HD 
HETATM   13  N   UNL     1      -9.228   9.530  69.114  1.00  0.00    -0.156 N  
BRANCH  13  14
HETATM   14  C   UNL     1      -8.780  10.365  68.024  1.00  0.00    -0.123 C  
BRANCH  14  15
HETATM   15  C   UNL     1      -9.878  11.275  67.540  1.00  0.00    -0.195 A  
HETATM   16  C   UNL     1     -10.504  12.180  68.410  1.00  0.00    -0.242 A  
HETATM   17  C   UNL     1     -11.513  13.026  67.943  1.00  0.00    -0.352 A  
HETATM   18  C   UNL     1     -11.912  12.970  66.608  1.00  0.00    -0.453 A  
HETATM   19  C   UNL     1     -11.306  12.065  65.739  1.00  0.00    -0.384 A  
HETATM   20  C   UNL     1     -10.299  11.219  66.203  1.00  0.00    -0.300 A  
ENDBRANCH  14  15
ENDBRANCH  13  14
ENDBRANCH   4  10
ENDBRANCH   3   4
ENDBRANCH   2   3
TORSDOF 6
ENDMDL
MODEL      196
REMARK 921   NORMALIZED FREE ENERGY PREDICTED BY IDOCK:   -3.22 KCAL/MOL
REMARK 922        TOTAL FREE ENERGY PREDICTED BY IDOCK:   -4.75 KCAL/MOL
REMARK 923 INTER-LIGAND FREE ENERGY PREDICTED BY IDOCK:   -4.20 KCAL/MOL
REMARK 924 INTRA-LIGAND FREE ENERGY PREDICTED BY IDOCK:   -0.56 KCAL/MOL
REMARK 927      BINDING AFFINITY PREDICTED BY RF-SCORE:    0.00 PKD
ROOT
HETATM    1  C   UNL     1      -9.415   5.191  67.672  1.00  0.00    -0.127 C  
HETATM    2  O   UNL     1     -10.177   5.349  68.861  1.00  0.00    -0.184 OA 
ENDROOT
BRANCH   2   3
HETATM    3  C   UNL     1      -9.369   5.788  69.958  1.00  0.00    -0.146 C  
BRANCH   3   4
HETATM    4  C   UNL     1      -9.926   7.111  70.496  1.00  0.00    -0.187 C  
BRANCH   4   5
HETATM    5  N   UNL     1      -9.871   7.160  71.968  1.00  0.00    -0.159 N  
HETATM    6  C   UNL     1     -12.177   8.027  72.297  1.00  0.00    -0.366 C  
HETATM    7  O   UNL     1     -10.640   7.472  74.039  1.00  0.00    -0.211 OA 
HETATM    8  H   UNL     1      -8.990   6.870  72.393  1.00  0.00     0.000 HD 
HETATM    9  C   UNL     1     -10.853   7.546  72.830  1.00  0.00    -0.373 C  
ENDBRANCH   4   5
BRANCH   4  10
HETATM   10  C   UNL     1      -9.118   8.259  69.870  1.00  0.00    -0.147 C  
HETATM   11  O   UNL     1      -7.917   8.147  69.636  1.00  0.00    -0.110 OA 
HETATM   12  H   UNL     1     -10.771   9.507  69.999  1.00  0.00     0.000 HD 
HETATM   13  N   UNL     1      -9.794   9.451  69.715  1.00  0.00    -0.188 N  
BRANCH  13  14
HETATM   14  C   UNL     1      -9.156  10.623  69.162  1.00  0.00    -0.139 C  
BRANCH  14  15
HETATM   15  C   UNL     1      -9.986  11.236  68.065  1.00  0.00    -0.191 A  
HETATM   16  C   UNL     1      -9.699  10.989  66.714  1.00  0.00    -0.222 A  
HETATM   17  C   UNL     1     -10.487  11.556  65.709  1.00  0.00    -0.308 A  
HETATM   18  C   UNL     1     -11.560  12.380  66.042  1.00  0.00    -0.455 A  
HETATM   19  C   UNL     1     -11.845  12.644  67.380  1.00  0.00    -0.393 A  
HETATM   20  C   UNL     1     -11.061  12.079  68.386  1.00  0.00    -0.290 A  
ENDBRANCH  14  15
ENDBRANCH  13  14
ENDBRANCH   4  10
ENDBRANCH   3   4
ENDBRANCH   2   3
TORSDOF 6
ENDMDL
MODEL      197
REMARK 921   NORMALIZED FREE ENERGY PREDICTED BY IDOCK:   -3.21 KCAL/MOL
REMARK 922        TOTAL FREE ENERGY PREDICTED BY IDOCK:   -4.74 KCAL/MOL
REMARK 923 INTER-LIGAND FREE ENERGY PREDICTED BY IDOCK:   -4.97 KCAL/MOL
REMARK 924 INTRA-LIGAND FREE ENERGY PREDICTED BY IDOCK:    0.23 KCAL/MOL
REMARK 927      BINDING AFFINITY PREDICTED BY RF-SCORE:    0.00 PKD
ROOT
HETATM    1  C   UNL     1      -6.669  11.105  67.893  1.00  0.00    -0.063 C  
HETATM    2  O   UNL     1      -7.761  11.650  68.621  1.00  0.00    -0.130 OA 
ENDROOT
BRANCH   2   3
HETATM    3  C   UNL     1      -8.904  10.789  68.594  1.00  0.00    -0.152 C  
BRANCH   3   4
HETATM    4  C   UNL     1     -10.170  11.639  68.431  1.00  0.00    -0.207 C  
BRANCH   4   5
HETATM    5  N   UNL     1     -10.516  11.822  67.010  1.00  0.00    -0.214 N  
HETATM    6  C   UNL     1     -10.073   9.477  66.317  1.00  0.00    -0.327 C  
HETATM    7  O   UNL     1     -10.880  11.217  64.893  1.00  0.00    -0.275 OA 
HETATM    8  H   UNL     1     -10.797  12.764  66.736  1.00  0.00     0.000 HD 
HETATM    9  C   UNL     1     -10.508  10.887  66.018  1.00  0.00    -0.225 C  
ENDBRANCH   4   5
BRANCH   4  10
HETATM   10  C   UNL     1     -11.310  10.950  69.198  1.00  0.00    -0.283 C  
HETATM   11  O   UNL     1     -12.462  10.946  68.771  1.00  0.00    -0.431 OA 
HETATM   12  H   UNL     1     -10.024  10.563  70.781  1.00  0.00     0.000 HD 
HETATM   13  N   UNL     1     -10.982  10.461  70.445  1.00  0.00    -0.291 N  
BRANCH  13  14
HETATM   14  C   UNL     1     -11.956   9.811  71.289  1.00  0.00    -0.386 C  
BRANCH  14  15
HETATM   15  C   UNL     1     -11.536   8.406  71.633  1.00  0.00    -0.348 A  
HETATM   16  C   UNL     1     -11.075   8.082  72.918  1.00  0.00    -0.399 A  
HETATM   17  C   UNL     1     -10.701   6.771  73.225  1.00  0.00    -0.330 A  
HETATM   18  C   UNL     1     -10.776   5.776  72.252  1.00  0.00    -0.282 A  
HETATM   19  C   UNL     1     -11.219   6.089  70.969  1.00  0.00    -0.332 A  
HETATM   20  C   UNL     1     -11.593   7.397  70.660  1.00  0.00    -0.295 A  
ENDBRANCH  14  15
ENDBRANCH  13  14
ENDBRANCH   4  10
ENDBRANCH   3   4
ENDBRANCH   2   3
TORSDOF 6
ENDMDL
MODEL      198
REMARK 921   NORMALIZED FREE ENERGY PREDICTED BY IDOCK:   -3.20 KCAL/MOL
REMARK 922        TOTAL FREE ENERGY PREDICTED BY IDOCK:   -4.73 KCAL/MOL
REMARK 923 INTER-LIGAND FREE ENERGY PREDICTED BY IDOCK:   -4.97 KCAL/MOL
REMARK 924 INTRA-LIGAND FREE ENERGY PREDICTED BY IDOCK:    0.24 KCAL/MOL
REMARK 927      BINDING AFFINITY PREDICTED BY RF-SCORE:    0.00 PKD
ROOT
HETATM    1  C   UNL     1      -8.048  10.377  65.385  1.00  0.00    -0.152 C  
HETATM    2  O   UNL     1      -7.993  11.103  66.605  1.00  0.00    -0.149 OA 
ENDROOT
BRANCH   2   3
HETATM    3  C   UNL     1      -9.054  12.059  66.706  1.00  0.00    -0.197 C  
BRANCH   3   4
HETATM    4  C   UNL     1      -9.450  12.218  68.179  1.00  0.00    -0.213 C  
BRANCH   4   5
HETATM    5  N   UNL     1      -9.970  13.569  68.454  1.00  0.00    -0.236 N  
HETATM    6  C   UNL     1     -11.790  13.510  66.763  1.00  0.00    -0.450 C  
HETATM    7  O   UNL     1     -11.346  15.315  68.263  1.00  0.00    -0.307 OA 
HETATM    8  H   UNL     1      -9.479  14.099  69.175  1.00  0.00     0.000 HD 
HETATM    9  C   UNL     1     -11.026  14.196  67.864  1.00  0.00    -0.251 C  
ENDBRANCH   4   5
BRANCH   4  10
HETATM   10  C   UNL     1     -10.493  11.140  68.512  1.00  0.00    -0.191 C  
HETATM   11  O   UNL     1     -11.001  10.444  67.635  1.00  0.00    -0.287 OA 
HETATM   12  H   UNL     1     -10.513  11.756  70.494  1.00  0.00     0.000 HD 
HETATM   13  N   UNL     1     -10.914  11.100  69.824  1.00  0.00    -0.201 N  
BRANCH  13  14
HETATM   14  C   UNL     1     -11.908  10.155  70.277  1.00  0.00    -0.261 C  
BRANCH  14  15
HETATM   15  C   UNL     1     -11.344   9.216  71.311  1.00  0.00    -0.406 A  
HETATM   16  C   UNL     1     -12.180   8.360  72.045  1.00  0.00    -0.419 A  
HETATM   17  C   UNL     1     -11.641   7.486  72.992  1.00  0.00    -0.154 A  
HETATM   18  C   UNL     1     -10.265   7.463  73.220  1.00  0.00    -0.386 A  
HETATM   19  C   UNL     1      -9.428   8.318  72.506  1.00  0.00    -0.356 A  
HETATM   20  C   UNL     1      -9.964   9.192  71.560  1.00  0.00    -0.358 A  
ENDBRANCH  14  15
ENDBRANCH  13  14
ENDBRANCH   4  10
ENDBRANCH   3   4
ENDBRANCH   2   3
TORSDOF 6
ENDMDL
MODEL      199
REMARK 921   NORMALIZED FREE ENERGY PREDICTED BY IDOCK:   -3.20 KCAL/MOL
REMARK 922        TOTAL FREE ENERGY PREDICTED BY IDOCK:   -4.73 KCAL/MOL
REMARK 923 INTER-LIGAND FREE ENERGY PREDICTED BY IDOCK:   -4.25 KCAL/MOL
REMARK 924 INTRA-LIGAND FREE ENERGY PREDICTED BY IDOCK:   -0.48 KCAL/MOL
REMARK 927      BINDING AFFINITY PREDICTED BY RF-SCORE:    0.00 PKD
ROOT
HETATM    1  C   UNL     1     -10.707   6.397  68.971  1.00  0.00    -0.286 C  
HETATM    2  O   UNL     1     -11.502   6.716  67.837  1.00  0.00    -0.115 OA 
ENDROOT
BRANCH   2   3
HETATM    3  C   UNL     1     -10.764   6.592  66.617  1.00  0.00    -0.146 C  
BRANCH   3   4
HETATM    4  C   UNL     1      -9.266   6.535  66.937  1.00  0.00    -0.140 C  
BRANCH   4   5
HETATM    5  N   UNL     1      -8.607   5.421  66.232  1.00  0.00    -0.119 N  
HETATM    6  C   UNL     1      -7.834   4.228  68.269  1.00  0.00    -0.075 C  
HETATM    7  O   UNL     1      -7.514   3.487  66.021  1.00  0.00    -0.074 OA 
HETATM    8  H   UNL     1      -8.637   5.457  65.213  1.00  0.00     0.000 HD 
HETATM    9  C   UNL     1      -7.963   4.350  66.774  1.00  0.00    -0.098 C  
ENDBRANCH   4   5
BRANCH   4  10
HETATM   10  C   UNL     1      -8.643   7.886  66.552  1.00  0.00    -0.142 C  
HETATM   11  O   UNL     1      -7.572   8.258  67.026  1.00  0.00    -0.090 OA 
HETATM   12  H   UNL     1     -10.337   8.366  65.453  1.00  0.00     0.000 HD 
HETATM   13  N   UNL     1      -9.421   8.698  65.754  1.00  0.00    -0.174 N  
BRANCH  13  14
HETATM   14  C   UNL     1      -8.974  10.005  65.332  1.00  0.00    -0.180 C  
BRANCH  14  15
HETATM   15  C   UNL     1     -10.124  10.973  65.228  1.00  0.00    -0.332 A  
HETATM   16  C   UNL     1     -10.618  11.635  66.363  1.00  0.00    -0.299 A  
HETATM   17  C   UNL     1     -11.677  12.538  66.248  1.00  0.00    -0.462 A  
HETATM   18  C   UNL     1     -12.257  12.783  65.004  1.00  0.00    -0.527 A  
HETATM   19  C   UNL     1     -11.784  12.121  63.874  1.00  0.00    -0.546 A  
HETATM   20  C   UNL     1     -10.726  11.218  63.986  1.00  0.00    -0.444 A  
ENDBRANCH  14  15
ENDBRANCH  13  14
ENDBRANCH   4  10
ENDBRANCH   3   4
ENDBRANCH   2   3
TORSDOF 6
ENDMDL
MODEL      200
REMARK 921   NORMALIZED FREE ENERGY PREDICTED BY IDOCK:   -3.20 KCAL/MOL
REMARK 922        TOTAL FREE ENERGY PREDICTED BY IDOCK:   -4.73 KCAL/MOL
REMARK 923 INTER-LIGAND FREE ENERGY PREDICTED BY IDOCK:   -4.21 KCAL/MOL
REMARK 924 INTRA-LIGAND FREE ENERGY PREDICTED BY IDOCK:   -0.52 KCAL/MOL
REMARK 927      BINDING AFFINITY PREDICTED BY RF-SCORE:    0.00 PKD
ROOT
HETATM    1  C   UNL     1     -11.918  13.468  68.868  1.00  0.00    -0.341 C  
HETATM    2  O   UNL     1     -10.859  12.614  68.458  1.00  0.00    -0.235 OA 
ENDROOT
BRANCH   2   3
HETATM    3  C   UNL     1     -11.341  11.462  67.759  1.00  0.00    -0.287 C  
BRANCH   3   4
HETATM    4  C   UNL     1     -10.714  11.422  66.360  1.00  0.00    -0.275 C  
BRANCH   4   5
HETATM    5  N   UNL     1     -10.263  12.759  65.935  1.00  0.00    -0.283 N  
HETATM    6  C   UNL     1     -11.873  13.006  64.058  1.00  0.00    -0.510 C  
HETATM    7  O   UNL     1     -10.279  14.646  64.744  1.00  0.00    -0.367 OA 
HETATM    8  H   UNL     1      -9.488  13.159  66.464  1.00  0.00     0.000 HD 
HETATM    9  C   UNL     1     -10.754  13.526  64.921  1.00  0.00    -0.381 C  
ENDBRANCH   4   5
BRANCH   4  10
HETATM   10  C   UNL     1      -9.547  10.422  66.388  1.00  0.00    -0.179 C  
HETATM   11  O   UNL     1      -8.743  10.347  65.462  1.00  0.00    -0.163 OA 
HETATM   12  H   UNL     1     -10.282   9.596  68.144  1.00  0.00     0.000 HD 
HETATM   13  N   UNL     1      -9.543   9.537  67.445  1.00  0.00    -0.138 N  
BRANCH  13  14
HETATM   14  C   UNL     1      -8.522   8.526  67.588  1.00  0.00    -0.129 C  
BRANCH  14  15
HETATM   15  C   UNL     1      -9.063   7.151  67.299  1.00  0.00    -0.130 A  
HETATM   16  C   UNL     1      -8.982   6.597  66.012  1.00  0.00    -0.131 A  
HETATM   17  C   UNL     1      -9.478   5.315  65.762  1.00  0.00    -0.132 A  
HETATM   18  C   UNL     1     -10.065   4.578  66.790  1.00  0.00    -0.220 A  
HETATM   19  C   UNL     1     -10.163   5.124  68.068  1.00  0.00    -0.178 A  
HETATM   20  C   UNL     1      -9.668   6.404  68.320  1.00  0.00    -0.127 A  
ENDBRANCH  14  15
ENDBRANCH  13  14
ENDBRANCH   4  10
ENDBRANCH   3   4
ENDBRANCH   2   3
TORSDOF 6
ENDMDL
MODEL      201
REMARK 921   NORMALIZED FREE ENERGY PREDICTED BY IDOCK:   -3.20 KCAL/MOL
REMARK 922        TOTAL FREE ENERGY PREDICTED BY IDOCK:   -4.73 KCAL/MOL
REMARK 923 INTER-LIGAND FREE ENERGY PREDICTED BY IDOCK:   -4.26 KCAL/MOL
REMARK 924 INTRA-LIGAND FREE ENERGY PREDICTED BY IDOCK:   -0.46 KCAL/MOL
REMARK 927      BINDING AFFINITY PREDICTED BY RF-SCORE:    0.00 PKD
ROOT
HETATM    1  C   UNL     1      -6.282  10.443  64.435  1.00  0.00    -0.065 C  
HETATM    2  O   UNL     1      -7.678  10.439  64.698  1.00  0.00    -0.140 OA 
ENDROOT
BRANCH   2   3
HETATM    3  C   UNL     1      -7.965  10.744  66.067  1.00  0.00    -0.154 C  
BRANCH   3   4
HETATM    4  C   UNL     1      -8.937   9.697  66.623  1.00  0.00    -0.146 C  
BRANCH   4   5
HETATM    5  N   UNL     1      -8.268   8.794  67.576  1.00  0.00    -0.109 N  
HETATM    6  C   UNL     1      -9.792   6.861  67.234  1.00  0.00    -0.196 C  
HETATM    7  O   UNL     1      -7.884   6.887  68.670  1.00  0.00    -0.114 OA 
HETATM    8  H   UNL     1      -7.462   9.180  68.068  1.00  0.00     0.000 HD 
HETATM    9  C   UNL     1      -8.595   7.506  67.880  1.00  0.00    -0.121 C  
ENDBRANCH   4   5
BRANCH   4  10
HETATM   10  C   UNL     1     -10.109  10.439  67.287  1.00  0.00    -0.200 C  
HETATM   11  O   UNL     1     -11.181  10.595  66.707  1.00  0.00    -0.191 OA 
HETATM   12  H   UNL     1      -8.901  10.925  68.902  1.00  0.00     0.000 HD 
HETATM   13  N   UNL     1      -9.834  11.023  68.505  1.00  0.00    -0.185 N  
BRANCH  13  14
HETATM   14  C   UNL     1     -10.832  11.772  69.233  1.00  0.00    -0.133 C  
BRANCH  14  15
HETATM   15  C   UNL     1     -11.575  10.897  70.208  1.00  0.00    -0.426 A  
HETATM   16  C   UNL     1     -12.720  11.361  70.871  1.00  0.00    -0.397 A  
HETATM   17  C   UNL     1     -13.405  10.533  71.764  1.00  0.00    -0.446 A  
HETATM   18  C   UNL     1     -12.950   9.238  72.007  1.00  0.00    -0.504 A  
HETATM   19  C   UNL     1     -11.805   8.771  71.364  1.00  0.00    -0.369 A  
HETATM   20  C   UNL     1     -11.120   9.597  70.473  1.00  0.00    -0.369 A  
ENDBRANCH  14  15
ENDBRANCH  13  14
ENDBRANCH   4  10
ENDBRANCH   3   4
ENDBRANCH   2   3
TORSDOF 6
ENDMDL
MODEL      202
REMARK 921   NORMALIZED FREE ENERGY PREDICTED BY IDOCK:   -3.19 KCAL/MOL
REMARK 922        TOTAL FREE ENERGY PREDICTED BY IDOCK:   -4.71 KCAL/MOL
REMARK 923 INTER-LIGAND FREE ENERGY PREDICTED BY IDOCK:   -4.23 KCAL/MOL
REMARK 924 INTRA-LIGAND FREE ENERGY PREDICTED BY IDOCK:   -0.48 KCAL/MOL
REMARK 927      BINDING AFFINITY PREDICTED BY RF-SCORE:    0.00 PKD
ROOT
HETATM    1  C   UNL     1     -12.250  12.033  69.266  1.00  0.00    -0.077 C  
HETATM    2  O   UNL     1     -12.171  11.765  67.873  1.00  0.00    -0.538 OA 
ENDROOT
BRANCH   2   3
HETATM    3  C   UNL     1     -11.237  10.720  67.582  1.00  0.00    -0.299 C  
BRANCH   3   4
HETATM    4  C   UNL     1      -9.824  11.192  67.944  1.00  0.00    -0.174 C  
BRANCH   4   5
HETATM    5  N   UNL     1      -8.860  10.078  67.916  1.00  0.00    -0.125 N  
HETATM    6  C   UNL     1      -9.174   9.387  70.283  1.00  0.00    -0.285 C  
HETATM    7  O   UNL     1      -7.741   8.315  68.702  1.00  0.00    -0.109 OA 
HETATM    8  H   UNL     1      -8.375   9.929  67.032  1.00  0.00     0.000 HD 
HETATM    9  C   UNL     1      -8.538   9.223  68.928  1.00  0.00    -0.130 C  
ENDBRANCH   4   5
BRANCH   4  10
HETATM   10  C   UNL     1      -9.423  12.301  66.958  1.00  0.00    -0.204 C  
HETATM   11  O   UNL     1      -9.291  12.077  65.757  1.00  0.00    -0.215 OA 
HETATM   12  H   UNL     1      -9.150  13.621  68.537  1.00  0.00     0.000 HD 
HETATM   13  N   UNL     1      -9.096  13.515  67.524  1.00  0.00    -0.203 N  
BRANCH  13  14
HETATM   14  C   UNL     1      -8.678  14.642  66.723  1.00  0.00    -0.203 C  
BRANCH  14  15
HETATM   15  C   UNL     1      -9.075  15.948  67.359  1.00  0.00    -0.205 A  
HETATM   16  C   UNL     1      -8.135  16.969  67.565  1.00  0.00    -0.189 A  
HETATM   17  C   UNL     1      -8.521  18.179  68.146  1.00  0.00    -0.282 A  
HETATM   18  C   UNL     1      -9.845  18.379  68.533  1.00  0.00    -0.402 A  
HETATM   19  C   UNL     1     -10.784  17.367  68.346  1.00  0.00    -0.301 A  
HETATM   20  C   UNL     1     -10.401  16.157  67.766  1.00  0.00    -0.283 A  
ENDBRANCH  14  15
ENDBRANCH  13  14
ENDBRANCH   4  10
ENDBRANCH   3   4
ENDBRANCH   2   3
TORSDOF 6
ENDMDL
MODEL      203
REMARK 921   NORMALIZED FREE ENERGY PREDICTED BY IDOCK:   -3.17 KCAL/MOL
REMARK 922        TOTAL FREE ENERGY PREDICTED BY IDOCK:   -4.69 KCAL/MOL
REMARK 923 INTER-LIGAND FREE ENERGY PREDICTED BY IDOCK:   -4.14 KCAL/MOL
REMARK 924 INTRA-LIGAND FREE ENERGY PREDICTED BY IDOCK:   -0.55 KCAL/MOL
REMARK 927      BINDING AFFINITY PREDICTED BY RF-SCORE:    0.00 PKD
ROOT
HETATM    1  C   UNL     1     -11.404  10.733  69.303  1.00  0.00    -0.286 C  
HETATM    2  O   UNL     1     -11.125  10.440  70.665  1.00  0.00    -0.313 OA 
ENDROOT
BRANCH   2   3
HETATM    3  C   UNL     1     -11.755   9.227  71.090  1.00  0.00    -0.325 C  
BRANCH   3   4
HETATM    4  C   UNL     1     -10.697   8.296  71.696  1.00  0.00    -0.256 C  
BRANCH   4   5
HETATM    5  N   UNL     1     -11.270   6.984  72.044  1.00  0.00    -0.246 N  
HETATM    6  C   UNL     1      -9.665   6.460  73.867  1.00  0.00    -0.228 C  
HETATM    7  O   UNL     1     -11.499   5.086  73.195  1.00  0.00    -0.327 OA 
HETATM    8  H   UNL     1     -12.071   6.684  71.487  1.00  0.00     0.000 HD 
HETATM    9  C   UNL     1     -10.861   6.122  73.017  1.00  0.00    -0.257 C  
ENDBRANCH   4   5
BRANCH   4  10
HETATM   10  C   UNL     1      -9.550   8.153  70.683  1.00  0.00    -0.166 C  
HETATM   11  O   UNL     1      -8.430   8.605  70.912  1.00  0.00    -0.134 OA 
HETATM   12  H   UNL     1     -10.858   7.324  69.302  1.00  0.00     0.000 HD 
HETATM   13  N   UNL     1      -9.893   7.611  69.463  1.00  0.00    -0.175 N  
BRANCH  13  14
HETATM   14  C   UNL     1      -8.924   7.438  68.406  1.00  0.00    -0.134 C  
BRANCH  14  15
HETATM   15  C   UNL     1      -8.941   8.600  67.448  1.00  0.00    -0.144 A  
HETATM   16  C   UNL     1      -8.027   9.656  67.576  1.00  0.00    -0.106 A  
HETATM   17  C   UNL     1      -8.047  10.722  66.672  1.00  0.00    -0.142 A  
HETATM   18  C   UNL     1      -8.982  10.745  65.639  1.00  0.00    -0.205 A  
HETATM   19  C   UNL     1      -9.903   9.708  65.511  1.00  0.00    -0.352 A  
HETATM   20  C   UNL     1      -9.885   8.643  66.412  1.00  0.00    -0.341 A  
ENDBRANCH  14  15
ENDBRANCH  13  14
ENDBRANCH   4  10
ENDBRANCH   3   4
ENDBRANCH   2   3
TORSDOF 6
ENDMDL
MODEL      204
REMARK 921   NORMALIZED FREE ENERGY PREDICTED BY IDOCK:   -3.17 KCAL/MOL
REMARK 922        TOTAL FREE ENERGY PREDICTED BY IDOCK:   -4.69 KCAL/MOL
REMARK 923 INTER-LIGAND FREE ENERGY PREDICTED BY IDOCK:   -4.20 KCAL/MOL
REMARK 924 INTRA-LIGAND FREE ENERGY PREDICTED BY IDOCK:   -0.49 KCAL/MOL
REMARK 927      BINDING AFFINITY PREDICTED BY RF-SCORE:    0.00 PKD
ROOT
HETATM    1  C   UNL     1      -9.511  13.918  66.651  1.00  0.00    -0.285 C  
HETATM    2  O   UNL     1      -9.822  12.597  66.230  1.00  0.00    -0.252 OA 
ENDROOT
BRANCH   2   3
HETATM    3  C   UNL     1      -8.749  11.686  66.492  1.00  0.00    -0.182 C  
BRANCH   3   4
HETATM    4  C   UNL     1      -8.826  10.520  65.500  1.00  0.00    -0.184 C  
BRANCH   4   5
HETATM    5  N   UNL     1      -7.679  10.522  64.575  1.00  0.00    -0.338 N  
HETATM    6  C   UNL     1      -8.934   9.730  62.582  1.00  0.00    -0.284 C  
HETATM    7  O   UNL     1      -6.617  10.306  62.625  1.00  0.00    -0.127 OA 
HETATM    8  H   UNL     1      -6.783  10.804  64.974  1.00  0.00     0.000 HD 
HETATM    9  C   UNL     1      -7.668  10.195  63.253  1.00  0.00    -0.151 C  
ENDBRANCH   4   5
BRANCH   4  10
HETATM   10  C   UNL     1      -8.890   9.212  66.305  1.00  0.00    -0.148 C  
HETATM   11  O   UNL     1      -7.934   8.442  66.357  1.00  0.00    -0.096 OA 
HETATM   12  H   UNL     1     -10.900   9.543  66.704  1.00  0.00     0.000 HD 
HETATM   13  N   UNL     1     -10.120   8.902  66.846  1.00  0.00    -0.248 N  
BRANCH  13  14
HETATM   14  C   UNL     1     -10.335   7.693  67.607  1.00  0.00    -0.237 C  
BRANCH  14  15
HETATM   15  C   UNL     1     -10.415   7.979  69.084  1.00  0.00    -0.217 A  
HETATM   16  C   UNL     1     -10.707   9.267  69.557  1.00  0.00    -0.236 A  
HETATM   17  C   UNL     1     -10.788   9.514  70.930  1.00  0.00    -0.407 A  
HETATM   18  C   UNL     1     -10.572   8.480  71.841  1.00  0.00    -0.392 A  
HETATM   19  C   UNL     1     -10.268   7.201  71.382  1.00  0.00    -0.203 A  
HETATM   20  C   UNL     1     -10.186   6.952  70.011  1.00  0.00    -0.211 A  
ENDBRANCH  14  15
ENDBRANCH  13  14
ENDBRANCH   4  10
ENDBRANCH   3   4
ENDBRANCH   2   3
TORSDOF 6
ENDMDL
MODEL      205
REMARK 921   NORMALIZED FREE ENERGY PREDICTED BY IDOCK:   -3.17 KCAL/MOL
REMARK 922        TOTAL FREE ENERGY PREDICTED BY IDOCK:   -4.68 KCAL/MOL
REMARK 923 INTER-LIGAND FREE ENERGY PREDICTED BY IDOCK:   -4.14 KCAL/MOL
REMARK 924 INTRA-LIGAND FREE ENERGY PREDICTED BY IDOCK:   -0.54 KCAL/MOL
REMARK 927      BINDING AFFINITY PREDICTED BY RF-SCORE:    0.00 PKD
ROOT
HETATM    1  C   UNL     1     -12.709  11.570  71.253  1.00  0.00    -0.364 C  
HETATM    2  O   UNL     1     -11.724  12.179  70.431  1.00  0.00    -0.255 OA 
ENDROOT
BRANCH   2   3
HETATM    3  C   UNL     1     -11.793  11.712  69.079  1.00  0.00    -0.328 C  
BRANCH   3   4
HETATM    4  C   UNL     1     -10.409  11.837  68.432  1.00  0.00    -0.214 C  
BRANCH   4   5
HETATM    5  N   UNL     1      -9.769  13.121  68.772  1.00  0.00    -0.418 N  
HETATM    6  C   UNL     1     -10.613  14.376  66.800  1.00  0.00    -0.282 C  
HETATM    7  O   UNL     1      -9.275  15.286  68.556  1.00  0.00    -0.186 OA 
HETATM    8  H   UNL     1      -9.207  13.129  69.623  1.00  0.00     0.000 HD 
HETATM    9  C   UNL     1      -9.838  14.298  68.088  1.00  0.00    -0.226 C  
ENDBRANCH   4   5
BRANCH   4  10
HETATM   10  C   UNL     1      -9.554  10.648  68.898  1.00  0.00    -0.196 C  
HETATM   11  O   UNL     1      -8.341  10.755  69.068  1.00  0.00    -0.148 OA 
HETATM   12  H   UNL     1     -11.201   9.393  68.753  1.00  0.00     0.000 HD 
HETATM   13  N   UNL     1     -10.208   9.437  68.981  1.00  0.00    -0.198 N  
BRANCH  13  14
HETATM   14  C   UNL     1      -9.527   8.229  69.383  1.00  0.00    -0.159 C  
BRANCH  14  15
HETATM   15  C   UNL     1      -9.554   7.192  68.290  1.00  0.00    -0.136 A  
HETATM   16  C   UNL     1      -8.381   6.544  67.877  1.00  0.00    -0.115 A  
HETATM   17  C   UNL     1      -8.425   5.576  66.871  1.00  0.00    -0.110 A  
HETATM   18  C   UNL     1      -9.637   5.252  66.264  1.00  0.00    -0.175 A  
HETATM   19  C   UNL     1     -10.807   5.899  66.657  1.00  0.00    -0.292 A  
HETATM   20  C   UNL     1     -10.765   6.866  67.661  1.00  0.00    -0.344 A  
ENDBRANCH  14  15
ENDBRANCH  13  14
ENDBRANCH   4  10
ENDBRANCH   3   4
ENDBRANCH   2   3
TORSDOF 6
ENDMDL
MODEL      206
REMARK 921   NORMALIZED FREE ENERGY PREDICTED BY IDOCK:   -3.16 KCAL/MOL
REMARK 922        TOTAL FREE ENERGY PREDICTED BY IDOCK:   -4.67 KCAL/MOL
REMARK 923 INTER-LIGAND FREE ENERGY PREDICTED BY IDOCK:   -4.25 KCAL/MOL
REMARK 924 INTRA-LIGAND FREE ENERGY PREDICTED BY IDOCK:   -0.42 KCAL/MOL
REMARK 927      BINDING AFFINITY PREDICTED BY RF-SCORE:    0.00 PKD
ROOT
HETATM    1  C   UNL     1     -11.029   6.173  67.247  1.00  0.00    -0.326 C  
HETATM    2  O   UNL     1     -10.168   7.282  67.031  1.00  0.00    -0.224 OA 
ENDROOT
BRANCH   2   3
HETATM    3  C   UNL     1      -9.505   7.687  68.233  1.00  0.00    -0.145 C  
BRANCH   3   4
HETATM    4  C   UNL     1      -8.267   8.516  67.870  1.00  0.00    -0.119 C  
BRANCH   4   5
HETATM    5  N   UNL     1      -7.766   8.176  66.527  1.00  0.00    -0.092 N  
HETATM    6  C   UNL     1      -5.659   7.098  67.287  1.00  0.00    -0.024 C  
HETATM    7  O   UNL     1      -6.384   7.285  65.019  1.00  0.00    -0.037 OA 
HETATM    8  H   UNL     1      -8.354   8.461  65.744  1.00  0.00     0.000 HD 
HETATM    9  C   UNL     1      -6.613   7.526  66.203  1.00  0.00    -0.046 C  
ENDBRANCH   4   5
BRANCH   4  10
HETATM   10  C   UNL     1      -8.643  10.003  67.966  1.00  0.00    -0.121 C  
HETATM   11  O   UNL     1      -8.168  10.732  68.834  1.00  0.00    -0.135 OA 
HETATM   12  H   UNL     1     -10.049   9.755  66.459  1.00  0.00     0.000 HD 
HETATM   13  N   UNL     1      -9.636  10.425  67.107  1.00  0.00    -0.162 N  
BRANCH  13  14
HETATM   14  C   UNL     1     -10.108  11.790  67.100  1.00  0.00    -0.203 C  
BRANCH  14  15
HETATM   15  C   UNL     1     -10.796  12.129  65.804  1.00  0.00    -0.319 A  
HETATM   16  C   UNL     1     -12.046  12.765  65.792  1.00  0.00    -0.505 A  
HETATM   17  C   UNL     1     -12.666  13.084  64.581  1.00  0.00    -0.367 A  
HETATM   18  C   UNL     1     -12.048  12.763  63.373  1.00  0.00    -0.619 A  
HETATM   19  C   UNL     1     -10.813  12.118  63.374  1.00  0.00    -0.474 A  
HETATM   20  C   UNL     1     -10.193  11.799  64.582  1.00  0.00    -0.326 A  
ENDBRANCH  14  15
ENDBRANCH  13  14
ENDBRANCH   4  10
ENDBRANCH   3   4
ENDBRANCH   2   3
TORSDOF 6
ENDMDL
MODEL      207
REMARK 921   NORMALIZED FREE ENERGY PREDICTED BY IDOCK:   -3.15 KCAL/MOL
REMARK 922        TOTAL FREE ENERGY PREDICTED BY IDOCK:   -4.66 KCAL/MOL
REMARK 923 INTER-LIGAND FREE ENERGY PREDICTED BY IDOCK:   -4.30 KCAL/MOL
REMARK 924 INTRA-LIGAND FREE ENERGY PREDICTED BY IDOCK:   -0.36 KCAL/MOL
REMARK 927      BINDING AFFINITY PREDICTED BY RF-SCORE:    0.00 PKD
ROOT
HETATM    1  C   UNL     1      -6.096  14.421  70.069  1.00  0.00    -0.151 C  
HETATM    2  O   UNL     1      -7.251  13.883  69.440  1.00  0.00    -0.047 OA 
ENDROOT
BRANCH   2   3
HETATM    3  C   UNL     1      -6.942  13.286  68.177  1.00  0.00    -0.114 C  
BRANCH   3   4
HETATM    4  C   UNL     1      -7.521  11.867  68.136  1.00  0.00    -0.100 C  
BRANCH   4   5
HETATM    5  N   UNL     1      -7.703  11.320  69.493  1.00  0.00    -0.367 N  
HETATM    6  C   UNL     1      -7.541   8.926  68.846  1.00  0.00    -0.087 C  
HETATM    7  O   UNL     1      -7.823   9.748  71.071  1.00  0.00    -0.267 OA 
HETATM    8  H   UNL     1      -7.845  12.005  70.235  1.00  0.00     0.000 HD 
HETATM    9  C   UNL     1      -7.706  10.013  69.876  1.00  0.00    -0.175 C  
ENDBRANCH   4   5
BRANCH   4  10
HETATM   10  C   UNL     1      -8.853  11.916  67.371  1.00  0.00    -0.171 C  
HETATM   11  O   UNL     1      -8.943  11.522  66.211  1.00  0.00    -0.193 OA 
HETATM   12  H   UNL     1      -9.738  12.923  68.956  1.00  0.00     0.000 HD 
HETATM   13  N   UNL     1      -9.893  12.546  68.021  1.00  0.00    -0.208 N  
BRANCH  13  14
HETATM   14  C   UNL     1     -11.197  12.689  67.415  1.00  0.00    -0.290 C  
BRANCH  14  15
HETATM   15  C   UNL     1     -11.240  13.861  66.471  1.00  0.00    -0.327 A  
HETATM   16  C   UNL     1     -10.413  14.977  66.664  1.00  0.00    -0.284 A  
HETATM   17  C   UNL     1     -10.456  16.052  65.772  1.00  0.00    -0.391 A  
HETATM   18  C   UNL     1     -11.330  16.025  64.686  1.00  0.00    -0.312 A  
HETATM   19  C   UNL     1     -12.165  14.927  64.492  1.00  0.00    -0.396 A  
HETATM   20  C   UNL     1     -12.124  13.853  65.381  1.00  0.00    -0.423 A  
ENDBRANCH  14  15
ENDBRANCH  13  14
ENDBRANCH   4  10
ENDBRANCH   3   4
ENDBRANCH   2   3
TORSDOF 6
ENDMDL
MODEL      208
REMARK 921   NORMALIZED FREE ENERGY PREDICTED BY IDOCK:   -3.15 KCAL/MOL
REMARK 922        TOTAL FREE ENERGY PREDICTED BY IDOCK:   -4.66 KCAL/MOL
REMARK 923 INTER-LIGAND FREE ENERGY PREDICTED BY IDOCK:   -4.18 KCAL/MOL
REMARK 924 INTRA-LIGAND FREE ENERGY PREDICTED BY IDOCK:   -0.48 KCAL/MOL
REMARK 927      BINDING AFFINITY PREDICTED BY RF-SCORE:    0.00 PKD
ROOT
HETATM    1  C   UNL     1      -7.610   8.707  69.033  1.00  0.00    -0.090 C  
HETATM    2  O   UNL     1      -7.329   8.142  67.760  1.00  0.00    -0.089 OA 
ENDROOT
BRANCH   2   3
HETATM    3  C   UNL     1      -7.457   9.104  66.708  1.00  0.00    -0.087 C  
BRANCH   3   4
HETATM    4  C   UNL     1      -8.670   8.745  65.842  1.00  0.00    -0.170 C  
BRANCH   4   5
HETATM    5  N   UNL     1      -8.852   7.285  65.750  1.00  0.00    -0.314 N  
HETATM    6  C   UNL     1      -7.558   6.981  63.650  1.00  0.00    -0.105 C  
HETATM    7  O   UNL     1      -8.580   5.233  64.917  1.00  0.00    -0.147 OA 
HETATM    8  H   UNL     1      -9.411   6.857  66.487  1.00  0.00     0.000 HD 
HETATM    9  C   UNL     1      -8.364   6.438  64.800  1.00  0.00    -0.033 C  
ENDBRANCH   4   5
BRANCH   4  10
HETATM   10  C   UNL     1      -9.908   9.424  66.448  1.00  0.00    -0.269 C  
HETATM   11  O   UNL     1     -10.884   8.773  66.813  1.00  0.00    -0.136 OA 
HETATM   12  H   UNL     1      -9.097  11.290  66.041  1.00  0.00     0.000 HD 
HETATM   13  N   UNL     1      -9.904  10.802  66.429  1.00  0.00    -0.201 N  
BRANCH  13  14
HETATM   14  C   UNL     1     -11.011  11.575  66.943  1.00  0.00    -0.296 C  
BRANCH  14  15
HETATM   15  C   UNL     1     -11.365  12.711  66.020  1.00  0.00    -0.369 A  
HETATM   16  C   UNL     1     -11.182  14.046  66.411  1.00  0.00    -0.321 A  
HETATM   17  C   UNL     1     -11.505  15.089  65.538  1.00  0.00    -0.265 A  
HETATM   18  C   UNL     1     -12.019  14.809  64.273  1.00  0.00    -0.387 A  
HETATM   19  C   UNL     1     -12.217  13.487  63.879  1.00  0.00    -0.458 A  
HETATM   20  C   UNL     1     -11.896  12.445  64.749  1.00  0.00    -0.442 A  
ENDBRANCH  14  15
ENDBRANCH  13  14
ENDBRANCH   4  10
ENDBRANCH   3   4
ENDBRANCH   2   3
TORSDOF 6
ENDMDL
MODEL      209
REMARK 921   NORMALIZED FREE ENERGY PREDICTED BY IDOCK:   -3.15 KCAL/MOL
REMARK 922        TOTAL FREE ENERGY PREDICTED BY IDOCK:   -4.66 KCAL/MOL
REMARK 923 INTER-LIGAND FREE ENERGY PREDICTED BY IDOCK:   -4.07 KCAL/MOL
REMARK 924 INTRA-LIGAND FREE ENERGY PREDICTED BY IDOCK:   -0.60 KCAL/MOL
REMARK 927      BINDING AFFINITY PREDICTED BY RF-SCORE:    0.00 PKD
ROOT
HETATM    1  C   UNL     1      -5.368   9.198  69.139  1.00  0.00    -0.036 C  
HETATM    2  O   UNL     1      -5.984  10.099  70.049  1.00  0.00    -0.045 OA 
ENDROOT
BRANCH   2   3
HETATM    3  C   UNL     1      -7.061  10.820  69.441  1.00  0.00    -0.122 C  
BRANCH   3   4
HETATM    4  C   UNL     1      -8.217   9.854  69.159  1.00  0.00    -0.128 C  
BRANCH   4   5
HETATM    5  N   UNL     1      -9.249   9.927  70.209  1.00  0.00    -0.375 N  
HETATM    6  C   UNL     1      -9.182   7.520  70.823  1.00  0.00    -0.158 C  
HETATM    7  O   UNL     1     -10.547   9.181  71.863  1.00  0.00    -0.348 OA 
HETATM    8  H   UNL     1      -9.667  10.845  70.362  1.00  0.00     0.000 HD 
HETATM    9  C   UNL     1      -9.711   8.919  71.000  1.00  0.00    -0.252 C  
ENDBRANCH   4   5
BRANCH   4  10
HETATM   10  C   UNL     1      -8.801  10.198  67.779  1.00  0.00    -0.125 C  
HETATM   11  O   UNL     1      -8.103  10.196  66.767  1.00  0.00    -0.116 OA 
HETATM   12  H   UNL     1     -10.616  10.689  68.657  1.00  0.00     0.000 HD 
HETATM   13  N   UNL     1     -10.109  10.634  67.774  1.00  0.00    -0.170 N  
BRANCH  13  14
HETATM   14  C   UNL     1     -10.781  11.014  66.554  1.00  0.00    -0.241 C  
BRANCH  14  15
HETATM   15  C   UNL     1     -10.705  12.501  66.323  1.00  0.00    -0.288 A  
HETATM   16  C   UNL     1     -10.600  13.028  65.028  1.00  0.00    -0.336 A  
HETATM   17  C   UNL     1     -10.542  14.410  64.829  1.00  0.00    -0.417 A  
HETATM   18  C   UNL     1     -10.581  15.276  65.921  1.00  0.00    -0.345 A  
HETATM   19  C   UNL     1     -10.672  14.762  67.213  1.00  0.00    -0.294 A  
HETATM   20  C   UNL     1     -10.730  13.383  67.413  1.00  0.00    -0.269 A  
ENDBRANCH  14  15
ENDBRANCH  13  14
ENDBRANCH   4  10
ENDBRANCH   3   4
ENDBRANCH   2   3
TORSDOF 6
ENDMDL
MODEL      210
REMARK 921   NORMALIZED FREE ENERGY PREDICTED BY IDOCK:   -3.14 KCAL/MOL
REMARK 922        TOTAL FREE ENERGY PREDICTED BY IDOCK:   -4.64 KCAL/MOL
REMARK 923 INTER-LIGAND FREE ENERGY PREDICTED BY IDOCK:   -4.17 KCAL/MOL
REMARK 924 INTRA-LIGAND FREE ENERGY PREDICTED BY IDOCK:   -0.47 KCAL/MOL
REMARK 927      BINDING AFFINITY PREDICTED BY RF-SCORE:    0.00 PKD
ROOT
HETATM    1  C   UNL     1      -7.236   9.137  70.093  1.00  0.00    -0.070 C  
HETATM    2  O   UNL     1      -8.052  10.294  69.967  1.00  0.00    -0.132 OA 
ENDROOT
BRANCH   2   3
HETATM    3  C   UNL     1      -8.296  10.629  68.597  1.00  0.00    -0.137 C  
BRANCH   3   4
HETATM    4  C   UNL     1      -9.791  10.466  68.298  1.00  0.00    -0.154 C  
BRANCH   4   5
HETATM    5  N   UNL     1     -10.358  11.689  67.702  1.00  0.00    -0.186 N  
HETATM    6  C   UNL     1     -12.019  12.124  69.498  1.00  0.00    -0.338 C  
HETATM    7  O   UNL     1     -11.654  13.500  67.580  1.00  0.00    -0.300 OA 
HETATM    8  H   UNL     1      -9.961  11.974  66.806  1.00  0.00     0.000 HD 
HETATM    9  C   UNL     1     -11.346  12.484  68.200  1.00  0.00    -0.295 C  
ENDBRANCH   4   5
BRANCH   4  10
HETATM   10  C   UNL     1      -9.963   9.258  67.364  1.00  0.00    -0.199 C  
HETATM   11  O   UNL     1      -9.742   9.342  66.158  1.00  0.00    -0.238 OA 
HETATM   12  H   UNL     1     -10.739   8.141  68.931  1.00  0.00     0.000 HD 
HETATM   13  N   UNL     1     -10.502   8.127  67.940  1.00  0.00    -0.217 N  
BRANCH  13  14
HETATM   14  C   UNL     1     -10.743   6.924  67.178  1.00  0.00    -0.366 C  
BRANCH  14  15
HETATM   15  C   UNL     1     -10.265   5.701  67.915  1.00  0.00    -0.234 A  
HETATM   16  C   UNL     1      -9.654   4.637  67.234  1.00  0.00    -0.201 A  
HETATM   17  C   UNL     1      -9.206   3.514  67.934  1.00  0.00    -0.230 A  
HETATM   18  C   UNL     1      -9.369   3.439  69.316  1.00  0.00    -0.240 A  
HETATM   19  C   UNL     1      -9.987   4.484  70.001  1.00  0.00    -0.280 A  
HETATM   20  C   UNL     1     -10.436   5.606  69.304  1.00  0.00    -0.356 A  
ENDBRANCH  14  15
ENDBRANCH  13  14
ENDBRANCH   4  10
ENDBRANCH   3   4
ENDBRANCH   2   3
TORSDOF 6
ENDMDL
MODEL      211
REMARK 921   NORMALIZED FREE ENERGY PREDICTED BY IDOCK:   -3.13 KCAL/MOL
REMARK 922        TOTAL FREE ENERGY PREDICTED BY IDOCK:   -4.63 KCAL/MOL
REMARK 923 INTER-LIGAND FREE ENERGY PREDICTED BY IDOCK:   -4.51 KCAL/MOL
REMARK 924 INTRA-LIGAND FREE ENERGY PREDICTED BY IDOCK:   -0.13 KCAL/MOL
REMARK 927      BINDING AFFINITY PREDICTED BY RF-SCORE:    0.00 PKD
ROOT
HETATM    1  C   UNL     1     -10.385   8.236  68.918  1.00  0.00    -0.215 C  
HETATM    2  O   UNL     1      -9.187   8.971  68.712  1.00  0.00    -0.133 OA 
ENDROOT
BRANCH   2   3
HETATM    3  C   UNL     1      -9.424  10.382  68.678  1.00  0.00    -0.167 C  
BRANCH   3   4
HETATM    4  C   UNL     1      -8.200  11.084  68.079  1.00  0.00    -0.123 C  
BRANCH   4   5
HETATM    5  N   UNL     1      -7.791  10.462  66.806  1.00  0.00    -0.114 N  
HETATM    6  C   UNL     1      -9.945  10.826  65.621  1.00  0.00    -0.317 C  
HETATM    7  O   UNL     1      -7.993   9.825  64.678  1.00  0.00    -0.125 OA 
HETATM    8  H   UNL     1      -6.845  10.083  66.777  1.00  0.00     0.000 HD 
HETATM    9  C   UNL     1      -8.524  10.332  65.665  1.00  0.00    -0.160 C  
ENDBRANCH   4   5
BRANCH   4  10
HETATM   10  C   UNL     1      -8.547  12.569  67.887  1.00  0.00    -0.179 C  
HETATM   11  O   UNL     1      -7.718  13.374  67.470  1.00  0.00    -0.160 OA 
HETATM   12  H   UNL     1     -10.409  12.256  68.748  1.00  0.00     0.000 HD 
HETATM   13  N   UNL     1      -9.792  12.955  68.338  1.00  0.00    -0.220 N  
BRANCH  13  14
HETATM   14  C   UNL     1     -10.245  14.324  68.245  1.00  0.00    -0.244 C  
BRANCH  14  15
HETATM   15  C   UNL     1     -10.924  14.591  66.928  1.00  0.00    -0.316 A  
HETATM   16  C   UNL     1     -10.397  15.516  66.015  1.00  0.00    -0.342 A  
HETATM   17  C   UNL     1     -11.033  15.744  64.792  1.00  0.00    -0.410 A  
HETATM   18  C   UNL     1     -12.203  15.057  64.473  1.00  0.00    -0.344 A  
HETATM   19  C   UNL     1     -12.743  14.146  65.378  1.00  0.00    -0.453 A  
HETATM   20  C   UNL     1     -12.110  13.917  66.600  1.00  0.00    -0.485 A  
ENDBRANCH  14  15
ENDBRANCH  13  14
ENDBRANCH   4  10
ENDBRANCH   3   4
ENDBRANCH   2   3
TORSDOF 6
ENDMDL
MODEL      212
REMARK 921   NORMALIZED FREE ENERGY PREDICTED BY IDOCK:   -3.12 KCAL/MOL
REMARK 922        TOTAL FREE ENERGY PREDICTED BY IDOCK:   -4.62 KCAL/MOL
REMARK 923 INTER-LIGAND FREE ENERGY PREDICTED BY IDOCK:   -4.09 KCAL/MOL
REMARK 924 INTRA-LIGAND FREE ENERGY PREDICTED BY IDOCK:   -0.53 KCAL/MOL
REMARK 927      BINDING AFFINITY PREDICTED BY RF-SCORE:    0.00 PKD
ROOT
HETATM    1  C   UNL     1      -9.858   6.513  74.323  1.00  0.00    -0.314 C  
HETATM    2  O   UNL     1      -9.441   7.188  73.144  1.00  0.00    -0.146 OA 
ENDROOT
BRANCH   2   3
HETATM    3  C   UNL     1     -10.433   8.108  72.676  1.00  0.00    -0.330 C  
BRANCH   3   4
HETATM    4  C   UNL     1      -9.838   8.956  71.546  1.00  0.00    -0.314 C  
BRANCH   4   5
HETATM    5  N   UNL     1      -8.928   8.165  70.700  1.00  0.00    -0.146 N  
HETATM    6  C   UNL     1      -7.324  10.004  70.231  1.00  0.00    -0.152 C  
HETATM    7  O   UNL     1      -7.116   7.752  69.464  1.00  0.00    -0.060 OA 
HETATM    8  H   UNL     1      -9.192   7.191  70.548  1.00  0.00     0.000 HD 
HETATM    9  C   UNL     1      -7.777   8.574  70.096  1.00  0.00    -0.086 C  
ENDBRANCH   4   5
BRANCH   4  10
HETATM   10  C   UNL     1     -10.999   9.538  70.724  1.00  0.00    -0.321 C  
HETATM   11  O   UNL     1     -11.421   8.972  69.718  1.00  0.00    -0.037 OA 
HETATM   12  H   UNL     1     -10.997  11.243  71.907  1.00  0.00     0.000 HD 
HETATM   13  N   UNL     1     -11.438  10.787  71.109  1.00  0.00     0.061 N  
BRANCH  13  14
HETATM   14  C   UNL     1     -12.506  11.467  70.414  1.00  0.00    -0.240 C  
BRANCH  14  15
HETATM   15  C   UNL     1     -11.972  12.512  69.471  1.00  0.00    -0.329 A  
HETATM   16  C   UNL     1     -11.547  12.171  68.178  1.00  0.00    -0.397 A  
HETATM   17  C   UNL     1     -11.064  13.154  67.310  1.00  0.00    -0.305 A  
HETATM   18  C   UNL     1     -10.995  14.482  67.726  1.00  0.00    -0.282 A  
HETATM   19  C   UNL     1     -11.401  14.830  69.013  1.00  0.00    -0.295 A  
HETATM   20  C   UNL     1     -11.883  13.850  69.881  1.00  0.00    -0.394 A  
ENDBRANCH  14  15
ENDBRANCH  13  14
ENDBRANCH   4  10
ENDBRANCH   3   4
ENDBRANCH   2   3
TORSDOF 6
ENDMDL
MODEL      213
REMARK 921   NORMALIZED FREE ENERGY PREDICTED BY IDOCK:   -3.10 KCAL/MOL
REMARK 922        TOTAL FREE ENERGY PREDICTED BY IDOCK:   -4.59 KCAL/MOL
REMARK 923 INTER-LIGAND FREE ENERGY PREDICTED BY IDOCK:   -4.14 KCAL/MOL
REMARK 924 INTRA-LIGAND FREE ENERGY PREDICTED BY IDOCK:   -0.46 KCAL/MOL
REMARK 927      BINDING AFFINITY PREDICTED BY RF-SCORE:    0.00 PKD
ROOT
HETATM    1  C   UNL     1     -10.603   3.642  63.659  1.00  0.00    -0.272 C  
HETATM    2  O   UNL     1     -10.019   3.654  64.954  1.00  0.00    -0.176 OA 
ENDROOT
BRANCH   2   3
HETATM    3  C   UNL     1     -10.442   4.787  65.720  1.00  0.00    -0.238 C  
BRANCH   3   4
HETATM    4  C   UNL     1      -9.266   5.290  66.566  1.00  0.00    -0.139 C  
BRANCH   4   5
HETATM    5  N   UNL     1      -8.875   6.659  66.184  1.00  0.00    -0.150 N  
HETATM    6  C   UNL     1      -7.459   6.008  64.249  1.00  0.00    -0.076 C  
HETATM    7  O   UNL     1      -7.905   8.246  64.952  1.00  0.00    -0.110 OA 
HETATM    8  H   UNL     1      -9.244   7.409  66.769  1.00  0.00     0.000 HD 
HETATM    9  C   UNL     1      -8.081   7.044  65.146  1.00  0.00    -0.124 C  
ENDBRANCH   4   5
BRANCH   4  10
HETATM   10  C   UNL     1      -9.677   5.220  68.045  1.00  0.00    -0.141 C  
HETATM   11  O   UNL     1      -9.230   4.357  68.797  1.00  0.00    -0.116 OA 
HETATM   12  H   UNL     1     -11.061   6.738  67.744  1.00  0.00     0.000 HD 
HETATM   13  N   UNL     1     -10.671   6.095  68.432  1.00  0.00    -0.265 N  
BRANCH  13  14
HETATM   14  C   UNL     1     -11.174   6.126  69.786  1.00  0.00    -0.423 C  
BRANCH  14  15
HETATM   15  C   UNL     1     -11.338   7.539  70.280  1.00  0.00    -0.219 A  
HETATM   16  C   UNL     1     -12.384   7.885  71.148  1.00  0.00    -0.248 A  
HETATM   17  C   UNL     1     -12.516   9.198  71.608  1.00  0.00    -0.434 A  
HETATM   18  C   UNL     1     -11.611  10.177  71.200  1.00  0.00    -0.430 A  
HETATM   19  C   UNL     1     -10.576   9.846  70.327  1.00  0.00    -0.359 A  
HETATM   20  C   UNL     1     -10.443   8.536  69.867  1.00  0.00    -0.219 A  
ENDBRANCH  14  15
ENDBRANCH  13  14
ENDBRANCH   4  10
ENDBRANCH   3   4
ENDBRANCH   2   3
TORSDOF 6
ENDMDL
MODEL      214
REMARK 921   NORMALIZED FREE ENERGY PREDICTED BY IDOCK:   -3.10 KCAL/MOL
REMARK 922        TOTAL FREE ENERGY PREDICTED BY IDOCK:   -4.59 KCAL/MOL
REMARK 923 INTER-LIGAND FREE ENERGY PREDICTED BY IDOCK:   -4.16 KCAL/MOL
REMARK 924 INTRA-LIGAND FREE ENERGY PREDICTED BY IDOCK:   -0.42 KCAL/MOL
REMARK 927      BINDING AFFINITY PREDICTED BY RF-SCORE:    0.00 PKD
ROOT
HETATM    1  C   UNL     1     -11.665  11.433  68.536  1.00  0.00    -0.318 C  
HETATM    2  O   UNL     1     -10.792  10.406  68.088  1.00  0.00    -0.224 OA 
ENDROOT
BRANCH   2   3
HETATM    3  C   UNL     1     -10.848  10.239  66.668  1.00  0.00    -0.045 C  
BRANCH   3   4
HETATM    4  C   UNL     1      -9.802   9.202  66.241  1.00  0.00    -0.289 C  
BRANCH   4   5
HETATM    5  N   UNL     1      -8.439   9.763  66.283  1.00  0.00    -0.123 N  
HETATM    6  C   UNL     1      -8.012   9.621  63.839  1.00  0.00    -0.143 C  
HETATM    7  O   UNL     1      -6.506  10.515  65.462  1.00  0.00    -0.124 OA 
HETATM    8  H   UNL     1      -8.086  10.011  67.207  1.00  0.00     0.000 HD 
HETATM    9  C   UNL     1      -7.595   9.990  65.238  1.00  0.00    -0.137 C  
ENDBRANCH   4   5
BRANCH   4  10
HETATM   10  C   UNL     1      -9.932   7.984  67.169  1.00  0.00    -0.235 C  
HETATM   11  O   UNL     1     -10.847   7.173  67.041  1.00  0.00    -0.351 OA 
HETATM   12  H   UNL     1      -8.352   8.679  68.322  1.00  0.00     0.000 HD 
HETATM   13  N   UNL     1      -9.043   7.935  68.221  1.00  0.00    -0.135 N  
BRANCH  13  14
HETATM   14  C   UNL     1      -9.062   6.861  69.187  1.00  0.00    -0.136 C  
BRANCH  14  15
HETATM   15  C   UNL     1      -9.874   7.227  70.401  1.00  0.00    -0.183 A  
HETATM   16  C   UNL     1     -11.009   6.486  70.764  1.00  0.00    -0.328 A  
HETATM   17  C   UNL     1     -11.745   6.830  71.900  1.00  0.00    -0.349 A  
HETATM   18  C   UNL     1     -11.361   7.920  72.679  1.00  0.00    -0.468 A  
HETATM   19  C   UNL     1     -10.244   8.672  72.321  1.00  0.00    -0.372 A  
HETATM   20  C   UNL     1      -9.507   8.330  71.186  1.00  0.00    -0.206 A  
ENDBRANCH  14  15
ENDBRANCH  13  14
ENDBRANCH   4  10
ENDBRANCH   3   4
ENDBRANCH   2   3
TORSDOF 6
ENDMDL
MODEL      215
REMARK 921   NORMALIZED FREE ENERGY PREDICTED BY IDOCK:   -3.09 KCAL/MOL
REMARK 922        TOTAL FREE ENERGY PREDICTED BY IDOCK:   -4.58 KCAL/MOL
REMARK 923 INTER-LIGAND FREE ENERGY PREDICTED BY IDOCK:   -5.09 KCAL/MOL
REMARK 924 INTRA-LIGAND FREE ENERGY PREDICTED BY IDOCK:    0.51 KCAL/MOL
REMARK 927      BINDING AFFINITY PREDICTED BY RF-SCORE:    0.00 PKD
ROOT
HETATM    1  C   UNL     1      -8.795  12.035  68.022  1.00  0.00    -0.179 C  
HETATM    2  O   UNL     1      -9.851  12.715  68.686  1.00  0.00    -0.177 OA 
ENDROOT
BRANCH   2   3
HETATM    3  C   UNL     1     -10.682  13.436  67.770  1.00  0.00    -0.248 C  
BRANCH   3   4
HETATM    4  C   UNL     1     -10.215  13.153  66.337  1.00  0.00    -0.286 C  
BRANCH   4   5
HETATM    5  N   UNL     1     -11.260  12.469  65.555  1.00  0.00    -0.303 N  
HETATM    6  C   UNL     1     -12.958  14.275  65.731  1.00  0.00    -0.149 C  
HETATM    7  O   UNL     1     -13.226  12.231  64.526  1.00  0.00    -0.799 OA 
HETATM    8  H   UNL     1     -11.024  11.539  65.211  1.00  0.00     0.000 HD 
HETATM    9  C   UNL     1     -12.503  12.928  65.236  1.00  0.00    -0.493 C  
ENDBRANCH   4   5
BRANCH   4  10
HETATM   10  C   UNL     1      -9.820  14.491  65.691  1.00  0.00    -0.305 C  
HETATM   11  O   UNL     1      -9.981  14.697  64.490  1.00  0.00    -0.082 OA 
HETATM   12  H   UNL     1      -8.986  15.123  67.483  1.00  0.00     0.000 HD 
HETATM   13  N   UNL     1      -9.160  15.380  66.512  1.00  0.00    -0.277 N  
BRANCH  13  14
HETATM   14  C   UNL     1      -8.709  16.667  66.035  1.00  0.00    -0.204 C  
BRANCH  14  15
HETATM   15  C   UNL     1      -8.103  17.484  67.146  1.00  0.00    -0.229 A  
HETATM   16  C   UNL     1      -8.695  18.685  67.567  1.00  0.00    -0.284 A  
HETATM   17  C   UNL     1      -8.127  19.426  68.606  1.00  0.00    -0.402 A  
HETATM   18  C   UNL     1      -6.963  18.980  69.229  1.00  0.00    -0.302 A  
HETATM   19  C   UNL     1      -6.359  17.796  68.810  1.00  0.00    -0.212 A  
HETATM   20  C   UNL     1      -6.924  17.055  67.772  1.00  0.00    -0.159 A  
ENDBRANCH  14  15
ENDBRANCH  13  14
ENDBRANCH   4  10
ENDBRANCH   3   4
ENDBRANCH   2   3
TORSDOF 6
ENDMDL
MODEL      216
REMARK 921   NORMALIZED FREE ENERGY PREDICTED BY IDOCK:   -3.09 KCAL/MOL
REMARK 922        TOTAL FREE ENERGY PREDICTED BY IDOCK:   -4.57 KCAL/MOL
REMARK 923 INTER-LIGAND FREE ENERGY PREDICTED BY IDOCK:   -4.08 KCAL/MOL
REMARK 924 INTRA-LIGAND FREE ENERGY PREDICTED BY IDOCK:   -0.49 KCAL/MOL
REMARK 927      BINDING AFFINITY PREDICTED BY RF-SCORE:    0.00 PKD
ROOT
HETATM    1  C   UNL     1      -8.809  14.667  66.903  1.00  0.00    -0.242 C  
HETATM    2  O   UNL     1      -9.445  13.481  67.357  1.00  0.00    -0.211 OA 
ENDROOT
BRANCH   2   3
HETATM    3  C   UNL     1      -8.571  12.678  68.157  1.00  0.00    -0.188 C  
BRANCH   3   4
HETATM    4  C   UNL     1      -8.284  11.362  67.424  1.00  0.00    -0.145 C  
BRANCH   4   5
HETATM    5  N   UNL     1      -6.867  11.261  67.033  1.00  0.00    -0.116 N  
HETATM    6  C   UNL     1      -7.264  10.129  64.857  1.00  0.00    -0.131 C  
HETATM    7  O   UNL     1      -5.133  10.783  65.714  1.00  0.00    -0.086 OA 
HETATM    8  H   UNL     1      -6.191  11.631  67.702  1.00  0.00     0.000 HD 
HETATM    9  C   UNL     1      -6.349  10.734  65.889  1.00  0.00    -0.109 C  
ENDBRANCH   4   5
BRANCH   4  10
HETATM   10  C   UNL     1      -8.693  10.203  68.346  1.00  0.00    -0.123 C  
HETATM   11  O   UNL     1      -7.864   9.590  69.014  1.00  0.00    -0.074 OA 
HETATM   12  H   UNL     1     -10.641  10.312  67.638  1.00  0.00     0.000 HD 
HETATM   13  N   UNL     1     -10.014   9.815  68.270  1.00  0.00    -0.149 N  
BRANCH  13  14
HETATM   14  C   UNL     1     -10.535   8.725  69.061  1.00  0.00    -0.203 C  
BRANCH  14  15
HETATM   15  C   UNL     1     -11.443   9.223  70.155  1.00  0.00    -0.138 A  
HETATM   16  C   UNL     1     -11.933  10.537  70.148  1.00  0.00    -0.398 A  
HETATM   17  C   UNL     1     -12.784  10.980  71.164  1.00  0.00    -0.521 A  
HETATM   18  C   UNL     1     -13.146  10.119  72.199  1.00  0.00    -0.463 A  
HETATM   19  C   UNL     1     -12.654   8.816  72.223  1.00  0.00    -0.460 A  
HETATM   20  C   UNL     1     -11.804   8.371  71.210  1.00  0.00    -0.327 A  
ENDBRANCH  14  15
ENDBRANCH  13  14
ENDBRANCH   4  10
ENDBRANCH   3   4
ENDBRANCH   2   3
TORSDOF 6
ENDMDL
MODEL      217
REMARK 921   NORMALIZED FREE ENERGY PREDICTED BY IDOCK:   -3.07 KCAL/MOL
REMARK 922        TOTAL FREE ENERGY PREDICTED BY IDOCK:   -4.55 KCAL/MOL
REMARK 923 INTER-LIGAND FREE ENERGY PREDICTED BY IDOCK:   -3.99 KCAL/MOL
REMARK 924 INTRA-LIGAND FREE ENERGY PREDICTED BY IDOCK:   -0.56 KCAL/MOL
REMARK 927      BINDING AFFINITY PREDICTED BY RF-SCORE:    0.00 PKD
ROOT
HETATM    1  C   UNL     1      -8.016   2.807  70.225  1.00  0.00    -0.042 C  
HETATM    2  O   UNL     1      -9.102   3.464  69.585  1.00  0.00    -0.104 OA 
ENDROOT
BRANCH   2   3
HETATM    3  C   UNL     1      -9.227   4.826  70.009  1.00  0.00    -0.119 C  
BRANCH   3   4
HETATM    4  C   UNL     1      -8.629   5.744  68.937  1.00  0.00    -0.106 C  
BRANCH   4   5
HETATM    5  N   UNL     1      -9.098   5.375  67.589  1.00  0.00    -0.108 N  
HETATM    6  C   UNL     1      -6.853   5.325  66.524  1.00  0.00    -0.063 C  
HETATM    7  O   UNL     1      -8.917   4.806  65.439  1.00  0.00    -0.139 OA 
HETATM    8  H   UNL     1     -10.106   5.270  67.480  1.00  0.00     0.000 HD 
HETATM    9  C   UNL     1      -8.349   5.157  66.472  1.00  0.00    -0.108 C  
ENDBRANCH   4   5
BRANCH   4  10
HETATM   10  C   UNL     1      -9.008   7.192  69.282  1.00  0.00    -0.138 C  
HETATM   11  O   UNL     1      -8.514   8.146  68.685  1.00  0.00    -0.125 OA 
HETATM   12  H   UNL     1     -10.143   6.524  70.886  1.00  0.00     0.000 HD 
HETATM   13  N   UNL     1      -9.825   7.351  70.381  1.00  0.00    -0.183 N  
BRANCH  13  14
HETATM   14  C   UNL     1     -10.244   8.656  70.838  1.00  0.00    -0.209 C  
BRANCH  14  15
HETATM   15  C   UNL     1     -11.693   8.656  71.251  1.00  0.00    -0.341 A  
HETATM   16  C   UNL     1     -12.289   9.802  71.799  1.00  0.00    -0.470 A  
HETATM   17  C   UNL     1     -13.637   9.790  72.166  1.00  0.00    -0.432 A  
HETATM   18  C   UNL     1     -14.398   8.634  71.998  1.00  0.00    -0.512 A  
HETATM   19  C   UNL     1     -13.812   7.486  71.468  1.00  0.00    -0.487 A  
HETATM   20  C   UNL     1     -12.466   7.496  71.100  1.00  0.00    -0.306 A  
ENDBRANCH  14  15
ENDBRANCH  13  14
ENDBRANCH   4  10
ENDBRANCH   3   4
ENDBRANCH   2   3
TORSDOF 6
ENDMDL
MODEL      218
REMARK 921   NORMALIZED FREE ENERGY PREDICTED BY IDOCK:   -3.03 KCAL/MOL
REMARK 922        TOTAL FREE ENERGY PREDICTED BY IDOCK:   -4.49 KCAL/MOL
REMARK 923 INTER-LIGAND FREE ENERGY PREDICTED BY IDOCK:   -4.04 KCAL/MOL
REMARK 924 INTRA-LIGAND FREE ENERGY PREDICTED BY IDOCK:   -0.45 KCAL/MOL
REMARK 927      BINDING AFFINITY PREDICTED BY RF-SCORE:    0.00 PKD
ROOT
HETATM    1  C   UNL     1      -5.411  13.643  71.430  1.00  0.00    -0.216 C  
HETATM    2  O   UNL     1      -6.103  14.417  70.461  1.00  0.00    -0.169 OA 
ENDROOT
BRANCH   2   3
HETATM    3  C   UNL     1      -6.181  13.747  69.198  1.00  0.00    -0.100 C  
BRANCH   3   4
HETATM    4  C   UNL     1      -7.603  13.887  68.641  1.00  0.00    -0.130 C  
BRANCH   4   5
HETATM    5  N   UNL     1      -7.626  14.727  67.430  1.00  0.00    -0.196 N  
HETATM    6  C   UNL     1      -7.673  16.911  68.614  1.00  0.00    -0.235 C  
HETATM    7  O   UNL     1      -7.609  16.617  66.245  1.00  0.00    -0.289 OA 
HETATM    8  H   UNL     1      -7.631  14.228  66.540  1.00  0.00     0.000 HD 
HETATM    9  C   UNL     1      -7.642  16.087  67.354  1.00  0.00    -0.171 C  
ENDBRANCH   4   5
BRANCH   4  10
HETATM   10  C   UNL     1      -8.144  12.478  68.353  1.00  0.00    -0.136 C  
HETATM   11  O   UNL     1      -7.647  11.480  68.871  1.00  0.00    -0.128 OA 
HETATM   12  H   UNL     1      -9.441  13.255  66.931  1.00  0.00     0.000 HD 
HETATM   13  N   UNL     1      -9.122  12.399  67.384  1.00  0.00    -0.176 N  
BRANCH  13  14
HETATM   14  C   UNL     1      -9.706  11.138  66.992  1.00  0.00    -0.186 C  
BRANCH  14  15
HETATM   15  C   UNL     1      -9.689  10.964  65.496  1.00  0.00    -0.282 A  
HETATM   16  C   UNL     1     -10.309  11.896  64.651  1.00  0.00    -0.326 A  
HETATM   17  C   UNL     1     -10.274  11.727  63.264  1.00  0.00    -0.452 A  
HETATM   18  C   UNL     1      -9.627  10.623  62.710  1.00  0.00    -0.333 A  
HETATM   19  C   UNL     1      -9.019   9.684  63.541  1.00  0.00    -0.247 A  
HETATM   20  C   UNL     1      -9.054   9.851  64.925  1.00  0.00    -0.271 A  
ENDBRANCH  14  15
ENDBRANCH  13  14
ENDBRANCH   4  10
ENDBRANCH   3   4
ENDBRANCH   2   3
TORSDOF 6
ENDMDL
MODEL      219
REMARK 921   NORMALIZED FREE ENERGY PREDICTED BY IDOCK:   -3.02 KCAL/MOL
REMARK 922        TOTAL FREE ENERGY PREDICTED BY IDOCK:   -4.48 KCAL/MOL
REMARK 923 INTER-LIGAND FREE ENERGY PREDICTED BY IDOCK:   -3.97 KCAL/MOL
REMARK 924 INTRA-LIGAND FREE ENERGY PREDICTED BY IDOCK:   -0.51 KCAL/MOL
REMARK 927      BINDING AFFINITY PREDICTED BY RF-SCORE:    0.00 PKD
ROOT
HETATM    1  C   UNL     1     -11.180   8.884  71.760  1.00  0.00    -0.362 C  
HETATM    2  O   UNL     1     -10.289   9.670  70.980  1.00  0.00    -0.298 OA 
ENDROOT
BRANCH   2   3
HETATM    3  C   UNL     1      -9.834   8.968  69.818  1.00  0.00    -0.180 C  
BRANCH   3   4
HETATM    4  C   UNL     1     -10.420   9.634  68.567  1.00  0.00    -0.212 C  
BRANCH   4   5
HETATM    5  N   UNL     1      -9.654  10.834  68.187  1.00  0.00    -0.156 N  
HETATM    6  C   UNL     1     -11.617  12.326  67.884  1.00  0.00    -0.416 C  
HETATM    7  O   UNL     1      -9.331  12.972  67.637  1.00  0.00    -0.188 OA 
HETATM    8  H   UNL     1      -8.641  10.722  68.144  1.00  0.00     0.000 HD 
HETATM    9  C   UNL     1     -10.133  12.073  67.885  1.00  0.00    -0.195 C  
ENDBRANCH   4   5
BRANCH   4  10
HETATM   10  C   UNL     1     -10.430   8.596  67.434  1.00  0.00    -0.281 C  
HETATM   11  O   UNL     1     -10.265   8.923  66.261  1.00  0.00    -0.284 OA 
HETATM   12  H   UNL     1     -10.967   7.112  68.783  1.00  0.00     0.000 HD 
HETATM   13  N   UNL     1     -10.764   7.310  67.803  1.00  0.00    -0.217 N  
BRANCH  13  14
HETATM   14  C   UNL     1     -10.836   6.235  66.841  1.00  0.00    -0.354 C  
BRANCH  14  15
HETATM   15  C   UNL     1      -9.829   5.157  67.143  1.00  0.00    -0.191 A  
HETATM   16  C   UNL     1      -9.761   4.564  68.413  1.00  0.00    -0.188 A  
HETATM   17  C   UNL     1      -8.829   3.557  68.674  1.00  0.00    -0.159 A  
HETATM   18  C   UNL     1      -7.952   3.138  67.673  1.00  0.00    -0.076 A  
HETATM   19  C   UNL     1      -8.002   3.730  66.413  1.00  0.00    -0.089 A  
HETATM   20  C   UNL     1      -8.932   4.736  66.150  1.00  0.00    -0.122 A  
ENDBRANCH  14  15
ENDBRANCH  13  14
ENDBRANCH   4  10
ENDBRANCH   3   4
ENDBRANCH   2   3
TORSDOF 6
ENDMDL
MODEL      220
REMARK 921   NORMALIZED FREE ENERGY PREDICTED BY IDOCK:   -3.00 KCAL/MOL
REMARK 922        TOTAL FREE ENERGY PREDICTED BY IDOCK:   -4.46 KCAL/MOL
REMARK 923 INTER-LIGAND FREE ENERGY PREDICTED BY IDOCK:   -3.91 KCAL/MOL
REMARK 924 INTRA-LIGAND FREE ENERGY PREDICTED BY IDOCK:   -0.55 KCAL/MOL
REMARK 927      BINDING AFFINITY PREDICTED BY RF-SCORE:    0.00 PKD
ROOT
HETATM    1  C   UNL     1     -10.280   3.767  64.221  1.00  0.00    -0.235 C  
HETATM    2  O   UNL     1     -10.061   3.978  65.608  1.00  0.00    -0.184 OA 
ENDROOT
BRANCH   2   3
HETATM    3  C   UNL     1     -10.732   5.150  66.083  1.00  0.00    -0.185 C  
BRANCH   3   4
HETATM    4  C   UNL     1      -9.689   6.201  66.480  1.00  0.00    -0.145 C  
BRANCH   4   5
HETATM    5  N   UNL     1     -10.303   7.529  66.660  1.00  0.00    -0.490 N  
HETATM    6  C   UNL     1      -8.343   8.844  65.883  1.00  0.00    -0.132 C  
HETATM    7  O   UNL     1     -10.445   9.753  66.562  1.00  0.00    -0.211 OA 
HETATM    8  H   UNL     1     -11.254   7.535  67.028  1.00  0.00     0.000 HD 
HETATM    9  C   UNL     1      -9.756   8.748  66.394  1.00  0.00    -0.265 C  
ENDBRANCH   4   5
BRANCH   4  10
HETATM   10  C   UNL     1      -8.998   5.727  67.769  1.00  0.00    -0.107 C  
HETATM   11  O   UNL     1      -7.778   5.595  67.834  1.00  0.00    -0.090 OA 
HETATM   12  H   UNL     1     -10.848   5.396  68.650  1.00  0.00     0.000 HD 
HETATM   13  N   UNL     1      -9.840   5.337  68.789  1.00  0.00    -0.150 N  
BRANCH  13  14
HETATM   14  C   UNL     1      -9.333   4.847  70.050  1.00  0.00    -0.144 C  
BRANCH  14  15
HETATM   15  C   UNL     1      -9.617   5.812  71.171  1.00  0.00    -0.201 A  
HETATM   16  C   UNL     1     -10.309   5.403  72.321  1.00  0.00    -0.260 A  
HETATM   17  C   UNL     1     -10.555   6.307  73.357  1.00  0.00    -0.293 A  
HETATM   18  C   UNL     1     -10.120   7.627  73.252  1.00  0.00    -0.393 A  
HETATM   19  C   UNL     1      -9.445   8.048  72.108  1.00  0.00    -0.264 A  
HETATM   20  C   UNL     1      -9.199   7.147  71.072  1.00  0.00    -0.158 A  
ENDBRANCH  14  15
ENDBRANCH  13  14
ENDBRANCH   4  10
ENDBRANCH   3   4
ENDBRANCH   2   3
TORSDOF 6
ENDMDL
MODEL      221
REMARK 921   NORMALIZED FREE ENERGY PREDICTED BY IDOCK:   -2.98 KCAL/MOL
REMARK 922        TOTAL FREE ENERGY PREDICTED BY IDOCK:   -4.43 KCAL/MOL
REMARK 923 INTER-LIGAND FREE ENERGY PREDICTED BY IDOCK:   -4.03 KCAL/MOL
REMARK 924 INTRA-LIGAND FREE ENERGY PREDICTED BY IDOCK:   -0.41 KCAL/MOL
REMARK 927      BINDING AFFINITY PREDICTED BY RF-SCORE:    0.00 PKD
ROOT
HETATM    1  C   UNL     1      -9.434   4.636  67.102  1.00  0.00    -0.153 C  
HETATM    2  O   UNL     1      -8.812   5.911  67.023  1.00  0.00    -0.113 OA 
ENDROOT
BRANCH   2   3
HETATM    3  C   UNL     1      -8.518   6.444  68.319  1.00  0.00    -0.115 C  
BRANCH   3   4
HETATM    4  C   UNL     1      -9.385   7.685  68.561  1.00  0.00    -0.147 C  
BRANCH   4   5
HETATM    5  N   UNL     1      -9.525   7.971  70.000  1.00  0.00    -0.160 N  
HETATM    6  C   UNL     1     -11.769   6.937  70.266  1.00  0.00    -0.344 C  
HETATM    7  O   UNL     1     -10.480   7.926  72.016  1.00  0.00    -0.208 OA 
HETATM    8  H   UNL     1      -8.751   8.473  70.434  1.00  0.00     0.000 HD 
HETATM    9  C   UNL     1     -10.563   7.646  70.821  1.00  0.00    -0.221 C  
ENDBRANCH   4   5
BRANCH   4  10
HETATM   10  C   UNL     1      -8.744   8.867  67.817  1.00  0.00    -0.125 C  
HETATM   11  O   UNL     1      -7.558   8.859  67.497  1.00  0.00    -0.091 OA 
HETATM   12  H   UNL     1     -10.501   9.955  68.012  1.00  0.00     0.000 HD 
HETATM   13  N   UNL     1      -9.546   9.978  67.656  1.00  0.00    -0.147 N  
BRANCH  13  14
HETATM   14  C   UNL     1      -9.072  11.172  66.997  1.00  0.00    -0.153 C  
BRANCH  14  15
HETATM   15  C   UNL     1     -10.130  12.243  66.967  1.00  0.00    -0.225 A  
HETATM   16  C   UNL     1     -10.203  13.217  67.974  1.00  0.00    -0.233 A  
HETATM   17  C   UNL     1     -11.184  14.211  67.926  1.00  0.00    -0.299 A  
HETATM   18  C   UNL     1     -12.104  14.237  66.879  1.00  0.00    -0.440 A  
HETATM   19  C   UNL     1     -12.049  13.266  65.881  1.00  0.00    -0.493 A  
HETATM   20  C   UNL     1     -11.070  12.272  65.927  1.00  0.00    -0.360 A  
ENDBRANCH  14  15
ENDBRANCH  13  14
ENDBRANCH   4  10
ENDBRANCH   3   4
ENDBRANCH   2   3
TORSDOF 6
ENDMDL
MODEL      222
REMARK 921   NORMALIZED FREE ENERGY PREDICTED BY IDOCK:   -2.98 KCAL/MOL
REMARK 922        TOTAL FREE ENERGY PREDICTED BY IDOCK:   -4.43 KCAL/MOL
REMARK 923 INTER-LIGAND FREE ENERGY PREDICTED BY IDOCK:   -3.90 KCAL/MOL
REMARK 924 INTRA-LIGAND FREE ENERGY PREDICTED BY IDOCK:   -0.53 KCAL/MOL
REMARK 927      BINDING AFFINITY PREDICTED BY RF-SCORE:    0.00 PKD
ROOT
HETATM    1  C   UNL     1     -10.145   4.829  66.216  1.00  0.00    -0.264 C  
HETATM    2  O   UNL     1     -10.341   6.213  66.470  1.00  0.00    -0.181 OA 
ENDROOT
BRANCH   2   3
HETATM    3  C   UNL     1     -10.481   6.485  67.868  1.00  0.00    -0.222 C  
BRANCH   3   4
HETATM    4  C   UNL     1      -9.551   7.642  68.252  1.00  0.00    -0.153 C  
BRANCH   4   5
HETATM    5  N   UNL     1      -8.665   8.014  67.134  1.00  0.00    -0.129 N  
HETATM    6  C   UNL     1      -6.535   7.409  68.261  1.00  0.00    -0.045 C  
HETATM    7  O   UNL     1      -6.739   8.232  66.029  1.00  0.00    -0.056 OA 
HETATM    8  H   UNL     1      -9.126   8.390  66.305  1.00  0.00     0.000 HD 
HETATM    9  C   UNL     1      -7.307   7.917  67.073  1.00  0.00    -0.091 C  
ENDBRANCH   4   5
BRANCH   4  10
HETATM   10  C   UNL     1     -10.421   8.829  68.693  1.00  0.00    -0.183 C  
HETATM   11  O   UNL     1     -10.879   8.903  69.831  1.00  0.00    -0.229 OA 
HETATM   12  H   UNL     1     -10.413   9.569  66.754  1.00  0.00     0.000 HD 
HETATM   13  N   UNL     1     -10.760   9.724  67.700  1.00  0.00    -0.277 N  
BRANCH  13  14
HETATM   14  C   UNL     1     -11.592  10.875  67.963  1.00  0.00    -0.215 C  
BRANCH  14  15
HETATM   15  C   UNL     1     -11.058  12.108  67.283  1.00  0.00    -0.341 A  
HETATM   16  C   UNL     1     -11.110  12.245  65.887  1.00  0.00    -0.360 A  
HETATM   17  C   UNL     1     -10.621  13.400  65.272  1.00  0.00    -0.333 A  
HETATM   18  C   UNL     1     -10.069  14.423  66.042  1.00  0.00    -0.338 A  
HETATM   19  C   UNL     1     -10.000  14.291  67.427  1.00  0.00    -0.242 A  
HETATM   20  C   UNL     1     -10.488  13.139  68.043  1.00  0.00    -0.245 A  
ENDBRANCH  14  15
ENDBRANCH  13  14
ENDBRANCH   4  10
ENDBRANCH   3   4
ENDBRANCH   2   3
TORSDOF 6
ENDMDL
MODEL      223
REMARK 921   NORMALIZED FREE ENERGY PREDICTED BY IDOCK:   -2.98 KCAL/MOL
REMARK 922        TOTAL FREE ENERGY PREDICTED BY IDOCK:   -4.43 KCAL/MOL
REMARK 923 INTER-LIGAND FREE ENERGY PREDICTED BY IDOCK:   -3.88 KCAL/MOL
REMARK 924 INTRA-LIGAND FREE ENERGY PREDICTED BY IDOCK:   -0.55 KCAL/MOL
REMARK 927      BINDING AFFINITY PREDICTED BY RF-SCORE:    0.00 PKD
ROOT
HETATM    1  C   UNL     1      -9.413   4.480  68.979  1.00  0.00    -0.162 C  
HETATM    2  O   UNL     1     -10.154   5.505  69.625  1.00  0.00    -0.195 OA 
ENDROOT
BRANCH   2   3
HETATM    3  C   UNL     1     -10.510   5.144  70.964  1.00  0.00    -0.171 C  
BRANCH   3   4
HETATM    4  C   UNL     1     -10.198   6.316  71.902  1.00  0.00    -0.201 C  
BRANCH   4   5
HETATM    5  N   UNL     1      -8.818   6.801  71.717  1.00  0.00    -0.129 N  
HETATM    6  C   UNL     1      -8.332   7.163  74.126  1.00  0.00    -0.184 C  
HETATM    7  O   UNL     1      -6.795   7.512  72.332  1.00  0.00    -0.058 OA 
HETATM    8  H   UNL     1      -8.491   6.860  70.752  1.00  0.00     0.000 HD 
HETATM    9  C   UNL     1      -7.928   7.180  72.676  1.00  0.00    -0.099 C  
ENDBRANCH   4   5
BRANCH   4  10
HETATM   10  C   UNL     1     -11.221   7.430  71.632  1.00  0.00    -0.247 C  
HETATM   11  O   UNL     1     -12.429   7.203  71.614  1.00  0.00    -0.334 OA 
HETATM   12  H   UNL     1      -9.681   8.765  71.239  1.00  0.00     0.000 HD 
HETATM   13  N   UNL     1     -10.694   8.656  71.283  1.00  0.00    -0.236 N  
BRANCH  13  14
HETATM   14  C   UNL     1     -11.536   9.789  70.978  1.00  0.00    -0.383 C  
BRANCH  14  15
HETATM   15  C   UNL     1     -11.134  10.441  69.681  1.00  0.00    -0.328 A  
HETATM   16  C   UNL     1     -12.091  11.019  68.835  1.00  0.00    -0.239 A  
HETATM   17  C   UNL     1     -11.702  11.631  67.640  1.00  0.00    -0.300 A  
HETATM   18  C   UNL     1     -10.356  11.663  67.277  1.00  0.00    -0.232 A  
HETATM   19  C   UNL     1      -9.399  11.079  68.104  1.00  0.00    -0.173 A  
HETATM   20  C   UNL     1      -9.786  10.468  69.297  1.00  0.00    -0.215 A  
ENDBRANCH  14  15
ENDBRANCH  13  14
ENDBRANCH   4  10
ENDBRANCH   3   4
ENDBRANCH   2   3
TORSDOF 6
ENDMDL
MODEL      224
REMARK 921   NORMALIZED FREE ENERGY PREDICTED BY IDOCK:   -2.97 KCAL/MOL
REMARK 922        TOTAL FREE ENERGY PREDICTED BY IDOCK:   -4.41 KCAL/MOL
REMARK 923 INTER-LIGAND FREE ENERGY PREDICTED BY IDOCK:   -3.84 KCAL/MOL
REMARK 924 INTRA-LIGAND FREE ENERGY PREDICTED BY IDOCK:   -0.57 KCAL/MOL
REMARK 927      BINDING AFFINITY PREDICTED BY RF-SCORE:    0.00 PKD
ROOT
HETATM    1  C   UNL     1      -7.903   4.413  69.114  1.00  0.00    -0.061 C  
HETATM    2  O   UNL     1      -8.788   5.426  69.572  1.00  0.00    -0.104 OA 
ENDROOT
BRANCH   2   3
HETATM    3  C   UNL     1     -10.098   4.913  69.837  1.00  0.00    -0.262 C  
BRANCH   3   4
HETATM    4  C   UNL     1     -11.118   6.051  69.721  1.00  0.00    -0.406 C  
BRANCH   4   5
HETATM    5  N   UNL     1     -10.921   7.060  70.778  1.00  0.00    -0.246 N  
HETATM    6  C   UNL     1     -13.317   7.265  71.407  1.00  0.00    -0.399 C  
HETATM    7  O   UNL     1     -11.504   8.422  72.446  1.00  0.00    -0.367 OA 
HETATM    8  H   UNL     1      -9.961   7.369  70.928  1.00  0.00     0.000 HD 
HETATM    9  C   UNL     1     -11.866   7.629  71.578  1.00  0.00    -0.295 C  
ENDBRANCH   4   5
BRANCH   4  10
HETATM   10  C   UNL     1     -10.982   6.675  68.323  1.00  0.00    -0.244 C  
HETATM   11  O   UNL     1     -11.143   6.008  67.303  1.00  0.00    -0.303 OA 
HETATM   12  H   UNL     1     -10.349   8.461  69.169  1.00  0.00     0.000 HD 
HETATM   13  N   UNL     1     -10.541   7.981  68.291  1.00  0.00    -0.150 N  
BRANCH  13  14
HETATM   14  C   UNL     1     -10.344   8.688  67.047  1.00  0.00    -0.298 C  
BRANCH  14  15
HETATM   15  C   UNL     1      -8.915   8.596  66.581  1.00  0.00    -0.174 A  
HETATM   16  C   UNL     1      -8.559   8.931  65.266  1.00  0.00    -0.209 A  
HETATM   17  C   UNL     1      -7.227   8.851  64.853  1.00  0.00    -0.091 A  
HETATM   18  C   UNL     1      -6.241   8.431  65.745  1.00  0.00    -0.052 A  
HETATM   19  C   UNL     1      -6.586   8.083  67.049  1.00  0.00    -0.057 A  
HETATM   20  C   UNL     1      -7.915   8.162  67.464  1.00  0.00    -0.122 A  
ENDBRANCH  14  15
ENDBRANCH  13  14
ENDBRANCH   4  10
ENDBRANCH   3   4
ENDBRANCH   2   3
TORSDOF 6
ENDMDL
MODEL      225
REMARK 921   NORMALIZED FREE ENERGY PREDICTED BY IDOCK:   -2.92 KCAL/MOL
REMARK 922        TOTAL FREE ENERGY PREDICTED BY IDOCK:   -4.35 KCAL/MOL
REMARK 923 INTER-LIGAND FREE ENERGY PREDICTED BY IDOCK:   -4.58 KCAL/MOL
REMARK 924 INTRA-LIGAND FREE ENERGY PREDICTED BY IDOCK:    0.22 KCAL/MOL
REMARK 927      BINDING AFFINITY PREDICTED BY RF-SCORE:    0.00 PKD
ROOT
HETATM    1  C   UNL     1      -7.956   6.847  67.705  1.00  0.00    -0.113 C  
HETATM    2  O   UNL     1      -7.872   8.022  66.911  1.00  0.00    -0.100 OA 
ENDROOT
BRANCH   2   3
HETATM    3  C   UNL     1      -9.033   8.848  67.054  1.00  0.00    -0.127 C  
BRANCH   3   4
HETATM    4  C   UNL     1      -9.138   9.320  68.509  1.00  0.00    -0.132 C  
BRANCH   4   5
HETATM    5  N   UNL     1      -8.303  10.510  68.751  1.00  0.00    -0.128 N  
HETATM    6  C   UNL     1      -9.118  11.816  66.800  1.00  0.00    -0.194 C  
HETATM    7  O   UNL     1      -7.532  12.577  68.416  1.00  0.00    -0.114 OA 
HETATM    8  H   UNL     1      -7.680  10.463  69.557  1.00  0.00     0.000 HD 
HETATM    9  C   UNL     1      -8.262  11.666  68.030  1.00  0.00    -0.146 C  
ENDBRANCH   4   5
BRANCH   4  10
HETATM   10  C   UNL     1     -10.617   9.606  68.812  1.00  0.00    -0.216 C  
HETATM   11  O   UNL     1     -11.444   9.742  67.913  1.00  0.00    -0.032 OA 
HETATM   12  H   UNL     1     -10.180   9.779  70.834  1.00  0.00     0.000 HD 
HETATM   13  N   UNL     1     -10.924   9.829  70.138  1.00  0.00    -0.270 N  
BRANCH  13  14
HETATM   14  C   UNL     1     -12.269  10.133  70.569  1.00  0.00    -0.264 C  
BRANCH  14  15
HETATM   15  C   UNL     1     -12.434  11.600  70.866  1.00  0.00    -0.440 A  
HETATM   16  C   UNL     1     -11.837  12.575  70.053  1.00  0.00    -0.363 A  
HETATM   17  C   UNL     1     -12.009  13.933  70.334  1.00  0.00    -0.393 A  
HETATM   18  C   UNL     1     -12.772  14.328  71.432  1.00  0.00    -0.424 A  
HETATM   19  C   UNL     1     -13.359  13.368  72.254  1.00  0.00    -0.641 A  
HETATM   20  C   UNL     1     -13.187  12.012  71.975  1.00  0.00    -0.481 A  
ENDBRANCH  14  15
ENDBRANCH  13  14
ENDBRANCH   4  10
ENDBRANCH   3   4
ENDBRANCH   2   3
TORSDOF 6
ENDMDL
MODEL      226
REMARK 921   NORMALIZED FREE ENERGY PREDICTED BY IDOCK:   -2.90 KCAL/MOL
REMARK 922        TOTAL FREE ENERGY PREDICTED BY IDOCK:   -4.32 KCAL/MOL
REMARK 923 INTER-LIGAND FREE ENERGY PREDICTED BY IDOCK:   -3.86 KCAL/MOL
REMARK 924 INTRA-LIGAND FREE ENERGY PREDICTED BY IDOCK:   -0.46 KCAL/MOL
REMARK 927      BINDING AFFINITY PREDICTED BY RF-SCORE:    0.00 PKD
ROOT
HETATM    1  C   UNL     1      -5.581  10.100  64.727  1.00  0.00    -0.114 C  
HETATM    2  O   UNL     1      -6.926   9.948  64.297  1.00  0.00    -0.119 OA 
ENDROOT
BRANCH   2   3
HETATM    3  C   UNL     1      -7.776   9.490  65.354  1.00  0.00    -0.109 C  
BRANCH   3   4
HETATM    4  C   UNL     1      -8.376  10.700  66.079  1.00  0.00    -0.160 C  
BRANCH   4   5
HETATM    5  N   UNL     1      -9.777  10.927  65.682  1.00  0.00    -0.219 N  
HETATM    6  C   UNL     1      -9.844  13.337  66.284  1.00  0.00    -0.288 C  
HETATM    7  O   UNL     1     -11.638  12.099  65.309  1.00  0.00    -0.344 OA 
HETATM    8  H   UNL     1     -10.277  10.114  65.323  1.00  0.00     0.000 HD 
HETATM    9  C   UNL     1     -10.485  12.090  65.735  1.00  0.00    -0.254 C  
ENDBRANCH   4   5
BRANCH   4  10
HETATM   10  C   UNL     1      -8.257  10.458  67.592  1.00  0.00    -0.110 C  
HETATM   11  O   UNL     1      -7.971  11.366  68.369  1.00  0.00    -0.127 OA 
HETATM   12  H   UNL     1      -8.522   8.420  67.297  1.00  0.00     0.000 HD 
HETATM   13  N   UNL     1      -8.360   9.144  67.997  1.00  0.00    -0.120 N  
BRANCH  13  14
HETATM   14  C   UNL     1      -8.246   8.763  69.386  1.00  0.00    -0.108 C  
BRANCH  14  15
HETATM   15  C   UNL     1      -9.480   8.045  69.864  1.00  0.00    -0.160 A  
HETATM   16  C   UNL     1     -10.104   7.071  69.070  1.00  0.00    -0.182 A  
HETATM   17  C   UNL     1     -11.242   6.405  69.532  1.00  0.00    -0.477 A  
HETATM   18  C   UNL     1     -11.770   6.709  70.786  1.00  0.00    -0.445 A  
HETATM   19  C   UNL     1     -11.166   7.684  71.577  1.00  0.00    -0.277 A  
HETATM   20  C   UNL     1     -10.030   8.351  71.117  1.00  0.00    -0.245 A  
ENDBRANCH  14  15
ENDBRANCH  13  14
ENDBRANCH   4  10
ENDBRANCH   3   4
ENDBRANCH   2   3
TORSDOF 6
ENDMDL
MODEL      227
REMARK 921   NORMALIZED FREE ENERGY PREDICTED BY IDOCK:   -2.90 KCAL/MOL
REMARK 922        TOTAL FREE ENERGY PREDICTED BY IDOCK:   -4.32 KCAL/MOL
REMARK 923 INTER-LIGAND FREE ENERGY PREDICTED BY IDOCK:   -3.87 KCAL/MOL
REMARK 924 INTRA-LIGAND FREE ENERGY PREDICTED BY IDOCK:   -0.44 KCAL/MOL
REMARK 927      BINDING AFFINITY PREDICTED BY RF-SCORE:    0.00 PKD
ROOT
HETATM    1  C   UNL     1     -11.766  12.208  68.127  1.00  0.00    -0.341 C  
HETATM    2  O   UNL     1     -10.684  11.549  67.483  1.00  0.00    -0.203 OA 
ENDROOT
BRANCH   2   3
HETATM    3  C   UNL     1      -9.835  12.468  66.790  1.00  0.00    -0.229 C  
BRANCH   3   4
HETATM    4  C   UNL     1      -8.514  12.610  67.557  1.00  0.00    -0.176 C  
BRANCH   4   5
HETATM    5  N   UNL     1      -8.629  13.593  68.649  1.00  0.00    -0.338 N  
HETATM    6  C   UNL     1      -7.558  15.477  67.434  1.00  0.00    -0.231 C  
HETATM    7  O   UNL     1      -8.459  15.583  69.644  1.00  0.00    -0.244 OA 
HETATM    8  H   UNL     1      -9.057  13.255  69.511  1.00  0.00     0.000 HD 
HETATM    9  C   UNL     1      -8.234  14.897  68.648  1.00  0.00    -0.157 C  
ENDBRANCH   4   5
BRANCH   4  10
HETATM   10  C   UNL     1      -8.122  11.224  68.092  1.00  0.00    -0.134 C  
HETATM   11  O   UNL     1      -7.907  11.034  69.287  1.00  0.00    -0.129 OA 
HETATM   12  H   UNL     1      -8.016  10.493  66.153  1.00  0.00     0.000 HD 
HETATM   13  N   UNL     1      -7.898  10.255  67.137  1.00  0.00    -0.109 N  
BRANCH  13  14
HETATM   14  C   UNL     1      -7.500   8.913  67.492  1.00  0.00    -0.085 C  
BRANCH  14  15
HETATM   15  C   UNL     1      -8.695   8.032  67.743  1.00  0.00    -0.127 A  
HETATM   16  C   UNL     1      -8.814   7.293  68.929  1.00  0.00    -0.127 A  
HETATM   17  C   UNL     1      -9.935   6.489  69.153  1.00  0.00    -0.163 A  
HETATM   18  C   UNL     1     -10.942   6.411  68.192  1.00  0.00    -0.393 A  
HETATM   19  C   UNL     1     -10.828   7.130  67.004  1.00  0.00    -0.382 A  
HETATM   20  C   UNL     1      -9.710   7.933  66.779  1.00  0.00    -0.303 A  
ENDBRANCH  14  15
ENDBRANCH  13  14
ENDBRANCH   4  10
ENDBRANCH   3   4
ENDBRANCH   2   3
TORSDOF 6
ENDMDL
MODEL      228
REMARK 921   NORMALIZED FREE ENERGY PREDICTED BY IDOCK:   -2.89 KCAL/MOL
REMARK 922        TOTAL FREE ENERGY PREDICTED BY IDOCK:   -4.31 KCAL/MOL
REMARK 923 INTER-LIGAND FREE ENERGY PREDICTED BY IDOCK:   -3.74 KCAL/MOL
REMARK 924 INTRA-LIGAND FREE ENERGY PREDICTED BY IDOCK:   -0.57 KCAL/MOL
REMARK 927      BINDING AFFINITY PREDICTED BY RF-SCORE:    0.00 PKD
ROOT
HETATM    1  C   UNL     1      -5.659   9.523  71.002  1.00  0.00    -0.060 C  
HETATM    2  O   UNL     1      -6.879   8.849  71.273  1.00  0.00    -0.078 OA 
ENDROOT
BRANCH   2   3
HETATM    3  C   UNL     1      -7.344   8.107  70.140  1.00  0.00    -0.060 C  
BRANCH   3   4
HETATM    4  C   UNL     1      -8.483   7.179  70.579  1.00  0.00    -0.139 C  
BRANCH   4   5
HETATM    5  N   UNL     1      -8.965   7.520  71.929  1.00  0.00    -0.120 N  
HETATM    6  C   UNL     1      -8.956   5.198  72.816  1.00  0.00    -0.123 C  
HETATM    7  O   UNL     1      -9.541   7.155  74.054  1.00  0.00    -0.248 OA 
HETATM    8  H   UNL     1      -9.162   8.506  72.098  1.00  0.00     0.000 HD 
HETATM    9  C   UNL     1      -9.181   6.678  72.979  1.00  0.00    -0.131 C  
ENDBRANCH   4   5
BRANCH   4  10
HETATM   10  C   UNL     1      -9.611   7.283  69.540  1.00  0.00    -0.155 C  
HETATM   11  O   UNL     1     -10.683   6.705  69.696  1.00  0.00    -0.222 OA 
HETATM   12  H   UNL     1      -8.358   8.345  68.271  1.00  0.00     0.000 HD 
HETATM   13  N   UNL     1      -9.292   7.951  68.376  1.00  0.00    -0.141 N  
BRANCH  13  14
HETATM   14  C   UNL     1     -10.245   8.107  67.302  1.00  0.00    -0.278 C  
BRANCH  14  15
HETATM   15  C   UNL     1     -10.473   9.559  66.975  1.00  0.00    -0.302 A  
HETATM   16  C   UNL     1     -11.097  10.419  67.891  1.00  0.00    -0.363 A  
HETATM   17  C   UNL     1     -11.291  11.766  67.577  1.00  0.00    -0.377 A  
HETATM   18  C   UNL     1     -10.871  12.265  66.344  1.00  0.00    -0.299 A  
HETATM   19  C   UNL     1     -10.263  11.417  65.422  1.00  0.00    -0.320 A  
HETATM   20  C   UNL     1     -10.068  10.071  65.733  1.00  0.00    -0.320 A  
ENDBRANCH  14  15
ENDBRANCH  13  14
ENDBRANCH   4  10
ENDBRANCH   3   4
ENDBRANCH   2   3
TORSDOF 6
ENDMDL
MODEL      229
REMARK 921   NORMALIZED FREE ENERGY PREDICTED BY IDOCK:   -2.88 KCAL/MOL
REMARK 922        TOTAL FREE ENERGY PREDICTED BY IDOCK:   -4.30 KCAL/MOL
REMARK 923 INTER-LIGAND FREE ENERGY PREDICTED BY IDOCK:   -3.82 KCAL/MOL
REMARK 924 INTRA-LIGAND FREE ENERGY PREDICTED BY IDOCK:   -0.48 KCAL/MOL
REMARK 927      BINDING AFFINITY PREDICTED BY RF-SCORE:    0.00 PKD
ROOT
HETATM    1  C   UNL     1     -10.631   9.783  69.297  1.00  0.00    -0.221 C  
HETATM    2  O   UNL     1      -9.561   9.193  68.573  1.00  0.00    -0.146 OA 
ENDROOT
BRANCH   2   3
HETATM    3  C   UNL     1      -9.727   9.339  67.158  1.00  0.00    -0.172 C  
BRANCH   3   4
HETATM    4  C   UNL     1      -9.193   8.085  66.457  1.00  0.00    -0.188 C  
BRANCH   4   5
HETATM    5  N   UNL     1      -7.738   7.939  66.647  1.00  0.00    -0.096 N  
HETATM    6  C   UNL     1      -7.188   7.553  64.255  1.00  0.00    -0.079 C  
HETATM    7  O   UNL     1      -5.608   7.673  66.041  1.00  0.00    -0.031 OA 
HETATM    8  H   UNL     1      -7.404   8.015  67.607  1.00  0.00     0.000 HD 
HETATM    9  C   UNL     1      -6.788   7.717  65.697  1.00  0.00    -0.049 C  
ENDBRANCH   4   5
BRANCH   4  10
HETATM   10  C   UNL     1      -9.952   6.868  67.009  1.00  0.00    -0.197 C  
HETATM   11  O   UNL     1     -11.154   6.714  66.807  1.00  0.00    -0.354 OA 
HETATM   12  H   UNL     1      -8.256   6.265  68.041  1.00  0.00     0.000 HD 
HETATM   13  N   UNL     1      -9.232   6.044  67.847  1.00  0.00    -0.113 N  
BRANCH  13  14
HETATM   14  C   UNL     1      -9.821   4.876  68.459  1.00  0.00    -0.141 C  
BRANCH  14  15
HETATM   15  C   UNL     1     -10.264   5.158  69.871  1.00  0.00    -0.361 A  
HETATM   16  C   UNL     1      -9.771   4.407  70.948  1.00  0.00    -0.267 A  
HETATM   17  C   UNL     1     -10.182   4.688  72.253  1.00  0.00    -0.256 A  
HETATM   18  C   UNL     1     -11.095   5.715  72.493  1.00  0.00    -0.327 A  
HETATM   19  C   UNL     1     -11.602   6.457  71.429  1.00  0.00    -0.368 A  
HETATM   20  C   UNL     1     -11.192   6.178  70.125  1.00  0.00    -0.452 A  
ENDBRANCH  14  15
ENDBRANCH  13  14
ENDBRANCH   4  10
ENDBRANCH   3   4
ENDBRANCH   2   3
TORSDOF 6
ENDMDL
MODEL      230
REMARK 921   NORMALIZED FREE ENERGY PREDICTED BY IDOCK:   -2.87 KCAL/MOL
REMARK 922        TOTAL FREE ENERGY PREDICTED BY IDOCK:   -4.28 KCAL/MOL
REMARK 923 INTER-LIGAND FREE ENERGY PREDICTED BY IDOCK:   -3.77 KCAL/MOL
REMARK 924 INTRA-LIGAND FREE ENERGY PREDICTED BY IDOCK:   -0.51 KCAL/MOL
REMARK 927      BINDING AFFINITY PREDICTED BY RF-SCORE:    0.00 PKD
ROOT
HETATM    1  C   UNL     1      -9.467  17.440  65.892  1.00  0.00     0.007 C  
HETATM    2  O   UNL     1      -9.667  16.077  65.545  1.00  0.00    -0.418 OA 
ENDROOT
BRANCH   2   3
HETATM    3  C   UNL     1     -10.694  15.470  66.337  1.00  0.00    -0.303 C  
BRANCH   3   4
HETATM    4  C   UNL     1     -10.512  13.947  66.315  1.00  0.00    -0.287 C  
BRANCH   4   5
HETATM    5  N   UNL     1     -10.285  13.451  64.946  1.00  0.00    -0.522 N  
HETATM    6  C   UNL     1     -12.560  12.507  64.618  1.00  0.00    -0.507 C  
HETATM    7  O   UNL     1     -10.812  12.515  62.991  1.00  0.00    -0.175 OA 
HETATM    8  H   UNL     1      -9.352  13.605  64.564  1.00  0.00     0.000 HD 
HETATM    9  C   UNL     1     -11.169  12.812  64.130  1.00  0.00    -0.387 C  
ENDBRANCH   4   5
BRANCH   4  10
HETATM   10  C   UNL     1      -9.335  13.594  67.239  1.00  0.00    -0.233 C  
HETATM   11  O   UNL     1      -8.967  14.355  68.131  1.00  0.00    -0.172 OA 
HETATM   12  H   UNL     1      -8.952  11.891  66.116  1.00  0.00     0.000 HD 
HETATM   13  N   UNL     1      -8.647  12.443  66.916  1.00  0.00    -0.192 N  
BRANCH  13  14
HETATM   14  C   UNL     1      -7.504  11.999  67.681  1.00  0.00    -0.132 C  
BRANCH  14  15
HETATM   15  C   UNL     1      -6.811  10.841  67.013  1.00  0.00    -0.094 A  
HETATM   16  C   UNL     1      -7.119   9.517  67.358  1.00  0.00    -0.086 A  
HETATM   17  C   UNL     1      -6.475   8.452  66.721  1.00  0.00    -0.056 A  
HETATM   18  C   UNL     1      -5.515   8.701  65.741  1.00  0.00    -0.034 A  
HETATM   19  C   UNL     1      -5.193  10.012  65.400  1.00  0.00    -0.058 A  
HETATM   20  C   UNL     1      -5.834  11.076  66.035  1.00  0.00    -0.125 A  
ENDBRANCH  14  15
ENDBRANCH  13  14
ENDBRANCH   4  10
ENDBRANCH   3   4
ENDBRANCH   2   3
TORSDOF 6
ENDMDL
MODEL      231
REMARK 921   NORMALIZED FREE ENERGY PREDICTED BY IDOCK:   -2.87 KCAL/MOL
REMARK 922        TOTAL FREE ENERGY PREDICTED BY IDOCK:   -4.28 KCAL/MOL
REMARK 923 INTER-LIGAND FREE ENERGY PREDICTED BY IDOCK:   -3.91 KCAL/MOL
REMARK 924 INTRA-LIGAND FREE ENERGY PREDICTED BY IDOCK:   -0.36 KCAL/MOL
REMARK 927      BINDING AFFINITY PREDICTED BY RF-SCORE:    0.00 PKD
ROOT
HETATM    1  C   UNL     1      -5.593  10.600  68.798  1.00  0.00    -0.040 C  
HETATM    2  O   UNL     1      -6.473  11.707  68.927  1.00  0.00    -0.059 OA 
ENDROOT
BRANCH   2   3
HETATM    3  C   UNL     1      -6.538  12.481  67.724  1.00  0.00    -0.121 C  
BRANCH   3   4
HETATM    4  C   UNL     1      -7.831  13.304  67.724  1.00  0.00    -0.157 C  
BRANCH   4   5
HETATM    5  N   UNL     1      -7.761  14.418  66.761  1.00  0.00    -0.198 N  
HETATM    6  C   UNL     1      -7.092  16.157  68.405  1.00  0.00    -0.130 C  
HETATM    7  O   UNL     1      -7.367  16.498  66.057  1.00  0.00     0.014 OA 
HETATM    8  H   UNL     1      -7.996  14.189  65.795  1.00  0.00     0.000 HD 
HETATM    9  C   UNL     1      -7.419  15.715  67.003  1.00  0.00    -0.193 C  
ENDBRANCH   4   5
BRANCH   4  10
HETATM   10  C   UNL     1      -8.999  12.359  67.400  1.00  0.00    -0.185 C  
HETATM   11  O   UNL     1      -9.374  12.174  66.244  1.00  0.00    -0.230 OA 
HETATM   12  H   UNL     1      -9.363  12.097  69.426  1.00  0.00     0.000 HD 
HETATM   13  N   UNL     1      -9.673  11.846  68.487  1.00  0.00    -0.196 N  
BRANCH  13  14
HETATM   14  C   UNL     1     -10.805  10.963  68.335  1.00  0.00    -0.222 C  
BRANCH  14  15
HETATM   15  C   UNL     1     -11.553  10.796  69.632  1.00  0.00    -0.388 A  
HETATM   16  C   UNL     1     -12.388  11.811  70.122  1.00  0.00    -0.272 A  
HETATM   17  C   UNL     1     -13.084  11.636  71.321  1.00  0.00    -0.254 A  
HETATM   18  C   UNL     1     -12.946  10.452  72.044  1.00  0.00    -0.499 A  
HETATM   19  C   UNL     1     -12.109   9.443  71.573  1.00  0.00    -0.456 A  
HETATM   20  C   UNL     1     -11.413   9.616  70.376  1.00  0.00    -0.325 A  
ENDBRANCH  14  15
ENDBRANCH  13  14
ENDBRANCH   4  10
ENDBRANCH   3   4
ENDBRANCH   2   3
TORSDOF 6
ENDMDL
MODEL      232
REMARK 921   NORMALIZED FREE ENERGY PREDICTED BY IDOCK:   -2.85 KCAL/MOL
REMARK 922        TOTAL FREE ENERGY PREDICTED BY IDOCK:   -4.25 KCAL/MOL
REMARK 923 INTER-LIGAND FREE ENERGY PREDICTED BY IDOCK:   -3.74 KCAL/MOL
REMARK 924 INTRA-LIGAND FREE ENERGY PREDICTED BY IDOCK:   -0.51 KCAL/MOL
REMARK 927      BINDING AFFINITY PREDICTED BY RF-SCORE:    0.00 PKD
ROOT
HETATM    1  C   UNL     1      -9.943   5.045  68.759  1.00  0.00    -0.155 C  
HETATM    2  O   UNL     1     -10.942   6.053  68.698  1.00  0.00    -0.301 OA 
ENDROOT
BRANCH   2   3
HETATM    3  C   UNL     1     -11.529   6.301  69.980  1.00  0.00    -0.390 C  
BRANCH   3   4
HETATM    4  C   UNL     1     -11.561   7.813  70.234  1.00  0.00    -0.034 C  
BRANCH   4   5
HETATM    5  N   UNL     1     -12.191   8.128  71.529  1.00  0.00    -0.294 N  
HETATM    6  C   UNL     1     -13.013  10.384  70.889  1.00  0.00    -0.475 C  
HETATM    7  O   UNL     1     -13.373   9.321  72.997  1.00  0.00    -0.220 OA 
HETATM    8  H   UNL     1     -12.108   7.414  72.252  1.00  0.00     0.000 HD 
HETATM    9  C   UNL     1     -12.870   9.257  71.877  1.00  0.00    -0.404 C  
ENDBRANCH   4   5
BRANCH   4  10
HETATM   10  C   UNL     1     -10.118   8.339  70.173  1.00  0.00    -0.191 C  
HETATM   11  O   UNL     1      -9.301   8.079  71.053  1.00  0.00    -0.146 OA 
HETATM   12  H   UNL     1     -10.586   9.459  68.489  1.00  0.00     0.000 HD 
HETATM   13  N   UNL     1      -9.845   9.219  69.147  1.00  0.00    -0.162 N  
BRANCH  13  14
HETATM   14  C   UNL     1      -8.539   9.812  68.979  1.00  0.00    -0.146 C  
BRANCH  14  15
HETATM   15  C   UNL     1      -8.171   9.929  67.523  1.00  0.00    -0.114 A  
HETATM   16  C   UNL     1      -9.133   9.760  66.517  1.00  0.00    -0.182 A  
HETATM   17  C   UNL     1      -8.779   9.884  65.171  1.00  0.00    -0.187 A  
HETATM   18  C   UNL     1      -7.460  10.170  64.818  1.00  0.00    -0.136 A  
HETATM   19  C   UNL     1      -6.494  10.326  65.809  1.00  0.00    -0.119 A  
HETATM   20  C   UNL     1      -6.846  10.203  67.154  1.00  0.00    -0.082 A  
ENDBRANCH  14  15
ENDBRANCH  13  14
ENDBRANCH   4  10
ENDBRANCH   3   4
ENDBRANCH   2   3
TORSDOF 6
ENDMDL
MODEL      233
REMARK 921   NORMALIZED FREE ENERGY PREDICTED BY IDOCK:   -2.85 KCAL/MOL
REMARK 922        TOTAL FREE ENERGY PREDICTED BY IDOCK:   -4.25 KCAL/MOL
REMARK 923 INTER-LIGAND FREE ENERGY PREDICTED BY IDOCK:   -3.63 KCAL/MOL
REMARK 924 INTRA-LIGAND FREE ENERGY PREDICTED BY IDOCK:   -0.62 KCAL/MOL
REMARK 927      BINDING AFFINITY PREDICTED BY RF-SCORE:    0.00 PKD
ROOT
HETATM    1  C   UNL     1      -7.731  10.088  65.199  1.00  0.00    -0.137 C  
HETATM    2  O   UNL     1      -8.053   9.413  66.407  1.00  0.00    -0.107 OA 
ENDROOT
BRANCH   2   3
HETATM    3  C   UNL     1      -9.442   9.533  66.732  1.00  0.00    -0.167 C  
BRANCH   3   4
HETATM    4  C   UNL     1      -9.637   9.230  68.222  1.00  0.00    -0.147 C  
BRANCH   4   5
HETATM    5  N   UNL     1      -8.373   9.360  68.969  1.00  0.00    -0.120 N  
HETATM    6  C   UNL     1      -8.750   7.426  70.482  1.00  0.00    -0.147 C  
HETATM    7  O   UNL     1      -6.802   8.807  70.453  1.00  0.00    -0.039 OA 
HETATM    8  H   UNL     1      -7.769  10.135  68.694  1.00  0.00     0.000 HD 
HETATM    9  C   UNL     1      -7.913   8.572  69.980  1.00  0.00    -0.109 C  
ENDBRANCH   4   5
BRANCH   4  10
HETATM   10  C   UNL     1     -10.708  10.188  68.768  1.00  0.00    -0.220 C  
HETATM   11  O   UNL     1     -11.392   9.898  69.747  1.00  0.00    -0.239 OA 
HETATM   12  H   UNL     1     -10.391  11.471  67.167  1.00  0.00     0.000 HD 
HETATM   13  N   UNL     1     -10.938  11.320  68.015  1.00  0.00    -0.228 N  
BRANCH  13  14
HETATM   14  C   UNL     1     -11.931  12.299  68.393  1.00  0.00    -0.210 C  
BRANCH  14  15
HETATM   15  C   UNL     1     -11.292  13.584  68.850  1.00  0.00    -0.332 A  
HETATM   16  C   UNL     1      -9.991  13.927  68.453  1.00  0.00    -0.233 A  
HETATM   17  C   UNL     1      -9.416  15.128  68.877  1.00  0.00    -0.213 A  
HETATM   18  C   UNL     1     -10.132  15.993  69.705  1.00  0.00    -0.244 A  
HETATM   19  C   UNL     1     -11.419  15.655  70.116  1.00  0.00    -0.358 A  
HETATM   20  C   UNL     1     -11.995  14.456  69.694  1.00  0.00    -0.385 A  
ENDBRANCH  14  15
ENDBRANCH  13  14
ENDBRANCH   4  10
ENDBRANCH   3   4
ENDBRANCH   2   3
TORSDOF 6
ENDMDL
MODEL      234
REMARK 921   NORMALIZED FREE ENERGY PREDICTED BY IDOCK:   -2.84 KCAL/MOL
REMARK 922        TOTAL FREE ENERGY PREDICTED BY IDOCK:   -4.25 KCAL/MOL
REMARK 923 INTER-LIGAND FREE ENERGY PREDICTED BY IDOCK:   -3.73 KCAL/MOL
REMARK 924 INTRA-LIGAND FREE ENERGY PREDICTED BY IDOCK:   -0.52 KCAL/MOL
REMARK 927      BINDING AFFINITY PREDICTED BY RF-SCORE:    0.00 PKD
ROOT
HETATM    1  C   UNL     1     -12.096  12.054  69.282  1.00  0.00    -0.190 C  
HETATM    2  O   UNL     1     -11.846  11.542  67.980  1.00  0.00    -0.545 OA 
ENDROOT
BRANCH   2   3
HETATM    3  C   UNL     1     -11.284  10.226  68.022  1.00  0.00    -0.235 C  
BRANCH   3   4
HETATM    4  C   UNL     1      -9.997  10.254  68.855  1.00  0.00    -0.201 C  
BRANCH   4   5
HETATM    5  N   UNL     1      -9.654   8.913  69.362  1.00  0.00    -0.161 N  
HETATM    6  C   UNL     1     -10.759   9.168  71.573  1.00  0.00    -0.437 C  
HETATM    7  O   UNL     1      -9.647   7.203  70.795  1.00  0.00    -0.168 OA 
HETATM    8  H   UNL     1      -9.104   8.325  68.735  1.00  0.00     0.000 HD 
HETATM    9  C   UNL     1      -9.981   8.364  70.565  1.00  0.00    -0.185 C  
ENDBRANCH   4   5
BRANCH   4  10
HETATM   10  C   UNL     1      -8.872  10.822  67.976  1.00  0.00    -0.132 C  
HETATM   11  O   UNL     1      -8.344  10.150  67.092  1.00  0.00    -0.124 OA 
HETATM   12  H   UNL     1      -8.835  12.552  69.122  1.00  0.00     0.000 HD 
HETATM   13  N   UNL     1      -8.409  12.072  68.329  1.00  0.00    -0.159 N  
BRANCH  13  14
HETATM   14  C   UNL     1      -7.340  12.721  67.608  1.00  0.00    -0.144 C  
BRANCH  14  15
HETATM   15  C   UNL     1      -7.396  14.218  67.768  1.00  0.00    -0.185 A  
HETATM   16  C   UNL     1      -6.753  14.856  68.839  1.00  0.00    -0.100 A  
HETATM   17  C   UNL     1      -6.804  16.247  68.967  1.00  0.00    -0.182 A  
HETATM   18  C   UNL     1      -7.503  17.010  68.033  1.00  0.00    -0.185 A  
HETATM   19  C   UNL     1      -8.157  16.385  66.974  1.00  0.00    -0.235 A  
HETATM   20  C   UNL     1      -8.107  14.997  66.844  1.00  0.00    -0.161 A  
ENDBRANCH  14  15
ENDBRANCH  13  14
ENDBRANCH   4  10
ENDBRANCH   3   4
ENDBRANCH   2   3
TORSDOF 6
ENDMDL
MODEL      235
REMARK 921   NORMALIZED FREE ENERGY PREDICTED BY IDOCK:   -2.84 KCAL/MOL
REMARK 922        TOTAL FREE ENERGY PREDICTED BY IDOCK:   -4.24 KCAL/MOL
REMARK 923 INTER-LIGAND FREE ENERGY PREDICTED BY IDOCK:   -3.94 KCAL/MOL
REMARK 924 INTRA-LIGAND FREE ENERGY PREDICTED BY IDOCK:   -0.31 KCAL/MOL
REMARK 927      BINDING AFFINITY PREDICTED BY RF-SCORE:    0.00 PKD
ROOT
HETATM    1  C   UNL     1     -11.346   8.261  71.926  1.00  0.00    -0.308 C  
HETATM    2  O   UNL     1     -11.508   8.320  70.516  1.00  0.00    -0.257 OA 
ENDROOT
BRANCH   2   3
HETATM    3  C   UNL     1     -10.340   8.833  69.865  1.00  0.00    -0.206 C  
BRANCH   3   4
HETATM    4  C   UNL     1     -10.129  10.291  70.287  1.00  0.00     0.049 C  
BRANCH   4   5
HETATM    5  N   UNL     1      -8.954  10.880  69.619  1.00  0.00    -0.326 N  
HETATM    6  C   UNL     1      -7.247   9.795  71.061  1.00  0.00     0.178 C  
HETATM    7  O   UNL     1      -6.789  11.225  69.204  1.00  0.00    -0.089 OA 
HETATM    8  H   UNL     1      -9.152  11.513  68.843  1.00  0.00     0.000 HD 
HETATM    9  C   UNL     1      -7.638  10.683  69.910  1.00  0.00     0.044 C  
ENDBRANCH   4   5
BRANCH   4  10
HETATM   10  C   UNL     1     -11.409  11.075  69.957  1.00  0.00    -0.277 C  
HETATM   11  O   UNL     1     -11.782  11.239  68.797  1.00  0.00    -0.295 OA 
HETATM   12  H   UNL     1     -11.630  11.578  71.958  1.00  0.00     0.000 HD 
HETATM   13  N   UNL     1     -12.029  11.686  71.026  1.00  0.00    -0.103 N  
BRANCH  13  14
HETATM   14  C   UNL     1     -13.228  12.474  70.863  1.00  0.00     0.320 C  
BRANCH  14  15
HETATM   15  C   UNL     1     -13.060  13.857  71.436  1.00  0.00    -0.413 A  
HETATM   16  C   UNL     1     -11.926  14.629  71.143  1.00  0.00    -0.405 A  
HETATM   17  C   UNL     1     -11.790  15.915  71.673  1.00  0.00    -0.565 A  
HETATM   18  C   UNL     1     -12.781  16.437  72.504  1.00  0.00    -0.049 A  
HETATM   19  C   UNL     1     -13.904  15.674  72.812  1.00  0.00    -0.628 A  
HETATM   20  C   UNL     1     -14.042  14.390  72.284  1.00  0.00    -0.609 A  
ENDBRANCH  14  15
ENDBRANCH  13  14
ENDBRANCH   4  10
ENDBRANCH   3   4
ENDBRANCH   2   3
TORSDOF 6
ENDMDL
MODEL      236
REMARK 921   NORMALIZED FREE ENERGY PREDICTED BY IDOCK:   -2.83 KCAL/MOL
REMARK 922        TOTAL FREE ENERGY PREDICTED BY IDOCK:   -4.22 KCAL/MOL
REMARK 923 INTER-LIGAND FREE ENERGY PREDICTED BY IDOCK:   -3.67 KCAL/MOL
REMARK 924 INTRA-LIGAND FREE ENERGY PREDICTED BY IDOCK:   -0.55 KCAL/MOL
REMARK 927      BINDING AFFINITY PREDICTED BY RF-SCORE:    0.00 PKD
ROOT
HETATM    1  C   UNL     1     -11.073  11.383  68.867  1.00  0.00    -0.233 C  
HETATM    2  O   UNL     1     -10.329  10.319  69.445  1.00  0.00    -0.208 OA 
ENDROOT
BRANCH   2   3
HETATM    3  C   UNL     1     -10.493   9.096  68.719  1.00  0.00    -0.212 C  
BRANCH   3   4
HETATM    4  C   UNL     1     -10.746   7.953  69.710  1.00  0.00    -0.233 C  
BRANCH   4   5
HETATM    5  N   UNL     1     -12.066   8.081  70.354  1.00  0.00    -0.446 N  
HETATM    6  C   UNL     1     -11.287   7.602  72.665  1.00  0.00    -0.423 C  
HETATM    7  O   UNL     1     -13.527   8.144  72.039  1.00  0.00    -0.321 OA 
HETATM    8  H   UNL     1     -12.847   8.293  69.734  1.00  0.00     0.000 HD 
HETATM    9  C   UNL     1     -12.368   7.951  71.677  1.00  0.00    -0.315 C  
ENDBRANCH   4   5
BRANCH   4  10
HETATM   10  C   UNL     1     -10.625   6.625  68.948  1.00  0.00    -0.230 C  
HETATM   11  O   UNL     1     -11.256   6.416  67.914  1.00  0.00    -0.319 OA 
HETATM   12  H   UNL     1      -9.434   5.852  70.462  1.00  0.00     0.000 HD 
HETATM   13  N   UNL     1      -9.873   5.647  69.565  1.00  0.00    -0.166 N  
BRANCH  13  14
HETATM   14  C   UNL     1      -9.691   4.341  68.977  1.00  0.00    -0.139 C  
BRANCH  14  15
HETATM   15  C   UNL     1      -8.497   4.312  68.059  1.00  0.00    -0.101 A  
HETATM   16  C   UNL     1      -7.193   4.440  68.562  1.00  0.00    -0.060 A  
HETATM   17  C   UNL     1      -6.095   4.399  67.699  1.00  0.00    -0.031 A  
HETATM   18  C   UNL     1      -6.289   4.238  66.327  1.00  0.00    -0.033 A  
HETATM   19  C   UNL     1      -7.580   4.123  65.816  1.00  0.00    -0.085 A  
HETATM   20  C   UNL     1      -8.678   4.164  66.676  1.00  0.00    -0.114 A  
ENDBRANCH  14  15
ENDBRANCH  13  14
ENDBRANCH   4  10
ENDBRANCH   3   4
ENDBRANCH   2   3
TORSDOF 6
ENDMDL
MODEL      237
REMARK 921   NORMALIZED FREE ENERGY PREDICTED BY IDOCK:   -2.80 KCAL/MOL
REMARK 922        TOTAL FREE ENERGY PREDICTED BY IDOCK:   -4.19 KCAL/MOL
REMARK 923 INTER-LIGAND FREE ENERGY PREDICTED BY IDOCK:   -4.21 KCAL/MOL
REMARK 924 INTRA-LIGAND FREE ENERGY PREDICTED BY IDOCK:    0.02 KCAL/MOL
REMARK 927      BINDING AFFINITY PREDICTED BY RF-SCORE:    0.00 PKD
ROOT
HETATM    1  C   UNL     1      -8.105  11.339  66.557  1.00  0.00    -0.160 C  
HETATM    2  O   UNL     1      -8.521  12.676  66.800  1.00  0.00    -0.154 OA 
ENDROOT
BRANCH   2   3
HETATM    3  C   UNL     1      -7.499  13.444  67.444  1.00  0.00    -0.123 C  
BRANCH   3   4
HETATM    4  C   UNL     1      -8.137  14.323  68.526  1.00  0.00    -0.147 C  
BRANCH   4   5
HETATM    5  N   UNL     1      -7.121  15.097  69.261  1.00  0.00    -0.156 N  
HETATM    6  C   UNL     1      -6.202  13.183  70.552  1.00  0.00     0.098 C  
HETATM    7  O   UNL     1      -5.404  15.432  70.646  1.00  0.00    -0.134 OA 
HETATM    8  H   UNL     1      -7.093  16.098  69.065  1.00  0.00     0.000 HD 
HETATM    9  C   UNL     1      -6.214  14.639  70.169  1.00  0.00    -0.165 C  
ENDBRANCH   4   5
BRANCH   4  10
HETATM   10  C   UNL     1      -9.160  15.249  67.848  1.00  0.00    -0.175 C  
HETATM   11  O   UNL     1      -9.137  15.455  66.637  1.00  0.00    -0.236 OA 
HETATM   12  H   UNL     1      -9.931  15.773  69.702  1.00  0.00     0.000 HD 
HETATM   13  N   UNL     1     -10.009  15.926  68.698  1.00  0.00    -0.208 N  
BRANCH  13  14
HETATM   14  C   UNL     1     -11.006  16.848  68.204  1.00  0.00    -0.290 C  
BRANCH  14  15
HETATM   15  C   UNL     1     -10.398  18.180  67.853  1.00  0.00    -0.410 A  
HETATM   16  C   UNL     1     -10.770  18.860  66.683  1.00  0.00    -0.392 A  
HETATM   17  C   UNL     1     -10.206  20.102  66.377  1.00  0.00    -0.552 A  
HETATM   18  C   UNL     1      -9.262  20.670  67.231  1.00  0.00    -0.444 A  
HETATM   19  C   UNL     1      -8.874  19.997  68.387  1.00  0.00    -0.151 A  
HETATM   20  C   UNL     1      -9.436  18.758  68.694  1.00  0.00    -0.412 A  
ENDBRANCH  14  15
ENDBRANCH  13  14
ENDBRANCH   4  10
ENDBRANCH   3   4
ENDBRANCH   2   3
TORSDOF 6
ENDMDL
MODEL      238
REMARK 921   NORMALIZED FREE ENERGY PREDICTED BY IDOCK:   -2.80 KCAL/MOL
REMARK 922        TOTAL FREE ENERGY PREDICTED BY IDOCK:   -4.18 KCAL/MOL
REMARK 923 INTER-LIGAND FREE ENERGY PREDICTED BY IDOCK:   -3.60 KCAL/MOL
REMARK 924 INTRA-LIGAND FREE ENERGY PREDICTED BY IDOCK:   -0.59 KCAL/MOL
REMARK 927      BINDING AFFINITY PREDICTED BY RF-SCORE:    0.00 PKD
ROOT
HETATM    1  C   UNL     1     -10.975   7.674  71.186  1.00  0.00    -0.246 C  
HETATM    2  O   UNL     1     -11.254   8.920  70.562  1.00  0.00    -0.254 OA 
ENDROOT
BRANCH   2   3
HETATM    3  C   UNL     1     -10.065   9.688  70.347  1.00  0.00    -0.276 C  
BRANCH   3   4
HETATM    4  C   UNL     1     -10.108  10.298  68.941  1.00  0.00    -0.204 C  
BRANCH   4   5
HETATM    5  N   UNL     1      -9.761  11.731  68.965  1.00  0.00    -0.412 N  
HETATM    6  C   UNL     1     -11.388  12.434  67.224  1.00  0.00    -0.384 C  
HETATM    7  O   UNL     1      -9.923  13.889  68.424  1.00  0.00    -0.225 OA 
HETATM    8  H   UNL     1      -9.018  12.000  69.610  1.00  0.00     0.000 HD 
HETATM    9  C   UNL     1     -10.311  12.738  68.231  1.00  0.00    -0.243 C  
ENDBRANCH   4   5
BRANCH   4  10
HETATM   10  C   UNL     1      -9.142   9.506  68.046  1.00  0.00    -0.123 C  
HETATM   11  O   UNL     1      -8.992   9.783  66.858  1.00  0.00    -0.136 OA 
HETATM   12  H   UNL     1      -8.788   8.169  69.594  1.00  0.00     0.000 HD 
HETATM   13  N   UNL     1      -8.566   8.394  68.625  1.00  0.00    -0.131 N  
BRANCH  13  14
HETATM   14  C   UNL     1      -7.656   7.541  67.896  1.00  0.00    -0.110 C  
BRANCH  14  15
HETATM   15  C   UNL     1      -8.378   6.383  67.259  1.00  0.00    -0.112 A  
HETATM   16  C   UNL     1      -8.596   6.340  65.874  1.00  0.00    -0.150 A  
HETATM   17  C   UNL     1      -9.257   5.253  65.295  1.00  0.00    -0.054 A  
HETATM   18  C   UNL     1      -9.713   4.205  66.095  1.00  0.00    -0.215 A  
HETATM   19  C   UNL     1      -9.515   4.245  67.473  1.00  0.00    -0.216 A  
HETATM   20  C   UNL     1      -8.855   5.329  68.052  1.00  0.00    -0.106 A  
ENDBRANCH  14  15
ENDBRANCH  13  14
ENDBRANCH   4  10
ENDBRANCH   3   4
ENDBRANCH   2   3
TORSDOF 6
ENDMDL
MODEL      239
REMARK 921   NORMALIZED FREE ENERGY PREDICTED BY IDOCK:   -2.79 KCAL/MOL
REMARK 922        TOTAL FREE ENERGY PREDICTED BY IDOCK:   -4.17 KCAL/MOL
REMARK 923 INTER-LIGAND FREE ENERGY PREDICTED BY IDOCK:   -3.86 KCAL/MOL
REMARK 924 INTRA-LIGAND FREE ENERGY PREDICTED BY IDOCK:   -0.31 KCAL/MOL
REMARK 927      BINDING AFFINITY PREDICTED BY RF-SCORE:    0.00 PKD
ROOT
HETATM    1  C   UNL     1      -8.054   6.439  66.388  1.00  0.00    -0.112 C  
HETATM    2  O   UNL     1      -7.540   7.269  65.356  1.00  0.00    -0.088 OA 
ENDROOT
BRANCH   2   3
HETATM    3  C   UNL     1      -8.447   8.324  65.017  1.00  0.00    -0.123 C  
BRANCH   3   4
HETATM    4  C   UNL     1      -8.336   9.438  66.064  1.00  0.00    -0.119 C  
BRANCH   4   5
HETATM    5  N   UNL     1      -7.222  10.355  65.760  1.00  0.00    -0.139 N  
HETATM    6  C   UNL     1      -6.250  10.369  68.046  1.00  0.00    -0.055 C  
HETATM    7  O   UNL     1      -5.363  11.524  66.153  1.00  0.00    -0.270 OA 
HETATM    8  H   UNL     1      -7.177  10.701  64.802  1.00  0.00     0.000 HD 
HETATM    9  C   UNL     1      -6.246  10.795  66.602  1.00  0.00    -0.092 C  
ENDBRANCH   4   5
BRANCH   4  10
HETATM   10  C   UNL     1      -9.678  10.187  66.108  1.00  0.00    -0.218 C  
HETATM   11  O   UNL     1     -10.465  10.151  65.165  1.00  0.00    -0.178 OA 
HETATM   12  H   UNL     1      -9.150  11.048  67.921  1.00  0.00     0.000 HD 
HETATM   13  N   UNL     1      -9.875  10.998  67.206  1.00  0.00    -0.176 N  
BRANCH  13  14
HETATM   14  C   UNL     1     -11.078  11.780  67.370  1.00  0.00    -0.282 C  
BRANCH  14  15
HETATM   15  C   UNL     1     -10.924  13.158  66.783  1.00  0.00    -0.298 A  
HETATM   16  C   UNL     1     -10.821  13.347  65.396  1.00  0.00    -0.303 A  
HETATM   17  C   UNL     1     -10.691  14.633  64.866  1.00  0.00    -0.447 A  
HETATM   18  C   UNL     1     -10.655  15.739  65.713  1.00  0.00    -0.369 A  
HETATM   19  C   UNL     1     -10.742  15.562  67.092  1.00  0.00    -0.315 A  
HETATM   20  C   UNL     1     -10.872  14.279  67.624  1.00  0.00    -0.273 A  
ENDBRANCH  14  15
ENDBRANCH  13  14
ENDBRANCH   4  10
ENDBRANCH   3   4
ENDBRANCH   2   3
TORSDOF 6
ENDMDL
MODEL      240
REMARK 921   NORMALIZED FREE ENERGY PREDICTED BY IDOCK:   -2.78 KCAL/MOL
REMARK 922        TOTAL FREE ENERGY PREDICTED BY IDOCK:   -4.16 KCAL/MOL
REMARK 923 INTER-LIGAND FREE ENERGY PREDICTED BY IDOCK:   -4.02 KCAL/MOL
REMARK 924 INTRA-LIGAND FREE ENERGY PREDICTED BY IDOCK:   -0.14 KCAL/MOL
REMARK 927      BINDING AFFINITY PREDICTED BY RF-SCORE:    0.00 PKD
ROOT
HETATM    1  C   UNL     1      -8.885   7.723  66.716  1.00  0.00    -0.139 C  
HETATM    2  O   UNL     1      -9.832   7.886  67.762  1.00  0.00    -0.150 OA 
ENDROOT
BRANCH   2   3
HETATM    3  C   UNL     1      -9.230   8.407  68.952  1.00  0.00    -0.147 C  
BRANCH   3   4
HETATM    4  C   UNL     1     -10.332   8.812  69.938  1.00  0.00    -0.206 C  
BRANCH   4   5
HETATM    5  N   UNL     1     -11.374   9.621  69.280  1.00  0.00    -0.448 N  
HETATM    6  C   UNL     1      -9.876  11.478  68.585  1.00  0.00    -0.184 C  
HETATM    7  O   UNL     1     -12.211  11.322  68.104  1.00  0.00    -0.622 OA 
HETATM    8  H   UNL     1     -12.319   9.239  69.305  1.00  0.00     0.000 HD 
HETATM    9  C   UNL     1     -11.227  10.816  68.642  1.00  0.00    -0.274 C  
ENDBRANCH   4   5
BRANCH   4  10
HETATM   10  C   UNL     1     -10.923   7.530  70.546  1.00  0.00    -0.252 C  
HETATM   11  O   UNL     1     -12.097   7.470  70.905  1.00  0.00    -0.293 OA 
HETATM   12  H   UNL     1      -9.046   6.645  70.533  1.00  0.00     0.000 HD 
HETATM   13  N   UNL     1     -10.025   6.510  70.781  1.00  0.00    -0.184 N  
BRANCH  13  14
HETATM   14  C   UNL     1     -10.433   5.256  71.370  1.00  0.00    -0.203 C  
BRANCH  14  15
HETATM   15  C   UNL     1      -9.770   4.087  70.691  1.00  0.00    -0.266 A  
HETATM   16  C   UNL     1      -9.067   4.252  69.488  1.00  0.00    -0.183 A  
HETATM   17  C   UNL     1      -8.447   3.159  68.876  1.00  0.00    -0.097 A  
HETATM   18  C   UNL     1      -8.530   1.893  69.454  1.00  0.00    -0.084 A  
HETATM   19  C   UNL     1      -9.238   1.716  70.641  1.00  0.00    -0.157 A  
HETATM   20  C   UNL     1      -9.858   2.805  71.254  1.00  0.00    -0.129 A  
ENDBRANCH  14  15
ENDBRANCH  13  14
ENDBRANCH   4  10
ENDBRANCH   3   4
ENDBRANCH   2   3
TORSDOF 6
ENDMDL
MODEL      241
REMARK 921   NORMALIZED FREE ENERGY PREDICTED BY IDOCK:   -2.78 KCAL/MOL
REMARK 922        TOTAL FREE ENERGY PREDICTED BY IDOCK:   -4.15 KCAL/MOL
REMARK 923 INTER-LIGAND FREE ENERGY PREDICTED BY IDOCK:   -4.16 KCAL/MOL
REMARK 924 INTRA-LIGAND FREE ENERGY PREDICTED BY IDOCK:    0.00 KCAL/MOL
REMARK 927      BINDING AFFINITY PREDICTED BY RF-SCORE:    0.00 PKD
ROOT
HETATM    1  C   UNL     1     -10.807   8.735  69.975  1.00  0.00    -0.223 C  
HETATM    2  O   UNL     1     -11.081  10.111  70.198  1.00  0.00    -0.269 OA 
ENDROOT
BRANCH   2   3
HETATM    3  C   UNL     1     -10.448  10.947  69.223  1.00  0.00    -0.202 C  
BRANCH   3   4
HETATM    4  C   UNL     1     -11.482  11.923  68.649  1.00  0.00    -0.294 C  
BRANCH   4   5
HETATM    5  N   UNL     1     -11.238  13.301  69.114  1.00  0.00    -0.331 N  
HETATM    6  C   UNL     1      -9.003  13.552  68.056  1.00  0.00    -0.189 C  
HETATM    7  O   UNL     1     -10.149  15.239  69.300  1.00  0.00    -0.227 OA 
HETATM    8  H   UNL     1     -11.970  13.714  69.690  1.00  0.00     0.000 HD 
HETATM    9  C   UNL     1     -10.153  14.088  68.867  1.00  0.00    -0.126 C  
ENDBRANCH   4   5
BRANCH   4  10
HETATM   10  C   UNL     1     -11.425  11.833  67.116  1.00  0.00    -0.295 C  
HETATM   11  O   UNL     1     -12.150  12.523  66.404  1.00  0.00    -0.576 OA 
HETATM   12  H   UNL     1     -10.091  10.249  67.248  1.00  0.00     0.000 HD 
HETATM   13  N   UNL     1     -10.611  10.844  66.605  1.00  0.00    -0.254 N  
BRANCH  13  14
HETATM   14  C   UNL     1     -10.477  10.626  65.183  1.00  0.00    -0.201 C  
BRANCH  14  15
HETATM   15  C   UNL     1      -9.034  10.462  64.785  1.00  0.00    -0.228 A  
HETATM   16  C   UNL     1      -8.006  10.555  65.735  1.00  0.00    -0.158 A  
HETATM   17  C   UNL     1      -6.672  10.389  65.351  1.00  0.00    -0.113 A  
HETATM   18  C   UNL     1      -6.354  10.137  64.018  1.00  0.00    -0.126 A  
HETATM   19  C   UNL     1      -7.366  10.057  63.064  1.00  0.00    -0.133 A  
HETATM   20  C   UNL     1      -8.698  10.222  63.445  1.00  0.00    -0.209 A  
ENDBRANCH  14  15
ENDBRANCH  13  14
ENDBRANCH   4  10
ENDBRANCH   3   4
ENDBRANCH   2   3
TORSDOF 6
ENDMDL
MODEL      242
REMARK 921   NORMALIZED FREE ENERGY PREDICTED BY IDOCK:   -2.78 KCAL/MOL
REMARK 922        TOTAL FREE ENERGY PREDICTED BY IDOCK:   -4.15 KCAL/MOL
REMARK 923 INTER-LIGAND FREE ENERGY PREDICTED BY IDOCK:   -3.96 KCAL/MOL
REMARK 924 INTRA-LIGAND FREE ENERGY PREDICTED BY IDOCK:   -0.19 KCAL/MOL
REMARK 927      BINDING AFFINITY PREDICTED BY RF-SCORE:    0.00 PKD
ROOT
HETATM    1  C   UNL     1     -10.365  18.471  68.308  1.00  0.00    -0.344 C  
HETATM    2  O   UNL     1     -10.886  17.190  67.984  1.00  0.00    -0.378 OA 
ENDROOT
BRANCH   2   3
HETATM    3  C   UNL     1      -9.951  16.405  67.236  1.00  0.00    -0.258 C  
BRANCH   3   4
HETATM    4  C   UNL     1     -10.479  14.971  67.117  1.00  0.00    -0.277 C  
BRANCH   4   5
HETATM    5  N   UNL     1     -11.578  14.881  66.140  1.00  0.00    -0.284 N  
HETATM    6  C   UNL     1     -12.084  12.478  66.520  1.00  0.00    -0.245 C  
HETATM    7  O   UNL     1     -13.258  13.924  65.025  1.00  0.00    -0.729 OA 
HETATM    8  H   UNL     1     -11.790  15.735  65.625  1.00  0.00     0.000 HD 
HETATM    9  C   UNL     1     -12.345  13.795  65.840  1.00  0.00    -0.476 C  
ENDBRANCH   4   5
BRANCH   4  10
HETATM   10  C   UNL     1      -9.305  14.061  66.721  1.00  0.00    -0.277 C  
HETATM   11  O   UNL     1      -9.087  13.765  65.549  1.00  0.00     0.401 OA 
HETATM   12  H   UNL     1      -8.879  13.721  68.724  1.00  0.00     0.000 HD 
HETATM   13  N   UNL     1      -8.604  13.499  67.768  1.00  0.00    -0.169 N  
BRANCH  13  14
HETATM   14  C   UNL     1      -7.491  12.606  67.547  1.00  0.00    -0.155 C  
BRANCH  14  15
HETATM   15  C   UNL     1      -7.929  11.165  67.570  1.00  0.00    -0.118 A  
HETATM   16  C   UNL     1      -8.505  10.601  68.718  1.00  0.00    -0.149 A  
HETATM   17  C   UNL     1      -8.917   9.266  68.719  1.00  0.00    -0.132 A  
HETATM   18  C   UNL     1      -8.751   8.481  67.579  1.00  0.00    -0.135 A  
HETATM   19  C   UNL     1      -8.166   9.027  66.438  1.00  0.00    -0.111 A  
HETATM   20  C   UNL     1      -7.754  10.360  66.435  1.00  0.00    -0.125 A  
ENDBRANCH  14  15
ENDBRANCH  13  14
ENDBRANCH   4  10
ENDBRANCH   3   4
ENDBRANCH   2   3
TORSDOF 6
ENDMDL
MODEL      243
REMARK 921   NORMALIZED FREE ENERGY PREDICTED BY IDOCK:   -2.77 KCAL/MOL
REMARK 922        TOTAL FREE ENERGY PREDICTED BY IDOCK:   -4.15 KCAL/MOL
REMARK 923 INTER-LIGAND FREE ENERGY PREDICTED BY IDOCK:   -3.69 KCAL/MOL
REMARK 924 INTRA-LIGAND FREE ENERGY PREDICTED BY IDOCK:   -0.46 KCAL/MOL
REMARK 927      BINDING AFFINITY PREDICTED BY RF-SCORE:    0.00 PKD
ROOT
HETATM    1  C   UNL     1     -12.737  13.471  65.138  1.00  0.00    -0.399 C  
HETATM    2  O   UNL     1     -11.619  13.038  65.900  1.00  0.00    -0.330 OA 
ENDROOT
BRANCH   2   3
HETATM    3  C   UNL     1     -11.880  11.805  66.578  1.00  0.00     0.075 C  
BRANCH   3   4
HETATM    4  C   UNL     1     -10.855  11.622  67.703  1.00  0.00    -0.225 C  
BRANCH   4   5
HETATM    5  N   UNL     1     -11.468  11.015  68.898  1.00  0.00    -0.270 N  
HETATM    6  C   UNL     1     -11.546  13.097  70.252  1.00  0.00    -0.079 C  
HETATM    7  O   UNL     1     -12.369  10.963  70.938  1.00  0.00    -0.337 OA 
HETATM    8  H   UNL     1     -11.655  10.014  68.844  1.00  0.00     0.000 HD 
HETATM    9  C   UNL     1     -11.817  11.628  70.064  1.00  0.00    -0.355 C  
ENDBRANCH   4   5
BRANCH   4  10
HETATM   10  C   UNL     1      -9.704  10.756  67.166  1.00  0.00    -0.170 C  
HETATM   11  O   UNL     1      -9.081  11.070  66.155  1.00  0.00    -0.180 OA 
HETATM   12  H   UNL     1     -10.111   9.309  68.597  1.00  0.00     0.000 HD 
HETATM   13  N   UNL     1      -9.511   9.552  67.810  1.00  0.00    -0.131 N  
BRANCH  13  14
HETATM   14  C   UNL     1      -8.483   8.625  67.399  1.00  0.00    -0.123 C  
BRANCH  14  15
HETATM   15  C   UNL     1      -9.070   7.311  66.957  1.00  0.00    -0.152 A  
HETATM   16  C   UNL     1     -10.104   6.699  67.682  1.00  0.00    -0.192 A  
HETATM   17  C   UNL     1     -10.647   5.485  67.252  1.00  0.00    -0.294 A  
HETATM   18  C   UNL     1     -10.159   4.869  66.100  1.00  0.00    -0.280 A  
HETATM   19  C   UNL     1      -9.123   5.461  65.381  1.00  0.00    -0.097 A  
HETATM   20  C   UNL     1      -8.579   6.673  65.808  1.00  0.00    -0.147 A  
ENDBRANCH  14  15
ENDBRANCH  13  14
ENDBRANCH   4  10
ENDBRANCH   3   4
ENDBRANCH   2   3
TORSDOF 6
ENDMDL
MODEL      244
REMARK 921   NORMALIZED FREE ENERGY PREDICTED BY IDOCK:   -2.76 KCAL/MOL
REMARK 922        TOTAL FREE ENERGY PREDICTED BY IDOCK:   -4.14 KCAL/MOL
REMARK 923 INTER-LIGAND FREE ENERGY PREDICTED BY IDOCK:   -4.33 KCAL/MOL
REMARK 924 INTRA-LIGAND FREE ENERGY PREDICTED BY IDOCK:    0.20 KCAL/MOL
REMARK 927      BINDING AFFINITY PREDICTED BY RF-SCORE:    0.00 PKD
ROOT
HETATM    1  C   UNL     1      -9.421   4.873  66.337  1.00  0.00    -0.155 C  
HETATM    2  O   UNL     1      -9.356   6.239  65.950  1.00  0.00    -0.100 OA 
ENDROOT
BRANCH   2   3
HETATM    3  C   UNL     1      -9.042   7.093  67.055  1.00  0.00    -0.134 C  
BRANCH   3   4
HETATM    4  C   UNL     1     -10.167   8.120  67.233  1.00  0.00    -0.278 C  
BRANCH   4   5
HETATM    5  N   UNL     1     -10.884   7.919  68.505  1.00  0.00    -0.416 N  
HETATM    6  C   UNL     1      -8.878   8.029  69.968  1.00  0.00    -0.143 C  
HETATM    7  O   UNL     1     -11.129   7.756  70.717  1.00  0.00    -0.249 OA 
HETATM    8  H   UNL     1     -11.893   7.789  68.434  1.00  0.00     0.000 HD 
HETATM    9  C   UNL     1     -10.363   7.885  69.764  1.00  0.00    -0.219 C  
ENDBRANCH   4   5
BRANCH   4  10
HETATM   10  C   UNL     1      -9.549   9.524  67.157  1.00  0.00    -0.160 C  
HETATM   11  O   UNL     1      -8.338   9.687  67.019  1.00  0.00    -0.116 OA 
HETATM   12  H   UNL     1     -11.397  10.372  67.573  1.00  0.00     0.000 HD 
HETATM   13  N   UNL     1     -10.415  10.573  67.386  1.00  0.00    -0.227 N  
BRANCH  13  14
HETATM   14  C   UNL     1      -9.969  11.947  67.370  1.00  0.00    -0.190 C  
BRANCH  14  15
HETATM   15  C   UNL     1     -10.776  12.798  68.315  1.00  0.00    -0.257 A  
HETATM   16  C   UNL     1     -10.909  14.180  68.110  1.00  0.00    -0.258 A  
HETATM   17  C   UNL     1     -11.670  14.955  68.989  1.00  0.00    -0.347 A  
HETATM   18  C   UNL     1     -12.300  14.359  70.081  1.00  0.00    -0.406 A  
HETATM   19  C   UNL     1     -12.164  12.990  70.301  1.00  0.00    -0.368 A  
HETATM   20  C   UNL     1     -11.404  12.215  69.425  1.00  0.00    -0.311 A  
ENDBRANCH  14  15
ENDBRANCH  13  14
ENDBRANCH   4  10
ENDBRANCH   3   4
ENDBRANCH   2   3
TORSDOF 6
ENDMDL
MODEL      245
REMARK 921   NORMALIZED FREE ENERGY PREDICTED BY IDOCK:   -2.76 KCAL/MOL
REMARK 922        TOTAL FREE ENERGY PREDICTED BY IDOCK:   -4.13 KCAL/MOL
REMARK 923 INTER-LIGAND FREE ENERGY PREDICTED BY IDOCK:   -3.62 KCAL/MOL
REMARK 924 INTRA-LIGAND FREE ENERGY PREDICTED BY IDOCK:   -0.52 KCAL/MOL
REMARK 927      BINDING AFFINITY PREDICTED BY RF-SCORE:    0.00 PKD
ROOT
HETATM    1  C   UNL     1     -12.575   6.923  71.637  1.00  0.00    -0.367 C  
HETATM    2  O   UNL     1     -11.960   6.914  70.356  1.00  0.00    -0.335 OA 
ENDROOT
BRANCH   2   3
HETATM    3  C   UNL     1     -10.866   5.992  70.296  1.00  0.00    -0.329 C  
BRANCH   3   4
HETATM    4  C   UNL     1      -9.581   6.708  70.729  1.00  0.00    -0.175 C  
BRANCH   4   5
HETATM    5  N   UNL     1      -8.952   6.036  71.881  1.00  0.00    -0.138 N  
HETATM    6  C   UNL     1      -9.486   7.800  73.548  1.00  0.00    -0.346 C  
HETATM    7  O   UNL     1      -8.366   5.743  74.013  1.00  0.00    -0.109 OA 
HETATM    8  H   UNL     1      -8.509   5.138  71.688  1.00  0.00     0.000 HD 
HETATM    9  C   UNL     1      -8.892   6.468  73.172  1.00  0.00    -0.128 C  
ENDBRANCH   4   5
BRANCH   4  10
HETATM   10  C   UNL     1      -8.629   6.752  69.523  1.00  0.00    -0.133 C  
HETATM   11  O   UNL     1      -8.060   5.742  69.115  1.00  0.00    -0.099 OA 
HETATM   12  H   UNL     1      -8.799   8.820  69.452  1.00  0.00     0.000 HD 
HETATM   13  N   UNL     1      -8.357   8.008  69.022  1.00  0.00    -0.128 N  
BRANCH  13  14
HETATM   14  C   UNL     1      -7.462   8.205  67.905  1.00  0.00    -0.098 C  
BRANCH  14  15
HETATM   15  C   UNL     1      -8.155   8.894  66.759  1.00  0.00    -0.111 A  
HETATM   16  C   UNL     1      -9.486   9.324  66.871  1.00  0.00    -0.211 A  
HETATM   17  C   UNL     1     -10.112   9.972  65.803  1.00  0.00    -0.320 A  
HETATM   18  C   UNL     1      -9.418  10.190  64.613  1.00  0.00    -0.357 A  
HETATM   19  C   UNL     1      -8.100   9.755  64.487  1.00  0.00    -0.146 A  
HETATM   20  C   UNL     1      -7.474   9.107  65.552  1.00  0.00    -0.089 A  
ENDBRANCH  14  15
ENDBRANCH  13  14
ENDBRANCH   4  10
ENDBRANCH   3   4
ENDBRANCH   2   3
TORSDOF 6
ENDMDL
MODEL      246
REMARK 921   NORMALIZED FREE ENERGY PREDICTED BY IDOCK:   -2.75 KCAL/MOL
REMARK 922        TOTAL FREE ENERGY PREDICTED BY IDOCK:   -4.12 KCAL/MOL
REMARK 923 INTER-LIGAND FREE ENERGY PREDICTED BY IDOCK:   -3.55 KCAL/MOL
REMARK 924 INTRA-LIGAND FREE ENERGY PREDICTED BY IDOCK:   -0.57 KCAL/MOL
REMARK 927      BINDING AFFINITY PREDICTED BY RF-SCORE:    0.00 PKD
ROOT
HETATM    1  C   UNL     1     -11.084   7.591  71.063  1.00  0.00    -0.257 C  
HETATM    2  O   UNL     1     -11.480   8.829  70.489  1.00  0.00    -0.262 OA 
ENDROOT
BRANCH   2   3
HETATM    3  C   UNL     1     -10.382   9.740  70.376  1.00  0.00    -0.293 C  
BRANCH   3   4
HETATM    4  C   UNL     1     -10.445  10.436  69.011  1.00  0.00    -0.219 C  
BRANCH   4   5
HETATM    5  N   UNL     1     -10.112  11.868  69.120  1.00  0.00    -0.410 N  
HETATM    6  C   UNL     1     -11.745  12.658  67.422  1.00  0.00    -0.432 C  
HETATM    7  O   UNL     1     -10.296  14.053  68.709  1.00  0.00    -0.240 OA 
HETATM    8  H   UNL     1      -9.373  12.106  69.781  1.00  0.00     0.000 HD 
HETATM    9  C   UNL     1     -10.672  12.912  68.447  1.00  0.00    -0.255 C  
ENDBRANCH   4   5
BRANCH   4  10
HETATM   10  C   UNL     1      -9.480   9.711  68.060  1.00  0.00    -0.132 C  
HETATM   11  O   UNL     1      -8.262   9.774  68.208  1.00  0.00    -0.104 OA 
HETATM   12  H   UNL     1     -11.074   9.150  66.854  1.00  0.00     0.000 HD 
HETATM   13  N   UNL     1     -10.062   9.104  66.966  1.00  0.00    -0.227 N  
BRANCH  13  14
HETATM   14  C   UNL     1      -9.277   8.405  65.976  1.00  0.00    -0.187 C  
BRANCH  14  15
HETATM   15  C   UNL     1      -8.705   9.354  64.956  1.00  0.00    -0.216 A  
HETATM   16  C   UNL     1      -7.327   9.394  64.695  1.00  0.00    -0.104 A  
HETATM   17  C   UNL     1      -6.814  10.272  63.738  1.00  0.00    -0.061 A  
HETATM   18  C   UNL     1      -7.669  11.122  63.038  1.00  0.00     0.421 A  
HETATM   19  C   UNL     1      -9.037  11.101  63.298  1.00  0.00    -0.196 A  
HETATM   20  C   UNL     1      -9.552  10.225  64.254  1.00  0.00    -0.375 A  
ENDBRANCH  14  15
ENDBRANCH  13  14
ENDBRANCH   4  10
ENDBRANCH   3   4
ENDBRANCH   2   3
TORSDOF 6
ENDMDL
MODEL      247
REMARK 921   NORMALIZED FREE ENERGY PREDICTED BY IDOCK:   -2.74 KCAL/MOL
REMARK 922        TOTAL FREE ENERGY PREDICTED BY IDOCK:   -4.10 KCAL/MOL
REMARK 923 INTER-LIGAND FREE ENERGY PREDICTED BY IDOCK:   -3.46 KCAL/MOL
REMARK 924 INTRA-LIGAND FREE ENERGY PREDICTED BY IDOCK:   -0.64 KCAL/MOL
REMARK 927      BINDING AFFINITY PREDICTED BY RF-SCORE:    0.00 PKD
ROOT
HETATM    1  C   UNL     1     -12.249  11.484  70.355  1.00  0.00    -0.355 C  
HETATM    2  O   UNL     1     -12.007  12.448  69.339  1.00  0.00    -0.300 OA 
ENDROOT
BRANCH   2   3
HETATM    3  C   UNL     1     -11.564  11.840  68.121  1.00  0.00    -0.323 C  
BRANCH   3   4
HETATM    4  C   UNL     1     -10.206  12.433  67.727  1.00  0.00    -0.211 C  
BRANCH   4   5
HETATM    5  N   UNL     1      -9.812  13.527  68.634  1.00  0.00    -0.379 N  
HETATM    6  C   UNL     1      -9.038  15.086  66.861  1.00  0.00    -0.269 C  
HETATM    7  O   UNL     1      -9.075  15.554  69.202  1.00  0.00    -0.212 OA 
HETATM    8  H   UNL     1      -9.941  13.349  69.630  1.00  0.00     0.000 HD 
HETATM    9  C   UNL     1      -9.299  14.745  68.304  1.00  0.00    -0.199 C  
ENDBRANCH   4   5
BRANCH   4  10
HETATM   10  C   UNL     1      -9.168  11.300  67.738  1.00  0.00    -0.156 C  
HETATM   11  O   UNL     1      -9.266  10.346  68.507  1.00  0.00    -0.134 OA 
HETATM   12  H   UNL     1      -8.003  12.340  66.372  1.00  0.00     0.000 HD 
HETATM   13  N   UNL     1      -8.066  11.490  66.931  1.00  0.00    -0.160 N  
BRANCH  13  14
HETATM   14  C   UNL     1      -6.999  10.519  66.857  1.00  0.00    -0.096 C  
BRANCH  14  15
HETATM   15  C   UNL     1      -6.976   9.827  65.520  1.00  0.00    -0.099 A  
HETATM   16  C   UNL     1      -6.052  10.194  64.530  1.00  0.00    -0.133 A  
HETATM   17  C   UNL     1      -6.035   9.534  63.299  1.00  0.00    -0.093 A  
HETATM   18  C   UNL     1      -6.944   8.508  63.042  1.00  0.00    -0.090 A  
HETATM   19  C   UNL     1      -7.875   8.145  64.013  1.00  0.00    -0.143 A  
HETATM   20  C   UNL     1      -7.893   8.803  65.243  1.00  0.00    -0.109 A  
ENDBRANCH  14  15
ENDBRANCH  13  14
ENDBRANCH   4  10
ENDBRANCH   3   4
ENDBRANCH   2   3
TORSDOF 6
ENDMDL
MODEL      248
REMARK 921   NORMALIZED FREE ENERGY PREDICTED BY IDOCK:   -2.73 KCAL/MOL
REMARK 922        TOTAL FREE ENERGY PREDICTED BY IDOCK:   -4.10 KCAL/MOL
REMARK 923 INTER-LIGAND FREE ENERGY PREDICTED BY IDOCK:   -3.79 KCAL/MOL
REMARK 924 INTRA-LIGAND FREE ENERGY PREDICTED BY IDOCK:   -0.31 KCAL/MOL
REMARK 927      BINDING AFFINITY PREDICTED BY RF-SCORE:    0.00 PKD
ROOT
HETATM    1  C   UNL     1      -8.752   8.240  66.794  1.00  0.00    -0.133 C  
HETATM    2  O   UNL     1      -9.802   8.327  67.747  1.00  0.00    -0.156 OA 
ENDROOT
BRANCH   2   3
HETATM    3  C   UNL     1      -9.356   8.894  68.983  1.00  0.00    -0.144 C  
BRANCH   3   4
HETATM    4  C   UNL     1     -10.253   8.390  70.120  1.00  0.00    -0.195 C  
BRANCH   4   5
HETATM    5  N   UNL     1     -11.546   9.098  70.140  1.00  0.00    -0.458 N  
HETATM    6  C   UNL     1     -11.964   8.831  72.575  1.00  0.00    -0.301 C  
HETATM    7  O   UNL     1     -13.377   9.998  71.043  1.00  0.00    -0.385 OA 
HETATM    8  H   UNL     1     -11.878   9.448  69.242  1.00  0.00     0.000 HD 
HETATM    9  C   UNL     1     -12.350   9.341  71.213  1.00  0.00    -0.328 C  
ENDBRANCH   4   5
BRANCH   4  10
HETATM   10  C   UNL     1     -10.449   6.876  69.939  1.00  0.00    -0.216 C  
HETATM   11  O   UNL     1     -11.389   6.423  69.291  1.00  0.00    -0.379 OA 
HETATM   12  H   UNL     1      -8.874   6.506  71.239  1.00  0.00     0.000 HD 
HETATM   13  N   UNL     1      -9.588   6.072  70.656  1.00  0.00    -0.171 N  
BRANCH  13  14
HETATM   14  C   UNL     1      -9.669   4.631  70.602  1.00  0.00    -0.207 C  
BRANCH  14  15
HETATM   15  C   UNL     1      -9.293   4.009  71.921  1.00  0.00    -0.192 A  
HETATM   16  C   UNL     1     -10.031   4.275  73.084  1.00  0.00    -0.191 A  
HETATM   17  C   UNL     1      -9.677   3.681  74.298  1.00  0.00    -0.147 A  
HETATM   18  C   UNL     1      -8.580   2.822  74.363  1.00  0.00    -0.071 A  
HETATM   19  C   UNL     1      -7.832   2.562  73.217  1.00  0.00    -0.050 A  
HETATM   20  C   UNL     1      -8.184   3.154  72.004  1.00  0.00    -0.062 A  
ENDBRANCH  14  15
ENDBRANCH  13  14
ENDBRANCH   4  10
ENDBRANCH   3   4
ENDBRANCH   2   3
TORSDOF 6
ENDMDL
MODEL      249
REMARK 921   NORMALIZED FREE ENERGY PREDICTED BY IDOCK:   -2.72 KCAL/MOL
REMARK 922        TOTAL FREE ENERGY PREDICTED BY IDOCK:   -4.08 KCAL/MOL
REMARK 923 INTER-LIGAND FREE ENERGY PREDICTED BY IDOCK:   -3.52 KCAL/MOL
REMARK 924 INTRA-LIGAND FREE ENERGY PREDICTED BY IDOCK:   -0.56 KCAL/MOL
REMARK 927      BINDING AFFINITY PREDICTED BY RF-SCORE:    0.00 PKD
ROOT
HETATM    1  C   UNL     1      -7.001   9.152  69.879  1.00  0.00    -0.054 C  
HETATM    2  O   UNL     1      -8.178   9.738  70.418  1.00  0.00    -0.187 OA 
ENDROOT
BRANCH   2   3
HETATM    3  C   UNL     1      -9.056  10.214  69.393  1.00  0.00    -0.203 C  
BRANCH   3   4
HETATM    4  C   UNL     1     -10.182   9.195  69.181  1.00  0.00    -0.207 C  
BRANCH   4   5
HETATM    5  N   UNL     1     -11.488   9.742  69.590  1.00  0.00    -0.433 N  
HETATM    6  C   UNL     1     -11.444   8.849  71.908  1.00  0.00    -0.442 C  
HETATM    7  O   UNL     1     -13.174  10.204  70.975  1.00  0.00    -0.394 OA 
HETATM    8  H   UNL     1     -11.996  10.265  68.877  1.00  0.00     0.000 HD 
HETATM    9  C   UNL     1     -12.098   9.634  70.803  1.00  0.00    -0.248 C  
ENDBRANCH   4   5
BRANCH   4  10
HETATM   10  C   UNL     1     -10.186   8.789  67.699  1.00  0.00    -0.239 C  
HETATM   11  O   UNL     1     -10.761   7.774  67.312  1.00  0.00    -0.307 OA 
HETATM   12  H   UNL     1      -8.882  10.343  67.259  1.00  0.00     0.000 HD 
HETATM   13  N   UNL     1      -9.400   9.557  66.866  1.00  0.00    -0.142 N  
BRANCH  13  14
HETATM   14  C   UNL     1      -9.288   9.279  65.453  1.00  0.00    -0.226 C  
BRANCH  14  15
HETATM   15  C   UNL     1      -7.905   8.804  65.093  1.00  0.00    -0.108 A  
HETATM   16  C   UNL     1      -7.421   8.914  63.781  1.00  0.00    -0.112 A  
HETATM   17  C   UNL     1      -6.131   8.480  63.464  1.00  0.00    -0.077 A  
HETATM   18  C   UNL     1      -5.317   7.927  64.452  1.00  0.00    -0.036 A  
HETATM   19  C   UNL     1      -5.793   7.800  65.755  1.00  0.00    -0.038 A  
HETATM   20  C   UNL     1      -7.080   8.233  66.073  1.00  0.00    -0.069 A  
ENDBRANCH  14  15
ENDBRANCH  13  14
ENDBRANCH   4  10
ENDBRANCH   3   4
ENDBRANCH   2   3
TORSDOF 6
ENDMDL
MODEL      250
REMARK 921   NORMALIZED FREE ENERGY PREDICTED BY IDOCK:   -2.69 KCAL/MOL
REMARK 922        TOTAL FREE ENERGY PREDICTED BY IDOCK:   -4.04 KCAL/MOL
REMARK 923 INTER-LIGAND FREE ENERGY PREDICTED BY IDOCK:   -3.53 KCAL/MOL
REMARK 924 INTRA-LIGAND FREE ENERGY PREDICTED BY IDOCK:   -0.51 KCAL/MOL
REMARK 927      BINDING AFFINITY PREDICTED BY RF-SCORE:    0.00 PKD
ROOT
HETATM    1  C   UNL     1      -9.708  17.476  66.070  1.00  0.00    -0.141 C  
HETATM    2  O   UNL     1     -10.270  16.431  66.851  1.00  0.00    -0.278 OA 
ENDROOT
BRANCH   2   3
HETATM    3  C   UNL     1      -9.477  16.141  68.007  1.00  0.00    -0.211 C  
BRANCH   3   4
HETATM    4  C   UNL     1      -9.879  14.770  68.563  1.00  0.00    -0.218 C  
BRANCH   4   5
HETATM    5  N   UNL     1     -11.330  14.690  68.804  1.00  0.00    -0.266 N  
HETATM    6  C   UNL     1     -11.218  15.047  71.261  1.00  0.00    -0.265 C  
HETATM    7  O   UNL     1     -13.220  14.775  69.988  1.00  0.00     0.021 OA 
HETATM    8  H   UNL     1     -11.911  14.514  67.985  1.00  0.00     0.000 HD 
HETATM    9  C   UNL     1     -11.991  14.823  69.989  1.00  0.00    -0.316 C  
ENDBRANCH   4   5
BRANCH   4  10
HETATM   10  C   UNL     1      -9.420  13.697  67.563  1.00  0.00    -0.222 C  
HETATM   11  O   UNL     1      -8.438  13.866  66.843  1.00  0.00    -0.174 OA 
HETATM   12  H   UNL     1     -11.097  12.555  68.002  1.00  0.00     0.000 HD 
HETATM   13  N   UNL     1     -10.252  12.605  67.434  1.00  0.00    -0.216 N  
BRANCH  13  14
HETATM   14  C   UNL     1      -9.961  11.529  66.515  1.00  0.00    -0.210 C  
BRANCH  14  15
HETATM   15  C   UNL     1      -9.464  10.305  67.239  1.00  0.00    -0.174 A  
HETATM   16  C   UNL     1      -8.298  10.348  68.017  1.00  0.00    -0.118 A  
HETATM   17  C   UNL     1      -7.856   9.208  68.693  1.00  0.00    -0.097 A  
HETATM   18  C   UNL     1      -8.569   8.014  68.591  1.00  0.00    -0.128 A  
HETATM   19  C   UNL     1      -9.721   7.957  67.810  1.00  0.00    -0.189 A  
HETATM   20  C   UNL     1     -10.164   9.094  67.134  1.00  0.00    -0.329 A  
ENDBRANCH  14  15
ENDBRANCH  13  14
ENDBRANCH   4  10
ENDBRANCH   3   4
ENDBRANCH   2   3
TORSDOF 6
ENDMDL
MODEL      251
REMARK 921   NORMALIZED FREE ENERGY PREDICTED BY IDOCK:   -2.69 KCAL/MOL
REMARK 922        TOTAL FREE ENERGY PREDICTED BY IDOCK:   -4.04 KCAL/MOL
REMARK 923 INTER-LIGAND FREE ENERGY PREDICTED BY IDOCK:   -3.86 KCAL/MOL
REMARK 924 INTRA-LIGAND FREE ENERGY PREDICTED BY IDOCK:   -0.18 KCAL/MOL
REMARK 927      BINDING AFFINITY PREDICTED BY RF-SCORE:    0.00 PKD
ROOT
HETATM    1  C   UNL     1     -13.224  13.809  65.326  1.00  0.00     0.050 C  
HETATM    2  O   UNL     1     -12.187  14.768  65.171  1.00  0.00    -0.308 OA 
ENDROOT
BRANCH   2   3
HETATM    3  C   UNL     1     -11.199  14.658  66.202  1.00  0.00    -0.341 C  
BRANCH   3   4
HETATM    4  C   UNL     1      -9.890  14.143  65.591  1.00  0.00    -0.249 C  
BRANCH   4   5
HETATM    5  N   UNL     1      -8.786  14.190  66.566  1.00  0.00    -0.459 N  
HETATM    6  C   UNL     1      -8.343  16.626  66.359  1.00  0.00    -0.353 C  
HETATM    7  O   UNL     1      -7.207  15.128  67.832  1.00  0.00    -0.116 OA 
HETATM    8  H   UNL     1      -8.531  13.300  66.995  1.00  0.00     0.000 HD 
HETATM    9  C   UNL     1      -8.065  15.275  66.964  1.00  0.00    -0.218 C  
ENDBRANCH   4   5
BRANCH   4  10
HETATM   10  C   UNL     1     -10.129  12.711  65.087  1.00  0.00    -0.237 C  
HETATM   11  O   UNL     1     -10.337  12.473  63.899  1.00  0.00    -0.405 OA 
HETATM   12  H   UNL     1     -10.123  12.011  67.041  1.00  0.00     0.000 HD 
HETATM   13  N   UNL     1     -10.227  11.742  66.063  1.00  0.00    -0.222 N  
BRANCH  13  14
HETATM   14  C   UNL     1     -10.474  10.356  65.740  1.00  0.00    -0.117 C  
BRANCH  14  15
HETATM   15  C   UNL     1      -9.242   9.514  65.948  1.00  0.00    -0.260 A  
HETATM   16  C   UNL     1      -9.332   8.120  66.080  1.00  0.00    -0.232 A  
HETATM   17  C   UNL     1      -8.179   7.352  66.261  1.00  0.00    -0.126 A  
HETATM   18  C   UNL     1      -6.930   7.967  66.320  1.00  0.00    -0.063 A  
HETATM   19  C   UNL     1      -6.831   9.352  66.204  1.00  0.00    -0.085 A  
HETATM   20  C   UNL     1      -7.980  10.122  66.023  1.00  0.00    -0.124 A  
ENDBRANCH  14  15
ENDBRANCH  13  14
ENDBRANCH   4  10
ENDBRANCH   3   4
ENDBRANCH   2   3
TORSDOF 6
ENDMDL
MODEL      252
REMARK 921   NORMALIZED FREE ENERGY PREDICTED BY IDOCK:   -2.66 KCAL/MOL
REMARK 922        TOTAL FREE ENERGY PREDICTED BY IDOCK:   -4.00 KCAL/MOL
REMARK 923 INTER-LIGAND FREE ENERGY PREDICTED BY IDOCK:   -3.82 KCAL/MOL
REMARK 924 INTRA-LIGAND FREE ENERGY PREDICTED BY IDOCK:   -0.19 KCAL/MOL
REMARK 927      BINDING AFFINITY PREDICTED BY RF-SCORE:    0.00 PKD
ROOT
HETATM    1  C   UNL     1     -11.730   6.367  70.124  1.00  0.00    -0.303 C  
HETATM    2  O   UNL     1     -11.306   7.177  71.212  1.00  0.00    -0.253 OA 
ENDROOT
BRANCH   2   3
HETATM    3  C   UNL     1     -10.805   6.391  72.299  1.00  0.00    -0.239 C  
BRANCH   3   4
HETATM    4  C   UNL     1      -9.277   6.513  72.346  1.00  0.00    -0.136 C  
BRANCH   4   5
HETATM    5  N   UNL     1      -8.631   5.545  71.442  1.00  0.00    -0.130 N  
HETATM    6  C   UNL     1      -7.492   4.232  73.218  1.00  0.00    -0.077 C  
HETATM    7  O   UNL     1      -7.422   3.757  70.878  1.00  0.00    -0.040 OA 
HETATM    8  H   UNL     1      -8.803   5.681  70.446  1.00  0.00     0.000 HD 
HETATM    9  C   UNL     1      -7.834   4.492  71.775  1.00  0.00    -0.096 C  
ENDBRANCH   4   5
BRANCH   4  10
HETATM   10  C   UNL     1      -8.902   7.957  71.978  1.00  0.00    -0.141 C  
HETATM   11  O   UNL     1      -8.845   8.844  72.827  1.00  0.00    -0.324 OA 
HETATM   12  H   UNL     1      -8.901   7.454  69.964  1.00  0.00     0.000 HD 
HETATM   13  N   UNL     1      -8.766   8.214  70.630  1.00  0.00    -0.132 N  
BRANCH  13  14
HETATM   14  C   UNL     1      -8.439   9.531  70.134  1.00  0.00    -0.205 C  
BRANCH  14  15
HETATM   15  C   UNL     1      -9.589  10.134  69.372  1.00  0.00    -0.249 A  
HETATM   16  C   UNL     1      -9.463  10.468  68.015  1.00  0.00    -0.157 A  
HETATM   17  C   UNL     1     -10.543  11.016  67.318  1.00  0.00    -0.287 A  
HETATM   18  C   UNL     1     -11.754  11.243  67.971  1.00  0.00    -0.305 A  
HETATM   19  C   UNL     1     -11.886  10.928  69.321  1.00  0.00    -0.395 A  
HETATM   20  C   UNL     1     -10.809  10.381  70.019  1.00  0.00    -0.348 A  
ENDBRANCH  14  15
ENDBRANCH  13  14
ENDBRANCH   4  10
ENDBRANCH   3   4
ENDBRANCH   2   3
TORSDOF 6
ENDMDL
MODEL      253
REMARK 921   NORMALIZED FREE ENERGY PREDICTED BY IDOCK:   -2.66 KCAL/MOL
REMARK 922        TOTAL FREE ENERGY PREDICTED BY IDOCK:   -4.00 KCAL/MOL
REMARK 923 INTER-LIGAND FREE ENERGY PREDICTED BY IDOCK:   -3.45 KCAL/MOL
REMARK 924 INTRA-LIGAND FREE ENERGY PREDICTED BY IDOCK:   -0.56 KCAL/MOL
REMARK 927      BINDING AFFINITY PREDICTED BY RF-SCORE:    0.00 PKD
ROOT
HETATM    1  C   UNL     1     -11.289  11.378  68.535  1.00  0.00    -0.271 C  
HETATM    2  O   UNL     1     -10.233  10.595  69.073  1.00  0.00    -0.196 OA 
ENDROOT
BRANCH   2   3
HETATM    3  C   UNL     1     -10.156   9.306  68.455  1.00  0.00    -0.190 C  
BRANCH   3   4
HETATM    4  C   UNL     1      -9.809   8.258  69.519  1.00  0.00    -0.181 C  
BRANCH   4   5
HETATM    5  N   UNL     1     -10.996   7.478  69.915  1.00  0.00    -0.332 N  
HETATM    6  C   UNL     1     -11.478   8.753  71.993  1.00  0.00    -0.441 C  
HETATM    7  O   UNL     1     -12.778   6.939  71.144  1.00  0.00    -0.369 OA 
HETATM    8  H   UNL     1     -11.250   6.707  69.298  1.00  0.00     0.000 HD 
HETATM    9  C   UNL     1     -11.794   7.663  71.003  1.00  0.00    -0.285 C  
ENDBRANCH   4   5
BRANCH   4  10
HETATM   10  C   UNL     1      -8.708   7.347  68.952  1.00  0.00    -0.132 C  
HETATM   11  O   UNL     1      -8.106   7.633  67.920  1.00  0.00    -0.119 OA 
HETATM   12  H   UNL     1      -9.122   5.924  70.404  1.00  0.00     0.000 HD 
HETATM   13  N   UNL     1      -8.539   6.141  69.597  1.00  0.00    -0.127 N  
BRANCH  13  14
HETATM   14  C   UNL     1      -7.557   5.175  69.161  1.00  0.00    -0.069 C  
BRANCH  14  15
HETATM   15  C   UNL     1      -8.210   3.904  68.683  1.00  0.00    -0.083 A  
HETATM   16  C   UNL     1      -8.847   3.035  69.581  1.00  0.00    -0.147 A  
HETATM   17  C   UNL     1      -9.458   1.866  69.121  1.00  0.00    -0.147 A  
HETATM   18  C   UNL     1      -9.432   1.551  67.763  1.00  0.00    -0.122 A  
HETATM   19  C   UNL     1      -8.790   2.400  66.864  1.00  0.00    -0.147 A  
HETATM   20  C   UNL     1      -8.179   3.567  67.322  1.00  0.00    -0.090 A  
ENDBRANCH  14  15
ENDBRANCH  13  14
ENDBRANCH   4  10
ENDBRANCH   3   4
ENDBRANCH   2   3
TORSDOF 6
ENDMDL
MODEL      254
REMARK 921   NORMALIZED FREE ENERGY PREDICTED BY IDOCK:   -2.66 KCAL/MOL
REMARK 922        TOTAL FREE ENERGY PREDICTED BY IDOCK:   -3.99 KCAL/MOL
REMARK 923 INTER-LIGAND FREE ENERGY PREDICTED BY IDOCK:   -3.97 KCAL/MOL
REMARK 924 INTRA-LIGAND FREE ENERGY PREDICTED BY IDOCK:   -0.03 KCAL/MOL
REMARK 927      BINDING AFFINITY PREDICTED BY RF-SCORE:    0.00 PKD
ROOT
HETATM    1  C   UNL     1      -8.723   9.659  69.329  1.00  0.00    -0.159 C  
HETATM    2  O   UNL     1      -8.816   9.540  70.742  1.00  0.00    -0.210 OA 
ENDROOT
BRANCH   2   3
HETATM    3  C   UNL     1      -9.363   8.278  71.137  1.00  0.00    -0.165 C  
BRANCH   3   4
HETATM    4  C   UNL     1     -10.067   8.436  72.490  1.00  0.00    -0.292 C  
BRANCH   4   5
HETATM    5  N   UNL     1     -11.509   8.689  72.321  1.00  0.00    -0.370 N  
HETATM    6  C   UNL     1     -11.985   6.656  70.974  1.00  0.00    -0.415 C  
HETATM    7  O   UNL     1     -13.602   8.269  71.673  1.00  0.00    -0.347 OA 
HETATM    8  H   UNL     1     -11.866   9.544  72.747  1.00  0.00     0.000 HD 
HETATM    9  C   UNL     1     -12.423   7.919  71.666  1.00  0.00    -0.319 C  
ENDBRANCH   4   5
BRANCH   4  10
HETATM   10  C   UNL     1      -9.816   7.161  73.311  1.00  0.00    -0.234 C  
HETATM   11  O   UNL     1     -10.430   6.935  74.352  1.00  0.00    -0.231 OA 
HETATM   12  H   UNL     1      -8.251   6.644  72.050  1.00  0.00     0.000 HD 
HETATM   13  N   UNL     1      -8.777   6.365  72.878  1.00  0.00    -0.125 N  
BRANCH  13  14
HETATM   14  C   UNL     1      -8.411   5.149  73.565  1.00  0.00    -0.112 C  
BRANCH  14  15
HETATM   15  C   UNL     1      -9.065   3.945  72.938  1.00  0.00    -0.122 A  
HETATM   16  C   UNL     1      -9.002   3.726  71.554  1.00  0.00    -0.158 A  
HETATM   17  C   UNL     1      -9.604   2.598  70.989  1.00  0.00    -0.210 A  
HETATM   18  C   UNL     1     -10.277   1.685  71.798  1.00  0.00    -0.155 A  
HETATM   19  C   UNL     1     -10.357   1.900  73.173  1.00  0.00    -0.202 A  
HETATM   20  C   UNL     1      -9.758   3.025  73.739  1.00  0.00    -0.138 A  
ENDBRANCH  14  15
ENDBRANCH  13  14
ENDBRANCH   4  10
ENDBRANCH   3   4
ENDBRANCH   2   3
TORSDOF 6
ENDMDL
MODEL      255
REMARK 921   NORMALIZED FREE ENERGY PREDICTED BY IDOCK:   -2.64 KCAL/MOL
REMARK 922        TOTAL FREE ENERGY PREDICTED BY IDOCK:   -3.97 KCAL/MOL
REMARK 923 INTER-LIGAND FREE ENERGY PREDICTED BY IDOCK:   -3.44 KCAL/MOL
REMARK 924 INTRA-LIGAND FREE ENERGY PREDICTED BY IDOCK:   -0.52 KCAL/MOL
REMARK 927      BINDING AFFINITY PREDICTED BY RF-SCORE:    0.00 PKD
ROOT
HETATM    1  C   UNL     1      -9.704   4.332  68.473  1.00  0.00    -0.094 C  
HETATM    2  O   UNL     1      -9.966   5.700  68.753  1.00  0.00    -0.144 OA 
ENDROOT
BRANCH   2   3
HETATM    3  C   UNL     1     -10.128   5.937  70.155  1.00  0.00    -0.202 C  
BRANCH   3   4
HETATM    4  C   UNL     1      -9.415   7.241  70.531  1.00  0.00    -0.165 C  
BRANCH   4   5
HETATM    5  N   UNL     1      -8.163   7.408  69.772  1.00  0.00    -0.128 N  
HETATM    6  C   UNL     1      -6.801   8.243  71.676  1.00  0.00    -0.069 C  
HETATM    7  O   UNL     1      -6.002   7.865  69.457  1.00  0.00    -0.032 OA 
HETATM    8  H   UNL     1      -8.206   7.173  68.781  1.00  0.00     0.000 HD 
HETATM    9  C   UNL     1      -6.955   7.837  70.234  1.00  0.00    -0.050 C  
ENDBRANCH   4   5
BRANCH   4  10
HETATM   10  C   UNL     1     -10.383   8.406  70.272  1.00  0.00    -0.205 C  
HETATM   11  O   UNL     1     -11.570   8.338  70.585  1.00  0.00    -0.271 OA 
HETATM   12  H   UNL     1      -8.894   9.431  69.252  1.00  0.00     0.000 HD 
HETATM   13  N   UNL     1      -9.868   9.464  69.553  1.00  0.00    -0.174 N  
BRANCH  13  14
HETATM   14  C   UNL     1     -10.668  10.618  69.215  1.00  0.00    -0.238 C  
BRANCH  14  15
HETATM   15  C   UNL     1     -10.471  11.023  67.778  1.00  0.00    -0.232 A  
HETATM   16  C   UNL     1     -11.413  11.824  67.116  1.00  0.00    -0.366 A  
HETATM   17  C   UNL     1     -11.211  12.201  65.786  1.00  0.00    -0.384 A  
HETATM   18  C   UNL     1     -10.071  11.776  65.104  1.00  0.00    -0.298 A  
HETATM   19  C   UNL     1      -9.136  10.969  65.748  1.00  0.00    -0.219 A  
HETATM   20  C   UNL     1      -9.336  10.591  67.076  1.00  0.00    -0.176 A  
ENDBRANCH  14  15
ENDBRANCH  13  14
ENDBRANCH   4  10
ENDBRANCH   3   4
ENDBRANCH   2   3
TORSDOF 6
ENDMDL
MODEL      256
REMARK 921   NORMALIZED FREE ENERGY PREDICTED BY IDOCK:   -2.56 KCAL/MOL
REMARK 922        TOTAL FREE ENERGY PREDICTED BY IDOCK:   -3.87 KCAL/MOL
REMARK 923 INTER-LIGAND FREE ENERGY PREDICTED BY IDOCK:   -3.50 KCAL/MOL
REMARK 924 INTRA-LIGAND FREE ENERGY PREDICTED BY IDOCK:   -0.37 KCAL/MOL
REMARK 927      BINDING AFFINITY PREDICTED BY RF-SCORE:    0.00 PKD
ROOT
HETATM    1  C   UNL     1      -8.775   8.211  66.807  1.00  0.00    -0.135 C  
HETATM    2  O   UNL     1      -9.830   8.275  67.755  1.00  0.00    -0.156 OA 
ENDROOT
BRANCH   2   3
HETATM    3  C   UNL     1      -9.374   8.736  69.032  1.00  0.00    -0.145 C  
BRANCH   3   4
HETATM    4  C   UNL     1     -10.338   8.244  70.118  1.00  0.00    -0.212 C  
BRANCH   4   5
HETATM    5  N   UNL     1     -11.558   9.070  70.170  1.00  0.00    -0.464 N  
HETATM    6  C   UNL     1     -12.155   8.527  72.520  1.00  0.00    -0.395 C  
HETATM    7  O   UNL     1     -13.352  10.022  71.093  1.00  0.00    -0.380 OA 
HETATM    8  H   UNL     1     -11.798   9.567  69.312  1.00  0.00     0.000 HD 
HETATM    9  C   UNL     1     -12.404   9.249  71.223  1.00  0.00    -0.328 C  
ENDBRANCH   4   5
BRANCH   4  10
HETATM   10  C   UNL     1     -10.673   6.772  69.829  1.00  0.00    -0.249 C  
HETATM   11  O   UNL     1     -11.830   6.399  69.650  1.00  0.00    -0.323 OA 
HETATM   12  H   UNL     1      -8.690   6.248  70.145  1.00  0.00     0.000 HD 
HETATM   13  N   UNL     1      -9.617   5.890  69.916  1.00  0.00    -0.155 N  
BRANCH  13  14
HETATM   14  C   UNL     1      -9.787   4.473  69.693  1.00  0.00    -0.218 C  
BRANCH  14  15
HETATM   15  C   UNL     1      -8.516   3.838  69.193  1.00  0.00    -0.100 A  
HETATM   16  C   UNL     1      -7.452   4.621  68.723  1.00  0.00    -0.064 A  
HETATM   17  C   UNL     1      -6.274   4.017  68.273  1.00  0.00    -0.032 A  
HETATM   18  C   UNL     1      -6.153   2.628  68.282  1.00  0.00    -0.025 A  
HETATM   19  C   UNL     1      -7.209   1.841  68.734  1.00  0.00    -0.043 A  
HETATM   20  C   UNL     1      -8.385   2.441  69.184  1.00  0.00    -0.078 A  
ENDBRANCH  14  15
ENDBRANCH  13  14
ENDBRANCH   4  10
ENDBRANCH   3   4
ENDBRANCH   2   3
TORSDOF 6
ENDMDL
MODEL      257
REMARK 921   NORMALIZED FREE ENERGY PREDICTED BY IDOCK:   -2.56 KCAL/MOL
REMARK 922        TOTAL FREE ENERGY PREDICTED BY IDOCK:   -3.86 KCAL/MOL
REMARK 923 INTER-LIGAND FREE ENERGY PREDICTED BY IDOCK:   -3.33 KCAL/MOL
REMARK 924 INTRA-LIGAND FREE ENERGY PREDICTED BY IDOCK:   -0.53 KCAL/MOL
REMARK 927      BINDING AFFINITY PREDICTED BY RF-SCORE:    0.00 PKD
ROOT
HETATM    1  C   UNL     1     -10.227   7.158  67.055  1.00  0.00    -0.269 C  
HETATM    2  O   UNL     1      -9.392   7.627  68.105  1.00  0.00    -0.144 OA 
ENDROOT
BRANCH   2   3
HETATM    3  C   UNL     1      -9.726   8.962  68.498  1.00  0.00    -0.161 C  
BRANCH   3   4
HETATM    4  C   UNL     1     -10.876   8.915  69.511  1.00  0.00    -0.153 C  
BRANCH   4   5
HETATM    5  N   UNL     1     -10.380   8.670  70.877  1.00  0.00    -0.201 N  
HETATM    6  C   UNL     1     -12.331   7.333  71.639  1.00  0.00    -0.387 C  
HETATM    7  O   UNL     1     -10.386   7.816  72.939  1.00  0.00    -0.277 OA 
HETATM    8  H   UNL     1      -9.478   9.087  71.107  1.00  0.00     0.000 HD 
HETATM    9  C   UNL     1     -10.980   7.955  71.870  1.00  0.00    -0.256 C  
ENDBRANCH   4   5
BRANCH   4  10
HETATM   10  C   UNL     1     -11.642  10.245  69.426  1.00  0.00    -0.146 C  
HETATM   11  O   UNL     1     -12.723  10.402  69.990  1.00  0.00    -0.211 OA 
HETATM   12  H   UNL     1     -10.246  10.975  68.075  1.00  0.00     0.000 HD 
HETATM   13  N   UNL     1     -11.107  11.191  68.577  1.00  0.00    -0.222 N  
BRANCH  13  14
HETATM   14  C   UNL     1     -11.731  12.478  68.379  1.00  0.00    -0.328 C  
BRANCH  14  15
HETATM   15  C   UNL     1     -10.734  13.599  68.503  1.00  0.00    -0.269 A  
HETATM   16  C   UNL     1      -9.470  13.385  69.073  1.00  0.00     0.333 A  
HETATM   17  C   UNL     1      -8.551  14.432  69.170  1.00  0.00     0.093 A  
HETATM   18  C   UNL     1      -8.887  15.703  68.705  1.00  0.00    -0.201 A  
HETATM   19  C   UNL     1     -10.144  15.930  68.149  1.00  0.00    -0.229 A  
HETATM   20  C   UNL     1     -11.063  14.886  68.052  1.00  0.00    -0.301 A  
ENDBRANCH  14  15
ENDBRANCH  13  14
ENDBRANCH   4  10
ENDBRANCH   3   4
ENDBRANCH   2   3
TORSDOF 6
ENDMDL
MODEL      258
REMARK 921   NORMALIZED FREE ENERGY PREDICTED BY IDOCK:   -2.55 KCAL/MOL
REMARK 922        TOTAL FREE ENERGY PREDICTED BY IDOCK:   -3.85 KCAL/MOL
REMARK 923 INTER-LIGAND FREE ENERGY PREDICTED BY IDOCK:   -3.31 KCAL/MOL
REMARK 924 INTRA-LIGAND FREE ENERGY PREDICTED BY IDOCK:   -0.54 KCAL/MOL
REMARK 927      BINDING AFFINITY PREDICTED BY RF-SCORE:    0.00 PKD
ROOT
HETATM    1  C   UNL     1      -7.312  10.049  65.164  1.00  0.00    -0.139 C  
HETATM    2  O   UNL     1      -7.173   8.868  65.941  1.00  0.00    -0.086 OA 
ENDROOT
BRANCH   2   3
HETATM    3  C   UNL     1      -8.442   8.300  66.282  1.00  0.00    -0.129 C  
BRANCH   3   4
HETATM    4  C   UNL     1      -8.432   6.805  65.939  1.00  0.00    -0.144 C  
BRANCH   4   5
HETATM    5  N   UNL     1      -7.071   6.245  66.011  1.00  0.00    -0.065 N  
HETATM    6  C   UNL     1      -7.282   4.760  64.031  1.00  0.00    -0.050 C  
HETATM    7  O   UNL     1      -5.319   5.023  65.365  1.00  0.00    -0.012 OA 
HETATM    8  H   UNL     1      -6.490   6.578  66.781  1.00  0.00     0.000 HD 
HETATM    9  C   UNL     1      -6.493   5.338  65.175  1.00  0.00    -0.039 C  
ENDBRANCH   4   5
BRANCH   4  10
HETATM   10  C   UNL     1      -9.383   6.086  66.910  1.00  0.00    -0.131 C  
HETATM   11  O   UNL     1      -9.615   4.884  66.810  1.00  0.00    -0.137 OA 
HETATM   12  H   UNL     1      -9.875   7.901  67.789  1.00  0.00     0.000 HD 
HETATM   13  N   UNL     1     -10.050   6.897  67.804  1.00  0.00    -0.151 N  
BRANCH  13  14
HETATM   14  C   UNL     1     -10.993   6.364  68.759  1.00  0.00    -0.334 C  
BRANCH  14  15
HETATM   15  C   UNL     1     -11.166   7.287  69.936  1.00  0.00    -0.195 A  
HETATM   16  C   UNL     1     -10.629   8.583  69.925  1.00  0.00    -0.228 A  
HETATM   17  C   UNL     1     -10.808   9.432  71.020  1.00  0.00    -0.406 A  
HETATM   18  C   UNL     1     -11.517   8.993  72.137  1.00  0.00    -0.328 A  
HETATM   19  C   UNL     1     -12.043   7.703  72.165  1.00  0.00    -0.325 A  
HETATM   20  C   UNL     1     -11.865   6.854  71.073  1.00  0.00    -0.411 A  
ENDBRANCH  14  15
ENDBRANCH  13  14
ENDBRANCH   4  10
ENDBRANCH   3   4
ENDBRANCH   2   3
TORSDOF 6
ENDMDL
MODEL      259
REMARK 921   NORMALIZED FREE ENERGY PREDICTED BY IDOCK:   -2.53 KCAL/MOL
REMARK 922        TOTAL FREE ENERGY PREDICTED BY IDOCK:   -3.82 KCAL/MOL
REMARK 923 INTER-LIGAND FREE ENERGY PREDICTED BY IDOCK:   -3.54 KCAL/MOL
REMARK 924 INTRA-LIGAND FREE ENERGY PREDICTED BY IDOCK:   -0.29 KCAL/MOL
REMARK 927      BINDING AFFINITY PREDICTED BY RF-SCORE:    0.00 PKD
ROOT
HETATM    1  C   UNL     1      -7.066   8.038  72.017  1.00  0.00    -0.080 C  
HETATM    2  O   UNL     1      -8.113   7.920  71.064  1.00  0.00    -0.094 OA 
ENDROOT
BRANCH   2   3
HETATM    3  C   UNL     1      -7.739   7.090  69.959  1.00  0.00    -0.104 C  
BRANCH   3   4
HETATM    4  C   UNL     1      -8.529   7.520  68.717  1.00  0.00    -0.129 C  
BRANCH   4   5
HETATM    5  N   UNL     1      -9.515   6.497  68.326  1.00  0.00    -0.120 N  
HETATM    6  C   UNL     1      -9.283   6.818  65.873  1.00  0.00    -0.001 C  
HETATM    7  O   UNL     1     -10.694   5.211  66.935  1.00  0.00    -0.230 OA 
HETATM    8  H   UNL     1      -9.979   6.007  69.092  1.00  0.00     0.000 HD 
HETATM    9  C   UNL     1      -9.884   6.127  67.068  1.00  0.00    -0.149 C  
ENDBRANCH   4   5
BRANCH   4  10
HETATM   10  C   UNL     1      -9.210   8.863  69.025  1.00  0.00    -0.140 C  
HETATM   11  O   UNL     1     -10.269   8.919  69.645  1.00  0.00    -0.194 OA 
HETATM   12  H   UNL     1      -7.792   9.856  67.880  1.00  0.00     0.000 HD 
HETATM   13  N   UNL     1      -8.629   9.974  68.450  1.00  0.00    -0.111 N  
BRANCH  13  14
HETATM   14  C   UNL     1      -9.174  11.299  68.633  1.00  0.00    -0.161 C  
BRANCH  14  15
HETATM   15  C   UNL     1     -10.054  11.697  67.478  1.00  0.00    -0.209 A  
HETATM   16  C   UNL     1      -9.751  11.301  66.166  1.00  0.00    -0.251 A  
HETATM   17  C   UNL     1     -10.584  11.668  65.106  1.00  0.00    -0.343 A  
HETATM   18  C   UNL     1     -11.721  12.439  65.345  1.00  0.00    -0.452 A  
HETATM   19  C   UNL     1     -12.024  12.849  66.641  1.00  0.00    -0.436 A  
HETATM   20  C   UNL     1     -11.194  12.483  67.701  1.00  0.00    -0.332 A  
ENDBRANCH  14  15
ENDBRANCH  13  14
ENDBRANCH   4  10
ENDBRANCH   3   4
ENDBRANCH   2   3
TORSDOF 6
ENDMDL
MODEL      260
REMARK 921   NORMALIZED FREE ENERGY PREDICTED BY IDOCK:   -2.50 KCAL/MOL
REMARK 922        TOTAL FREE ENERGY PREDICTED BY IDOCK:   -3.79 KCAL/MOL
REMARK 923 INTER-LIGAND FREE ENERGY PREDICTED BY IDOCK:   -4.23 KCAL/MOL
REMARK 924 INTRA-LIGAND FREE ENERGY PREDICTED BY IDOCK:    0.44 KCAL/MOL
REMARK 927      BINDING AFFINITY PREDICTED BY RF-SCORE:    0.00 PKD
ROOT
HETATM    1  C   UNL     1      -5.685  12.986  68.204  1.00  0.00    -0.093 C  
HETATM    2  O   UNL     1      -6.586  12.178  68.949  1.00  0.00    -0.077 OA 
ENDROOT
BRANCH   2   3
HETATM    3  C   UNL     1      -7.331  11.293  68.107  1.00  0.00    -0.088 C  
BRANCH   3   4
HETATM    4  C   UNL     1      -7.799  12.056  66.863  1.00  0.00    -0.095 C  
BRANCH   4   5
HETATM    5  N   UNL     1      -8.122  11.137  65.757  1.00  0.00    -0.358 N  
HETATM    6  C   UNL     1      -9.865   9.849  66.972  1.00  0.00    -0.241 C  
HETATM    7  O   UNL     1      -9.213   9.503  64.701  1.00  0.00    -0.239 OA 
HETATM    8  H   UNL     1      -7.585  11.264  64.899  1.00  0.00     0.000 HD 
HETATM    9  C   UNL     1      -9.049  10.139  65.741  1.00  0.00    -0.171 C  
ENDBRANCH   4   5
BRANCH   4  10
HETATM   10  C   UNL     1      -9.018  12.906  67.255  1.00  0.00    -0.208 C  
HETATM   11  O   UNL     1      -9.498  12.861  68.385  1.00  0.00    -0.215 OA 
HETATM   12  H   UNL     1      -9.213  13.551  65.291  1.00  0.00     0.000 HD 
HETATM   13  N   UNL     1      -9.610  13.612  66.228  1.00  0.00    -0.267 N  
BRANCH  13  14
HETATM   14  C   UNL     1     -10.777  14.435  66.443  1.00  0.00    -0.306 C  
BRANCH  14  15
HETATM   15  C   UNL     1     -10.409  15.768  67.039  1.00  0.00    -0.292 A  
HETATM   16  C   UNL     1     -10.585  16.024  68.407  1.00  0.00    -0.270 A  
HETATM   17  C   UNL     1     -10.227  17.262  68.947  1.00  0.00    -0.349 A  
HETATM   18  C   UNL     1      -9.699  18.257  68.126  1.00  0.00    -0.341 A  
HETATM   19  C   UNL     1      -9.533  18.019  66.763  1.00  0.00    -0.293 A  
HETATM   20  C   UNL     1      -9.889  16.783  66.222  1.00  0.00    -0.327 A  
ENDBRANCH  14  15
ENDBRANCH  13  14
ENDBRANCH   4  10
ENDBRANCH   3   4
ENDBRANCH   2   3
TORSDOF 6
ENDMDL
MODEL      261
REMARK 921   NORMALIZED FREE ENERGY PREDICTED BY IDOCK:   -2.50 KCAL/MOL
REMARK 922        TOTAL FREE ENERGY PREDICTED BY IDOCK:   -3.79 KCAL/MOL
REMARK 923 INTER-LIGAND FREE ENERGY PREDICTED BY IDOCK:   -4.52 KCAL/MOL
REMARK 924 INTRA-LIGAND FREE ENERGY PREDICTED BY IDOCK:    0.73 KCAL/MOL
REMARK 927      BINDING AFFINITY PREDICTED BY RF-SCORE:    0.00 PKD
ROOT
HETATM    1  C   UNL     1      -7.173  10.177  65.512  1.00  0.00    -0.142 C  
HETATM    2  O   UNL     1      -6.894  10.685  66.809  1.00  0.00    -0.094 OA 
ENDROOT
BRANCH   2   3
HETATM    3  C   UNL     1      -8.091  10.972  67.540  1.00  0.00    -0.117 C  
BRANCH   3   4
HETATM    4  C   UNL     1      -8.700  12.277  67.015  1.00  0.00    -0.199 C  
BRANCH   4   5
HETATM    5  N   UNL     1     -10.147  12.345  67.290  1.00  0.00    -0.208 N  
HETATM    6  C   UNL     1     -10.428   9.944  67.865  1.00  0.00    -0.282 C  
HETATM    7  O   UNL     1     -12.152  11.596  67.920  1.00  0.00    -0.613 OA 
HETATM    8  H   UNL     1     -10.583  13.258  67.165  1.00  0.00     0.000 HD 
HETATM    9  C   UNL     1     -10.972  11.337  67.690  1.00  0.00    -0.259 C  
ENDBRANCH   4   5
BRANCH   4  10
HETATM   10  C   UNL     1      -7.953  13.450  67.668  1.00  0.00    -0.174 C  
HETATM   11  O   UNL     1      -7.472  13.358  68.795  1.00  0.00    -0.108 OA 
HETATM   12  H   UNL     1      -8.459  14.676  66.072  1.00  0.00     0.000 HD 
HETATM   13  N   UNL     1      -7.977  14.639  66.969  1.00  0.00    -0.148 N  
BRANCH  13  14
HETATM   14  C   UNL     1      -7.337  15.832  67.472  1.00  0.00    -0.178 C  
BRANCH  14  15
HETATM   15  C   UNL     1      -8.315  16.970  67.599  1.00  0.00    -0.196 A  
HETATM   16  C   UNL     1      -8.077  18.034  68.482  1.00  0.00    -0.306 A  
HETATM   17  C   UNL     1      -8.989  19.088  68.580  1.00  0.00    -0.394 A  
HETATM   18  C   UNL     1     -10.148  19.086  67.804  1.00  0.00    -0.453 A  
HETATM   19  C   UNL     1     -10.400  18.027  66.935  1.00  0.00    -0.377 A  
HETATM   20  C   UNL     1      -9.492  16.973  66.836  1.00  0.00    -0.266 A  
ENDBRANCH  14  15
ENDBRANCH  13  14
ENDBRANCH   4  10
ENDBRANCH   3   4
ENDBRANCH   2   3
TORSDOF 6
ENDMDL
MODEL      262
REMARK 921   NORMALIZED FREE ENERGY PREDICTED BY IDOCK:   -2.50 KCAL/MOL
REMARK 922        TOTAL FREE ENERGY PREDICTED BY IDOCK:   -3.78 KCAL/MOL
REMARK 923 INTER-LIGAND FREE ENERGY PREDICTED BY IDOCK:   -3.35 KCAL/MOL
REMARK 924 INTRA-LIGAND FREE ENERGY PREDICTED BY IDOCK:   -0.43 KCAL/MOL
REMARK 927      BINDING AFFINITY PREDICTED BY RF-SCORE:    0.00 PKD
ROOT
HETATM    1  C   UNL     1      -9.362  13.767  66.832  1.00  0.00    -0.261 C  
HETATM    2  O   UNL     1      -9.223  12.353  66.832  1.00  0.00    -0.197 OA 
ENDROOT
BRANCH   2   3
HETATM    3  C   UNL     1      -8.015  11.935  67.475  1.00  0.00    -0.155 C  
BRANCH   3   4
HETATM    4  C   UNL     1      -7.559  10.600  66.873  1.00  0.00    -0.115 C  
BRANCH   4   5
HETATM    5  N   UNL     1      -6.454  10.790  65.917  1.00  0.00    -0.229 N  
HETATM    6  C   UNL     1      -7.267   9.155  64.232  1.00  0.00    -0.099 C  
HETATM    7  O   UNL     1      -5.311  10.508  64.022  1.00  0.00    -0.140 OA 
HETATM    8  H   UNL     1      -5.734  11.458  66.193  1.00  0.00     0.000 HD 
HETATM    9  C   UNL     1      -6.277  10.183  64.710  1.00  0.00    -0.130 C  
ENDBRANCH   4   5
BRANCH   4  10
HETATM   10  C   UNL     1      -7.146   9.672  68.026  1.00  0.00    -0.080 C  
HETATM   11  O   UNL     1      -5.966   9.419  68.256  1.00  0.00    -0.044 OA 
HETATM   12  H   UNL     1      -9.140   9.235  68.403  1.00  0.00     0.000 HD 
HETATM   13  N   UNL     1      -8.180   9.045  68.689  1.00  0.00    -0.117 N  
BRANCH  13  14
HETATM   14  C   UNL     1      -7.941   8.127  69.778  1.00  0.00    -0.111 C  
BRANCH  14  15
HETATM   15  C   UNL     1      -9.103   8.094  70.736  1.00  0.00    -0.159 A  
HETATM   16  C   UNL     1      -8.918   7.769  72.088  1.00  0.00    -0.182 A  
HETATM   17  C   UNL     1     -10.005   7.755  72.967  1.00  0.00    -0.356 A  
HETATM   18  C   UNL     1     -11.284   8.057  72.503  1.00  0.00    -0.452 A  
HETATM   19  C   UNL     1     -11.481   8.368  71.159  1.00  0.00    -0.314 A  
HETATM   20  C   UNL     1     -10.398   8.382  70.280  1.00  0.00    -0.212 A  
ENDBRANCH  14  15
ENDBRANCH  13  14
ENDBRANCH   4  10
ENDBRANCH   3   4
ENDBRANCH   2   3
TORSDOF 6
ENDMDL
MODEL      263
REMARK 921   NORMALIZED FREE ENERGY PREDICTED BY IDOCK:   -2.49 KCAL/MOL
REMARK 922        TOTAL FREE ENERGY PREDICTED BY IDOCK:   -3.77 KCAL/MOL
REMARK 923 INTER-LIGAND FREE ENERGY PREDICTED BY IDOCK:   -3.29 KCAL/MOL
REMARK 924 INTRA-LIGAND FREE ENERGY PREDICTED BY IDOCK:   -0.48 KCAL/MOL
REMARK 927      BINDING AFFINITY PREDICTED BY RF-SCORE:    0.00 PKD
ROOT
HETATM    1  C   UNL     1      -7.426   9.992  65.273  1.00  0.00    -0.137 C  
HETATM    2  O   UNL     1      -7.573   9.017  66.296  1.00  0.00    -0.090 OA 
ENDROOT
BRANCH   2   3
HETATM    3  C   UNL     1      -8.912   8.967  66.798  1.00  0.00    -0.130 C  
BRANCH   3   4
HETATM    4  C   UNL     1      -9.390   7.510  66.815  1.00  0.00    -0.165 C  
BRANCH   4   5
HETATM    5  N   UNL     1      -8.254   6.571  66.851  1.00  0.00    -0.112 N  
HETATM    6  C   UNL     1      -9.310   4.812  65.450  1.00  0.00    -0.161 C  
HETATM    7  O   UNL     1      -7.099   4.730  66.347  1.00  0.00    -0.072 OA 
HETATM    8  H   UNL     1      -7.445   6.869  67.396  1.00  0.00     0.000 HD 
HETATM    9  C   UNL     1      -8.153   5.355  66.245  1.00  0.00    -0.105 C  
ENDBRANCH   4   5
BRANCH   4  10
HETATM   10  C   UNL     1     -10.307   7.322  68.034  1.00  0.00    -0.197 C  
HETATM   11  O   UNL     1     -11.134   6.415  68.082  1.00  0.00    -0.311 OA 
HETATM   12  H   UNL     1      -9.580   9.079  68.865  1.00  0.00     0.000 HD 
HETATM   13  N   UNL     1     -10.232   8.306  68.996  1.00  0.00    -0.214 N  
BRANCH  13  14
HETATM   14  C   UNL     1     -11.052   8.274  70.185  1.00  0.00    -0.189 C  
BRANCH  14  15
HETATM   15  C   UNL     1     -10.295   7.715  71.361  1.00  0.00    -0.219 A  
HETATM   16  C   UNL     1      -9.065   7.063  71.187  1.00  0.00    -0.153 A  
HETATM   17  C   UNL     1      -8.369   6.561  72.290  1.00  0.00    -0.106 A  
HETATM   18  C   UNL     1      -8.898   6.698  73.573  1.00  0.00    -0.140 A  
HETATM   19  C   UNL     1     -10.125   7.331  73.755  1.00  0.00    -0.375 A  
HETATM   20  C   UNL     1     -10.821   7.833  72.656  1.00  0.00    -0.413 A  
ENDBRANCH  14  15
ENDBRANCH  13  14
ENDBRANCH   4  10
ENDBRANCH   3   4
ENDBRANCH   2   3
TORSDOF 6
ENDMDL
MODEL      264
REMARK 921   NORMALIZED FREE ENERGY PREDICTED BY IDOCK:   -2.45 KCAL/MOL
REMARK 922        TOTAL FREE ENERGY PREDICTED BY IDOCK:   -3.72 KCAL/MOL
REMARK 923 INTER-LIGAND FREE ENERGY PREDICTED BY IDOCK:   -3.12 KCAL/MOL
REMARK 924 INTRA-LIGAND FREE ENERGY PREDICTED BY IDOCK:   -0.60 KCAL/MOL
REMARK 927      BINDING AFFINITY PREDICTED BY RF-SCORE:    0.00 PKD
ROOT
HETATM    1  C   UNL     1     -11.485   8.134  72.414  1.00  0.00    -0.397 C  
HETATM    2  O   UNL     1     -10.287   8.280  71.664  1.00  0.00    -0.197 OA 
ENDROOT
BRANCH   2   3
HETATM    3  C   UNL     1     -10.244   7.386  70.547  1.00  0.00    -0.193 C  
BRANCH   3   4
HETATM    4  C   UNL     1     -10.567   8.166  69.267  1.00  0.00    -0.182 C  
BRANCH   4   5
HETATM    5  N   UNL     1      -9.655   9.310  69.088  1.00  0.00    -0.158 N  
HETATM    6  C   UNL     1     -11.392  10.930  68.359  1.00  0.00    -0.370 C  
HETATM    7  O   UNL     1      -9.073  11.420  68.655  1.00  0.00    -0.175 OA 
HETATM    8  H   UNL     1      -8.669   9.130  69.280  1.00  0.00     0.000 HD 
HETATM    9  C   UNL     1      -9.968  10.578  68.700  1.00  0.00    -0.181 C  
ENDBRANCH   4   5
BRANCH   4  10
HETATM   10  C   UNL     1     -10.479   7.193  68.080  1.00  0.00    -0.201 C  
HETATM   11  O   UNL     1     -10.875   7.507  66.960  1.00  0.00    -0.348 OA 
HETATM   12  H   UNL     1      -9.814   5.690  69.347  1.00  0.00     0.000 HD 
HETATM   13  N   UNL     1     -10.056   5.916  68.383  1.00  0.00    -0.154 N  
BRANCH  13  14
HETATM   14  C   UNL     1      -9.948   4.889  67.373  1.00  0.00    -0.168 C  
BRANCH  14  15
HETATM   15  C   UNL     1      -8.517   4.679  66.952  1.00  0.00    -0.105 A  
HETATM   16  C   UNL     1      -7.930   5.477  65.958  1.00  0.00    -0.106 A  
HETATM   17  C   UNL     1      -6.598   5.278  65.587  1.00  0.00    -0.044 A  
HETATM   18  C   UNL     1      -5.843   4.278  66.198  1.00  0.00    -0.023 A  
HETATM   19  C   UNL     1      -6.420   3.471  67.176  1.00  0.00    -0.037 A  
HETATM   20  C   UNL     1      -7.750   3.668  67.549  1.00  0.00    -0.078 A  
ENDBRANCH  14  15
ENDBRANCH  13  14
ENDBRANCH   4  10
ENDBRANCH   3   4
ENDBRANCH   2   3
TORSDOF 6
ENDMDL
MODEL      265
REMARK 921   NORMALIZED FREE ENERGY PREDICTED BY IDOCK:   -2.45 KCAL/MOL
REMARK 922        TOTAL FREE ENERGY PREDICTED BY IDOCK:   -3.71 KCAL/MOL
REMARK 923 INTER-LIGAND FREE ENERGY PREDICTED BY IDOCK:   -3.19 KCAL/MOL
REMARK 924 INTRA-LIGAND FREE ENERGY PREDICTED BY IDOCK:   -0.51 KCAL/MOL
REMARK 927      BINDING AFFINITY PREDICTED BY RF-SCORE:    0.00 PKD
ROOT
HETATM    1  C   UNL     1     -13.405  13.550  64.936  1.00  0.00     0.629 C  
HETATM    2  O   UNL     1     -12.071  13.755  65.378  1.00  0.00    -0.362 OA 
ENDROOT
BRANCH   2   3
HETATM    3  C   UNL     1     -11.795  13.051  66.593  1.00  0.00    -0.393 C  
BRANCH   3   4
HETATM    4  C   UNL     1     -10.496  13.588  67.203  1.00  0.00    -0.256 C  
BRANCH   4   5
HETATM    5  N   UNL     1     -10.688  13.997  68.606  1.00  0.00    -0.254 N  
HETATM    6  C   UNL     1     -10.604  16.446  68.190  1.00  0.00    -0.318 C  
HETATM    7  O   UNL     1     -10.978  15.409  70.309  1.00  0.00    -0.275 OA 
HETATM    8  H   UNL     1     -10.777  13.240  69.284  1.00  0.00     0.000 HD 
HETATM    9  C   UNL     1     -10.762  15.262  69.107  1.00  0.00    -0.251 C  
ENDBRANCH   4   5
BRANCH   4  10
HETATM   10  C   UNL     1      -9.423  12.494  67.083  1.00  0.00    -0.208 C  
HETATM   11  O   UNL     1      -9.286  11.838  66.054  1.00  0.00    -0.226 OA 
HETATM   12  H   UNL     1      -8.935  12.738  69.086  1.00  0.00     0.000 HD 
HETATM   13  N   UNL     1      -8.724  12.212  68.238  1.00  0.00    -0.183 N  
BRANCH  13  14
HETATM   14  C   UNL     1      -7.703  11.192  68.281  1.00  0.00    -0.116 C  
BRANCH  14  15
HETATM   15  C   UNL     1      -7.923  10.240  69.427  1.00  0.00    -0.162 A  
HETATM   16  C   UNL     1      -9.202  10.043  69.969  1.00  0.00    -0.146 A  
HETATM   17  C   UNL     1      -9.393   9.147  71.024  1.00  0.00    -0.333 A  
HETATM   18  C   UNL     1      -8.309   8.446  71.551  1.00  0.00    -0.196 A  
HETATM   19  C   UNL     1      -7.033   8.643  71.029  1.00  0.00    -0.069 A  
HETATM   20  C   UNL     1      -6.840   9.538  69.976  1.00  0.00    -0.075 A  
ENDBRANCH  14  15
ENDBRANCH  13  14
ENDBRANCH   4  10
ENDBRANCH   3   4
ENDBRANCH   2   3
TORSDOF 6
ENDMDL
MODEL      266
REMARK 921   NORMALIZED FREE ENERGY PREDICTED BY IDOCK:   -2.44 KCAL/MOL
REMARK 922        TOTAL FREE ENERGY PREDICTED BY IDOCK:   -3.70 KCAL/MOL
REMARK 923 INTER-LIGAND FREE ENERGY PREDICTED BY IDOCK:   -4.20 KCAL/MOL
REMARK 924 INTRA-LIGAND FREE ENERGY PREDICTED BY IDOCK:    0.50 KCAL/MOL
REMARK 927      BINDING AFFINITY PREDICTED BY RF-SCORE:    0.00 PKD
ROOT
HETATM    1  C   UNL     1     -12.818  11.519  71.465  1.00  0.00    -0.380 C  
HETATM    2  O   UNL     1     -12.455  12.698  70.760  1.00  0.00    -0.348 OA 
ENDROOT
BRANCH   2   3
HETATM    3  C   UNL     1     -11.414  12.453  69.808  1.00  0.00    -0.149 C  
BRANCH   3   4
HETATM    4  C   UNL     1     -11.745  11.182  69.016  1.00  0.00    -0.339 C  
BRANCH   4   5
HETATM    5  N   UNL     1     -12.218  11.503  67.657  1.00  0.00     0.285 N  
HETATM    6  C   UNL     1     -10.955  13.630  67.424  1.00  0.00    -0.289 C  
HETATM    7  O   UNL     1     -12.346  12.650  65.748  1.00  0.00    -0.594 OA 
HETATM    8  H   UNL     1     -12.873  10.839  67.244  1.00  0.00     0.000 HD 
HETATM    9  C   UNL     1     -11.886  12.576  66.887  1.00  0.00    -0.334 C  
ENDBRANCH   4   5
BRANCH   4  10
HETATM   10  C   UNL     1     -10.485  10.303  68.975  1.00  0.00    -0.217 C  
HETATM   11  O   UNL     1      -9.792  10.126  69.975  1.00  0.00    -0.228 OA 
HETATM   12  H   UNL     1     -10.689  10.088  66.921  1.00  0.00     0.000 HD 
HETATM   13  N   UNL     1     -10.116   9.843  67.729  1.00  0.00    -0.170 N  
BRANCH  13  14
HETATM   14  C   UNL     1      -8.941   9.026  67.535  1.00  0.00    -0.122 C  
BRANCH  14  15
HETATM   15  C   UNL     1      -9.299   7.569  67.406  1.00  0.00    -0.164 A  
HETATM   16  C   UNL     1     -10.557   7.171  66.928  1.00  0.00    -0.371 A  
HETATM   17  C   UNL     1     -10.870   5.815  66.804  1.00  0.00    -0.327 A  
HETATM   18  C   UNL     1      -9.934   4.845  67.162  1.00  0.00    -0.229 A  
HETATM   19  C   UNL     1      -8.687   5.229  67.651  1.00  0.00    -0.106 A  
HETATM   20  C   UNL     1      -8.373   6.583  67.776  1.00  0.00    -0.119 A  
ENDBRANCH  14  15
ENDBRANCH  13  14
ENDBRANCH   4  10
ENDBRANCH   3   4
ENDBRANCH   2   3
TORSDOF 6
ENDMDL
MODEL      267
REMARK 921   NORMALIZED FREE ENERGY PREDICTED BY IDOCK:   -2.43 KCAL/MOL
REMARK 922        TOTAL FREE ENERGY PREDICTED BY IDOCK:   -3.68 KCAL/MOL
REMARK 923 INTER-LIGAND FREE ENERGY PREDICTED BY IDOCK:   -3.22 KCAL/MOL
REMARK 924 INTRA-LIGAND FREE ENERGY PREDICTED BY IDOCK:   -0.46 KCAL/MOL
REMARK 927      BINDING AFFINITY PREDICTED BY RF-SCORE:    0.00 PKD
ROOT
HETATM    1  C   UNL     1     -10.612   3.663  63.895  1.00  0.00    -0.277 C  
HETATM    2  O   UNL     1      -9.984   3.552  65.165  1.00  0.00    -0.129 OA 
ENDROOT
BRANCH   2   3
HETATM    3  C   UNL     1     -10.238   4.695  65.988  1.00  0.00    -0.277 C  
BRANCH   3   4
HETATM    4  C   UNL     1      -9.086   4.861  66.987  1.00  0.00    -0.118 C  
BRANCH   4   5
HETATM    5  N   UNL     1      -8.600   6.252  67.022  1.00  0.00    -0.105 N  
HETATM    6  C   UNL     1      -6.673   5.906  65.492  1.00  0.00    -0.048 C  
HETATM    7  O   UNL     1      -7.310   7.988  66.475  1.00  0.00    -0.081 OA 
HETATM    8  H   UNL     1      -9.127   6.895  67.614  1.00  0.00     0.000 HD 
HETATM    9  C   UNL     1      -7.534   6.784  66.361  1.00  0.00    -0.074 C  
ENDBRANCH   4   5
BRANCH   4  10
HETATM   10  C   UNL     1      -9.583   4.409  68.369  1.00  0.00    -0.140 C  
HETATM   11  O   UNL     1      -9.619   3.221  68.683  1.00  0.00    -0.164 OA 
HETATM   12  H   UNL     1     -10.120   6.361  68.826  1.00  0.00     0.000 HD 
HETATM   13  N   UNL     1     -10.105   5.402  69.171  1.00  0.00    -0.203 N  
BRANCH  13  14
HETATM   14  C   UNL     1     -10.631   5.121  70.487  1.00  0.00    -0.151 C  
BRANCH  14  15
HETATM   15  C   UNL     1     -10.131   6.113  71.503  1.00  0.00    -0.227 A  
HETATM   16  C   UNL     1     -10.382   7.486  71.359  1.00  0.00    -0.209 A  
HETATM   17  C   UNL     1      -9.922   8.393  72.317  1.00  0.00    -0.383 A  
HETATM   18  C   UNL     1      -9.202   7.940  73.422  1.00  0.00    -0.351 A  
HETATM   19  C   UNL     1      -8.936   6.580  73.568  1.00  0.00    -0.137 A  
HETATM   20  C   UNL     1      -9.394   5.673  72.612  1.00  0.00    -0.148 A  
ENDBRANCH  14  15
ENDBRANCH  13  14
ENDBRANCH   4  10
ENDBRANCH   3   4
ENDBRANCH   2   3
TORSDOF 6
ENDMDL
MODEL      268
REMARK 921   NORMALIZED FREE ENERGY PREDICTED BY IDOCK:   -2.41 KCAL/MOL
REMARK 922        TOTAL FREE ENERGY PREDICTED BY IDOCK:   -3.66 KCAL/MOL
REMARK 923 INTER-LIGAND FREE ENERGY PREDICTED BY IDOCK:   -3.98 KCAL/MOL
REMARK 924 INTRA-LIGAND FREE ENERGY PREDICTED BY IDOCK:    0.32 KCAL/MOL
REMARK 927      BINDING AFFINITY PREDICTED BY RF-SCORE:    0.00 PKD
ROOT
HETATM    1  C   UNL     1      -6.109  10.264  64.532  1.00  0.00    -0.126 C  
HETATM    2  O   UNL     1      -6.702   9.808  65.740  1.00  0.00    -0.084 OA 
ENDROOT
BRANCH   2   3
HETATM    3  C   UNL     1      -7.940  10.474  66.013  1.00  0.00    -0.149 C  
BRANCH   3   4
HETATM    4  C   UNL     1      -8.317  10.253  67.483  1.00  0.00    -0.114 C  
BRANCH   4   5
HETATM    5  N   UNL     1      -8.910  11.465  68.075  1.00  0.00    -0.149 N  
HETATM    6  C   UNL     1     -10.627  11.816  66.313  1.00  0.00    -0.292 C  
HETATM    7  O   UNL     1     -10.348  13.160  68.267  1.00  0.00    -0.240 OA 
HETATM    8  H   UNL     1      -8.485  11.793  68.942  1.00  0.00     0.000 HD 
HETATM    9  C   UNL     1      -9.957  12.200  67.605  1.00  0.00    -0.197 C  
ENDBRANCH   4   5
BRANCH   4  10
HETATM   10  C   UNL     1      -9.289   9.064  67.553  1.00  0.00    -0.135 C  
HETATM   11  O   UNL     1      -9.833   8.618  66.545  1.00  0.00    -0.237 OA 
HETATM   12  H   UNL     1      -9.184   9.087  69.626  1.00  0.00     0.000 HD 
HETATM   13  N   UNL     1      -9.608   8.627  68.821  1.00  0.00    -0.154 N  
BRANCH  13  14
HETATM   14  C   UNL     1     -10.527   7.534  69.042  1.00  0.00    -0.208 C  
BRANCH  14  15
HETATM   15  C   UNL     1     -10.695   7.244  70.510  1.00  0.00    -0.249 A  
HETATM   16  C   UNL     1     -11.138   5.989  70.953  1.00  0.00    -0.352 A  
HETATM   17  C   UNL     1     -11.278   5.731  72.320  1.00  0.00    -0.333 A  
HETATM   18  C   UNL     1     -10.984   6.724  73.253  1.00  0.00    -0.249 A  
HETATM   19  C   UNL     1     -10.557   7.978  72.823  1.00  0.00    -0.420 A  
HETATM   20  C   UNL     1     -10.417   8.238  71.459  1.00  0.00    -0.289 A  
ENDBRANCH  14  15
ENDBRANCH  13  14
ENDBRANCH   4  10
ENDBRANCH   3   4
ENDBRANCH   2   3
TORSDOF 6
ENDMDL
MODEL      269
REMARK 921   NORMALIZED FREE ENERGY PREDICTED BY IDOCK:   -2.40 KCAL/MOL
REMARK 922        TOTAL FREE ENERGY PREDICTED BY IDOCK:   -3.64 KCAL/MOL
REMARK 923 INTER-LIGAND FREE ENERGY PREDICTED BY IDOCK:   -3.27 KCAL/MOL
REMARK 924 INTRA-LIGAND FREE ENERGY PREDICTED BY IDOCK:   -0.38 KCAL/MOL
REMARK 927      BINDING AFFINITY PREDICTED BY RF-SCORE:    0.00 PKD
ROOT
HETATM    1  C   UNL     1     -11.603   6.310  69.854  1.00  0.00    -0.291 C  
HETATM    2  O   UNL     1     -11.443   6.982  71.096  1.00  0.00    -0.267 OA 
ENDROOT
BRANCH   2   3
HETATM    3  C   UNL     1     -11.733   6.127  72.207  1.00  0.00    -0.302 C  
BRANCH   3   4
HETATM    4  C   UNL     1     -10.417   5.694  72.864  1.00  0.00    -0.214 C  
BRANCH   4   5
HETATM    5  N   UNL     1      -9.784   4.587  72.125  1.00  0.00    -0.156 N  
HETATM    6  C   UNL     1     -10.860   2.751  73.408  1.00  0.00    -0.293 C  
HETATM    7  O   UNL     1      -9.377   2.468  71.558  1.00  0.00    -0.101 OA 
HETATM    8  H   UNL     1      -9.139   4.857  71.382  1.00  0.00     0.000 HD 
HETATM    9  C   UNL     1      -9.956   3.248  72.312  1.00  0.00    -0.165 C  
ENDBRANCH   4   5
BRANCH   4  10
HETATM   10  C   UNL     1      -9.492   6.919  72.934  1.00  0.00    -0.140 C  
HETATM   11  O   UNL     1      -9.741   7.872  73.669  1.00  0.00    -0.273 OA 
HETATM   12  H   UNL     1      -8.338   6.149  71.390  1.00  0.00     0.000 HD 
HETATM   13  N   UNL     1      -8.450   6.934  72.030  1.00  0.00    -0.111 N  
BRANCH  13  14
HETATM   14  C   UNL     1      -7.515   8.032  71.964  1.00  0.00    -0.090 C  
BRANCH  14  15
HETATM   15  C   UNL     1      -7.751   8.885  70.746  1.00  0.00    -0.126 A  
HETATM   16  C   UNL     1      -9.034   9.357  70.429  1.00  0.00    -0.294 A  
HETATM   17  C   UNL     1      -9.235  10.157  69.302  1.00  0.00    -0.220 A  
HETATM   18  C   UNL     1      -8.160  10.487  68.477  1.00  0.00    -0.121 A  
HETATM   19  C   UNL     1      -6.884  10.012  68.774  1.00  0.00    -0.057 A  
HETATM   20  C   UNL     1      -6.681   9.213  69.899  1.00  0.00    -0.048 A  
ENDBRANCH  14  15
ENDBRANCH  13  14
ENDBRANCH   4  10
ENDBRANCH   3   4
ENDBRANCH   2   3
TORSDOF 6
ENDMDL
MODEL      270
REMARK 921   NORMALIZED FREE ENERGY PREDICTED BY IDOCK:   -2.38 KCAL/MOL
REMARK 922        TOTAL FREE ENERGY PREDICTED BY IDOCK:   -3.62 KCAL/MOL
REMARK 923 INTER-LIGAND FREE ENERGY PREDICTED BY IDOCK:   -3.13 KCAL/MOL
REMARK 924 INTRA-LIGAND FREE ENERGY PREDICTED BY IDOCK:   -0.49 KCAL/MOL
REMARK 927      BINDING AFFINITY PREDICTED BY RF-SCORE:    0.00 PKD
ROOT
HETATM    1  C   UNL     1     -10.805   5.869  71.886  1.00  0.00    -0.254 C  
HETATM    2  O   UNL     1     -11.175   6.456  70.646  1.00  0.00    -0.293 OA 
ENDROOT
BRANCH   2   3
HETATM    3  C   UNL     1     -10.726   5.678  69.531  1.00  0.00    -0.310 C  
BRANCH   3   4
HETATM    4  C   UNL     1      -9.207   5.834  69.389  1.00  0.00    -0.125 C  
BRANCH   4   5
HETATM    5  N   UNL     1      -8.531   4.525  69.356  1.00  0.00    -0.077 N  
HETATM    6  C   UNL     1      -7.451   4.719  71.585  1.00  0.00    -0.071 C  
HETATM    7  O   UNL     1      -7.304   2.830  70.131  1.00  0.00    -0.040 OA 
HETATM    8  H   UNL     1      -8.670   3.971  68.510  1.00  0.00     0.000 HD 
HETATM    9  C   UNL     1      -7.745   3.964  70.317  1.00  0.00    -0.048 C  
ENDBRANCH   4   5
BRANCH   4  10
HETATM   10  C   UNL     1      -8.927   6.639  68.109  1.00  0.00    -0.121 C  
HETATM   11  O   UNL     1      -9.030   6.131  66.995  1.00  0.00    -0.113 OA 
HETATM   12  H   UNL     1      -8.291   8.252  69.250  1.00  0.00     0.000 HD 
HETATM   13  N   UNL     1      -8.429   7.911  68.299  1.00  0.00    -0.124 N  
BRANCH  13  14
HETATM   14  C   UNL     1      -8.098   8.773  67.189  1.00  0.00    -0.100 C  
BRANCH  14  15
HETATM   15  C   UNL     1      -9.251   9.671  66.826  1.00  0.00    -0.181 A  
HETATM   16  C   UNL     1     -10.192  10.066  67.789  1.00  0.00    -0.235 A  
HETATM   17  C   UNL     1     -11.250  10.909  67.439  1.00  0.00    -0.345 A  
HETATM   18  C   UNL     1     -11.382  11.359  66.126  1.00  0.00    -0.115 A  
HETATM   19  C   UNL     1     -10.461  10.962  65.159  1.00  0.00    -0.316 A  
HETATM   20  C   UNL     1      -9.404  10.120  65.506  1.00  0.00    -0.260 A  
ENDBRANCH  14  15
ENDBRANCH  13  14
ENDBRANCH   4  10
ENDBRANCH   3   4
ENDBRANCH   2   3
TORSDOF 6
ENDMDL
MODEL      271
REMARK 921   NORMALIZED FREE ENERGY PREDICTED BY IDOCK:   -2.37 KCAL/MOL
REMARK 922        TOTAL FREE ENERGY PREDICTED BY IDOCK:   -3.60 KCAL/MOL
REMARK 923 INTER-LIGAND FREE ENERGY PREDICTED BY IDOCK:   -3.06 KCAL/MOL
REMARK 924 INTRA-LIGAND FREE ENERGY PREDICTED BY IDOCK:   -0.54 KCAL/MOL
REMARK 927      BINDING AFFINITY PREDICTED BY RF-SCORE:    0.00 PKD
ROOT
HETATM    1  C   UNL     1      -8.538   7.051  67.200  1.00  0.00    -0.121 C  
HETATM    2  O   UNL     1      -8.819   8.275  66.536  1.00  0.00    -0.135 OA 
ENDROOT
BRANCH   2   3
HETATM    3  C   UNL     1     -10.119   8.775  66.863  1.00  0.00    -0.278 C  
BRANCH   3   4
HETATM    4  C   UNL     1      -9.984   9.875  67.923  1.00  0.00    -0.160 C  
BRANCH   4   5
HETATM    5  N   UNL     1     -10.536  11.155  67.444  1.00  0.00    -0.209 N  
HETATM    6  C   UNL     1      -8.363  12.352  67.302  1.00  0.00    -0.184 C  
HETATM    7  O   UNL     1     -10.489  13.257  66.698  1.00  0.00    -0.273 OA 
HETATM    8  H   UNL     1     -11.549  11.191  67.332  1.00  0.00     0.000 HD 
HETATM    9  C   UNL     1      -9.858  12.295  67.133  1.00  0.00    -0.203 C  
ENDBRANCH   4   5
BRANCH   4  10
HETATM   10  C   UNL     1     -10.700   9.401  69.198  1.00  0.00    -0.197 C  
HETATM   11  O   UNL     1     -11.713   8.707  69.146  1.00  0.00     0.729 OA 
HETATM   12  H   UNL     1      -9.415  10.545  70.358  1.00  0.00     0.000 HD 
HETATM   13  N   UNL     1     -10.212   9.910  70.382  1.00  0.00    -0.275 N  
BRANCH  13  14
HETATM   14  C   UNL     1     -10.801   9.572  71.657  1.00  0.00    -0.155 C  
BRANCH  14  15
HETATM   15  C   UNL     1     -10.021   8.487  72.353  1.00  0.00    -0.365 A  
HETATM   16  C   UNL     1      -8.623   8.422  72.252  1.00  0.00    -0.263 A  
HETATM   17  C   UNL     1      -7.913   7.416  72.913  1.00  0.00    -0.120 A  
HETATM   18  C   UNL     1      -8.591   6.463  73.672  1.00  0.00    -0.129 A  
HETATM   19  C   UNL     1      -9.980   6.510  73.767  1.00  0.00    -0.274 A  
HETATM   20  C   UNL     1     -10.691   7.514  73.108  1.00  0.00    -0.452 A  
ENDBRANCH  14  15
ENDBRANCH  13  14
ENDBRANCH   4  10
ENDBRANCH   3   4
ENDBRANCH   2   3
TORSDOF 6
ENDMDL
MODEL      272
REMARK 921   NORMALIZED FREE ENERGY PREDICTED BY IDOCK:   -2.35 KCAL/MOL
REMARK 922        TOTAL FREE ENERGY PREDICTED BY IDOCK:   -3.58 KCAL/MOL
REMARK 923 INTER-LIGAND FREE ENERGY PREDICTED BY IDOCK:   -3.02 KCAL/MOL
REMARK 924 INTRA-LIGAND FREE ENERGY PREDICTED BY IDOCK:   -0.56 KCAL/MOL
REMARK 927      BINDING AFFINITY PREDICTED BY RF-SCORE:    0.00 PKD
ROOT
HETATM    1  C   UNL     1     -12.237   6.736  71.519  1.00  0.00    -0.366 C  
HETATM    2  O   UNL     1     -11.861   6.674  70.151  1.00  0.00    -0.389 OA 
ENDROOT
BRANCH   2   3
HETATM    3  C   UNL     1     -10.885   5.655  69.910  1.00  0.00    -0.300 C  
BRANCH   3   4
HETATM    4  C   UNL     1     -10.062   5.436  71.185  1.00  0.00    -0.212 C  
BRANCH   4   5
HETATM    5  N   UNL     1     -10.130   4.034  71.635  1.00  0.00    -0.154 N  
HETATM    6  C   UNL     1     -10.592   4.537  74.024  1.00  0.00    -0.338 C  
HETATM    7  O   UNL     1     -10.448   2.353  73.068  1.00  0.00    -0.136 OA 
HETATM    8  H   UNL     1      -9.970   3.326  70.918  1.00  0.00     0.000 HD 
HETATM    9  C   UNL     1     -10.380   3.569  72.891  1.00  0.00    -0.166 C  
ENDBRANCH   4   5
BRANCH   4  10
HETATM   10  C   UNL     1      -8.613   5.859  70.897  1.00  0.00    -0.131 C  
HETATM   11  O   UNL     1      -7.733   5.763  71.750  1.00  0.00    -0.098 OA 
HETATM   12  H   UNL     1      -9.185   6.593  69.042  1.00  0.00     0.000 HD 
HETATM   13  N   UNL     1      -8.399   6.470  69.679  1.00  0.00    -0.129 N  
BRANCH  13  14
HETATM   14  C   UNL     1      -7.093   6.942  69.282  1.00  0.00    -0.084 C  
BRANCH  14  15
HETATM   15  C   UNL     1      -7.146   8.366  68.794  1.00  0.00    -0.068 A  
HETATM   16  C   UNL     1      -7.123   8.662  67.423  1.00  0.00    -0.080 A  
HETATM   17  C   UNL     1      -7.185   9.987  66.985  1.00  0.00    -0.090 A  
HETATM   18  C   UNL     1      -7.263  11.027  67.910  1.00  0.00    -0.086 A  
HETATM   19  C   UNL     1      -7.273  10.745  69.274  1.00  0.00    -0.122 A  
HETATM   20  C   UNL     1      -7.211   9.422  69.714  1.00  0.00    -0.076 A  
ENDBRANCH  14  15
ENDBRANCH  13  14
ENDBRANCH   4  10
ENDBRANCH   3   4
ENDBRANCH   2   3
TORSDOF 6
ENDMDL
MODEL      273
REMARK 921   NORMALIZED FREE ENERGY PREDICTED BY IDOCK:   -2.32 KCAL/MOL
REMARK 922        TOTAL FREE ENERGY PREDICTED BY IDOCK:   -3.54 KCAL/MOL
REMARK 923 INTER-LIGAND FREE ENERGY PREDICTED BY IDOCK:   -2.95 KCAL/MOL
REMARK 924 INTRA-LIGAND FREE ENERGY PREDICTED BY IDOCK:   -0.59 KCAL/MOL
REMARK 927      BINDING AFFINITY PREDICTED BY RF-SCORE:    0.00 PKD
ROOT
HETATM    1  C   UNL     1      -7.451   6.691  67.202  1.00  0.00    -0.088 C  
HETATM    2  O   UNL     1      -7.012   7.854  66.515  1.00  0.00    -0.068 OA 
ENDROOT
BRANCH   2   3
HETATM    3  C   UNL     1      -7.972   8.914  66.590  1.00  0.00    -0.103 C  
BRANCH   3   4
HETATM    4  C   UNL     1      -8.002   9.464  68.021  1.00  0.00    -0.092 C  
BRANCH   4   5
HETATM    5  N   UNL     1      -7.353  10.785  68.103  1.00  0.00    -0.086 N  
HETATM    6  C   UNL     1      -5.305  10.009  69.278  1.00  0.00    -0.035 C  
HETATM    7  O   UNL     1      -5.737  12.250  68.572  1.00  0.00    -0.052 OA 
HETATM    8  H   UNL     1      -7.878  11.567  67.710  1.00  0.00     0.000 HD 
HETATM    9  C   UNL     1      -6.138  11.089  68.640  1.00  0.00    -0.043 C  
ENDBRANCH   4   5
BRANCH   4  10
HETATM   10  C   UNL     1      -9.469   9.535  68.475  1.00  0.00    -0.141 C  
HETATM   11  O   UNL     1     -10.395   9.377  67.683  1.00  0.00    -0.215 OA 
HETATM   12  H   UNL     1      -8.864  10.108  70.376  1.00  0.00     0.000 HD 
HETATM   13  N   UNL     1      -9.672   9.914  69.785  1.00  0.00    -0.227 N  
BRANCH  13  14
HETATM   14  C   UNL     1     -10.997  10.045  70.344  1.00  0.00    -0.320 C  
BRANCH  14  15
HETATM   15  C   UNL     1     -11.414   8.795  71.072  1.00  0.00    -0.337 A  
HETATM   16  C   UNL     1     -10.473   7.998  71.741  1.00  0.00    -0.287 A  
HETATM   17  C   UNL     1     -10.877   6.847  72.423  1.00  0.00    -0.267 A  
HETATM   18  C   UNL     1     -12.222   6.478  72.435  1.00  0.00    -0.097 A  
HETATM   19  C   UNL     1     -13.163   7.254  71.762  1.00  0.00    -0.368 A  
HETATM   20  C   UNL     1     -12.761   8.403  71.082  1.00  0.00    -0.121 A  
ENDBRANCH  14  15
ENDBRANCH  13  14
ENDBRANCH   4  10
ENDBRANCH   3   4
ENDBRANCH   2   3
TORSDOF 6
ENDMDL
MODEL      274
REMARK 921   NORMALIZED FREE ENERGY PREDICTED BY IDOCK:   -2.32 KCAL/MOL
REMARK 922        TOTAL FREE ENERGY PREDICTED BY IDOCK:   -3.53 KCAL/MOL
REMARK 923 INTER-LIGAND FREE ENERGY PREDICTED BY IDOCK:   -3.01 KCAL/MOL
REMARK 924 INTRA-LIGAND FREE ENERGY PREDICTED BY IDOCK:   -0.53 KCAL/MOL
REMARK 927      BINDING AFFINITY PREDICTED BY RF-SCORE:    0.00 PKD
ROOT
HETATM    1  C   UNL     1     -12.630   6.922  71.442  1.00  0.00    -0.353 C  
HETATM    2  O   UNL     1     -11.981   7.447  70.292  1.00  0.00    -0.098 OA 
ENDROOT
BRANCH   2   3
HETATM    3  C   UNL     1     -10.641   6.962  70.166  1.00  0.00    -0.220 C  
BRANCH   3   4
HETATM    4  C   UNL     1      -9.811   7.460  71.355  1.00  0.00    -0.185 C  
BRANCH   4   5
HETATM    5  N   UNL     1      -8.959   6.389  71.903  1.00  0.00    -0.139 N  
HETATM    6  C   UNL     1     -10.167   6.158  74.062  1.00  0.00    -0.309 C  
HETATM    7  O   UNL     1      -8.297   4.844  73.370  1.00  0.00    -0.106 OA 
HETATM    8  H   UNL     1      -8.185   6.087  71.311  1.00  0.00     0.000 HD 
HETATM    9  C   UNL     1      -9.078   5.755  73.103  1.00  0.00    -0.127 C  
ENDBRANCH   4   5
BRANCH   4  10
HETATM   10  C   UNL     1      -8.969   8.656  70.883  1.00  0.00    -0.187 C  
HETATM   11  O   UNL     1      -8.091   9.143  71.591  1.00  0.00    -0.346 OA 
HETATM   12  H   UNL     1     -10.140   8.820  69.177  1.00  0.00     0.000 HD 
HETATM   13  N   UNL     1      -9.352   9.221  69.685  1.00  0.00    -0.169 N  
BRANCH  13  14
HETATM   14  C   UNL     1      -8.668  10.365  69.129  1.00  0.00    -0.166 C  
BRANCH  14  15
HETATM   15  C   UNL     1      -8.016  10.031  67.813  1.00  0.00    -0.105 A  
HETATM   16  C   UNL     1      -6.821   9.300  67.761  1.00  0.00    -0.079 A  
HETATM   17  C   UNL     1      -6.235   8.988  66.532  1.00  0.00    -0.065 A  
HETATM   18  C   UNL     1      -6.832   9.409  65.345  1.00  0.00    -0.079 A  
HETATM   19  C   UNL     1      -8.013  10.149  65.385  1.00  0.00    -0.144 A  
HETATM   20  C   UNL     1      -8.599  10.461  66.611  1.00  0.00    -0.128 A  
ENDBRANCH  14  15
ENDBRANCH  13  14
ENDBRANCH   4  10
ENDBRANCH   3   4
ENDBRANCH   2   3
TORSDOF 6
ENDMDL
MODEL      275
REMARK 921   NORMALIZED FREE ENERGY PREDICTED BY IDOCK:   -2.25 KCAL/MOL
REMARK 922        TOTAL FREE ENERGY PREDICTED BY IDOCK:   -3.45 KCAL/MOL
REMARK 923 INTER-LIGAND FREE ENERGY PREDICTED BY IDOCK:   -3.00 KCAL/MOL
REMARK 924 INTRA-LIGAND FREE ENERGY PREDICTED BY IDOCK:   -0.45 KCAL/MOL
REMARK 927      BINDING AFFINITY PREDICTED BY RF-SCORE:    0.00 PKD
ROOT
HETATM    1  C   UNL     1      -6.094  14.661  70.213  1.00  0.00    -0.167 C  
HETATM    2  O   UNL     1      -7.163  14.044  69.510  1.00  0.00    -0.037 OA 
ENDROOT
BRANCH   2   3
HETATM    3  C   UNL     1      -6.716  13.410  68.307  1.00  0.00    -0.105 C  
BRANCH   3   4
HETATM    4  C   UNL     1      -6.725  11.890  68.505  1.00  0.00    -0.068 C  
BRANCH   4   5
HETATM    5  N   UNL     1      -6.629  11.532  69.932  1.00  0.00    -0.297 N  
HETATM    6  C   UNL     1      -5.468   9.361  69.591  1.00  0.00    -0.034 C  
HETATM    7  O   UNL     1      -6.033  10.317  71.705  1.00  0.00    -0.300 OA 
HETATM    8  H   UNL     1      -7.037  12.198  70.588  1.00  0.00     0.000 HD 
HETATM    9  C   UNL     1      -6.063  10.421  70.480  1.00  0.00    -0.116 C  
ENDBRANCH   4   5
BRANCH   4  10
HETATM   10  C   UNL     1      -8.012  11.334  67.876  1.00  0.00    -0.118 C  
HETATM   11  O   UNL     1      -9.121  11.628  68.315  1.00  0.00    -0.176 OA 
HETATM   12  H   UNL     1      -6.887  10.128  66.615  1.00  0.00     0.000 HD 
HETATM   13  N   UNL     1      -7.834  10.391  66.885  1.00  0.00    -0.112 N  
BRANCH  13  14
HETATM   14  C   UNL     1      -8.953   9.765  66.220  1.00  0.00    -0.153 C  
BRANCH  14  15
HETATM   15  C   UNL     1      -9.214   8.384  66.764  1.00  0.00    -0.214 A  
HETATM   16  C   UNL     1      -8.164   7.578  67.228  1.00  0.00    -0.115 A  
HETATM   17  C   UNL     1      -8.424   6.304  67.740  1.00  0.00    -0.116 A  
HETATM   18  C   UNL     1      -9.731   5.822  67.786  1.00  0.00    -0.130 A  
HETATM   19  C   UNL     1     -10.780   6.609  67.315  1.00  0.00    -0.427 A  
HETATM   20  C   UNL     1     -10.523   7.881  66.803  1.00  0.00    -0.317 A  
ENDBRANCH  14  15
ENDBRANCH  13  14
ENDBRANCH   4  10
ENDBRANCH   3   4
ENDBRANCH   2   3
TORSDOF 6
ENDMDL
MODEL      276
REMARK 921   NORMALIZED FREE ENERGY PREDICTED BY IDOCK:   -2.24 KCAL/MOL
REMARK 922        TOTAL FREE ENERGY PREDICTED BY IDOCK:   -3.44 KCAL/MOL
REMARK 923 INTER-LIGAND FREE ENERGY PREDICTED BY IDOCK:   -2.89 KCAL/MOL
REMARK 924 INTRA-LIGAND FREE ENERGY PREDICTED BY IDOCK:   -0.55 KCAL/MOL
REMARK 927      BINDING AFFINITY PREDICTED BY RF-SCORE:    0.00 PKD
ROOT
HETATM    1  C   UNL     1     -12.157  11.315  70.161  1.00  0.00    -0.366 C  
HETATM    2  O   UNL     1     -11.409  10.361  70.902  1.00  0.00    -0.335 OA 
ENDROOT
BRANCH   2   3
HETATM    3  C   UNL     1     -11.638   9.026  70.438  1.00  0.00    -0.117 C  
BRANCH   3   4
HETATM    4  C   UNL     1     -10.296   8.290  70.341  1.00  0.00    -0.205 C  
BRANCH   4   5
HETATM    5  N   UNL     1     -10.412   6.895  70.803  1.00  0.00    -0.214 N  
HETATM    6  C   UNL     1      -8.589   7.014  72.487  1.00  0.00    -0.132 C  
HETATM    7  O   UNL     1      -9.961   5.107  72.059  1.00  0.00    -0.174 OA 
HETATM    8  H   UNL     1     -11.123   6.329  70.340  1.00  0.00     0.000 HD 
HETATM    9  C   UNL     1      -9.686   6.271  71.773  1.00  0.00    -0.153 C  
ENDBRANCH   4   5
BRANCH   4  10
HETATM   10  C   UNL     1      -9.820   8.356  68.881  1.00  0.00    -0.180 C  
HETATM   11  O   UNL     1     -10.322   9.137  68.075  1.00  0.00    -0.201 OA 
HETATM   12  H   UNL     1      -8.574   6.728  69.203  1.00  0.00     0.000 HD 
HETATM   13  N   UNL     1      -8.898   7.401  68.509  1.00  0.00    -0.127 N  
BRANCH  13  14
HETATM   14  C   UNL     1      -8.378   7.326  67.163  1.00  0.00    -0.118 C  
BRANCH  14  15
HETATM   15  C   UNL     1      -8.900   6.114  66.438  1.00  0.00    -0.144 A  
HETATM   16  C   UNL     1      -8.028   5.114  65.980  1.00  0.00    -0.107 A  
HETATM   17  C   UNL     1      -8.529   3.989  65.319  1.00  0.00    -0.113 A  
HETATM   18  C   UNL     1      -9.900   3.856  65.103  1.00  0.00    -0.184 A  
HETATM   19  C   UNL     1     -10.772   4.850  65.541  1.00  0.00    -0.072 A  
HETATM   20  C   UNL     1     -10.275   5.974  66.201  1.00  0.00     0.055 A  
ENDBRANCH  14  15
ENDBRANCH  13  14
ENDBRANCH   4  10
ENDBRANCH   3   4
ENDBRANCH   2   3
TORSDOF 6
ENDMDL
MODEL      277
REMARK 921   NORMALIZED FREE ENERGY PREDICTED BY IDOCK:   -2.21 KCAL/MOL
REMARK 922        TOTAL FREE ENERGY PREDICTED BY IDOCK:   -3.38 KCAL/MOL
REMARK 923 INTER-LIGAND FREE ENERGY PREDICTED BY IDOCK:   -2.97 KCAL/MOL
REMARK 924 INTRA-LIGAND FREE ENERGY PREDICTED BY IDOCK:   -0.41 KCAL/MOL
REMARK 927      BINDING AFFINITY PREDICTED BY RF-SCORE:    0.00 PKD
ROOT
HETATM    1  C   UNL     1      -9.661   4.292  69.555  1.00  0.00    -0.204 C  
HETATM    2  O   UNL     1     -10.583   5.188  70.159  1.00  0.00    -0.272 OA 
ENDROOT
BRANCH   2   3
HETATM    3  C   UNL     1     -10.882   4.818  71.509  1.00  0.00     0.195 C  
BRANCH   3   4
HETATM    4  C   UNL     1     -10.344   5.896  72.457  1.00  0.00    -0.196 C  
BRANCH   4   5
HETATM    5  N   UNL     1      -8.924   5.671  72.778  1.00  0.00    -0.125 N  
HETATM    6  C   UNL     1      -9.309   3.938  74.517  1.00  0.00    -0.124 C  
HETATM    7  O   UNL     1      -7.174   4.711  73.776  1.00  0.00    -0.070 OA 
HETATM    8  H   UNL     1      -8.253   6.240  72.263  1.00  0.00     0.000 HD 
HETATM    9  C   UNL     1      -8.398   4.795  73.680  1.00  0.00    -0.106 C  
ENDBRANCH   4   5
BRANCH   4  10
HETATM   10  C   UNL     1     -10.555   7.266  71.791  1.00  0.00    -0.205 C  
HETATM   11  O   UNL     1     -11.675   7.758  71.675  1.00  0.00    -0.263 OA 
HETATM   12  H   UNL     1      -8.544   7.340  71.283  1.00  0.00     0.000 HD 
HETATM   13  N   UNL     1      -9.434   7.833  71.223  1.00  0.00    -0.152 N  
BRANCH  13  14
HETATM   14  C   UNL     1      -9.486   9.106  70.543  1.00  0.00    -0.242 C  
BRANCH  14  15
HETATM   15  C   UNL     1      -9.640   8.930  69.055  1.00  0.00    -0.158 A  
HETATM   16  C   UNL     1      -8.837   8.025  68.346  1.00  0.00    -0.134 A  
HETATM   17  C   UNL     1      -9.000   7.864  66.968  1.00  0.00    -0.145 A  
HETATM   18  C   UNL     1      -9.959   8.610  66.285  1.00  0.00    -0.287 A  
HETATM   19  C   UNL     1     -10.753   9.522  66.976  1.00  0.00    -0.220 A  
HETATM   20  C   UNL     1     -10.592   9.685  68.353  1.00  0.00    -0.264 A  
ENDBRANCH  14  15
ENDBRANCH  13  14
ENDBRANCH   4  10
ENDBRANCH   3   4
ENDBRANCH   2   3
TORSDOF 6
ENDMDL
MODEL      278
REMARK 921   NORMALIZED FREE ENERGY PREDICTED BY IDOCK:   -2.16 KCAL/MOL
REMARK 922        TOTAL FREE ENERGY PREDICTED BY IDOCK:   -3.33 KCAL/MOL
REMARK 923 INTER-LIGAND FREE ENERGY PREDICTED BY IDOCK:   -2.89 KCAL/MOL
REMARK 924 INTRA-LIGAND FREE ENERGY PREDICTED BY IDOCK:   -0.44 KCAL/MOL
REMARK 927      BINDING AFFINITY PREDICTED BY RF-SCORE:    0.00 PKD
ROOT
HETATM    1  C   UNL     1     -12.615   7.037  71.423  1.00  0.00    -0.386 C  
HETATM    2  O   UNL     1     -12.158   6.793  70.101  1.00  0.00    -0.289 OA 
ENDROOT
BRANCH   2   3
HETATM    3  C   UNL     1     -11.124   5.804  70.067  1.00  0.00    -0.258 C  
BRANCH   3   4
HETATM    4  C   UNL     1     -10.057   6.155  71.110  1.00  0.00    -0.190 C  
BRANCH   4   5
HETATM    5  N   UNL     1      -9.488   4.943  71.728  1.00  0.00    -0.146 N  
HETATM    6  C   UNL     1     -10.959   4.942  73.730  1.00  0.00    -0.361 C  
HETATM    7  O   UNL     1      -9.299   3.300  73.225  1.00  0.00    -0.092 OA 
HETATM    8  H   UNL     1      -8.721   4.501  71.221  1.00  0.00     0.000 HD 
HETATM    9  C   UNL     1      -9.861   4.342  72.892  1.00  0.00    -0.142 C  
ENDBRANCH   4   5
BRANCH   4  10
HETATM   10  C   UNL     1      -8.969   6.992  70.419  1.00  0.00    -0.155 C  
HETATM   11  O   UNL     1      -8.029   7.470  71.048  1.00  0.00    -0.093 OA 
HETATM   12  H   UNL     1     -10.030   6.917  68.636  1.00  0.00     0.000 HD 
HETATM   13  N   UNL     1      -9.190   7.277  69.088  1.00  0.00    -0.140 N  
BRANCH  13  14
HETATM   14  C   UNL     1      -8.265   8.073  68.315  1.00  0.00    -0.123 C  
BRANCH  14  15
HETATM   15  C   UNL     1      -7.864   7.373  67.044  1.00  0.00    -0.116 A  
HETATM   16  C   UNL     1      -7.513   6.015  67.044  1.00  0.00    -0.084 A  
HETATM   17  C   UNL     1      -7.155   5.377  65.854  1.00  0.00    -0.068 A  
HETATM   18  C   UNL     1      -7.137   6.089  64.656  1.00  0.00    -0.057 A  
HETATM   19  C   UNL     1      -7.471   7.442  64.646  1.00  0.00    -0.093 A  
HETATM   20  C   UNL     1      -7.828   8.081  65.833  1.00  0.00    -0.099 A  
ENDBRANCH  14  15
ENDBRANCH  13  14
ENDBRANCH   4  10
ENDBRANCH   3   4
ENDBRANCH   2   3
TORSDOF 6
ENDMDL
MODEL      279
REMARK 921   NORMALIZED FREE ENERGY PREDICTED BY IDOCK:   -2.15 KCAL/MOL
REMARK 922        TOTAL FREE ENERGY PREDICTED BY IDOCK:   -3.31 KCAL/MOL
REMARK 923 INTER-LIGAND FREE ENERGY PREDICTED BY IDOCK:   -3.49 KCAL/MOL
REMARK 924 INTRA-LIGAND FREE ENERGY PREDICTED BY IDOCK:    0.18 KCAL/MOL
REMARK 927      BINDING AFFINITY PREDICTED BY RF-SCORE:    0.00 PKD
ROOT
HETATM    1  C   UNL     1      -7.330  10.311  65.739  1.00  0.00    -0.140 C  
HETATM    2  O   UNL     1      -8.136  11.049  66.647  1.00  0.00    -0.143 OA 
ENDROOT
BRANCH   2   3
HETATM    3  C   UNL     1      -9.176  10.244  67.213  1.00  0.00    -0.141 C  
BRANCH   3   4
HETATM    4  C   UNL     1      -8.587   8.901  67.660  1.00  0.00    -0.124 C  
BRANCH   4   5
HETATM    5  N   UNL     1      -8.216   8.924  69.086  1.00  0.00    -0.116 N  
HETATM    6  C   UNL     1     -10.409   9.737  69.925  1.00  0.00    -0.291 C  
HETATM    7  O   UNL     1      -8.523   9.181  71.281  1.00  0.00    -0.286 OA 
HETATM    8  H   UNL     1      -7.260   8.643  69.304  1.00  0.00     0.000 HD 
HETATM    9  C   UNL     1      -8.994   9.273  70.148  1.00  0.00    -0.214 C  
ENDBRANCH   4   5
BRANCH   4  10
HETATM   10  C   UNL     1      -9.624   7.804  67.371  1.00  0.00    -0.151 C  
HETATM   11  O   UNL     1     -10.746   8.075  66.949  1.00  0.00    -0.322 OA 
HETATM   12  H   UNL     1      -8.344   6.372  68.156  1.00  0.00     0.000 HD 
HETATM   13  N   UNL     1      -9.261   6.526  67.738  1.00  0.00    -0.115 N  
BRANCH  13  14
HETATM   14  C   UNL     1     -10.143   5.399  67.549  1.00  0.00    -0.180 C  
BRANCH  14  15
HETATM   15  C   UNL     1      -9.842   4.292  68.525  1.00  0.00    -0.115 A  
HETATM   16  C   UNL     1      -9.513   3.003  68.080  1.00  0.00    -0.217 A  
HETATM   17  C   UNL     1      -9.224   1.990  68.998  1.00  0.00    -0.202 A  
HETATM   18  C   UNL     1      -9.268   2.253  70.367  1.00  0.00    -0.189 A  
HETATM   19  C   UNL     1      -9.607   3.526  70.820  1.00  0.00    -0.246 A  
HETATM   20  C   UNL     1      -9.896   4.539  69.905  1.00  0.00    -0.298 A  
ENDBRANCH  14  15
ENDBRANCH  13  14
ENDBRANCH   4  10
ENDBRANCH   3   4
ENDBRANCH   2   3
TORSDOF 6
ENDMDL
MODEL      280
REMARK 921   NORMALIZED FREE ENERGY PREDICTED BY IDOCK:   -2.08 KCAL/MOL
REMARK 922        TOTAL FREE ENERGY PREDICTED BY IDOCK:   -3.22 KCAL/MOL
REMARK 923 INTER-LIGAND FREE ENERGY PREDICTED BY IDOCK:   -2.82 KCAL/MOL
REMARK 924 INTRA-LIGAND FREE ENERGY PREDICTED BY IDOCK:   -0.40 KCAL/MOL
REMARK 927      BINDING AFFINITY PREDICTED BY RF-SCORE:    0.00 PKD
ROOT
HETATM    1  C   UNL     1      -9.825   4.445  69.414  1.00  0.00    -0.168 C  
HETATM    2  O   UNL     1     -10.689   5.549  69.645  1.00  0.00    -0.322 OA 
ENDROOT
BRANCH   2   3
HETATM    3  C   UNL     1     -10.949   5.743  71.039  1.00  0.00    -0.230 C  
BRANCH   3   4
HETATM    4  C   UNL     1     -10.192   6.984  71.524  1.00  0.00    -0.198 C  
BRANCH   4   5
HETATM    5  N   UNL     1      -8.733   6.790  71.446  1.00  0.00    -0.131 N  
HETATM    6  C   UNL     1      -8.213   7.724  73.689  1.00  0.00    -0.241 C  
HETATM    7  O   UNL     1      -6.621   6.805  72.165  1.00  0.00    -0.056 OA 
HETATM    8  H   UNL     1      -8.382   6.384  70.579  1.00  0.00     0.000 HD 
HETATM    9  C   UNL     1      -7.796   7.087  72.390  1.00  0.00    -0.094 C  
ENDBRANCH   4   5
BRANCH   4  10
HETATM   10  C   UNL     1     -10.641   8.182  70.672  1.00  0.00    -0.215 C  
HETATM   11  O   UNL     1     -11.830   8.457  70.527  1.00  0.00    -0.163 OA 
HETATM   12  H   UNL     1      -8.679   8.513  70.083  1.00  0.00     0.000 HD 
HETATM   13  N   UNL     1      -9.641   8.835  69.984  1.00  0.00    -0.165 N  
BRANCH  13  14
HETATM   14  C   UNL     1      -9.918   9.963  69.126  1.00  0.00    -0.198 C  
BRANCH  14  15
HETATM   15  C   UNL     1      -8.868  10.113  68.056  1.00  0.00    -0.125 A  
HETATM   16  C   UNL     1      -8.673  11.337  67.398  1.00  0.00    -0.139 A  
HETATM   17  C   UNL     1      -7.687  11.462  66.416  1.00  0.00    -0.051 A  
HETATM   18  C   UNL     1      -6.894  10.368  66.077  1.00  0.00    -0.128 A  
HETATM   19  C   UNL     1      -7.088   9.144  66.714  1.00  0.00    -0.082 A  
HETATM   20  C   UNL     1      -8.072   9.016  67.695  1.00  0.00    -0.109 A  
ENDBRANCH  14  15
ENDBRANCH  13  14
ENDBRANCH   4  10
ENDBRANCH   3   4
ENDBRANCH   2   3
TORSDOF 6
ENDMDL
MODEL      281
REMARK 921   NORMALIZED FREE ENERGY PREDICTED BY IDOCK:   -2.07 KCAL/MOL
REMARK 922        TOTAL FREE ENERGY PREDICTED BY IDOCK:   -3.20 KCAL/MOL
REMARK 923 INTER-LIGAND FREE ENERGY PREDICTED BY IDOCK:   -2.73 KCAL/MOL
REMARK 924 INTRA-LIGAND FREE ENERGY PREDICTED BY IDOCK:   -0.47 KCAL/MOL
REMARK 927      BINDING AFFINITY PREDICTED BY RF-SCORE:    0.00 PKD
ROOT
HETATM    1  C   UNL     1      -6.756   8.784  70.361  1.00  0.00    -0.043 C  
HETATM    2  O   UNL     1      -7.951   9.040  71.085  1.00  0.00    -0.154 OA 
ENDROOT
BRANCH   2   3
HETATM    3  C   UNL     1      -9.021   9.446  70.225  1.00  0.00    -0.240 C  
BRANCH   3   4
HETATM    4  C   UNL     1     -10.231   8.535  70.462  1.00  0.00    -0.194 C  
BRANCH   4   5
HETATM    5  N   UNL     1     -11.431   9.315  70.814  1.00  0.00    -0.279 N  
HETATM    6  C   UNL     1     -12.022   8.005  72.841  1.00  0.00    -0.100 C  
HETATM    7  O   UNL     1     -13.195   9.923  72.038  1.00  0.00    -0.426 OA 
HETATM    8  H   UNL     1     -11.666  10.083  70.186  1.00  0.00     0.000 HD 
HETATM    9  C   UNL     1     -12.265   9.136  71.877  1.00  0.00    -0.379 C  
ENDBRANCH   4   5
BRANCH   4  10
HETATM   10  C   UNL     1     -10.460   7.704  69.190  1.00  0.00    -0.214 C  
HETATM   11  O   UNL     1     -11.065   8.162  68.223  1.00  0.00     0.141 OA 
HETATM   12  H   UNL     1      -9.638   6.039  70.117  1.00  0.00     0.000 HD 
HETATM   13  N   UNL     1     -10.065   6.385  69.258  1.00  0.00    -0.165 N  
BRANCH  13  14
HETATM   14  C   UNL     1     -10.239   5.478  68.147  1.00  0.00    -0.177 C  
BRANCH  14  15
HETATM   15  C   UNL     1      -8.980   4.702  67.866  1.00  0.00    -0.128 A  
HETATM   16  C   UNL     1      -8.847   3.934  66.700  1.00  0.00    -0.127 A  
HETATM   17  C   UNL     1      -7.667   3.229  66.448  1.00  0.00    -0.077 A  
HETATM   18  C   UNL     1      -6.614   3.278  67.360  1.00  0.00    -0.038 A  
HETATM   19  C   UNL     1      -6.740   4.027  68.528  1.00  0.00    -0.046 A  
HETATM   20  C   UNL     1      -7.918   4.731  68.782  1.00  0.00    -0.079 A  
ENDBRANCH  14  15
ENDBRANCH  13  14
ENDBRANCH   4  10
ENDBRANCH   3   4
ENDBRANCH   2   3
TORSDOF 6
ENDMDL
MODEL      282
REMARK 921   NORMALIZED FREE ENERGY PREDICTED BY IDOCK:   -2.06 KCAL/MOL
REMARK 922        TOTAL FREE ENERGY PREDICTED BY IDOCK:   -3.18 KCAL/MOL
REMARK 923 INTER-LIGAND FREE ENERGY PREDICTED BY IDOCK:   -2.59 KCAL/MOL
REMARK 924 INTRA-LIGAND FREE ENERGY PREDICTED BY IDOCK:   -0.59 KCAL/MOL
REMARK 927      BINDING AFFINITY PREDICTED BY RF-SCORE:    0.00 PKD
ROOT
HETATM    1  C   UNL     1      -8.040  12.291  68.179  1.00  0.00    -0.158 C  
HETATM    2  O   UNL     1      -7.962  11.398  69.281  1.00  0.00    -0.014 OA 
ENDROOT
BRANCH   2   3
HETATM    3  C   UNL     1      -7.397  10.136  68.908  1.00  0.00    -0.083 C  
BRANCH   3   4
HETATM    4  C   UNL     1      -8.513   9.215  68.402  1.00  0.00    -0.128 C  
BRANCH   4   5
HETATM    5  N   UNL     1      -8.368   8.934  66.962  1.00  0.00    -0.106 N  
HETATM    6  C   UNL     1     -10.418  10.140  66.241  1.00  0.00    -0.192 C  
HETATM    7  O   UNL     1      -8.869   9.045  64.791  1.00  0.00    -0.185 OA 
HETATM    8  H   UNL     1      -7.561   8.371  66.695  1.00  0.00     0.000 HD 
HETATM    9  C   UNL     1      -9.180   9.336  65.944  1.00  0.00    -0.219 C  
ENDBRANCH   4   5
BRANCH   4  10
HETATM   10  C   UNL     1      -8.476   7.920  69.229  1.00  0.00    -0.137 C  
HETATM   11  O   UNL     1      -7.431   7.502  69.721  1.00  0.00    -0.087 OA 
HETATM   12  H   UNL     1     -10.469   7.560  68.773  1.00  0.00     0.000 HD 
HETATM   13  N   UNL     1      -9.652   7.201  69.266  1.00  0.00    -0.155 N  
BRANCH  13  14
HETATM   14  C   UNL     1      -9.759   5.953  69.985  1.00  0.00    -0.167 C  
BRANCH  14  15
HETATM   15  C   UNL     1      -9.579   4.772  69.068  1.00  0.00    -0.233 A  
HETATM   16  C   UNL     1      -8.955   3.597  69.513  1.00  0.00    -0.172 A  
HETATM   17  C   UNL     1      -8.806   2.506  68.654  1.00  0.00    -0.154 A  
HETATM   18  C   UNL     1      -9.273   2.579  67.342  1.00  0.00    -0.185 A  
HETATM   19  C   UNL     1      -9.882   3.746  66.885  1.00  0.00    -0.045 A  
HETATM   20  C   UNL     1     -10.031   4.837  67.742  1.00  0.00    -0.169 A  
ENDBRANCH  14  15
ENDBRANCH  13  14
ENDBRANCH   4  10
ENDBRANCH   3   4
ENDBRANCH   2   3
TORSDOF 6
ENDMDL
MODEL      283
REMARK 921   NORMALIZED FREE ENERGY PREDICTED BY IDOCK:   -1.99 KCAL/MOL
REMARK 922        TOTAL FREE ENERGY PREDICTED BY IDOCK:   -3.09 KCAL/MOL
REMARK 923 INTER-LIGAND FREE ENERGY PREDICTED BY IDOCK:   -3.22 KCAL/MOL
REMARK 924 INTRA-LIGAND FREE ENERGY PREDICTED BY IDOCK:    0.13 KCAL/MOL
REMARK 927      BINDING AFFINITY PREDICTED BY RF-SCORE:    0.00 PKD
ROOT
HETATM    1  C   UNL     1      -8.084   9.776  70.124  1.00  0.00    -0.182 C  
HETATM    2  O   UNL     1      -8.573   9.272  71.359  1.00  0.00    -0.326 OA 
ENDROOT
BRANCH   2   3
HETATM    3  C   UNL     1      -9.159   7.974  71.213  1.00  0.00    -0.139 C  
BRANCH   3   4
HETATM    4  C   UNL     1      -9.978   7.647  72.467  1.00  0.00    -0.208 C  
BRANCH   4   5
HETATM    5  N   UNL     1     -11.425   7.739  72.205  1.00  0.00    -0.291 N  
HETATM    6  C   UNL     1     -11.422   6.324  70.162  1.00  0.00    -0.452 C  
HETATM    7  O   UNL     1     -13.353   7.305  71.169  1.00  0.00    -0.331 OA 
HETATM    8  H   UNL     1     -11.962   8.309  72.858  1.00  0.00     0.000 HD 
HETATM    9  C   UNL     1     -12.132   7.155  71.198  1.00  0.00    -0.358 C  
ENDBRANCH   4   5
BRANCH   4  10
HETATM   10  C   UNL     1      -9.585   6.238  72.940  1.00  0.00    -0.153 C  
HETATM   11  O   UNL     1     -10.300   5.593  73.703  1.00  0.00    -0.203 OA 
HETATM   12  H   UNL     1      -7.748   6.420  71.991  1.00  0.00     0.000 HD 
HETATM   13  N   UNL     1      -8.330   5.808  72.562  1.00  0.00    -0.117 N  
BRANCH  13  14
HETATM   14  C   UNL     1      -7.817   4.516  72.952  1.00  0.00    -0.088 C  
BRANCH  14  15
HETATM   15  C   UNL     1      -7.700   3.590  71.771  1.00  0.00    -0.057 A  
HETATM   16  C   UNL     1      -8.664   2.599  71.529  1.00  0.00    -0.112 A  
HETATM   17  C   UNL     1      -8.548   1.755  70.422  1.00  0.00    -0.098 A  
HETATM   18  C   UNL     1      -7.466   1.887  69.552  1.00  0.00    -0.043 A  
HETATM   19  C   UNL     1      -6.496   2.858  69.790  1.00  0.00    -0.029 A  
HETATM   20  C   UNL     1      -6.610   3.702  70.895  1.00  0.00    -0.031 A  
ENDBRANCH  14  15
ENDBRANCH  13  14
ENDBRANCH   4  10
ENDBRANCH   3   4
ENDBRANCH   2   3
TORSDOF 6
ENDMDL
MODEL      284
REMARK 921   NORMALIZED FREE ENERGY PREDICTED BY IDOCK:   -1.94 KCAL/MOL
REMARK 922        TOTAL FREE ENERGY PREDICTED BY IDOCK:   -3.02 KCAL/MOL
REMARK 923 INTER-LIGAND FREE ENERGY PREDICTED BY IDOCK:   -3.54 KCAL/MOL
REMARK 924 INTRA-LIGAND FREE ENERGY PREDICTED BY IDOCK:    0.53 KCAL/MOL
REMARK 927      BINDING AFFINITY PREDICTED BY RF-SCORE:    0.00 PKD
ROOT
HETATM    1  C   UNL     1      -8.258   3.375  64.095  1.00  0.00    -0.090 C  
HETATM    2  O   UNL     1      -8.703   3.386  65.444  1.00  0.00    -0.114 OA 
ENDROOT
BRANCH   2   3
HETATM    3  C   UNL     1      -9.258   4.653  65.813  1.00  0.00    -0.147 C  
BRANCH   3   4
HETATM    4  C   UNL     1      -8.269   5.389  66.725  1.00  0.00    -0.108 C  
BRANCH   4   5
HETATM    5  N   UNL     1      -8.662   6.796  66.921  1.00  0.00    -0.115 N  
HETATM    6  C   UNL     1     -11.111   6.385  67.003  1.00  0.00    -0.405 C  
HETATM    7  O   UNL     1     -10.049   8.507  67.276  1.00  0.00    -0.204 OA 
HETATM    8  H   UNL     1      -7.900   7.473  66.950  1.00  0.00     0.000 HD 
HETATM    9  C   UNL     1      -9.918   7.301  67.069  1.00  0.00    -0.224 C  
ENDBRANCH   4   5
BRANCH   4  10
HETATM   10  C   UNL     1      -8.201   4.637  68.063  1.00  0.00    -0.091 C  
HETATM   11  O   UNL     1      -7.132   4.254  68.533  1.00  0.00    -0.051 OA 
HETATM   12  H   UNL     1     -10.274   4.584  68.150  1.00  0.00     0.000 HD 
HETATM   13  N   UNL     1      -9.416   4.307  68.626  1.00  0.00    -0.153 N  
BRANCH  13  14
HETATM   14  C   UNL     1      -9.507   3.579  69.870  1.00  0.00    -0.184 C  
BRANCH  14  15
HETATM   15  C   UNL     1     -10.081   4.436  70.968  1.00  0.00    -0.195 A  
HETATM   16  C   UNL     1     -10.564   5.726  70.703  1.00  0.00    -0.346 A  
HETATM   17  C   UNL     1     -11.104   6.504  71.730  1.00  0.00    -0.299 A  
HETATM   18  C   UNL     1     -11.160   6.004  73.031  1.00  0.00    -0.271 A  
HETATM   19  C   UNL     1     -10.670   4.730  73.308  1.00  0.00    -0.313 A  
HETATM   20  C   UNL     1     -10.130   3.951  72.284  1.00  0.00    -0.234 A  
ENDBRANCH  14  15
ENDBRANCH  13  14
ENDBRANCH   4  10
ENDBRANCH   3   4
ENDBRANCH   2   3
TORSDOF 6
ENDMDL
MODEL      285
REMARK 921   NORMALIZED FREE ENERGY PREDICTED BY IDOCK:   -1.89 KCAL/MOL
REMARK 922        TOTAL FREE ENERGY PREDICTED BY IDOCK:   -2.96 KCAL/MOL
REMARK 923 INTER-LIGAND FREE ENERGY PREDICTED BY IDOCK:   -3.59 KCAL/MOL
REMARK 924 INTRA-LIGAND FREE ENERGY PREDICTED BY IDOCK:    0.63 KCAL/MOL
REMARK 927      BINDING AFFINITY PREDICTED BY RF-SCORE:    0.00 PKD
ROOT
HETATM    1  C   UNL     1     -12.818  11.519  71.465  1.00  0.00    -0.380 C  
HETATM    2  O   UNL     1     -12.455  12.698  70.760  1.00  0.00    -0.348 OA 
ENDROOT
BRANCH   2   3
HETATM    3  C   UNL     1     -11.414  12.453  69.808  1.00  0.00    -0.149 C  
BRANCH   3   4
HETATM    4  C   UNL     1     -11.745  11.182  69.016  1.00  0.00    -0.339 C  
BRANCH   4   5
HETATM    5  N   UNL     1     -12.218  11.503  67.657  1.00  0.00     0.285 N  
HETATM    6  C   UNL     1     -10.955  13.630  67.424  1.00  0.00    -0.289 C  
HETATM    7  O   UNL     1     -12.346  12.650  65.748  1.00  0.00    -0.594 OA 
HETATM    8  H   UNL     1     -12.873  10.839  67.244  1.00  0.00     0.000 HD 
HETATM    9  C   UNL     1     -11.886  12.576  66.887  1.00  0.00    -0.334 C  
ENDBRANCH   4   5
BRANCH   4  10
HETATM   10  C   UNL     1     -10.485  10.303  68.975  1.00  0.00    -0.217 C  
HETATM   11  O   UNL     1     -10.400   9.270  69.635  1.00  0.00    -0.199 OA 
HETATM   12  H   UNL     1      -9.523  11.717  67.799  1.00  0.00     0.000 HD 
HETATM   13  N   UNL     1      -9.421  10.815  68.263  1.00  0.00    -0.158 N  
BRANCH  13  14
HETATM   14  C   UNL     1      -8.165  10.110  68.158  1.00  0.00    -0.113 C  
BRANCH  14  15
HETATM   15  C   UNL     1      -8.045   9.391  66.839  1.00  0.00    -0.109 A  
HETATM   16  C   UNL     1      -8.729   9.847  65.702  1.00  0.00    -0.168 A  
HETATM   17  C   UNL     1      -8.599   9.176  64.483  1.00  0.00    -0.198 A  
HETATM   18  C   UNL     1      -7.793   8.042  64.391  1.00  0.00    -0.139 A  
HETATM   19  C   UNL     1      -7.120   7.574  65.517  1.00  0.00    -0.061 A  
HETATM   20  C   UNL     1      -7.249   8.242  66.735  1.00  0.00    -0.082 A  
ENDBRANCH  14  15
ENDBRANCH  13  14
ENDBRANCH   4  10
ENDBRANCH   3   4
ENDBRANCH   2   3
TORSDOF 6
ENDMDL
MODEL      286
REMARK 921   NORMALIZED FREE ENERGY PREDICTED BY IDOCK:   -1.76 KCAL/MOL
REMARK 922        TOTAL FREE ENERGY PREDICTED BY IDOCK:   -2.78 KCAL/MOL
REMARK 923 INTER-LIGAND FREE ENERGY PREDICTED BY IDOCK:   -3.03 KCAL/MOL
REMARK 924 INTRA-LIGAND FREE ENERGY PREDICTED BY IDOCK:    0.25 KCAL/MOL
REMARK 927      BINDING AFFINITY PREDICTED BY RF-SCORE:    0.00 PKD
ROOT
HETATM    1  C   UNL     1      -6.027  10.313  64.473  1.00  0.00    -0.132 C  
HETATM    2  O   UNL     1      -6.230   9.319  65.468  1.00  0.00    -0.062 OA 
ENDROOT
BRANCH   2   3
HETATM    3  C   UNL     1      -7.462   9.509  66.170  1.00  0.00    -0.100 C  
BRANCH   3   4
HETATM    4  C   UNL     1      -7.562   8.478  67.301  1.00  0.00    -0.097 C  
BRANCH   4   5
HETATM    5  N   UNL     1      -6.750   8.876  68.465  1.00  0.00    -0.059 N  
HETATM    6  C   UNL     1      -7.566  11.220  68.579  1.00  0.00    -0.123 C  
HETATM    7  O   UNL     1      -6.011  10.216  70.089  1.00  0.00    -0.049 OA 
HETATM    8  H   UNL     1      -6.135   8.157  68.847  1.00  0.00     0.000 HD 
HETATM    9  C   UNL     1      -6.721  10.085  69.093  1.00  0.00    -0.055 C  
ENDBRANCH   4   5
BRANCH   4  10
HETATM   10  C   UNL     1      -9.044   8.327  67.680  1.00  0.00    -0.131 C  
HETATM   11  O   UNL     1      -9.937   8.806  66.986  1.00  0.00    -0.194 OA 
HETATM   12  H   UNL     1      -8.504   7.432  69.474  1.00  0.00     0.000 HD 
HETATM   13  N   UNL     1      -9.291   7.742  68.904  1.00  0.00    -0.147 N  
BRANCH  13  14
HETATM   14  C   UNL     1     -10.634   7.555  69.402  1.00  0.00    -0.223 C  
BRANCH  14  15
HETATM   15  C   UNL     1     -10.664   6.587  70.555  1.00  0.00    -0.305 A  
HETATM   16  C   UNL     1     -11.686   6.636  71.515  1.00  0.00    -0.369 A  
HETATM   17  C   UNL     1     -11.707   5.723  72.573  1.00  0.00    -0.280 A  
HETATM   18  C   UNL     1     -10.705   4.760  72.686  1.00  0.00    -0.263 A  
HETATM   19  C   UNL     1      -9.678   4.711  71.746  1.00  0.00    -0.230 A  
HETATM   20  C   UNL     1      -9.655   5.622  70.689  1.00  0.00    -0.213 A  
ENDBRANCH  14  15
ENDBRANCH  13  14
ENDBRANCH   4  10
ENDBRANCH   3   4
ENDBRANCH   2   3
TORSDOF 6
ENDMDL
MODEL      287
REMARK 921   NORMALIZED FREE ENERGY PREDICTED BY IDOCK:   -1.48 KCAL/MOL
REMARK 922        TOTAL FREE ENERGY PREDICTED BY IDOCK:   -2.41 KCAL/MOL
REMARK 923 INTER-LIGAND FREE ENERGY PREDICTED BY IDOCK:   -3.82 KCAL/MOL
REMARK 924 INTRA-LIGAND FREE ENERGY PREDICTED BY IDOCK:    1.41 KCAL/MOL
REMARK 927      BINDING AFFINITY PREDICTED BY RF-SCORE:    0.00 PKD
ROOT
HETATM    1  C   UNL     1      -8.758  15.307  69.304  1.00  0.00    -0.237 C  
HETATM    2  O   UNL     1      -8.720  13.941  68.916  1.00  0.00    -0.050 OA 
ENDROOT
BRANCH   2   3
HETATM    3  C   UNL     1      -8.593  13.791  67.499  1.00  0.00    -0.193 C  
BRANCH   3   4
HETATM    4  C   UNL     1      -9.488  12.637  67.032  1.00  0.00    -0.220 C  
BRANCH   4   5
HETATM    5  N   UNL     1      -8.691  11.461  66.641  1.00  0.00    -0.173 N  
HETATM    6  C   UNL     1      -6.562  12.220  67.675  1.00  0.00    -0.122 C  
HETATM    7  O   UNL     1      -6.894  10.142  66.546  1.00  0.00    -0.083 OA 
HETATM    8  H   UNL     1      -9.180  10.748  66.101  1.00  0.00     0.000 HD 
HETATM    9  C   UNL     1      -7.379  11.210  66.914  1.00  0.00    -0.138 C  
ENDBRANCH   4   5
BRANCH   4  10
HETATM   10  C   UNL     1     -10.462  12.297  68.172  1.00  0.00    -0.217 C  
HETATM   11  O   UNL     1     -11.300  13.105  68.564  1.00  0.00    -0.248 OA 
HETATM   12  H   UNL     1      -9.484  10.493  68.483  1.00  0.00     0.000 HD 
HETATM   13  N   UNL     1     -10.245  11.090  68.803  1.00  0.00    -0.192 N  
BRANCH  13  14
HETATM   14  C   UNL     1     -11.067  10.649  69.906  1.00  0.00    -0.298 C  
BRANCH  14  15
HETATM   15  C   UNL     1     -10.379   9.579  70.712  1.00  0.00    -0.377 A  
HETATM   16  C   UNL     1     -10.892   9.162  71.950  1.00  0.00    -0.353 A  
HETATM   17  C   UNL     1     -10.248   8.160  72.680  1.00  0.00    -0.388 A  
HETATM   18  C   UNL     1      -9.086   7.570  72.185  1.00  0.00    -0.165 A  
HETATM   19  C   UNL     1      -8.561   7.985  70.964  1.00  0.00    -0.142 A  
HETATM   20  C   UNL     1      -9.201   8.987  70.233  1.00  0.00    -0.229 A  
ENDBRANCH  14  15
ENDBRANCH  13  14
ENDBRANCH   4  10
ENDBRANCH   3   4
ENDBRANCH   2   3
TORSDOF 6
ENDMDL
MODEL      288
REMARK 921   NORMALIZED FREE ENERGY PREDICTED BY IDOCK:   -1.31 KCAL/MOL
REMARK 922        TOTAL FREE ENERGY PREDICTED BY IDOCK:   -2.17 KCAL/MOL
REMARK 923 INTER-LIGAND FREE ENERGY PREDICTED BY IDOCK:   -4.63 KCAL/MOL
REMARK 924 INTRA-LIGAND FREE ENERGY PREDICTED BY IDOCK:    2.46 KCAL/MOL
REMARK 927      BINDING AFFINITY PREDICTED BY RF-SCORE:    0.00 PKD
ROOT
HETATM    1  C   UNL     1     -11.059  15.002  68.527  1.00  0.00    -0.272 C  
HETATM    2  O   UNL     1     -10.661  13.666  68.801  1.00  0.00    -0.249 OA 
ENDROOT
BRANCH   2   3
HETATM    3  C   UNL     1     -11.785  12.791  68.937  1.00  0.00    -0.326 C  
BRANCH   3   4
HETATM    4  C   UNL     1     -11.594  11.580  68.017  1.00  0.00    -0.300 C  
BRANCH   4   5
HETATM    5  N   UNL     1     -11.260  11.994  66.643  1.00  0.00    -0.310 N  
HETATM    6  C   UNL     1      -9.284  10.511  66.383  1.00  0.00    -0.190 C  
HETATM    7  O   UNL     1     -10.154  11.971  64.705  1.00  0.00    -0.261 OA 
HETATM    8  H   UNL     1     -11.861  12.709  66.233  1.00  0.00     0.000 HD 
HETATM    9  C   UNL     1     -10.247  11.540  65.853  1.00  0.00    -0.244 C  
ENDBRANCH   4   5
BRANCH   4  10
HETATM   10  C   UNL     1     -10.490  10.694  68.616  1.00  0.00    -0.191 C  
HETATM   11  O   UNL     1      -9.389  11.152  68.914  1.00  0.00    -0.175 OA 
HETATM   12  H   UNL     1     -11.672   9.012  68.336  1.00  0.00     0.000 HD 
HETATM   13  N   UNL     1     -10.768   9.345  68.670  1.00  0.00    -0.194 N  
BRANCH  13  14
HETATM   14  C   UNL     1      -9.816   8.390  69.186  1.00  0.00    -0.183 C  
BRANCH  14  15
HETATM   15  C   UNL     1      -9.995   8.178  70.667  1.00  0.00    -0.204 A  
HETATM   16  C   UNL     1      -8.976   8.504  71.574  1.00  0.00    -0.276 A  
HETATM   17  C   UNL     1      -9.162   8.313  72.945  1.00  0.00    -0.329 A  
HETATM   18  C   UNL     1     -10.363   7.788  73.422  1.00  0.00    -0.292 A  
HETATM   19  C   UNL     1     -11.376   7.448  72.529  1.00  0.00    -0.358 A  
HETATM   20  C   UNL     1     -11.193   7.638  71.159  1.00  0.00    -0.280 A  
ENDBRANCH  14  15
ENDBRANCH  13  14
ENDBRANCH   4  10
ENDBRANCH   3   4
ENDBRANCH   2   3
TORSDOF 6
ENDMDL
MODEL      289
REMARK 921   NORMALIZED FREE ENERGY PREDICTED BY IDOCK:   -1.07 KCAL/MOL
REMARK 922        TOTAL FREE ENERGY PREDICTED BY IDOCK:   -1.85 KCAL/MOL
REMARK 923 INTER-LIGAND FREE ENERGY PREDICTED BY IDOCK:   -1.67 KCAL/MOL
REMARK 924 INTRA-LIGAND FREE ENERGY PREDICTED BY IDOCK:   -0.18 KCAL/MOL
REMARK 927      BINDING AFFINITY PREDICTED BY RF-SCORE:    0.00 PKD
ROOT
HETATM    1  C   UNL     1     -10.433   3.589  63.883  1.00  0.00    -0.264 C  
HETATM    2  O   UNL     1      -9.652   3.667  65.067  1.00  0.00    -0.159 OA 
ENDROOT
BRANCH   2   3
HETATM    3  C   UNL     1      -9.204   5.002  65.326  1.00  0.00    -0.118 C  
BRANCH   3   4
HETATM    4  C   UNL     1      -8.378   5.014  66.617  1.00  0.00    -0.107 C  
BRANCH   4   5
HETATM    5  N   UNL     1      -7.647   6.284  66.776  1.00  0.00    -0.097 N  
HETATM    6  C   UNL     1      -5.410   5.388  66.167  1.00  0.00    -0.012 C  
HETATM    7  O   UNL     1      -5.894   7.663  66.709  1.00  0.00    -0.037 OA 
HETATM    8  H   UNL     1      -8.202   7.086  67.075  1.00  0.00     0.000 HD 
HETATM    9  C   UNL     1      -6.320   6.517  66.573  1.00  0.00    -0.042 C  
ENDBRANCH   4   5
BRANCH   4  10
HETATM   10  C   UNL     1      -9.332   4.769  67.797  1.00  0.00    -0.136 C  
HETATM   11  O   UNL     1     -10.490   4.396  67.621  1.00  0.00     0.134 OA 
HETATM   12  H   UNL     1      -7.905   5.496  69.116  1.00  0.00     0.000 HD 
HETATM   13  N   UNL     1      -8.849   5.119  69.040  1.00  0.00    -0.092 N  
BRANCH  13  14
HETATM   14  C   UNL     1      -9.642   4.966  70.237  1.00  0.00    -0.195 C  
BRANCH  14  15
HETATM   15  C   UNL     1      -8.932   4.124  71.265  1.00  0.00    -0.163 A  
HETATM   16  C   UNL     1      -7.693   3.530  70.983  1.00  0.00    -0.047 A  
HETATM   17  C   UNL     1      -7.041   2.762  71.952  1.00  0.00    -0.038 A  
HETATM   18  C   UNL     1      -7.622   2.575  73.205  1.00  0.00    -0.042 A  
HETATM   19  C   UNL     1      -8.859   3.149  73.490  1.00  0.00    -0.080 A  
HETATM   20  C   UNL     1      -9.512   3.916  72.525  1.00  0.00    -0.173 A  
ENDBRANCH  14  15
ENDBRANCH  13  14
ENDBRANCH   4  10
ENDBRANCH   3   4
ENDBRANCH   2   3
TORSDOF 6
ENDMDL
MODEL      290
REMARK 921   NORMALIZED FREE ENERGY PREDICTED BY IDOCK:   -0.81 KCAL/MOL
REMARK 922        TOTAL FREE ENERGY PREDICTED BY IDOCK:   -1.50 KCAL/MOL
REMARK 923 INTER-LIGAND FREE ENERGY PREDICTED BY IDOCK:   -1.64 KCAL/MOL
REMARK 924 INTRA-LIGAND FREE ENERGY PREDICTED BY IDOCK:    0.14 KCAL/MOL
REMARK 927      BINDING AFFINITY PREDICTED BY RF-SCORE:    0.00 PKD
ROOT
HETATM    1  C   UNL     1      -8.288   3.457  63.808  1.00  0.00    -0.090 C  
HETATM    2  O   UNL     1      -8.912   3.945  64.987  1.00  0.00    -0.121 OA 
ENDROOT
BRANCH   2   3
HETATM    3  C   UNL     1      -9.427   5.269  64.810  1.00  0.00     0.314 C  
BRANCH   3   4
HETATM    4  C   UNL     1      -8.418   6.280  65.369  1.00  0.00    -0.129 C  
BRANCH   4   5
HETATM    5  N   UNL     1      -9.096   7.456  65.942  1.00  0.00    -0.360 N  
HETATM    6  C   UNL     1      -7.399   9.124  65.226  1.00  0.00    -0.092 C  
HETATM    7  O   UNL     1      -9.424   9.617  66.392  1.00  0.00    -0.165 OA 
HETATM    8  H   UNL     1      -9.971   7.273  66.433  1.00  0.00     0.000 HD 
HETATM    9  C   UNL     1      -8.696   8.758  65.896  1.00  0.00    -0.170 C  
ENDBRANCH   4   5
BRANCH   4  10
HETATM   10  C   UNL     1      -7.557   5.564  66.421  1.00  0.00    -0.091 C  
HETATM   11  O   UNL     1      -6.331   5.544  66.343  1.00  0.00    -0.036 OA 
HETATM   12  H   UNL     1      -9.269   4.834  67.340  1.00  0.00     0.000 HD 
HETATM   13  N   UNL     1      -8.250   4.843  67.371  1.00  0.00    -0.106 N  
BRANCH  13  14
HETATM   14  C   UNL     1      -7.573   4.101  68.409  1.00  0.00    -0.066 C  
BRANCH  14  15
HETATM   15  C   UNL     1      -7.738   4.758  69.754  1.00  0.00    -0.059 A  
HETATM   16  C   UNL     1      -8.193   4.031  70.864  1.00  0.00    -0.075 A  
HETATM   17  C   UNL     1      -8.330   4.653  72.108  1.00  0.00    -0.117 A  
HETATM   18  C   UNL     1      -8.021   6.005  72.253  1.00  0.00    -0.102 A  
HETATM   19  C   UNL     1      -7.581   6.739  71.154  1.00  0.00    -0.088 A  
HETATM   20  C   UNL     1      -7.444   6.121  69.910  1.00  0.00    -0.080 A  
ENDBRANCH  14  15
ENDBRANCH  13  14
ENDBRANCH   4  10
ENDBRANCH   3   4
ENDBRANCH   2   3
TORSDOF 6
ENDMDL
MODEL      291
REMARK 921   NORMALIZED FREE ENERGY PREDICTED BY IDOCK:   -0.75 KCAL/MOL
REMARK 922        TOTAL FREE ENERGY PREDICTED BY IDOCK:   -1.42 KCAL/MOL
REMARK 923 INTER-LIGAND FREE ENERGY PREDICTED BY IDOCK:   -1.87 KCAL/MOL
REMARK 924 INTRA-LIGAND FREE ENERGY PREDICTED BY IDOCK:    0.45 KCAL/MOL
REMARK 927      BINDING AFFINITY PREDICTED BY RF-SCORE:    0.00 PKD
ROOT
HETATM    1  C   UNL     1      -9.481   4.492  69.867  1.00  0.00    -0.175 C  
HETATM    2  O   UNL     1      -9.408   5.503  70.862  1.00  0.00    -0.151 OA 
ENDROOT
BRANCH   2   3
HETATM    3  C   UNL     1      -8.961   4.984  72.119  1.00  0.00    -0.132 C  
BRANCH   3   4
HETATM    4  C   UNL     1      -7.705   5.746  72.560  1.00  0.00    -0.102 C  
BRANCH   4   5
HETATM    5  N   UNL     1      -6.497   4.910  72.435  1.00  0.00    -0.040 N  
HETATM    6  C   UNL     1      -7.551   2.792  73.192  1.00  0.00    -0.047 C  
HETATM    7  O   UNL     1      -5.286   3.037  72.477  1.00  0.00     0.000 OA 
HETATM    8  H   UNL     1      -5.653   5.389  72.121  1.00  0.00     0.000 HD 
HETATM    9  C   UNL     1      -6.370   3.578  72.688  1.00  0.00    -0.013 C  
ENDBRANCH   4   5
BRANCH   4  10
HETATM   10  C   UNL     1      -7.594   7.018  71.705  1.00  0.00    -0.088 C  
HETATM   11  O   UNL     1      -8.286   8.008  71.933  1.00  0.00    -0.107 OA 
HETATM   12  H   UNL     1      -6.284   6.052  70.418  1.00  0.00     0.000 HD 
HETATM   13  N   UNL     1      -6.775   6.927  70.600  1.00  0.00    -0.052 N  
BRANCH  13  14
HETATM   14  C   UNL     1      -6.592   8.036  69.693  1.00  0.00    -0.038 C  
BRANCH  14  15
HETATM   15  C   UNL     1      -7.601   8.005  68.575  1.00  0.00    -0.104 A  
HETATM   16  C   UNL     1      -7.646   6.934  67.670  1.00  0.00    -0.110 A  
HETATM   17  C   UNL     1      -8.596   6.914  66.645  1.00  0.00    -0.124 A  
HETATM   18  C   UNL     1      -9.501   7.965  66.510  1.00  0.00    -0.277 A  
HETATM   19  C   UNL     1      -9.456   9.040  67.394  1.00  0.00    -0.179 A  
HETATM   20  C   UNL     1      -8.509   9.062  68.418  1.00  0.00    -0.129 A  
ENDBRANCH  14  15
ENDBRANCH  13  14
ENDBRANCH   4  10
ENDBRANCH   3   4
ENDBRANCH   2   3
TORSDOF 6
ENDMDL
MODEL      292
REMARK 921   NORMALIZED FREE ENERGY PREDICTED BY IDOCK:   -0.32 KCAL/MOL
REMARK 922        TOTAL FREE ENERGY PREDICTED BY IDOCK:   -0.84 KCAL/MOL
REMARK 923 INTER-LIGAND FREE ENERGY PREDICTED BY IDOCK:   -1.83 KCAL/MOL
REMARK 924 INTRA-LIGAND FREE ENERGY PREDICTED BY IDOCK:    0.99 KCAL/MOL
REMARK 927      BINDING AFFINITY PREDICTED BY RF-SCORE:    0.00 PKD
ROOT
HETATM    1  C   UNL     1      -6.898   9.803  65.387  1.00  0.00    -0.101 C  
HETATM    2  O   UNL     1      -7.888  10.256  66.300  1.00  0.00    -0.109 OA 
ENDROOT
BRANCH   2   3
HETATM    3  C   UNL     1      -8.594   9.169  66.906  1.00  0.00    -0.123 C  
BRANCH   3   4
HETATM    4  C   UNL     1      -7.626   8.367  67.783  1.00  0.00    -0.102 C  
BRANCH   4   5
HETATM    5  N   UNL     1      -7.863   8.618  69.216  1.00  0.00    -0.099 N  
HETATM    6  C   UNL     1      -9.689  10.274  68.903  1.00  0.00    -0.193 C  
HETATM    7  O   UNL     1      -8.870   9.491  71.006  1.00  0.00    -0.246 OA 
HETATM    8  H   UNL     1      -7.265   8.107  69.865  1.00  0.00     0.000 HD 
HETATM    9  C   UNL     1      -8.785   9.449  69.779  1.00  0.00    -0.181 C  
ENDBRANCH   4   5
BRANCH   4  10
HETATM   10  C   UNL     1      -7.795   6.878  67.443  1.00  0.00    -0.111 C  
HETATM   11  O   UNL     1      -8.097   6.507  66.311  1.00  0.00    -0.107 OA 
HETATM   12  H   UNL     1      -7.541   6.381  69.442  1.00  0.00     0.000 HD 
HETATM   13  N   UNL     1      -7.718   6.008  68.510  1.00  0.00    -0.094 N  
BRANCH  13  14
HETATM   14  C   UNL     1      -7.880   4.582  68.345  1.00  0.00    -0.079 C  
BRANCH  14  15
HETATM   15  C   UNL     1      -7.547   3.839  69.611  1.00  0.00    -0.052 A  
HETATM   16  C   UNL     1      -6.350   3.116  69.733  1.00  0.00    -0.029 A  
HETATM   17  C   UNL     1      -6.050   2.442  70.919  1.00  0.00    -0.018 A  
HETATM   18  C   UNL     1      -6.943   2.476  71.990  1.00  0.00    -0.026 A  
HETATM   19  C   UNL     1      -8.140   3.178  71.874  1.00  0.00    -0.059 A  
HETATM   20  C   UNL     1      -8.442   3.853  70.691  1.00  0.00    -0.099 A  
ENDBRANCH  14  15
ENDBRANCH  13  14
ENDBRANCH   4  10
ENDBRANCH   3   4
ENDBRANCH   2   3
TORSDOF 6
ENDMDL
MODEL      293
REMARK 921   NORMALIZED FREE ENERGY PREDICTED BY IDOCK:    0.16 KCAL/MOL
REMARK 922        TOTAL FREE ENERGY PREDICTED BY IDOCK:   -0.19 KCAL/MOL
REMARK 923 INTER-LIGAND FREE ENERGY PREDICTED BY IDOCK:    0.29 KCAL/MOL
REMARK 924 INTRA-LIGAND FREE ENERGY PREDICTED BY IDOCK:   -0.48 KCAL/MOL
REMARK 927      BINDING AFFINITY PREDICTED BY RF-SCORE:    0.00 PKD
ROOT
HETATM    1  C   UNL     1      -5.293  13.573  71.733  1.00  0.00    -0.173 C  
HETATM    2  O   UNL     1      -6.151  13.566  70.601  1.00  0.00    -0.152 OA 
ENDROOT
BRANCH   2   3
HETATM    3  C   UNL     1      -6.126  12.308  69.918  1.00  0.00    -0.140 C  
BRANCH   3   4
HETATM    4  C   UNL     1      -7.554  11.926  69.513  1.00  0.00     0.493 C  
BRANCH   4   5
HETATM    5  N   UNL     1      -8.149  12.937  68.620  1.00  0.00    -0.321 N  
HETATM    6  C   UNL     1      -9.812  13.797  70.254  1.00  0.00     2.494 C  
HETATM    7  O   UNL     1      -9.485  14.627  68.038  1.00  0.00    -0.198 OA 
HETATM    8  H   UNL     1      -7.762  12.985  67.678  1.00  0.00     0.000 HD 
HETATM    9  C   UNL     1      -9.152  13.816  68.901  1.00  0.00     0.144 C  
ENDBRANCH   4   5
BRANCH   4  10
HETATM   10  C   UNL     1      -7.506  10.546  68.838  1.00  0.00    -0.104 C  
HETATM   11  O   UNL     1      -6.672   9.702  69.158  1.00  0.00    -0.048 OA 
HETATM   12  H   UNL     1      -8.981  11.136  67.502  1.00  0.00     0.000 HD 
HETATM   13  N   UNL     1      -8.364  10.371  67.772  1.00  0.00    -0.114 N  
BRANCH  13  14
HETATM   14  C   UNL     1      -8.412   9.134  67.028  1.00  0.00    -0.123 C  
BRANCH  14  15
HETATM   15  C   UNL     1      -8.656   9.382  65.563  1.00  0.00    -0.169 A  
HETATM   16  C   UNL     1      -9.625  10.302  65.135  1.00  0.00    -0.337 A  
HETATM   17  C   UNL     1      -9.831  10.530  63.772  1.00  0.00    -0.363 A  
HETATM   18  C   UNL     1      -9.079   9.837  62.825  1.00  0.00    -0.286 A  
HETATM   19  C   UNL     1      -8.123   8.911  63.238  1.00  0.00    -0.174 A  
HETATM   20  C   UNL     1      -7.916   8.682  64.599  1.00  0.00    -0.141 A  
ENDBRANCH  14  15
ENDBRANCH  13  14
ENDBRANCH   4  10
ENDBRANCH   3   4
ENDBRANCH   2   3
TORSDOF 6
ENDMDL
MODEL      294
REMARK 921   NORMALIZED FREE ENERGY PREDICTED BY IDOCK:    1.08 KCAL/MOL
REMARK 922        TOTAL FREE ENERGY PREDICTED BY IDOCK:    1.06 KCAL/MOL
REMARK 923 INTER-LIGAND FREE ENERGY PREDICTED BY IDOCK:    1.62 KCAL/MOL
REMARK 924 INTRA-LIGAND FREE ENERGY PREDICTED BY IDOCK:   -0.57 KCAL/MOL
REMARK 927      BINDING AFFINITY PREDICTED BY RF-SCORE:    0.00 PKD
ROOT
HETATM    1  C   UNL     1      -6.837  11.644  64.623  1.00  0.00     2.760 C  
HETATM    2  O   UNL     1      -8.034  10.910  64.404  1.00  0.00     0.114 OA 
ENDROOT
BRANCH   2   3
HETATM    3  C   UNL     1      -7.770   9.589  63.921  1.00  0.00    -0.123 C  
BRANCH   3   4
HETATM    4  C   UNL     1      -6.896   8.846  64.938  1.00  0.00    -0.073 C  
BRANCH   4   5
HETATM    5  N   UNL     1      -7.670   8.453  66.129  1.00  0.00    -0.095 N  
HETATM    6  C   UNL     1      -6.347   9.778  67.763  1.00  0.00    -0.053 C  
HETATM    7  O   UNL     1      -8.267   8.454  68.279  1.00  0.00    -0.121 OA 
HETATM    8  H   UNL     1      -8.441   7.805  65.967  1.00  0.00     0.000 HD 
HETATM    9  C   UNL     1      -7.483   8.851  67.419  1.00  0.00    -0.085 C  
ENDBRANCH   4   5
BRANCH   4  10
HETATM   10  C   UNL     1      -6.287   7.620  64.240  1.00  0.00    -0.049 C  
HETATM   11  O   UNL     1      -5.366   7.731  63.434  1.00  0.00    -0.043 OA 
HETATM   12  H   UNL     1      -7.734   6.402  65.094  1.00  0.00     0.000 HD 
HETATM   13  N   UNL     1      -6.924   6.420  64.475  1.00  0.00    -0.046 N  
BRANCH  13  14
HETATM   14  C   UNL     1      -6.478   5.188  63.867  1.00  0.00    -0.029 C  
BRANCH  14  15
HETATM   15  C   UNL     1      -7.344   4.026  64.276  1.00  0.00    -0.066 A  
HETATM   16  C   UNL     1      -6.865   3.037  65.147  1.00  0.00    -0.045 A  
HETATM   17  C   UNL     1      -7.686   1.971  65.526  1.00  0.00    -0.072 A  
HETATM   18  C   UNL     1      -8.987   1.880  65.034  1.00  0.00    -0.123 A  
HETATM   19  C   UNL     1      -9.468   2.850  64.157  1.00  0.00    -0.133 A  
HETATM   20  C   UNL     1      -8.651   3.915  63.777  1.00  0.00    -0.096 A  
ENDBRANCH  14  15
ENDBRANCH  13  14
ENDBRANCH   4  10
ENDBRANCH   3   4
ENDBRANCH   2   3
TORSDOF 6
ENDMDL
MODEL      295
REMARK 921   NORMALIZED FREE ENERGY PREDICTED BY IDOCK:    2.58 KCAL/MOL
REMARK 922        TOTAL FREE ENERGY PREDICTED BY IDOCK:    3.08 KCAL/MOL
REMARK 923 INTER-LIGAND FREE ENERGY PREDICTED BY IDOCK:   -1.87 KCAL/MOL
REMARK 924 INTRA-LIGAND FREE ENERGY PREDICTED BY IDOCK:    4.95 KCAL/MOL
REMARK 927      BINDING AFFINITY PREDICTED BY RF-SCORE:    0.00 PKD
ROOT
HETATM    1  C   UNL     1      -8.795   5.986  66.216  1.00  0.00    -0.141 C  
HETATM    2  O   UNL     1      -8.753   7.186  65.457  1.00  0.00    -0.121 OA 
ENDROOT
BRANCH   2   3
HETATM    3  C   UNL     1      -9.469   8.248  66.097  1.00  0.00    -0.171 C  
BRANCH   3   4
HETATM    4  C   UNL     1      -8.690   8.706  67.336  1.00  0.00    -0.134 C  
BRANCH   4   5
HETATM    5  N   UNL     1      -9.598   9.106  68.426  1.00  0.00    -0.150 N  
HETATM    6  C   UNL     1      -7.881  10.265  69.798  1.00  0.00    -0.151 C  
HETATM    7  O   UNL     1     -10.204  10.104  70.327  1.00  0.00    -0.247 OA 
HETATM    8  H   UNL     1     -10.570   8.813  68.328  1.00  0.00     0.000 HD 
HETATM    9  C   UNL     1      -9.297   9.820  69.547  1.00  0.00    -0.213 C  
ENDBRANCH   4   5
BRANCH   4  10
HETATM   10  C   UNL     1      -7.768   7.556  67.772  1.00  0.00    -0.115 C  
HETATM   11  O   UNL     1      -8.205   6.429  67.992  1.00  0.00    -0.114 OA 
HETATM   12  H   UNL     1      -6.169   8.873  67.901  1.00  0.00     0.000 HD 
HETATM   13  N   UNL     1      -6.458   7.903  68.027  1.00  0.00    -0.050 N  
BRANCH  13  14
HETATM   14  C   UNL     1      -5.484   6.932  68.467  1.00  0.00    -0.017 C  
BRANCH  14  15
HETATM   15  C   UNL     1      -6.025   6.074  69.580  1.00  0.00    -0.025 A  
HETATM   16  C   UNL     1      -6.134   4.683  69.434  1.00  0.00    -0.026 A  
HETATM   17  C   UNL     1      -6.627   3.899  70.480  1.00  0.00    -0.032 A  
HETATM   18  C   UNL     1      -7.023   4.496  71.676  1.00  0.00    -0.039 A  
HETATM   19  C   UNL     1      -6.933   5.879  71.826  1.00  0.00    -0.073 A  
HETATM   20  C   UNL     1      -6.440   6.663  70.783  1.00  0.00    -0.052 A  
ENDBRANCH  14  15
ENDBRANCH  13  14
ENDBRANCH   4  10
ENDBRANCH   3   4
ENDBRANCH   2   3
TORSDOF 6
ENDMDL
MODEL      296
REMARK 921   NORMALIZED FREE ENERGY PREDICTED BY IDOCK:    2.79 KCAL/MOL
REMARK 922        TOTAL FREE ENERGY PREDICTED BY IDOCK:    3.37 KCAL/MOL
REMARK 923 INTER-LIGAND FREE ENERGY PREDICTED BY IDOCK:   -1.81 KCAL/MOL
REMARK 924 INTRA-LIGAND FREE ENERGY PREDICTED BY IDOCK:    5.18 KCAL/MOL
REMARK 927      BINDING AFFINITY PREDICTED BY RF-SCORE:    0.00 PKD
ROOT
HETATM    1  C   UNL     1      -8.945   3.245  69.938  1.00  0.00    -0.108 C  
HETATM    2  O   UNL     1      -8.903   4.298  70.891  1.00  0.00    -0.092 OA 
ENDROOT
BRANCH   2   3
HETATM    3  C   UNL     1      -7.800   4.158  71.794  1.00  0.00    -0.075 C  
BRANCH   3   4
HETATM    4  C   UNL     1      -6.537   4.725  71.137  1.00  0.00    -0.027 C  
BRANCH   4   5
HETATM    5  N   UNL     1      -5.718   3.659  70.532  1.00  0.00    -0.013 N  
HETATM    6  C   UNL     1      -7.272   1.792  71.057  1.00  0.00    -0.033 C  
HETATM    7  O   UNL     1      -5.215   1.592  69.861  1.00  0.00    -0.006 OA 
HETATM    8  H   UNL     1      -4.831   3.953  70.125  1.00  0.00     0.000 HD 
HETATM    9  C   UNL     1      -6.003   2.329  70.451  1.00  0.00    -0.019 C  
ENDBRANCH   4   5
BRANCH   4  10
HETATM   10  C   UNL     1      -6.968   5.760  70.086  1.00  0.00    -0.065 C  
HETATM   11  O   UNL     1      -8.020   6.387  70.194  1.00  0.00    -0.108 OA 
HETATM   12  H   UNL     1      -5.353   5.237  68.892  1.00  0.00     0.000 HD 
HETATM   13  N   UNL     1      -6.173   5.839  68.962  1.00  0.00    -0.028 N  
BRANCH  13  14
HETATM   14  C   UNL     1      -6.470   6.750  67.881  1.00  0.00    -0.050 C  
BRANCH  14  15
HETATM   15  C   UNL     1      -7.916   6.664  67.469  1.00  0.00    -0.115 A  
HETATM   16  C   UNL     1      -8.483   5.445  67.070  1.00  0.00    -0.106 A  
HETATM   17  C   UNL     1      -9.830   5.379  66.702  1.00  0.00    -0.193 A  
HETATM   18  C   UNL     1     -10.618   6.528  66.722  1.00  0.00    -0.323 A  
HETATM   19  C   UNL     1     -10.061   7.747  67.103  1.00  0.00    -0.328 A  
HETATM   20  C   UNL     1      -8.716   7.815  67.471  1.00  0.00    -0.125 A  
ENDBRANCH  14  15
ENDBRANCH  13  14
ENDBRANCH   4  10
ENDBRANCH   3   4
ENDBRANCH   2   3
TORSDOF 6
ENDMDL
MODEL      297
REMARK 921   NORMALIZED FREE ENERGY PREDICTED BY IDOCK:   11.34 KCAL/MOL
REMARK 922        TOTAL FREE ENERGY PREDICTED BY IDOCK:   14.92 KCAL/MOL
REMARK 923 INTER-LIGAND FREE ENERGY PREDICTED BY IDOCK:    9.81 KCAL/MOL
REMARK 924 INTRA-LIGAND FREE ENERGY PREDICTED BY IDOCK:    5.11 KCAL/MOL
REMARK 927      BINDING AFFINITY PREDICTED BY RF-SCORE:    0.00 PKD
ROOT
HETATM    1  C   UNL     1     -12.300   6.013  68.353  1.00  0.00     5.138 C  
HETATM    2  O   UNL     1     -11.303   6.808  67.727  1.00  0.00    -0.178 OA 
ENDROOT
BRANCH   2   3
HETATM    3  C   UNL     1     -11.361   8.173  68.155  1.00  0.00     0.919 C  
BRANCH   3   4
HETATM    4  C   UNL     1     -11.719   8.218  69.645  1.00  0.00     0.687 C  
BRANCH   4   5
HETATM    5  N   UNL     1     -11.617   6.885  70.265  1.00  0.00    -0.471 N  
HETATM    6  C   UNL     1      -9.242   6.483  69.657  1.00  0.00    -0.143 C  
HETATM    7  O   UNL     1     -10.620   5.002  70.926  1.00  0.00    -0.188 OA 
HETATM    8  H   UNL     1     -12.465   6.532  70.708  1.00  0.00     0.000 HD 
HETATM    9  C   UNL     1     -10.530   6.066  70.317  1.00  0.00    -0.242 C  
ENDBRANCH   4   5
BRANCH   4  10
HETATM   10  C   UNL     1     -10.781   9.225  70.331  1.00  0.00    -0.251 C  
HETATM   11  O   UNL     1     -10.048   8.891  71.259  1.00  0.00    -0.240 OA 
HETATM   12  H   UNL     1     -11.597  10.767  69.207  1.00  0.00     0.000 HD 
HETATM   13  N   UNL     1     -10.915  10.537  69.929  1.00  0.00    -0.288 N  
BRANCH  13  14
HETATM   14  C   UNL     1     -10.117  11.595  70.503  1.00  0.00     3.435 C  
BRANCH  14  15
HETATM   15  C   UNL     1      -9.066  12.077  69.539  1.00  0.00     1.338 A  
HETATM   16  C   UNL     1      -8.851  13.447  69.327  1.00  0.00     0.798 A  
HETATM   17  C   UNL     1      -7.863  13.879  68.438  1.00  0.00    -0.138 A  
HETATM   18  C   UNL     1      -7.089  12.948  67.747  1.00  0.00    -0.137 A  
HETATM   19  C   UNL     1      -7.303  11.585  67.939  1.00  0.00    -0.094 A  
HETATM   20  C   UNL     1      -8.289  11.152  68.826  1.00  0.00    -0.136 A  
ENDBRANCH  14  15
ENDBRANCH  13  14
ENDBRANCH   4  10
ENDBRANCH   3   4
ENDBRANCH   2   3
TORSDOF 6
ENDMDL
MODEL      298
REMARK 921   NORMALIZED FREE ENERGY PREDICTED BY IDOCK:   14.48 KCAL/MOL
REMARK 922        TOTAL FREE ENERGY PREDICTED BY IDOCK:   19.15 KCAL/MOL
REMARK 923 INTER-LIGAND FREE ENERGY PREDICTED BY IDOCK:   19.63 KCAL/MOL
REMARK 924 INTRA-LIGAND FREE ENERGY PREDICTED BY IDOCK:   -0.48 KCAL/MOL
REMARK 927      BINDING AFFINITY PREDICTED BY RF-SCORE:    0.00 PKD
ROOT
HETATM    1  C   UNL     1      -7.762  13.406  73.751  1.00  0.00     8.835 C  
HETATM    2  O   UNL     1      -7.584  13.307  72.345  1.00  0.00     7.232 OA 
ENDROOT
BRANCH   2   3
HETATM    3  C   UNL     1      -6.429  12.533  72.006  1.00  0.00     3.992 C  
BRANCH   3   4
HETATM    4  C   UNL     1      -6.737  11.686  70.765  1.00  0.00     1.557 C  
BRANCH   4   5
HETATM    5  N   UNL     1      -5.791  11.970  69.671  1.00  0.00    -0.093 N  
HETATM    6  C   UNL     1      -7.446  11.783  67.826  1.00  0.00    -0.117 C  
HETATM    7  O   UNL     1      -5.138  12.343  67.570  1.00  0.00    -0.084 OA 
HETATM    8  H   UNL     1      -4.823  12.131  69.947  1.00  0.00     0.000 HD 
HETATM    9  C   UNL     1      -6.053  12.043  68.336  1.00  0.00    -0.050 C  
ENDBRANCH   4   5
BRANCH   4  10
HETATM   10  C   UNL     1      -6.689  10.205  71.174  1.00  0.00     0.404 C  
HETATM   11  O   UNL     1      -5.853   9.785  71.970  1.00  0.00    -0.274 OA 
HETATM   12  H   UNL     1      -8.167   9.763  69.786  1.00  0.00     0.000 HD 
HETATM   13  N   UNL     1      -7.548   9.369  70.494  1.00  0.00    -0.138 N  
BRANCH  13  14
HETATM   14  C   UNL     1      -7.596   7.949  70.755  1.00  0.00    -0.078 C  
BRANCH  14  15
HETATM   15  C   UNL     1      -9.009   7.430  70.719  1.00  0.00    -0.151 A  
HETATM   16  C   UNL     1      -9.277   6.053  70.770  1.00  0.00    -0.165 A  
HETATM   17  C   UNL     1     -10.594   5.588  70.748  1.00  0.00    -0.320 A  
HETATM   18  C   UNL     1     -11.654   6.490  70.667  1.00  0.00    -0.442 A  
HETATM   19  C   UNL     1     -11.399   7.858  70.603  1.00  0.00    -0.267 A  
HETATM   20  C   UNL     1     -10.085   8.325  70.625  1.00  0.00    -0.212 A  
ENDBRANCH  14  15
ENDBRANCH  13  14
ENDBRANCH   4  10
ENDBRANCH   3   4
ENDBRANCH   2   3
TORSDOF 6
ENDMDL
